# generated using pymatgen
data_CsAlH24(SO10)2
_symmetry_space_group_name_H-M   'P 1'
_cell_length_a   13.87885595
_cell_length_b   13.87885595
_cell_length_c   13.87885595
_cell_angle_alpha   90.00000000
_cell_angle_beta   90.00000000
_cell_angle_gamma   90.00000000
_symmetry_Int_Tables_number   1
_chemical_formula_structural   CsAlH24(SO10)2
_chemical_formula_sum   'Cs4 Al4 H96 S8 O80'
_cell_volume   2673.38190770
_cell_formula_units_Z   4
loop_
 _symmetry_equiv_pos_site_id
 _symmetry_equiv_pos_as_xyz
  1  'x, y, z'
loop_
 _atom_site_type_symbol
 _atom_site_label
 _atom_site_symmetry_multiplicity
 _atom_site_fract_x
 _atom_site_fract_y
 _atom_site_fract_z
 _atom_site_occupancy
  Cs  Cs0  1  0.000000  0.000000  0.500000  1
  Cs  Cs1  1  0.000000  0.500000  0.000000  1
  Cs  Cs2  1  0.500000  0.000000  0.000000  1
  Cs  Cs3  1  0.500000  0.500000  0.500000  1
  Al  Al4  1  0.500000  0.500000  0.000000  1
  Al  Al5  1  0.500000  0.000000  0.500000  1
  Al  Al6  1  0.000000  0.500000  0.500000  1
  Al  Al7  1  0.000000  0.000000  0.000000  1
  H  H8  1  0.332027  0.117955  0.235525  1
  H  H9  1  0.667973  0.617955  0.264475  1
  H  H10  1  0.167973  0.882045  0.735525  1
  H  H11  1  0.832027  0.382045  0.764475  1
  H  H12  1  0.235525  0.332027  0.117955  1
  H  H13  1  0.264475  0.667973  0.617955  1
  H  H14  1  0.735525  0.167973  0.882045  1
  H  H15  1  0.764475  0.832027  0.382045  1
  H  H16  1  0.117955  0.235525  0.332027  1
  H  H17  1  0.617955  0.264475  0.667973  1
  H  H18  1  0.882045  0.735525  0.167973  1
  H  H19  1  0.382045  0.764475  0.832027  1
  H  H20  1  0.667973  0.882045  0.764475  1
  H  H21  1  0.332027  0.382045  0.735525  1
  H  H22  1  0.832027  0.117955  0.264475  1
  H  H23  1  0.167973  0.617955  0.235525  1
  H  H24  1  0.764475  0.667973  0.882045  1
  H  H25  1  0.735525  0.332027  0.382045  1
  H  H26  1  0.264475  0.832027  0.117955  1
  H  H27  1  0.235525  0.167973  0.617955  1
  H  H28  1  0.882045  0.764475  0.667973  1
  H  H29  1  0.382045  0.735525  0.332027  1
  H  H30  1  0.117955  0.264475  0.832027  1
  H  H31  1  0.617955  0.235525  0.167973  1
  H  H32  1  0.509162  0.241479  0.194487  1
  H  H33  1  0.490838  0.741479  0.305513  1
  H  H34  1  0.990838  0.758521  0.694487  1
  H  H35  1  0.009162  0.258521  0.805513  1
  H  H36  1  0.194487  0.509162  0.241479  1
  H  H37  1  0.305513  0.490838  0.741479  1
  H  H38  1  0.694487  0.990838  0.758521  1
  H  H39  1  0.805513  0.009162  0.258521  1
  H  H40  1  0.241479  0.194487  0.509162  1
  H  H41  1  0.741479  0.305513  0.490838  1
  H  H42  1  0.758521  0.694487  0.990838  1
  H  H43  1  0.258521  0.805513  0.009162  1
  H  H44  1  0.490838  0.758521  0.805513  1
  H  H45  1  0.509162  0.258521  0.694487  1
  H  H46  1  0.009162  0.241479  0.305513  1
  H  H47  1  0.990838  0.741479  0.194487  1
  H  H48  1  0.805513  0.490838  0.758521  1
  H  H49  1  0.694487  0.509162  0.258521  1
  H  H50  1  0.305513  0.009162  0.241479  1
  H  H51  1  0.194487  0.990838  0.741479  1
  H  H52  1  0.758521  0.805513  0.490838  1
  H  H53  1  0.258521  0.694487  0.509162  1
  H  H54  1  0.241479  0.305513  0.009162  1
  H  H55  1  0.741479  0.194487  0.990838  1
  H  H56  1  0.159113  0.185368  0.066684  1
  H  H57  1  0.840887  0.685368  0.433316  1
  H  H58  1  0.340887  0.814632  0.566684  1
  H  H59  1  0.659113  0.314632  0.933316  1
  H  H60  1  0.066684  0.159113  0.185368  1
  H  H61  1  0.433316  0.840887  0.685368  1
  H  H62  1  0.566684  0.340887  0.814632  1
  H  H63  1  0.933316  0.659113  0.314632  1
  H  H64  1  0.185368  0.066684  0.159113  1
  H  H65  1  0.685368  0.433316  0.840887  1
  H  H66  1  0.814632  0.566684  0.340887  1
  H  H67  1  0.314632  0.933316  0.659113  1
  H  H68  1  0.840887  0.814632  0.933316  1
  H  H69  1  0.159113  0.314632  0.566684  1
  H  H70  1  0.659113  0.185368  0.433316  1
  H  H71  1  0.340887  0.685368  0.066684  1
  H  H72  1  0.933316  0.840887  0.814632  1
  H  H73  1  0.566684  0.159113  0.314632  1
  H  H74  1  0.433316  0.659113  0.185368  1
  H  H75  1  0.066684  0.340887  0.685368  1
  H  H76  1  0.814632  0.933316  0.840887  1
  H  H77  1  0.314632  0.566684  0.159113  1
  H  H78  1  0.185368  0.433316  0.659113  1
  H  H79  1  0.685368  0.066684  0.340887  1
  H  H80  1  0.152790  0.037566  0.190684  1
  H  H81  1  0.847210  0.537566  0.309316  1
  H  H82  1  0.347210  0.962434  0.690684  1
  H  H83  1  0.652790  0.462434  0.809316  1
  H  H84  1  0.190684  0.152790  0.037566  1
  H  H85  1  0.309316  0.847210  0.537566  1
  H  H86  1  0.690684  0.347210  0.962434  1
  H  H87  1  0.809316  0.652790  0.462434  1
  H  H88  1  0.037566  0.190684  0.152790  1
  H  H89  1  0.537566  0.309316  0.847210  1
  H  H90  1  0.962434  0.690684  0.347210  1
  H  H91  1  0.462434  0.809316  0.652790  1
  H  H92  1  0.847210  0.962434  0.809316  1
  H  H93  1  0.152790  0.462434  0.690684  1
  H  H94  1  0.652790  0.037566  0.309316  1
  H  H95  1  0.347210  0.537566  0.190684  1
  H  H96  1  0.809316  0.847210  0.962434  1
  H  H97  1  0.690684  0.152790  0.462434  1
  H  H98  1  0.309316  0.652790  0.037566  1
  H  H99  1  0.190684  0.347210  0.537566  1
  H  H100  1  0.962434  0.809316  0.847210  1
  H  H101  1  0.462434  0.690684  0.152790  1
  H  H102  1  0.037566  0.309316  0.652790  1
  H  H103  1  0.537566  0.190684  0.347210  1
  S  S104  1  0.176698  0.823302  0.323302  1
  S  S105  1  0.823302  0.323302  0.176698  1
  S  S106  1  0.323302  0.176698  0.823302  1
  S  S107  1  0.676698  0.676698  0.676698  1
  S  S108  1  0.823302  0.176698  0.676698  1
  S  S109  1  0.176698  0.676698  0.823302  1
  S  S110  1  0.676698  0.823302  0.176698  1
  S  S111  1  0.323302  0.323302  0.323302  1
  O  O112  1  0.237994  0.762006  0.262006  1
  O  O113  1  0.762006  0.262006  0.237994  1
  O  O114  1  0.262006  0.237994  0.762006  1
  O  O115  1  0.737994  0.737994  0.737994  1
  O  O116  1  0.762006  0.237994  0.737994  1
  O  O117  1  0.237994  0.737994  0.762006  1
  O  O118  1  0.737994  0.762006  0.237994  1
  O  O119  1  0.262006  0.262006  0.262006  1
  O  O120  1  0.072613  0.803788  0.307099  1
  O  O121  1  0.927387  0.303788  0.192901  1
  O  O122  1  0.427387  0.196212  0.807099  1
  O  O123  1  0.572613  0.696212  0.692901  1
  O  O124  1  0.307099  0.072613  0.803788  1
  O  O125  1  0.192901  0.927387  0.303788  1
  O  O126  1  0.807099  0.427387  0.196212  1
  O  O127  1  0.692901  0.572613  0.696212  1
  O  O128  1  0.803788  0.307099  0.072613  1
  O  O129  1  0.303788  0.192901  0.927387  1
  O  O130  1  0.196212  0.807099  0.427387  1
  O  O131  1  0.696212  0.692901  0.572613  1
  O  O132  1  0.927387  0.196212  0.692901  1
  O  O133  1  0.072613  0.696212  0.807099  1
  O  O134  1  0.572613  0.803788  0.192901  1
  O  O135  1  0.427387  0.303788  0.307099  1
  O  O136  1  0.692901  0.927387  0.196212  1
  O  O137  1  0.807099  0.072613  0.696212  1
  O  O138  1  0.192901  0.572613  0.803788  1
  O  O139  1  0.307099  0.427387  0.303788  1
  O  O140  1  0.196212  0.692901  0.927387  1
  O  O141  1  0.696212  0.807099  0.072613  1
  O  O142  1  0.803788  0.192901  0.572613  1
  O  O143  1  0.303788  0.307099  0.427387  1
  O  O144  1  0.218879  0.355792  0.053520  1
  O  O145  1  0.781121  0.855792  0.446480  1
  O  O146  1  0.281121  0.644208  0.553520  1
  O  O147  1  0.718879  0.144208  0.946480  1
  O  O148  1  0.053520  0.218879  0.355792  1
  O  O149  1  0.446480  0.781121  0.855792  1
  O  O150  1  0.553520  0.281121  0.644208  1
  O  O151  1  0.946480  0.718879  0.144208  1
  O  O152  1  0.355792  0.053520  0.218879  1
  O  O153  1  0.855792  0.446480  0.781121  1
  O  O154  1  0.644208  0.553520  0.281121  1
  O  O155  1  0.144208  0.946480  0.718879  1
  O  O156  1  0.781121  0.644208  0.946480  1
  O  O157  1  0.218879  0.144208  0.553520  1
  O  O158  1  0.718879  0.355792  0.446480  1
  O  O159  1  0.281121  0.855792  0.053520  1
  O  O160  1  0.946480  0.781121  0.644208  1
  O  O161  1  0.553520  0.218879  0.144208  1
  O  O162  1  0.446480  0.718879  0.355792  1
  O  O163  1  0.053520  0.281121  0.855792  1
  O  O164  1  0.644208  0.946480  0.781121  1
  O  O165  1  0.144208  0.553520  0.218879  1
  O  O166  1  0.355792  0.446480  0.718879  1
  O  O167  1  0.855792  0.053520  0.281121  1
  O  O168  1  0.502644  0.633935  0.991054  1
  O  O169  1  0.497356  0.133935  0.508946  1
  O  O170  1  -0.002644  0.366065  0.491054  1
  O  O171  1  0.002644  0.866065  0.008946  1
  O  O172  1  0.991054  0.502644  0.633935  1
  O  O173  1  0.508946  0.497356  0.133935  1
  O  O174  1  0.491054  -0.002644  0.366065  1
  O  O175  1  0.008946  0.002644  0.866065  1
  O  O176  1  0.633935  0.991054  0.502644  1
  O  O177  1  0.133935  0.508946  0.497356  1
  O  O178  1  0.366065  0.491054  -0.002644  1
  O  O179  1  0.866065  0.008946  0.002644  1
  O  O180  1  0.497356  0.366065  0.008946  1
  O  O181  1  0.502644  0.866065  0.491054  1
  O  O182  1  0.002644  0.633935  0.508946  1
  O  O183  1  -0.002644  0.133935  0.991054  1
  O  O184  1  0.008946  0.497356  0.366065  1
  O  O185  1  0.491054  0.502644  0.866065  1
  O  O186  1  0.508946  0.002644  0.633935  1
  O  O187  1  0.991054  -0.002644  0.133935  1
  O  O188  1  0.366065  0.008946  0.497356  1
  O  O189  1  0.866065  0.491054  0.502644  1
  O  O190  1  0.633935  0.508946  0.002644  1
  O  O191  1  0.133935  0.991054  -0.002644  1
