# generated using pymatgen
data_LiCoSiO4
_symmetry_space_group_name_H-M   'P 1'
_cell_length_a   6.31082151
_cell_length_b   8.91140809
_cell_length_c   4.86086895
_cell_angle_alpha   90.00000000
_cell_angle_beta   91.72377102
_cell_angle_gamma   90.00000000
_symmetry_Int_Tables_number   1
_chemical_formula_structural   LiCoSiO4
_chemical_formula_sum   'Li4 Co4 Si4 O16'
_cell_volume   273.24332676
_cell_formula_units_Z   4
loop_
 _symmetry_equiv_pos_site_id
 _symmetry_equiv_pos_as_xyz
  1  'x, y, z'
loop_
 _atom_site_type_symbol
 _atom_site_label
 _atom_site_symmetry_multiplicity
 _atom_site_fract_x
 _atom_site_fract_y
 _atom_site_fract_z
 _atom_site_occupancy
  Li  Li0  1  0.240211  0.162927  0.530760  1
  Li  Li1  1  0.259789  0.662927  0.969240  1
  Li  Li2  1  0.740211  0.337073  0.030760  1
  Li  Li3  1  0.759789  0.837073  0.469240  1
  Co  Co4  1  0.000000  0.500000  0.500000  1
  Co  Co5  1  0.000000  0.000000  0.000000  1
  Co  Co6  1  0.500000  0.500000  0.500000  1
  Co  Co7  1  0.500000  0.000000  0.000000  1
  Si  Si8  1  0.239503  0.321718  0.032594  1
  Si  Si9  1  0.260497  0.821718  0.467406  1
  Si  Si10  1  0.739503  0.178282  0.532594  1
  Si  Si11  1  0.760497  0.678282  0.967406  1
  O  O12  1  0.029400  0.385126  0.183419  1
  O  O13  1  0.042776  0.883861  0.312403  1
  O  O14  1  0.242163  0.370267  0.707270  1
  O  O15  1  0.240243  0.136504  0.101323  1
  O  O16  1  0.259757  0.636504  0.398677  1
  O  O17  1  0.257837  0.870267  0.792730  1
  O  O18  1  0.457224  0.383861  0.187597  1
  O  O19  1  0.470600  0.885126  0.316581  1
  O  O20  1  0.529400  0.114874  0.683419  1
  O  O21  1  0.542776  0.616139  0.812403  1
  O  O22  1  0.742163  0.129733  0.207270  1
  O  O23  1  0.740243  0.363496  0.601323  1
  O  O24  1  0.759757  0.863496  0.898677  1
  O  O25  1  0.757837  0.629733  0.292730  1
  O  O26  1  0.957224  0.116139  0.687597  1
  O  O27  1  0.970600  0.614874  0.816581  1
