# generated using pymatgen
data_Li4Ti3Fe5O16
_symmetry_space_group_name_H-M   'P 1'
_cell_length_a   5.86348428
_cell_length_b   5.90600820
_cell_length_c   9.60798572
_cell_angle_alpha   90.02065517
_cell_angle_beta   89.64424483
_cell_angle_gamma   120.60456539
_symmetry_Int_Tables_number   1
_chemical_formula_structural   Li4Ti3Fe5O16
_chemical_formula_sum   'Li4 Ti3 Fe5 O16'
_cell_volume   286.36769942
_cell_formula_units_Z   1
loop_
 _symmetry_equiv_pos_site_id
 _symmetry_equiv_pos_as_xyz
  1  'x, y, z'
loop_
 _atom_site_type_symbol
 _atom_site_label
 _atom_site_symmetry_multiplicity
 _atom_site_fract_x
 _atom_site_fract_y
 _atom_site_fract_z
 _atom_site_occupancy
  Li  Li0  1  0.338626  0.665308  0.891685  1
  Li  Li1  1  0.986777  0.994421  0.996469  1
  Li  Li2  1  0.990770  0.991012  0.496478  1
  Li  Li3  1  0.669836  0.335347  0.396899  1
  Ti  Ti4  1  0.173271  0.833168  0.214734  1
  Ti  Ti5  1  0.173838  0.341014  0.216776  1
  Ti  Ti6  1  0.340785  0.178276  0.714739  1
  Fe  Fe7  1  0.338652  0.676115  0.492532  1
  Fe  Fe8  1  0.657842  0.829716  0.212373  1
  Fe  Fe9  1  0.676551  0.340936  0.992105  1
  Fe  Fe10  1  0.830810  0.657985  0.713031  1
  Fe  Fe11  1  0.830951  0.168274  0.713986  1
  O  O12  1  0.164937  0.840912  0.602021  1
  O  O13  1  0.038082  0.519731  0.334715  1
  O  O14  1  0.324261  0.662175  0.102352  1
  O  O15  1  0.998289  0.999069  0.309686  1
  O  O16  1  0.004508  -0.006817  0.811211  1
  O  O17  1  0.157950  0.323778  0.601791  1
  O  O18  1  0.481080  0.963940  0.336252  1
  O  O19  1  0.479460  0.517651  0.336849  1
  O  O20  1  0.327735  0.163487  0.100592  1
  O  O21  1  0.672485  0.830667  0.604259  1
  O  O22  1  0.516720  0.476476  0.837266  1
  O  O23  1  0.527396  0.038768  0.835007  1
  O  O24  1  0.659052  0.332903  0.602379  1
  O  O25  1  0.837766  0.675619  0.103716  1
  O  O26  1  0.963858  0.486873  0.834449  1
  O  O27  1  0.837713  0.163495  0.103484  1
