# generated using pymatgen
data_Li3Ti4MnO12
_symmetry_space_group_name_H-M   'P 1'
_cell_length_a   5.45675238
_cell_length_b   10.91135081
_cell_length_c   9.68384452
_cell_angle_alpha   27.46962821
_cell_angle_beta   49.95706670
_cell_angle_gamma   55.25270529
_symmetry_Int_Tables_number   1
_chemical_formula_structural   Li3Ti4MnO12
_chemical_formula_sum   'Li3 Ti4 Mn1 O12'
_cell_volume   203.61184015
_cell_formula_units_Z   1
loop_
 _symmetry_equiv_pos_site_id
 _symmetry_equiv_pos_as_xyz
  1  'x, y, z'
loop_
 _atom_site_type_symbol
 _atom_site_label
 _atom_site_symmetry_multiplicity
 _atom_site_fract_x
 _atom_site_fract_y
 _atom_site_fract_z
 _atom_site_occupancy
  Li  Li0  1  0.272726  0.499720  0.291225  1
  Li  Li1  1  0.798810  0.997391  0.781865  1
  Li  Li2  1  0.775658  0.498325  0.782462  1
  Ti  Ti3  1  0.021455  0.006689  0.980012  1
  Ti  Ti4  1  0.970639  0.491753  0.018177  1
  Ti  Ti5  1  0.504177  0.986928  0.521185  1
  Ti  Ti6  1  0.502480  0.520217  0.469946  1
  Mn  Mn7  1  0.310125  0.000610  0.298840  1
  O  O8  1  0.359942  0.291490  0.117338  1
  O  O9  1  0.223526  0.121824  0.614869  1
  O  O10  1  0.108258  0.321130  0.723008  1
  O  O11  1  0.900277  0.174275  0.230271  1
  O  O12  1  0.362294  0.808373  0.111076  1
  O  O13  1  0.729269  0.375461  0.364183  1
  O  O14  1  0.231539  0.667495  0.568481  1
  O  O15  1  0.568510  0.177905  0.892924  1
  O  O16  1  0.123160  0.824628  0.704088  1
  O  O17  1  0.856859  0.694655  0.223298  1
  O  O18  1  0.699592  0.877729  0.359373  1
  O  O19  1  0.610303  0.663402  0.876978  1
