# generated using pymatgen
data_KLiSb3O8
_symmetry_space_group_name_H-M   'P 1'
_cell_length_a   7.64739162
_cell_length_b   6.48632972
_cell_length_c   7.69557259
_cell_angle_alpha   101.49313007
_cell_angle_beta   93.96040589
_cell_angle_gamma   77.37970714
_symmetry_Int_Tables_number   1
_chemical_formula_structural   KLiSb3O8
_chemical_formula_sum   'K2 Li2 Sb6 O16'
_cell_volume   364.90523228
_cell_formula_units_Z   2
loop_
 _symmetry_equiv_pos_site_id
 _symmetry_equiv_pos_as_xyz
  1  'x, y, z'
loop_
 _atom_site_type_symbol
 _atom_site_label
 _atom_site_symmetry_multiplicity
 _atom_site_fract_x
 _atom_site_fract_y
 _atom_site_fract_z
 _atom_site_occupancy
  K  K0  1  0.971415  0.810041  0.000197  1
  K  K1  1  0.986373  0.308778  0.024456  1
  Li  Li2  1  0.780527  0.440398  0.506122  1
  Li  Li3  1  0.524961  0.813020  0.778009  1
  Sb  Sb4  1  0.815666  0.920217  0.491809  1
  Sb  Sb5  1  0.486187  0.171095  0.166373  1
  Sb  Sb6  1  0.491849  0.667489  0.172148  1
  Sb  Sb7  1  0.523101  0.315902  0.804607  1
  Sb  Sb8  1  0.178960  0.093123  0.525020  1
  Sb  Sb9  1  0.180546  0.583136  0.522451  1
  O  O10  1  0.961146  0.080663  0.369406  1
  O  O11  1  0.971274  0.633359  0.354699  1
  O  O12  1  0.648821  0.930921  0.276810  1
  O  O13  1  0.606714  0.393952  0.294607  1
  O  O14  1  0.344905  0.958177  0.064298  1
  O  O15  1  0.348105  0.406999  0.025794  1
  O  O16  1  0.711908  0.218698  0.625800  1
  O  O17  1  0.717185  0.749423  0.614827  1
  O  O18  1  0.283424  0.275515  0.372156  1
  O  O19  1  0.296340  0.783044  0.411653  1
  O  O20  1  0.647666  0.100818  0.955682  1
  O  O21  1  0.645505  0.545677  0.941935  1
  O  O22  1  0.380789  0.092457  0.698560  1
  O  O23  1  0.380853  0.565078  0.699650  1
  O  O24  1  0.053843  0.903548  0.660507  1
  O  O25  1  0.061933  0.398070  0.642423  1
