# generated using pymatgen
data_Li4V3P8O29
_symmetry_space_group_name_H-M   'P 1'
_cell_length_a   9.75752589
_cell_length_b   9.78506673
_cell_length_c   14.10735478
_cell_angle_alpha   89.80986322
_cell_angle_beta   90.09256912
_cell_angle_gamma   59.94005479
_symmetry_Int_Tables_number   1
_chemical_formula_structural   Li4V3P8O29
_chemical_formula_sum   'Li8 V6 P16 O58'
_cell_volume   1165.76648755
_cell_formula_units_Z   2
loop_
 _symmetry_equiv_pos_site_id
 _symmetry_equiv_pos_as_xyz
  1  'x, y, z'
loop_
 _atom_site_type_symbol
 _atom_site_label
 _atom_site_symmetry_multiplicity
 _atom_site_fract_x
 _atom_site_fract_y
 _atom_site_fract_z
 _atom_site_occupancy
  Li  Li0  1  0.765622  0.903237  0.555705  1
  Li  Li1  1  0.768046  0.323902  0.061527  1
  Li  Li2  1  0.316626  0.906198  0.057172  1
  Li  Li3  1  0.328269  0.764410  0.559366  1
  Li  Li4  1  0.694446  0.080616  0.942073  1
  Li  Li5  1  0.230742  0.100498  0.440252  1
  Li  Li6  1  0.091462  0.227113  0.939152  1
  Li  Li7  1  0.945738  0.047228  0.490372  1
  V  V8  1  0.562519  0.433532  0.258062  1
  V  V9  1  0.433479  0.563152  0.750320  1
  V  V10  1  0.571101  0.997895  0.751405  1
  V  V11  1  0.434257  0.999692  0.247010  1
  V  V12  1  0.003696  0.567185  0.249359  1
  V  V13  1  0.993417  0.442678  0.744130  1
  P  P14  1  0.920780  0.767157  0.848820  1
  P  P15  1  0.776523  0.910916  0.340762  1
  P  P16  1  0.917836  0.306233  0.338245  1
  P  P17  1  0.668108  0.659279  0.131922  1
  P  P18  1  0.662038  0.670304  0.628699  1
  P  P19  1  0.771068  0.317601  0.841848  1
  P  P20  1  0.694222  0.222817  0.657589  1
  P  P21  1  0.320389  0.908423  0.838887  1
  P  P22  1  0.681080  0.092511  0.160176  1
  P  P23  1  0.312468  0.775199  0.344539  1
  P  P24  1  0.227093  0.686706  0.161428  1
  P  P25  1  0.328695  0.333677  0.371012  1
  P  P26  1  0.333255  0.330166  0.868847  1
  P  P27  1  0.081263  0.697209  0.660437  1
  P  P28  1  0.226703  0.090656  0.659363  1
  P  P29  1  0.085761  0.233238  0.153940  1
  O  O30  1  0.991001  0.796041  0.577715  1
  O  O31  1  0.917612  0.739815  0.329316  1
  O  O32  1  0.751553  0.014106  0.069314  1
  O  O33  1  0.750585  0.913656  0.841463  1
  O  O34  1  0.908956  0.617372  0.820229  1
  O  O35  1  0.815384  0.655819  0.180766  1
  O  O36  1  0.926574  0.458261  0.332088  1
  O  O37  1  0.997079  0.247934  0.063686  1
  O  O38  1  0.917248  0.339161  0.839789  1
  O  O39  1  0.675944  0.812424  0.666713  1
  O  O40  1  0.619489  0.912689  0.329959  1
  O  O41  1  0.808372  0.517840  0.676236  1
  O  O42  1  0.677626  0.647804  0.026898  1
  O  O43  1  0.662810  0.664772  0.523550  1
  O  O44  1  0.666343  0.511377  0.175676  1
  O  O45  1  0.481315  0.899380  0.821471  1
  O  O46  1  0.515678  0.812837  0.167076  1
  O  O47  1  0.742873  0.344007  0.335825  1
  O  O48  1  0.791176  0.203239  0.755738  1
  O  O49  1  0.793602  0.205397  0.574914  1
  O  O50  1  0.756145  0.246338  0.932785  1
  O  O51  1  0.618991  0.478735  0.820707  1
  O  O52  1  0.507898  0.677210  0.670054  1
  O  O53  1  0.659000  0.261109  0.165333  1
  O  O54  1  0.472696  0.618908  0.329048  1
  O  O55  1  0.340410  0.917785  0.333967  1
  O  O56  1  0.792988  0.003436  0.250061  1
  O  O57  1  0.795293  0.980752  0.430301  1
  O  O58  1  0.219112  0.009820  0.570751  1
  O  O59  1  0.658069  0.084512  0.663075  1
  O  O60  1  0.538051  0.383825  0.669771  1
  O  O61  1  0.343232  0.740521  0.832953  1
  O  O62  1  0.481384  0.329963  0.326115  1
  O  O63  1  0.381963  0.527340  0.180926  1
  O  O64  1  0.235339  0.772772  0.077738  1
  O  O65  1  0.236538  0.781637  0.436691  1
  O  O66  1  0.201186  0.790314  0.257218  1
  O  O67  1  0.256541  0.660037  0.660175  1
  O  O68  1  0.488359  0.182614  0.831604  1
  O  O69  1  0.519390  0.102039  0.180468  1
  O  O70  1  0.339140  0.475357  0.818648  1
  O  O71  1  0.331552  0.336654  0.973787  1
  O  O72  1  0.327015  0.343911  0.475616  1
  O  O73  1  0.187406  0.482817  0.321781  1
  O  O74  1  0.381816  0.090725  0.672206  1
  O  O75  1  0.322565  0.186808  0.333851  1
  O  O76  1  0.085600  0.656860  0.163875  1
  O  O77  1  0.008123  0.790840  0.756600  1
  O  O78  1  0.008093  0.750519  0.936399  1
  O  O79  1  0.081394  0.537188  0.670237  1
  O  O80  1  0.184201  0.331577  0.825740  1
  O  O81  1  0.098145  0.380552  0.175173  1
  O  O82  1  0.252248  0.083524  0.154868  1
  O  O83  1  0.244365  0.995399  0.928460  1
  O  O84  1  0.205972  0.000552  0.750474  1
  O  O85  1  0.083709  0.260856  0.667664  1
  O  O86  1  0.005938  0.195215  0.418084  1
  O  O87  1  0.990274  0.211437  0.239851  1
