# generated using pymatgen
data_Na4Ni7O16
_symmetry_space_group_name_H-M   'P 1'
_cell_length_a   7.51376485
_cell_length_b   7.14160980
_cell_length_c   7.09733960
_cell_angle_alpha   63.50405293
_cell_angle_beta   77.42331036
_cell_angle_gamma   68.71668727
_symmetry_Int_Tables_number   1
_chemical_formula_structural   Na4Ni7O16
_chemical_formula_sum   'Na4 Ni7 O16'
_cell_volume   316.88552531
_cell_formula_units_Z   1
loop_
 _symmetry_equiv_pos_site_id
 _symmetry_equiv_pos_as_xyz
  1  'x, y, z'
loop_
 _atom_site_type_symbol
 _atom_site_label
 _atom_site_symmetry_multiplicity
 _atom_site_fract_x
 _atom_site_fract_y
 _atom_site_fract_z
 _atom_site_occupancy
  Na  Na0  1  0.331487  0.540205  0.962682  1
  Na  Na1  1  0.813306  0.103183  0.401794  1
  Na  Na2  1  0.880793  0.367413  0.617723  1
  Na  Na3  1  0.897301  0.652374  0.837676  1
  Ni  Ni4  1  0.003019  0.995658  0.999378  1
  Ni  Ni5  1  0.124721  0.628437  0.375999  1
  Ni  Ni6  1  0.256576  0.244915  0.747417  1
  Ni  Ni7  1  0.372916  0.880106  0.127830  1
  Ni  Ni8  1  0.495529  0.505362  0.499169  1
  Ni  Ni9  1  0.624985  0.124163  0.875328  1
  Ni  Ni10  1  0.746792  0.755571  0.250005  1
  O  O11  1  0.020517  0.277526  0.894148  1
  O  O12  1  0.006392  0.696361  0.132907  1
  O  O13  1  0.171886  0.327857  0.489451  1
  O  O14  1  0.371319  0.174414  0.994740  1
  O  O15  1  0.118644  0.928096  0.243571  1
  O  O16  1  0.236871  0.545898  0.627733  1
  O  O17  1  0.376579  0.586823  0.252702  1
  O  O18  1  0.514996  0.203282  0.625968  1
  O  O19  1  0.747917  0.053270  0.115513  1
  O  O20  1  0.259719  0.944338  0.883701  1
  O  O21  1  0.492934  0.803376  0.371096  1
  O  O22  1  0.588112  0.425058  0.753328  1
  O  O23  1  0.728064  0.475547  0.348101  1
  O  O24  1  0.879567  0.028482  0.777874  1
  O  O25  1  0.625708  0.828620  0.008352  1
  O  O26  1  0.870358  0.714714  0.474068  1
