# generated using pymatgen
data_NdHS3O11
_symmetry_space_group_name_H-M   'P 1'
_cell_length_a   8.68111778
_cell_length_b   10.72068954
_cell_length_c   9.78376449
_cell_angle_alpha   90.00000000
_cell_angle_beta   99.24453452
_cell_angle_gamma   90.00000000
_symmetry_Int_Tables_number   1
_chemical_formula_structural   NdHS3O11
_chemical_formula_sum   'Nd4 H4 S12 O44'
_cell_volume   898.72465612
_cell_formula_units_Z   4
loop_
 _symmetry_equiv_pos_site_id
 _symmetry_equiv_pos_as_xyz
  1  'x, y, z'
loop_
 _atom_site_type_symbol
 _atom_site_label
 _atom_site_symmetry_multiplicity
 _atom_site_fract_x
 _atom_site_fract_y
 _atom_site_fract_z
 _atom_site_occupancy
  Nd  Nd0  1  0.015154  0.172318  0.773536  1
  Nd  Nd1  1  0.484846  0.672318  0.726464  1
  Nd  Nd2  1  0.515154  0.327682  0.273536  1
  Nd  Nd3  1  0.984846  0.827682  0.226464  1
  H  H4  1  0.063661  0.423190  0.329099  1
  H  H5  1  0.436339  0.923190  0.170901  1
  H  H6  1  0.563661  0.076810  0.829099  1
  H  H7  1  0.936339  0.576810  0.670901  1
  S  S8  1  0.148870  0.689763  0.916494  1
  S  S9  1  0.277653  0.440128  0.923785  1
  S  S10  1  0.222347  0.940128  0.576215  1
  S  S11  1  0.240292  0.560846  0.392137  1
  S  S12  1  0.259708  0.060846  0.107863  1
  S  S13  1  0.351130  0.189763  0.583506  1
  S  S14  1  0.648870  0.810237  0.416494  1
  S  S15  1  0.740292  0.939154  0.892137  1
  S  S16  1  0.759708  0.439154  0.607863  1
  S  S17  1  0.777653  0.059872  0.423785  1
  S  S18  1  0.722347  0.559872  0.076215  1
  S  S19  1  0.851130  0.310237  0.083506  1
  O  O20  1  0.011111  0.651182  0.821957  1
  O  O21  1  0.135997  0.368219  0.880121  1
  O  O22  1  0.191973  0.098190  0.967301  1
  O  O23  1  0.150873  0.985906  0.691468  1
  O  O24  1  0.113788  0.882018  0.466118  1
  O  O25  1  0.114619  0.463030  0.417584  1
  O  O26  1  0.223019  0.236350  0.650251  1
  O  O27  1  0.162189  0.664089  0.311173  1
  O  O28  1  0.147032  0.000585  0.183386  1
  O  O29  1  0.119965  0.769577  0.029122  1
  O  O30  1  0.276981  0.736350  0.849749  1
  O  O31  1  0.278923  0.063498  0.496284  1
  O  O32  1  0.349127  0.485906  0.808532  1
  O  O33  1  0.308027  0.598190  0.532699  1
  O  O34  1  0.221077  0.563498  0.003716  1
  O  O35  1  0.364002  0.868219  0.619879  1
  O  O36  1  0.380035  0.269577  0.470878  1
  O  O37  1  0.352968  0.500585  0.316614  1
  O  O38  1  0.337811  0.164089  0.188827  1
  O  O39  1  0.488889  0.151182  0.678043  1
  O  O40  1  0.385381  0.963030  0.082416  1
  O  O41  1  0.386212  0.382018  0.033882  1
  O  O42  1  0.613788  0.617982  0.966118  1
  O  O43  1  0.614619  0.036970  0.917584  1
  O  O44  1  0.511111  0.848818  0.321957  1
  O  O45  1  0.662189  0.835911  0.811173  1
  O  O46  1  0.647032  0.499415  0.683386  1
  O  O47  1  0.619965  0.730423  0.529122  1
  O  O48  1  0.635998  0.131781  0.380121  1
  O  O49  1  0.778923  0.436502  0.996284  1
  O  O50  1  0.691973  0.401810  0.467301  1
  O  O51  1  0.650873  0.514094  0.191468  1
  O  O52  1  0.721077  0.936502  0.503716  1
  O  O53  1  0.723019  0.263650  0.150251  1
  O  O54  1  0.880035  0.230423  0.970878  1
  O  O55  1  0.852968  0.999415  0.816614  1
  O  O56  1  0.837811  0.335911  0.688827  1
  O  O57  1  0.776981  0.763650  0.349749  1
  O  O58  1  0.885381  0.536970  0.582416  1
  O  O59  1  0.886212  0.117982  0.533882  1
  O  O60  1  0.849127  0.014094  0.308532  1
  O  O61  1  0.808027  0.901810  0.032699  1
  O  O62  1  0.864002  0.631781  0.119879  1
  O  O63  1  0.988889  0.348818  0.178043  1
