# generated using pymatgen
data_Mn21O40
_symmetry_space_group_name_H-M   'P 1'
_cell_length_a   10.16631120
_cell_length_b   8.35299682
_cell_length_c   10.16480530
_cell_angle_alpha   65.74237516
_cell_angle_beta   80.29503450
_cell_angle_gamma   65.74114886
_symmetry_Int_Tables_number   1
_chemical_formula_structural   Mn21O40
_chemical_formula_sum   'Mn21 O40'
_cell_volume   717.48283350
_cell_formula_units_Z   1
loop_
 _symmetry_equiv_pos_site_id
 _symmetry_equiv_pos_as_xyz
  1  'x, y, z'
loop_
 _atom_site_type_symbol
 _atom_site_label
 _atom_site_symmetry_multiplicity
 _atom_site_fract_x
 _atom_site_fract_y
 _atom_site_fract_z
 _atom_site_occupancy
  Mn  Mn0  1  0.901301  0.897342  0.805091  1
  Mn  Mn1  1  0.699654  0.200171  0.898721  1
  Mn  Mn2  1  0.799573  0.303380  0.601400  1
  Mn  Mn3  1  0.900394  0.404427  0.298656  1
  Mn  Mn4  1  0.850001  0.975005  0.450004  1
  Mn  Mn5  1  0.698652  0.696939  0.399616  1
  Mn  Mn6  1  0.798681  0.303693  0.094910  1
  Mn  Mn7  1  0.595881  0.100916  0.703058  1
  Mn  Mn8  1  0.596911  0.103253  0.195870  1
  Mn  Mn9  1  0.494937  0.001365  0.501324  1
  Mn  Mn10  1  0.398741  0.900006  0.800548  1
  Mn  Mn11  1  0.200578  0.699465  0.901243  1
  Mn  Mn12  1  0.499447  0.501260  0.998748  1
  Mn  Mn13  1  0.401246  0.900178  0.299635  1
  Mn  Mn14  1  0.298766  0.301055  0.600364  1
  Mn  Mn15  1  0.205085  0.697590  0.398669  1
  Mn  Mn16  1  0.103075  0.596050  0.704139  1
  Mn  Mn17  1  0.301258  0.799297  0.099459  1
  Mn  Mn18  1  0.104132  0.099806  0.196949  1
  Mn  Mn19  1  0.001354  0.495192  0.500381  1
  Mn  Mn20  1  0.000353  0.498553  0.001269  1
  O  O21  1  0.919064  0.653860  0.806408  1
  O  O22  1  0.881865  0.145446  0.795190  1
  O  O23  1  0.981817  0.275626  0.493951  1
  O  O24  1  0.806001  0.542686  0.581760  1
  O  O25  1  0.893977  0.630458  0.318196  1
  O  O26  1  0.705569  0.972115  0.883179  1
  O  O27  1  0.994463  0.260856  0.016831  1
  O  O28  1  0.906353  0.171648  0.280509  1
  O  O29  1  0.793681  0.058428  0.619521  1
  O  O30  1  0.693263  0.429638  0.915459  1
  O  O31  1  0.617309  0.322088  0.706598  1
  O  O32  1  0.818151  0.522482  0.104849  1
  O  O33  1  0.718168  0.451457  0.406014  1
  O  O34  1  0.780907  0.079359  0.093593  1
  O  O35  1  0.482194  0.745858  0.993501  1
  O  O36  1  0.680528  0.947780  0.393637  1
  O  O37  1  0.580592  0.879096  0.693719  1
  O  O38  1  0.393506  0.660627  0.817817  1
  O  O39  1  0.606223  0.340357  0.180587  1
  O  O40  1  0.493594  0.227081  0.519098  1
  O  O41  1  0.403924  0.140150  0.783623  1
  O  O42  1  0.504846  0.772643  0.481839  1
  O  O43  1  0.593439  0.860561  0.217332  1
  O  O44  1  0.217791  0.921531  0.906551  1
  O  O45  1  0.516374  0.255886  0.003987  1
  O  O46  1  0.416825  0.122306  0.305547  1
  O  O47  1  0.315447  0.054931  0.606738  1
  O  O48  1  0.283198  0.544671  0.594433  1
  O  O49  1  0.183619  0.476239  0.895981  1
  O  O50  1  0.384553  0.677130  0.293224  1
  O  O51  1  0.306486  0.571979  0.082205  1
  O  O52  1  0.106555  0.371380  0.682684  1
  O  O53  1  0.296064  0.027698  0.116340  1
  O  O54  1  0.206387  0.939792  0.380892  1
  O  O55  1  0.195217  0.459315  0.418165  1
  O  O56  1  0.093754  0.827129  0.719397  1
  O  O57  1  0.006691  0.738404  0.984494  1
  O  O58  1  0.019505  0.721955  0.506425  1
  O  O59  1  0.119389  0.853440  0.206239  1
  O  O60  1  0.082691  0.345967  0.193431  1
