# generated using pymatgen
data_Li5Mn2(PO4)3
_symmetry_space_group_name_H-M   'P 1'
_cell_length_a   8.99869919
_cell_length_b   8.94775280
_cell_length_c   12.50761020
_cell_angle_alpha   89.35433284
_cell_angle_beta   86.64414226
_cell_angle_gamma   89.80005264
_symmetry_Int_Tables_number   1
_chemical_formula_structural   Li5Mn2(PO4)3
_chemical_formula_sum   'Li20 Mn8 P12 O48'
_cell_volume   1005.29464832
_cell_formula_units_Z   4
loop_
 _symmetry_equiv_pos_site_id
 _symmetry_equiv_pos_as_xyz
  1  'x, y, z'
loop_
 _atom_site_type_symbol
 _atom_site_label
 _atom_site_symmetry_multiplicity
 _atom_site_fract_x
 _atom_site_fract_y
 _atom_site_fract_z
 _atom_site_occupancy
  Li  Li0  1  0.948734  0.518986  0.346872  1
  Li  Li1  1  0.914714  0.034099  0.686449  1
  Li  Li2  1  0.839596  0.725852  0.770479  1
  Li  Li3  1  0.801403  0.779588  0.174257  1
  Li  Li4  1  0.716258  0.279010  0.339463  1
  Li  Li5  1  0.664324  0.228453  0.729948  1
  Li  Li6  1  0.591678  0.531782  0.809486  1
  Li  Li7  1  0.583970  0.255390  0.188117  1
  Li  Li8  1  0.538257  0.967842  0.173832  1
  Li  Li9  1  0.468332  0.020804  0.835714  1
  Li  Li10  1  0.421992  0.750762  0.811876  1
  Li  Li11  1  0.403417  0.459332  0.199680  1
  Li  Li12  1  0.342445  0.772143  0.266923  1
  Li  Li13  1  0.334140  0.730555  0.627428  1
  Li  Li14  1  0.217536  0.202972  0.848891  1
  Li  Li15  1  0.154504  0.590671  0.741890  1
  Li  Li16  1  0.138724  0.277730  0.239083  1
  Li  Li17  1  0.057843  0.910930  0.305264  1
  Li  Li18  1  0.085460  0.239853  0.696746  1
  Li  Li19  1  0.959277  0.490536  0.661929  1
  Mn  Mn20  1  0.764702  0.039003  0.907890  1
  Mn  Mn21  1  0.713707  0.558712  0.580188  1
  Mn  Mn22  1  0.739924  0.948916  0.395959  1
  Mn  Mn23  1  0.774099  0.469751  0.097296  1
  Mn  Mn24  1  0.267881  0.523576  0.931980  1
  Mn  Mn25  1  0.258010  0.038600  0.591675  1
  Mn  Mn26  1  0.254861  0.448419  0.412858  1
  Mn  Mn27  1  0.239115  0.964547  0.094516  1
  P  P28  1  0.941312  0.250474  0.490899  1
  P  P29  1  0.900584  0.380312  0.844769  1
  P  P30  1  0.894433  0.099457  0.159863  1
  P  P31  1  0.603770  0.883245  0.653842  1
  P  P32  1  0.594641  0.598266  0.328262  1
  P  P33  1  0.552358  0.750047  0.004355  1
  P  P34  1  0.465857  0.243041  0.996197  1
  P  P35  1  0.392646  0.407786  0.670078  1
  P  P36  1  0.395916  0.118661  0.339945  1
  P  P37  1  0.110245  0.913068  0.834958  1
  P  P38  1  0.098665  0.621019  0.155904  1
  P  P39  1  0.043902  0.746948  0.511594  1
  O  O40  1  0.955039  0.859107  0.446653  1
  O  O41  1  0.939038  0.885782  0.844503  1
  O  O42  1  0.949855  0.688156  0.615021  1
  O  O43  1  0.930741  0.598523  0.192963  1
  O  O44  1  0.879465  0.381326  0.562011  1
  O  O45  1  0.890713  0.381340  0.965802  1
  O  O46  1  0.860291  0.223962  0.799027  1
  O  O47  1  0.866999  0.974135  0.247155  1
  O  O48  1  0.817969  0.249661  0.194251  1
  O  O49  1  0.808997  0.167493  0.447213  1
  O  O50  1  0.807204  0.504909  0.791734  1
  O  O51  1  0.822033  0.038787  0.060717  1
  O  O52  1  0.697234  0.006170  0.704596  1
  O  O53  1  0.680566  0.537840  0.423721  1
  O  O54  1  0.640688  0.724044  0.702563  1
  O  O55  1  0.699499  0.691511  0.045917  1
  O  O56  1  0.620254  0.872485  0.532594  1
  O  O57  1  0.649147  0.756137  0.293899  1
  O  O58  1  0.623812  0.476035  0.240809  1
  O  O59  1  0.580679  0.880458  0.920795  1
  O  O60  1  0.562831  0.193953  0.894027  1
  O  O61  1  0.565631  0.396334  0.661261  1
  O  O62  1  0.566429  0.103767  0.303883  1
  O  O63  1  0.542491  0.364463  0.060095  1
  O  O64  1  0.476200  0.629473  0.935582  1
  O  O65  1  0.435592  0.910023  0.692673  1
  O  O66  1  0.421886  0.603451  0.347692  1
  O  O67  1  0.445048  0.800388  0.099364  1
  O  O68  1  0.435122  0.108770  0.073893  1
  O  O69  1  0.358484  0.528846  0.760053  1
  O  O70  1  0.322505  0.255034  0.701265  1
  O  O71  1  0.373503  0.120080  0.461795  1
  O  O72  1  0.315599  0.302516  0.956614  1
  O  O73  1  0.345871  0.274596  0.294969  1
  O  O74  1  0.324158  0.478959  0.570943  1
  O  O75  1  0.313560  0.989235  0.286225  1
  O  O76  1  0.183304  0.981132  0.932095  1
  O  O77  1  0.188917  0.495168  0.209044  1
  O  O78  1  0.187087  0.819536  0.551299  1
  O  O79  1  0.193455  0.767418  0.802345  1
  O  O80  1  0.131830  0.036862  0.745388  1
  O  O81  1  0.148242  0.777066  0.196574  1
  O  O82  1  0.119629  0.619712  0.033248  1
  O  O83  1  0.086289  0.613357  0.438415  1
  O  O84  1  0.065167  0.409518  0.795146  1
  O  O85  1  0.043012  0.314716  0.395552  1
  O  O86  1  0.066136  0.120874  0.147051  1
  O  O87  1  0.031859  0.149669  0.566605  1
