# generated using pymatgen
data_RbLi2B3Sb2O9
_symmetry_space_group_name_H-M   'P 1'
_cell_length_a   6.38121066
_cell_length_b   5.62402602
_cell_length_c   13.13650803
_cell_angle_alpha   90.00000000
_cell_angle_beta   92.42598698
_cell_angle_gamma   90.00000000
_symmetry_Int_Tables_number   1
_chemical_formula_structural   RbLi2B3Sb2O9
_chemical_formula_sum   'Rb2 Li4 B6 Sb4 O18'
_cell_volume   471.02170604
_cell_formula_units_Z   2
loop_
 _symmetry_equiv_pos_site_id
 _symmetry_equiv_pos_as_xyz
  1  'x, y, z'
loop_
 _atom_site_type_symbol
 _atom_site_label
 _atom_site_symmetry_multiplicity
 _atom_site_fract_x
 _atom_site_fract_y
 _atom_site_fract_z
 _atom_site_occupancy
  Rb  Rb0  1  0.000000  0.215131  0.750000  1
  Rb  Rb1  1  0.000000  0.784869  0.250000  1
  Li  Li2  1  0.514061  0.114707  0.855727  1
  Li  Li3  1  0.485939  0.114707  0.644273  1
  Li  Li4  1  0.514061  0.885293  0.355727  1
  Li  Li5  1  0.485939  0.885293  0.144273  1
  B  B6  1  0.171699  0.837860  0.972248  1
  B  B7  1  0.171699  0.162140  0.472248  1
  B  B8  1  0.500000  0.609778  0.750000  1
  B  B9  1  0.500000  0.390222  0.250000  1
  B  B10  1  0.828301  0.837860  0.527752  1
  B  B11  1  0.828301  0.162140  0.027752  1
  Sb  Sb12  1  0.270023  0.632137  0.538681  1
  Sb  Sb13  1  0.270023  0.367863  0.038681  1
  Sb  Sb14  1  0.729977  0.632137  0.961319  1
  Sb  Sb15  1  0.729977  0.367863  0.461319  1
  O  O16  1  0.022163  0.702550  0.914180  1
  O  O17  1  0.022163  0.297450  0.414180  1
  O  O18  1  0.252999  0.041575  0.933181  1
  O  O19  1  0.252999  0.958425  0.433181  1
  O  O20  1  0.240110  0.247756  0.566891  1
  O  O21  1  0.240110  0.752244  0.066891  1
  O  O22  1  0.396792  0.755682  0.674458  1
  O  O23  1  0.396792  0.244318  0.174458  1
  O  O24  1  0.500000  0.370722  0.750000  1
  O  O25  1  0.500000  0.629278  0.250000  1
  O  O26  1  0.603208  0.755682  0.825542  1
  O  O27  1  0.603208  0.244318  0.325542  1
  O  O28  1  0.759890  0.247756  0.933109  1
  O  O29  1  0.759890  0.752244  0.433109  1
  O  O30  1  0.747001  0.041575  0.566819  1
  O  O31  1  0.747001  0.958425  0.066819  1
  O  O32  1  0.977837  0.702550  0.585820  1
  O  O33  1  0.977837  0.297450  0.085820  1
