# generated using pymatgen
data_KPH2O3
_symmetry_space_group_name_H-M   'P 1'
_cell_length_a   7.98162049
_cell_length_b   8.72055293
_cell_length_c   12.77499268
_cell_angle_alpha   90.00000000
_cell_angle_beta   98.95582540
_cell_angle_gamma   90.00000000
_symmetry_Int_Tables_number   1
_chemical_formula_structural   KPH2O3
_chemical_formula_sum   'K8 P8 H16 O24'
_cell_volume   878.35197988
_cell_formula_units_Z   8
loop_
 _symmetry_equiv_pos_site_id
 _symmetry_equiv_pos_as_xyz
  1  'x, y, z'
loop_
 _atom_site_type_symbol
 _atom_site_label
 _atom_site_symmetry_multiplicity
 _atom_site_fract_x
 _atom_site_fract_y
 _atom_site_fract_z
 _atom_site_occupancy
  K  K0  1  0.969021  0.549332  0.740536  1
  K  K1  1  0.030979  0.049332  0.759464  1
  K  K2  1  0.030979  0.450668  0.259464  1
  K  K3  1  0.969021  0.950668  0.240536  1
  K  K4  1  0.469112  0.275932  0.983659  1
  K  K5  1  0.530888  0.775932  0.516341  1
  K  K6  1  0.530888  0.724068  0.016341  1
  K  K7  1  0.469112  0.224068  0.483659  1
  P  P8  1  0.548413  0.500534  0.756635  1
  P  P9  1  0.451587  0.000534  0.743365  1
  P  P10  1  0.451587  0.499466  0.243365  1
  P  P11  1  0.548413  0.999466  0.256635  1
  P  P12  1  0.952808  0.307449  0.988081  1
  P  P13  1  0.047192  0.807449  0.511919  1
  P  P14  1  0.047192  0.692551  0.011919  1
  P  P15  1  0.952808  0.192551  0.488081  1
  H  H16  1  0.639221  0.659808  0.310954  1
  H  H17  1  0.360779  0.159808  0.189046  1
  H  H18  1  0.360779  0.340192  0.689046  1
  H  H19  1  0.639221  0.840192  0.810954  1
  H  H20  1  0.145631  0.406697  0.504460  1
  H  H21  1  0.854369  0.906697  0.995540  1
  H  H22  1  0.854369  0.593303  0.495540  1
  H  H23  1  0.145631  0.093303  0.004460  1
  H  H24  1  0.662912  0.375543  0.773628  1
  H  H25  1  0.337088  0.875543  0.726372  1
  H  H26  1  0.337088  0.624457  0.226372  1
  H  H27  1  0.662912  0.124457  0.273628  1
  H  H28  1  0.831557  0.511126  0.505060  1
  H  H29  1  0.168443  0.011126  0.994940  1
  H  H30  1  0.168443  0.488874  0.494940  1
  H  H31  1  0.831557  0.988874  0.005060  1
  O  O32  1  0.634265  0.634658  0.710844  1
  O  O33  1  0.365735  0.134658  0.789156  1
  O  O34  1  0.365735  0.365342  0.289156  1
  O  O35  1  0.634265  0.865342  0.210844  1
  O  O36  1  0.469271  0.520774  0.855367  1
  O  O37  1  0.530729  0.020774  0.644633  1
  O  O38  1  0.530729  0.479226  0.144633  1
  O  O39  1  0.469271  0.979226  0.355367  1
  O  O40  1  0.406001  0.434308  0.661061  1
  O  O41  1  0.593999  0.934308  0.838939  1
  O  O42  1  0.593999  0.565692  0.338939  1
  O  O43  1  0.406001  0.065692  0.161061  1
  O  O44  1  0.817387  0.241184  0.043976  1
  O  O45  1  0.182613  0.741184  0.456024  1
  O  O46  1  0.182613  0.758816  0.956024  1
  O  O47  1  0.817387  0.258816  0.543976  1
  O  O48  1  0.940170  0.293149  0.870854  1
  O  O49  1  0.059830  0.793149  0.629146  1
  O  O50  1  0.059830  0.706851  0.129146  1
  O  O51  1  0.940170  0.206851  0.370854  1
  O  O52  1  0.109714  0.374541  0.052520  1
  O  O53  1  0.890286  0.874541  0.447480  1
  O  O54  1  0.890286  0.625459  0.947480  1
  O  O55  1  0.109714  0.125459  0.552520  1
