# generated using pymatgen
data_LiFeSiO4
_symmetry_space_group_name_H-M   'P 1'
_cell_length_a   8.76513561
_cell_length_b   8.76519419
_cell_length_c   8.15492788
_cell_angle_alpha   90.00905003
_cell_angle_beta   89.98922627
_cell_angle_gamma   119.99971839
_symmetry_Int_Tables_number   1
_chemical_formula_structural   LiFeSiO4
_chemical_formula_sum   'Li6 Fe6 Si6 O24'
_cell_volume   542.59047031
_cell_formula_units_Z   6
loop_
 _symmetry_equiv_pos_site_id
 _symmetry_equiv_pos_as_xyz
  1  'x, y, z'
loop_
 _atom_site_type_symbol
 _atom_site_label
 _atom_site_symmetry_multiplicity
 _atom_site_fract_x
 _atom_site_fract_y
 _atom_site_fract_z
 _atom_site_occupancy
  Li  Li0  1  0.333323  0.666667  0.252966  1
  Li  Li1  1  0.333335  0.666662  0.661642  1
  Li  Li2  1  -0.000012  -0.000013  0.068374  1
  Li  Li3  1  -0.000005  -0.000008  0.568371  1
  Li  Li4  1  0.666645  0.333329  0.752977  1
  Li  Li5  1  0.666664  0.333330  0.161649  1
  Fe  Fe6  1  0.044070  0.686376  0.007447  1
  Fe  Fe7  1  0.313649  0.357695  0.007465  1
  Fe  Fe8  1  0.642258  0.955909  0.007431  1
  Fe  Fe9  1  0.357687  0.044053  0.507455  1
  Fe  Fe10  1  0.686363  0.642281  0.507431  1
  Fe  Fe11  1  0.955935  0.313663  0.507460  1
  Si  Si12  1  0.041312  0.688433  0.395868  1
  Si  Si13  1  0.311969  0.352993  0.395926  1
  Si  Si14  1  0.646738  0.958649  0.396012  1
  Si  Si15  1  0.352880  0.041135  0.895827  1
  Si  Si16  1  0.688317  0.646921  0.895944  1
  Si  Si17  1  0.958836  0.312037  0.896012  1
  O  O18  1  0.110480  0.875071  0.495936  1
  O  O19  1  0.147210  0.732677  0.219277  1
  O  O20  1  0.239548  0.826269  0.868162  1
  O  O21  1  0.099128  0.561750  0.497166  1
  O  O22  1  0.462925  0.900940  0.497009  1
  O  O23  1  0.124730  0.235344  0.496031  1
  O  O24  1  0.173765  0.413286  0.868141  1
  O  O25  1  0.267284  0.414553  0.219170  1
  O  O26  1  0.235368  0.110553  0.995991  1
  O  O27  1  0.585467  0.852785  0.219176  1
  O  O28  1  0.586636  0.760545  0.868133  1
  O  O29  1  0.438119  0.537230  0.497075  1
  O  O30  1  0.561848  0.462742  0.997085  1
  O  O31  1  0.413242  0.239589  0.368147  1
  O  O32  1  0.414533  0.147229  0.719263  1
  O  O33  1  0.764655  0.889477  0.495974  1
  O  O34  1  0.732667  0.585465  0.719228  1
  O  O35  1  0.826154  0.586671  0.368153  1
  O  O36  1  0.875082  0.764607  0.995929  1
  O  O37  1  0.537351  0.099121  0.997145  1
  O  O38  1  0.900917  0.438021  0.997012  1
  O  O39  1  0.760566  0.173911  0.368113  1
  O  O40  1  0.852750  0.267305  0.719143  1
  O  O41  1  0.889410  0.124748  0.996026  1
