# generated using pymatgen
data_NaH4CNO2
_symmetry_space_group_name_H-M   'P 1'
_cell_length_a   6.03734709
_cell_length_b   10.61974004
_cell_length_c   6.64338636
_cell_angle_alpha   90.00000000
_cell_angle_beta   102.32737744
_cell_angle_gamma   90.00000000
_symmetry_Int_Tables_number   1
_chemical_formula_structural   NaH4CNO2
_chemical_formula_sum   'Na4 H16 C4 N4 O8'
_cell_volume   416.12045432
_cell_formula_units_Z   4
loop_
 _symmetry_equiv_pos_site_id
 _symmetry_equiv_pos_as_xyz
  1  'x, y, z'
loop_
 _atom_site_type_symbol
 _atom_site_label
 _atom_site_symmetry_multiplicity
 _atom_site_fract_x
 _atom_site_fract_y
 _atom_site_fract_z
 _atom_site_occupancy
  Na  Na0  1  0.001970  0.328197  0.434993  1
  Na  Na1  1  0.998030  0.828197  0.065007  1
  Na  Na2  1  0.998030  0.671803  0.565007  1
  Na  Na3  1  0.001970  0.171803  0.934993  1
  H  H4  1  0.716356  0.116836  0.219444  1
  H  H5  1  0.283644  0.616836  0.280556  1
  H  H6  1  0.283644  0.883164  0.780556  1
  H  H7  1  0.716356  0.383164  0.719444  1
  H  H8  1  0.603818  0.245473  0.138831  1
  H  H9  1  0.396182  0.745473  0.361169  1
  H  H10  1  0.396182  0.754527  0.861169  1
  H  H11  1  0.603818  0.254527  0.638831  1
  H  H12  1  0.354821  0.006251  0.195091  1
  H  H13  1  0.645179  0.506251  0.304909  1
  H  H14  1  0.645179  0.993749  0.804909  1
  H  H15  1  0.354821  0.493749  0.695091  1
  H  H16  1  0.176718  0.049073  0.318310  1
  H  H17  1  0.823282  0.549073  0.181690  1
  H  H18  1  0.823282  0.950927  0.681690  1
  H  H19  1  0.176718  0.450927  0.818310  1
  C  C20  1  0.322972  0.434681  0.200992  1
  C  C21  1  0.677028  0.934681  0.299008  1
  C  C22  1  0.677028  0.565319  0.799008  1
  C  C23  1  0.322972  0.065319  0.700992  1
  N  N24  1  0.233485  0.343683  0.118383  1
  N  N25  1  0.766515  0.843683  0.381617  1
  N  N26  1  0.766515  0.656317  0.881617  1
  N  N27  1  0.233485  0.156317  0.618383  1
  O  O28  1  0.750753  0.203342  0.177307  1
  O  O29  1  0.249247  0.703342  0.322693  1
  O  O30  1  0.249247  0.796658  0.822693  1
  O  O31  1  0.750753  0.296658  0.677307  1
  O  O32  1  0.190518  0.020389  0.181919  1
  O  O33  1  0.809482  0.520389  0.318081  1
  O  O34  1  0.809482  0.979611  0.818081  1
  O  O35  1  0.190518  0.479611  0.681919  1
