# generated using pymatgen
data_Li32Ti3Cr13O48
_symmetry_space_group_name_H-M   'P 1'
_cell_length_a   5.05906385
_cell_length_b   8.72076810
_cell_length_c   19.54091525
_cell_angle_alpha   98.44984210
_cell_angle_beta   95.00606047
_cell_angle_gamma   90.09194389
_symmetry_Int_Tables_number   1
_chemical_formula_structural   Li32Ti3Cr13O48
_chemical_formula_sum   'Li32 Ti3 Cr13 O48'
_cell_volume   849.42171084
_cell_formula_units_Z   1
loop_
 _symmetry_equiv_pos_site_id
 _symmetry_equiv_pos_as_xyz
  1  'x, y, z'
loop_
 _atom_site_type_symbol
 _atom_site_label
 _atom_site_symmetry_multiplicity
 _atom_site_fract_x
 _atom_site_fract_y
 _atom_site_fract_z
 _atom_site_occupancy
  Li  Li0  1  0.990935  0.169316  0.249145  1
  Li  Li1  1  0.872843  0.374997  0.375617  1
  Li  Li2  1  0.747171  0.250658  0.999813  1
  Li  Li3  1  0.742736  0.919097  0.999755  1
  Li  Li4  1  0.994614  0.170929  0.750244  1
  Li  Li5  1  0.751790  0.578916  0.500284  1
  Li  Li6  1  0.875917  0.376043  0.875308  1
  Li  Li7  1  0.743033  0.252979  0.500250  1
  Li  Li8  1  0.746395  0.921680  0.500417  1
  Li  Li9  1  0.626842  0.126072  0.125148  1
  Li  Li10  1  0.760714  0.581831  0.000100  1
  Li  Li11  1  0.510391  0.333397  0.250134  1
  Li  Li12  1  0.625845  0.126110  0.625162  1
  Li  Li13  1  0.502151  0.999193  0.250383  1
  Li  Li14  1  0.485306  0.666760  0.249672  1
  Li  Li15  1  0.512910  0.331945  0.749702  1
  Li  Li16  1  0.374659  0.873735  0.374762  1
  Li  Li17  1  0.499360  0.999495  0.749595  1
  Li  Li18  1  0.250016  0.748162  0.000670  1
  Li  Li19  1  0.492414  0.668034  0.749543  1
  Li  Li20  1  0.243269  0.420981  0.000906  1
  Li  Li21  1  0.377603  0.874524  0.874260  1
  Li  Li22  1  0.253288  0.078397  0.499337  1
  Li  Li23  1  0.258062  0.746636  0.499818  1
  Li  Li24  1  0.127826  0.624360  0.124900  1
  Li  Li25  1  0.248098  0.422020  0.499893  1
  Li  Li26  1  0.008592  0.830775  0.250191  1
  Li  Li27  1  0.255431  0.080093  0.000616  1
  Li  Li28  1  0.127659  0.624710  0.624159  1
  Li  Li29  1  0.002622  0.499833  0.249250  1
  Li  Li30  1  0.005065  0.830211  0.751189  1
  Li  Li31  1  0.994237  0.500852  0.750722  1
  Ti  Ti32  1  0.873098  0.710833  0.373910  1
  Ti  Ti33  1  0.378350  0.539040  0.876775  1
  Ti  Ti34  1  0.128368  0.289271  0.626549  1
  Cr  Cr35  1  0.876294  0.047175  0.374957  1
  Cr  Cr36  1  0.878720  0.711800  0.875157  1
  Cr  Cr37  1  0.870976  0.046846  0.874148  1
  Cr  Cr38  1  0.622334  0.797358  0.124446  1
  Cr  Cr39  1  0.629756  0.462014  0.125639  1
  Cr  Cr40  1  0.622122  0.796925  0.624075  1
  Cr  Cr41  1  0.628729  0.461580  0.624976  1
  Cr  Cr42  1  0.372428  0.538155  0.374549  1
  Cr  Cr43  1  0.376620  0.202874  0.375531  1
  Cr  Cr44  1  0.371443  0.202630  0.874707  1
  Cr  Cr45  1  0.121426  0.953037  0.124366  1
  Cr  Cr46  1  0.130749  0.288485  0.125763  1
  Cr  Cr47  1  0.122461  0.952444  0.624654  1
  O  O48  1  0.964456  0.101907  0.068900  1
  O  O49  1  0.934613  0.787450  0.068691  1
  O  O50  1  0.921071  0.424776  0.068715  1
  O  O51  1  0.964644  0.103326  0.568806  1
  O  O52  1  0.815637  0.961326  0.181426  1
  O  O53  1  0.829076  0.321338  0.182548  1
  O  O54  1  0.934736  0.787495  0.568533  1
  O  O55  1  0.919581  0.428593  0.567634  1
  O  O56  1  0.781218  0.643734  0.180279  1
  O  O57  1  0.713052  0.859845  0.318304  1
  O  O58  1  0.816493  0.959706  0.681409  1
  O  O59  1  0.825633  0.321576  0.683760  1
  O  O60  1  0.674218  0.533399  0.318659  1
  O  O61  1  0.684149  0.174922  0.317641  1
  O  O62  1  0.782646  0.642030  0.679599  1
  O  O63  1  0.711971  0.860537  0.818658  1
  O  O64  1  0.465318  0.610294  0.068939  1
  O  O65  1  0.570173  0.713416  0.431216  1
  O  O66  1  0.566255  0.075501  0.432321  1
  O  O67  1  0.681004  0.537155  0.818892  1
  O  O68  1  0.682644  0.174810  0.817677  1
  O  O69  1  0.433231  0.925153  0.067460  1
  O  O70  1  0.421027  0.286991  0.069560  1
  O  O71  1  0.537105  0.389067  0.430809  1
  O  O72  1  0.462138  0.610731  0.568761  1
  O  O73  1  0.575763  0.717279  0.931321  1
  O  O74  1  0.564285  0.075192  0.932167  1
  O  O75  1  0.315918  0.826776  0.182231  1
  O  O76  1  0.328895  0.465425  0.181113  1
  O  O77  1  0.433449  0.924856  0.567446  1
  O  O78  1  0.430437  0.287041  0.568776  1
  O  O79  1  0.536847  0.390317  0.931907  1
  O  O80  1  0.283046  0.143495  0.180693  1
  O  O81  1  0.217217  0.357623  0.320120  1
  O  O82  1  0.315211  0.825127  0.681978  1
  O  O83  1  0.325590  0.467253  0.681348  1
  O  O84  1  0.174638  0.678265  0.316066  1
  O  O85  1  0.182936  0.039531  0.318173  1
  O  O86  1  0.287718  0.140227  0.681605  1
  O  O87  1  0.215935  0.353343  0.818821  1
  O  O88  1  0.080819  0.571658  0.432171  1
  O  O89  1  0.064653  0.212163  0.431082  1
  O  O90  1  0.169598  0.678592  0.817623  1
  O  O91  1  0.183647  0.037323  0.818733  1
  O  O92  1  0.035933  0.896950  0.431142  1
  O  O93  1  0.075650  0.571451  0.933842  1
  O  O94  1  0.065319  0.209743  0.931447  1
  O  O95  1  0.032738  0.892074  0.929845  1
