# generated using pymatgen
data_LiFe4(BO3)4
_symmetry_space_group_name_H-M   'P 1'
_cell_length_a   5.25212612
_cell_length_b   9.14993418
_cell_length_c   11.41173891
_cell_angle_alpha   66.64767236
_cell_angle_beta   76.88679563
_cell_angle_gamma   89.01086806
_symmetry_Int_Tables_number   1
_chemical_formula_structural   LiFe4(BO3)4
_chemical_formula_sum   'Li2 Fe8 B8 O24'
_cell_volume   488.73526519
_cell_formula_units_Z   2
loop_
 _symmetry_equiv_pos_site_id
 _symmetry_equiv_pos_as_xyz
  1  'x, y, z'
loop_
 _atom_site_type_symbol
 _atom_site_label
 _atom_site_symmetry_multiplicity
 _atom_site_fract_x
 _atom_site_fract_y
 _atom_site_fract_z
 _atom_site_occupancy
  Li  Li0  1  0.723120  0.726885  0.892204  1
  Li  Li1  1  0.739433  0.752669  0.155396  1
  Fe  Fe2  1  0.990246  0.649998  0.379718  1
  Fe  Fe3  1  0.736601  0.070552  0.875015  1
  Fe  Fe4  1  0.511461  0.849315  0.628977  1
  Fe  Fe5  1  0.762380  0.425781  0.131135  1
  Fe  Fe6  1  0.226570  0.557474  0.880900  1
  Fe  Fe7  1  0.480433  0.147439  0.377908  1
  Fe  Fe8  1  0.016363  0.351213  0.629437  1
  Fe  Fe9  1  0.268766  0.941423  0.122105  1
  B  B10  1  0.970767  0.313705  0.379971  1
  B  B11  1  0.731301  0.403249  0.871282  1
  B  B12  1  0.527034  0.186987  0.625434  1
  B  B13  1  0.763641  0.093886  0.135183  1
  B  B14  1  0.479000  0.817231  0.372894  1
  B  B15  1  0.229666  0.881795  0.884586  1
  B  B16  1  0.020621  0.684360  0.632591  1
  B  B17  1  0.266790  0.616821  0.119272  1
  O  O18  1  0.972001  0.880672  0.890270  1
  O  O19  1  0.883003  0.303227  0.825345  1
  O  O20  1  0.850547  0.503567  0.914332  1
  O  O21  1  0.848115  0.789861  0.649305  1
  O  O22  1  0.974422  0.585208  0.572038  1
  O  O23  1  0.760318  0.175409  0.665919  1
  O  O24  1  0.737151  0.325279  0.339360  1
  O  O25  1  0.471556  0.411162  0.875182  1
  O  O26  1  0.391615  0.782109  0.833417  1
  O  O27  1  0.522875  0.913507  0.435258  1
  O  O28  1  0.656202  0.714851  0.351255  1
  O  O29  1  0.359454  0.971595  0.931570  1
  O  O30  1  0.644067  0.992548  0.093124  1
  O  O31  1  0.360207  0.298739  0.631163  1
  O  O32  1  0.466857  0.074762  0.577648  1
  O  O33  1  0.613104  0.193561  0.181961  1
  O  O34  1  0.529691  0.621529  0.107930  1
  O  O35  1  0.248506  0.669166  0.678580  1
  O  O36  1  0.251482  0.830151  0.327053  1
  O  O37  1  0.030840  0.425345  0.428303  1
  O  O38  1  0.138524  0.202663  0.373271  1
  O  O39  1  0.137917  0.526390  0.073419  1
  O  O40  1  0.108280  0.713522  0.174110  1
  O  O41  1  0.023993  0.086874  0.130110  1
