# generated using pymatgen
data_Cu4OF6
_symmetry_space_group_name_H-M   'P 1'
_cell_length_a   7.66232817
_cell_length_b   7.30063194
_cell_length_c   5.51738207
_cell_angle_alpha   85.57278805
_cell_angle_beta   99.14046497
_cell_angle_gamma   121.52698683
_symmetry_Int_Tables_number   1
_chemical_formula_structural   Cu4OF6
_chemical_formula_sum   'Cu8 O2 F12'
_cell_volume   259.73711375
_cell_formula_units_Z   2
loop_
 _symmetry_equiv_pos_site_id
 _symmetry_equiv_pos_as_xyz
  1  'x, y, z'
loop_
 _atom_site_type_symbol
 _atom_site_label
 _atom_site_symmetry_multiplicity
 _atom_site_fract_x
 _atom_site_fract_y
 _atom_site_fract_z
 _atom_site_occupancy
  Cu  Cu0  1  0.139589  0.739148  0.507998  1
  Cu  Cu1  1  0.137756  0.360257  0.530129  1
  Cu  Cu2  1  0.308064  0.683027  0.990342  1
  Cu  Cu3  1  0.603747  0.858920  0.562835  1
  Cu  Cu4  1  0.393519  0.236885  0.006142  1
  Cu  Cu5  1  0.764406  0.635525  0.030084  1
  Cu  Cu6  1  0.624287  0.323908  0.486656  1
  Cu  Cu7  1  0.747803  0.141277  0.064938  1
  O  O8  1  0.330110  0.656657  0.653888  1
  O  O9  1  0.671897  0.340983  0.152076  1
  F  F10  1  0.162602  0.832900  0.863060  1
  F  F11  1  0.091714  0.496494  0.228231  1
  F  F12  1  0.155677  0.225498  0.833500  1
  F  F13  1  0.459033  0.906178  0.268748  1
  F  F14  1  0.472219  0.572412  0.150851  1
  F  F15  1  0.328327  0.177670  0.360008  1
  F  F16  1  0.768051  0.908345  0.897069  1
  F  F17  1  0.593639  0.504605  0.723673  1
  F  F18  1  0.557831  0.099013  0.766071  1
  F  F19  1  0.929038  0.773912  0.327730  1
  F  F20  1  0.901066  0.435581  0.643357  1
  F  F21  1  0.859624  0.090506  0.399534  1
