# generated using pymatgen
data_Li4MnFe3(BO3)4
_symmetry_space_group_name_H-M   'P 1'
_cell_length_a   5.25381338
_cell_length_b   5.22821477
_cell_length_c   20.86099616
_cell_angle_alpha   89.03816475
_cell_angle_beta   91.11459567
_cell_angle_gamma   59.80429268
_symmetry_Int_Tables_number   1
_chemical_formula_structural   Li4MnFe3(BO3)4
_chemical_formula_sum   'Li8 Mn2 Fe6 B8 O24'
_cell_volume   494.93290448
_cell_formula_units_Z   2
loop_
 _symmetry_equiv_pos_site_id
 _symmetry_equiv_pos_as_xyz
  1  'x, y, z'
loop_
 _atom_site_type_symbol
 _atom_site_label
 _atom_site_symmetry_multiplicity
 _atom_site_fract_x
 _atom_site_fract_y
 _atom_site_fract_z
 _atom_site_occupancy
  Li  Li0  1  0.329109  0.654931  0.666407  1
  Li  Li1  1  0.351716  0.666395  0.914089  1
  Li  Li2  1  0.325839  0.666392  0.166877  1
  Li  Li3  1  0.338651  0.676426  0.417768  1
  Li  Li4  1  0.641076  0.343283  0.790919  1
  Li  Li5  1  0.649254  0.367273  0.541997  1
  Li  Li6  1  0.653813  0.321282  0.293382  1
  Li  Li7  1  0.667671  0.348478  0.041607  1
  Mn  Mn8  1  0.335423  0.007453  0.058330  1
  Mn  Mn9  1  0.667746  -0.000229  0.432767  1
  Fe  Fe10  1  0.325970  0.020929  0.560328  1
  Fe  Fe11  1  0.687711  0.994747  0.933748  1
  Fe  Fe12  1  0.002087  0.317760  0.684935  1
  Fe  Fe13  1  0.993827  0.332446  0.183720  1
  Fe  Fe14  1  0.988852  0.667101  0.807910  1
  Fe  Fe15  1  -0.000039  0.659847  0.308760  1
  B  B16  1  0.010321  0.328113  0.935237  1
  B  B17  1  0.998271  0.334851  0.437082  1
  B  B18  1  0.329557  0.004519  0.811678  1
  B  B19  1  0.327270  0.993261  0.311147  1
  B  B20  1  0.669927  0.994906  0.687025  1
  B  B21  1  0.666491  0.006197  0.187440  1
  B  B22  1  0.986531  0.679649  0.563783  1
  B  B23  1  0.001010  0.668552  0.061920  1
  O  O24  1  0.064290  0.255572  0.791328  1
  O  O25  1  0.062423  0.244387  0.291825  1
  O  O26  1  0.266616  0.058444  0.950695  1
  O  O27  1  0.029317  0.574296  0.915878  1
  O  O28  1  0.249341  0.061304  0.452582  1
  O  O29  1  0.028534  0.574329  0.416892  1
  O  O30  1  0.577381  0.030305  0.825770  1
  O  O31  1  0.254627  0.666258  0.570879  1
  O  O32  1  0.576721  0.014691  0.325290  1
  O  O33  1  0.274419  0.643183  0.069547  1
  O  O34  1  0.343882  0.733982  0.818990  1
  O  O35  1  0.345649  0.720120  0.318608  1
  O  O36  1  0.647307  0.269861  0.692438  1
  O  O37  1  0.643023  0.280639  0.194244  1
  O  O38  1  0.737352  0.350781  0.941420  1
  O  O39  1  0.425005  0.974734  0.668769  1
  O  O40  1  0.723066  0.366256  0.443274  1
  O  O41  1  0.421894  0.987629  0.167442  1
  O  O42  1  0.963483  0.428141  0.578263  1
  O  O43  1  0.965511  0.426348  0.077217  1
  O  O44  1  0.735182  0.942143  0.542591  1
  O  O45  1  0.756861  0.934808  0.040019  1
  O  O46  1  0.941351  0.739298  0.701550  1
  O  O47  1  0.937480  0.749127  0.201835  1
