# generated using pymatgen
data_Li6V3P8O29
_symmetry_space_group_name_H-M   'P 1'
_cell_length_a   9.79717405
_cell_length_b   9.78630639
_cell_length_c   13.98649284
_cell_angle_alpha   90.65318940
_cell_angle_beta   90.21648777
_cell_angle_gamma   60.14256053
_symmetry_Int_Tables_number   1
_chemical_formula_structural   Li6V3P8O29
_chemical_formula_sum   'Li12 V6 P16 O58'
_cell_volume   1162.92556373
_cell_formula_units_Z   2
loop_
 _symmetry_equiv_pos_site_id
 _symmetry_equiv_pos_as_xyz
  1  'x, y, z'
loop_
 _atom_site_type_symbol
 _atom_site_label
 _atom_site_symmetry_multiplicity
 _atom_site_fract_x
 _atom_site_fract_y
 _atom_site_fract_z
 _atom_site_occupancy
  Li  Li0  1  0.909970  0.770476  0.056709  1
  Li  Li1  1  0.902988  0.333886  0.564630  1
  Li  Li2  1  0.668604  0.671205  0.885435  1
  Li  Li3  1  0.760446  0.329266  0.060944  1
  Li  Li4  1  0.316086  0.917046  0.058774  1
  Li  Li5  1  0.666025  0.232376  0.443520  1
  Li  Li6  1  0.333054  0.761061  0.562452  1
  Li  Li7  1  0.233662  0.667251  0.938824  1
  Li  Li8  1  0.094369  0.666474  0.440027  1
  Li  Li9  1  0.231865  0.093693  0.445343  1
  Li  Li10  1  0.970270  0.047525  0.985685  1
  Li  Li11  1  0.956401  0.987033  0.516302  1
  V  V12  1  0.566812  0.432119  0.250967  1
  V  V13  1  0.439694  0.559754  0.750174  1
  V  V14  1  0.564330  -0.000037  0.750070  1
  V  V15  1  0.441857  0.001119  0.249390  1
  V  V16  1  0.999418  0.563976  0.246012  1
  V  V17  1  0.003849  0.436555  0.749862  1
  P  P18  1  0.909233  0.781021  0.839176  1
  P  P19  1  0.780058  0.916517  0.341594  1
  P  P20  1  0.913201  0.316374  0.346214  1
  P  P21  1  0.665022  0.667413  0.128466  1
  P  P22  1  0.665988  0.665092  0.630997  1
  P  P23  1  0.780476  0.316401  0.843260  1
  P  P24  1  0.691643  0.220372  0.660257  1
  P  P25  1  0.311335  0.909479  0.845157  1
  P  P26  1  0.697350  0.081270  0.154874  1
  P  P27  1  0.314499  0.773951  0.341806  1
  P  P28  1  0.229728  0.682601  0.157207  1
  P  P29  1  0.333343  0.334260  0.368865  1
  P  P30  1  0.332912  0.334252  0.869923  1
  P  P31  1  0.088255  0.688755  0.654831  1
  P  P32  1  0.225745  0.082377  0.659137  1
  P  P33  1  0.082320  0.219516  0.159918  1
  O  O34  1  0.012747  0.779935  0.565377  1
  O  O35  1  0.919878  0.743988  0.337307  1
  O  O36  1  0.799008  0.996867  0.070467  1
  O  O37  1  0.744287  0.922710  0.839780  1
  O  O38  1  0.895021  0.629691  0.828585  1
  O  O39  1  0.810991  0.679015  0.164295  1
  O  O40  1  0.907413  0.473338  0.329023  1
  O  O41  1  0.987390  0.209972  0.078964  1
  O  O42  1  0.919804  0.344747  0.838609  1
  O  O43  1  0.667805  0.809191  0.679327  1
  O  O44  1  0.622845  0.917381  0.332195  1
  O  O45  1  0.812702  0.512065  0.670599  1
  O  O46  1  0.658238  0.671257  0.020895  1
  O  O47  1  0.660301  0.663161  0.524498  1
  O  O48  1  0.675871  0.513110  0.166785  1
  O  O49  1  0.474902  0.896741  0.835261  1
  O  O50  1  0.512330  0.813217  0.171635  1
  O  O51  1  0.745591  0.337032  0.342564  1
  O  O52  1  0.796663  0.205706  0.752748  1
  O  O53  1  0.785536  0.213247  0.571535  1
  O  O54  1  0.781583  0.233147  0.932938  1
  O  O55  1  0.627755  0.479483  0.831285  1
  O  O56  1  0.512232  0.671879  0.673173  1
  O  O57  1  0.661657  0.255230  0.159964  1
  O  O58  1  0.472454  0.619132  0.326197  1
  O  O59  1  0.338538  0.917350  0.342727  1
  O  O60  1  0.801435  0.000332  0.249054  1
  O  O61  1  0.793159  0.003873  0.426709  1
  O  O62  1  0.221176  0.992752  0.570649  1
  O  O63  1  0.660537  0.083658  0.661895  1
  O  O64  1  0.537981  0.380092  0.667669  1
  O  O65  1  0.336080  0.740249  0.841818  1
  O  O66  1  0.490980  0.321033  0.330816  1
  O  O67  1  0.380961  0.525305  0.172269  1
  O  O68  1  0.232230  0.767469  0.068366  1
  O  O69  1  0.229103  0.768520  0.430189  1
  O  O70  1  0.206225  0.794301  0.249173  1
  O  O71  1  0.257988  0.659345  0.660540  1
  O  O72  1  0.474289  0.185003  0.824596  1
  O  O73  1  0.542439  0.077646  0.164380  1
  O  O74  1  0.336273  0.483186  0.828926  1
  O  O75  1  0.324655  0.344319  0.975855  1
  O  O76  1  0.333131  0.328715  0.475343  1
  O  O77  1  0.190231  0.486184  0.327483  1
  O  O78  1  0.380256  0.084056  0.668065  1
  O  O79  1  0.327166  0.187079  0.323548  1
  O  O80  1  0.082669  0.661845  0.156717  1
  O  O81  1  0.999748  0.796537  0.747665  1
  O  O82  1  0.002670  0.774940  0.927542  1
  O  O83  1  0.081324  0.536371  0.662779  1
  O  O84  1  0.183793  0.342462  0.820941  1
  O  O85  1  0.077348  0.381263  0.170110  1
  O  O86  1  0.253646  0.083777  0.158227  1
  O  O87  1  0.219769  0.991909  0.933753  1
  O  O88  1  0.206592  0.997075  0.752460  1
  O  O89  1  0.081914  0.249722  0.658869  1
  O  O90  1  0.996908  0.234631  0.437064  1
  O  O91  1  0.008711  0.199356  0.258723  1
