# generated using pymatgen
data_Na2Ti3Fe(PO4)6
_symmetry_space_group_name_H-M   'P 1'
_cell_length_a   8.93107448
_cell_length_b   8.93107448
_cell_length_c   8.93107435
_cell_angle_alpha   56.97524259
_cell_angle_beta   56.97524263
_cell_angle_gamma   56.97524502
_symmetry_Int_Tables_number   1
_chemical_formula_structural   Na2Ti3Fe(PO4)6
_chemical_formula_sum   'Na2 Ti3 Fe1 P6 O24'
_cell_volume   468.59176398
_cell_formula_units_Z   1
loop_
 _symmetry_equiv_pos_site_id
 _symmetry_equiv_pos_as_xyz
  1  'x, y, z'
loop_
 _atom_site_type_symbol
 _atom_site_label
 _atom_site_symmetry_multiplicity
 _atom_site_fract_x
 _atom_site_fract_y
 _atom_site_fract_z
 _atom_site_occupancy
  Na  Na0  1  0.000167  0.000167  0.000167  1
  Na  Na1  1  0.497219  0.497219  0.497219  1
  Ti  Ti2  1  0.145049  0.145049  0.145049  1
  Ti  Ti3  1  0.646849  0.646849  0.646849  1
  Ti  Ti4  1  0.854458  0.854458  0.854458  1
  Fe  Fe5  1  0.352942  0.352942  0.352942  1
  P  P6  1  0.036640  0.749424  0.463689  1
  P  P7  1  0.537859  0.966603  0.246869  1
  P  P8  1  0.246869  0.537859  0.966603  1
  P  P9  1  0.749424  0.463689  0.036640  1
  P  P10  1  0.463689  0.036640  0.749424  1
  P  P11  1  0.966603  0.246869  0.537859  1
  O  O12  1  -0.005214  0.804179  0.623296  1
  O  O13  1  0.094363  0.904187  0.269007  1
  O  O14  1  0.094772  0.733355  0.899450  1
  O  O15  1  0.375928  0.001411  0.199810  1
  O  O16  1  0.490124  0.852582  0.744343  1
  O  O17  1  0.198328  0.553977  0.478427  1
  O  O18  1  0.535134  0.801581  0.441848  1
  O  O19  1  0.239984  0.522210  0.149149  1
  O  O20  1  0.199810  0.375928  0.001411  1
  O  O21  1  0.733355  0.899450  0.094772  1
  O  O22  1  0.149149  0.239984  0.522210  1
  O  O23  1  0.441848  0.535134  0.801581  1
  O  O24  1  0.553977  0.478427  0.198328  1
  O  O25  1  0.852582  0.744343  0.490124  1
  O  O26  1  0.269007  0.094363  0.904187  1
  O  O27  1  0.804179  0.623296  -0.005214  1
  O  O28  1  0.744343  0.490124  0.852582  1
  O  O29  1  0.478427  0.198328  0.553977  1
  O  O30  1  0.801581  0.441848  0.535134  1
  O  O31  1  0.522210  0.149149  0.239984  1
  O  O32  1  0.623296  -0.005214  0.804179  1
  O  O33  1  0.904187  0.269007  0.094363  1
  O  O34  1  0.899450  0.094772  0.733355  1
  O  O35  1  0.001411  0.199810  0.375928  1
