# generated using pymatgen
data_Li12Mn3VP4(CO7)4
_symmetry_space_group_name_H-M   'P 1'
_cell_length_a   8.52927439
_cell_length_b   10.00008483
_cell_length_c   6.62103019
_cell_angle_alpha   90.00000000
_cell_angle_beta   90.00000000
_cell_angle_gamma   85.44371192
_symmetry_Int_Tables_number   1
_chemical_formula_structural   Li12Mn3VP4(CO7)4
_chemical_formula_sum   'Li12 Mn3 V1 P4 C4 O28'
_cell_volume   562.94594603
_cell_formula_units_Z   1
loop_
 _symmetry_equiv_pos_site_id
 _symmetry_equiv_pos_as_xyz
  1  'x, y, z'
loop_
 _atom_site_type_symbol
 _atom_site_label
 _atom_site_symmetry_multiplicity
 _atom_site_fract_x
 _atom_site_fract_y
 _atom_site_fract_z
 _atom_site_occupancy
  Li  Li0  1  0.090654  0.379347  0.250000  1
  Li  Li1  1  0.092184  0.879692  0.250000  1
  Li  Li2  1  0.273300  0.122804  0.027270  1
  Li  Li3  1  0.273300  0.122804  0.472730  1
  Li  Li4  1  0.274364  0.623149  0.027128  1
  Li  Li5  1  0.274364  0.623149  0.472872  1
  Li  Li6  1  0.726483  0.377098  0.527738  1
  Li  Li7  1  0.726483  0.377098  0.972262  1
  Li  Li8  1  0.726066  0.876633  0.527000  1
  Li  Li9  1  0.726066  0.876633  0.973000  1
  Li  Li10  1  0.908630  0.120880  0.750000  1
  Li  Li11  1  0.908376  0.620950  0.750000  1
  Mn  Mn12  1  0.340613  0.389773  0.750000  1
  Mn  Mn13  1  0.340528  0.889726  0.750000  1
  Mn  Mn14  1  0.659428  0.109883  0.250000  1
  V  V15  1  0.668715  0.604048  0.250000  1
  P  P16  1  0.409332  0.360889  0.250000  1
  P  P17  1  0.411293  0.859123  0.250000  1
  P  P18  1  0.590051  0.139863  0.750000  1
  P  P19  1  0.589774  0.640129  0.750000  1
  C  C20  1  0.032884  0.352109  0.750000  1
  C  C21  1  0.032825  0.852088  0.750000  1
  C  C22  1  0.967035  0.147973  0.250000  1
  C  C23  1  0.965506  0.649174  0.250000  1
  O  O24  1  0.069795  0.475391  0.750000  1
  O  O25  1  0.112884  0.177509  0.250000  1
  O  O26  1  0.069791  0.975042  0.750000  1
  O  O27  1  0.144579  0.255239  0.750000  1
  O  O28  1  0.111256  0.676510  0.250000  1
  O  O29  1  0.144467  0.754919  0.750000  1
  O  O30  1  0.309670  0.414013  0.066080  1
  O  O31  1  0.309670  0.414013  0.433920  1
  O  O32  1  0.310633  0.912936  0.066545  1
  O  O33  1  0.310633  0.912936  0.433455  1
  O  O34  1  0.420440  0.094232  0.750000  1
  O  O35  1  0.424395  0.204003  0.250000  1
  O  O36  1  0.420358  0.594049  0.750000  1
  O  O37  1  0.427049  0.701992  0.250000  1
  O  O38  1  0.576251  0.297038  0.750000  1
  O  O39  1  0.578237  0.407860  0.250000  1
  O  O40  1  0.575993  0.797088  0.750000  1
  O  O41  1  0.579340  0.907430  0.250000  1
  O  O42  1  0.689499  0.086384  0.933828  1
  O  O43  1  0.689499  0.086384  0.566172  1
  O  O44  1  0.689652  0.586286  0.566811  1
  O  O45  1  0.689652  0.586286  0.933189  1
  O  O46  1  0.855365  0.245164  0.250000  1
  O  O47  1  0.887103  0.322748  0.750000  1
  O  O48  1  0.853541  0.745743  0.250000  1
  O  O49  1  0.930130  0.024963  0.250000  1
  O  O50  1  0.886966  0.822545  0.750000  1
  O  O51  1  0.924898  0.526285  0.250000  1
