# generated using pymatgen
data_Li6B3SbO9
_symmetry_space_group_name_H-M   'P 1'
_cell_length_a   7.29231927
_cell_length_b   16.71376260
_cell_length_c   6.77750714
_cell_angle_alpha   90.00000000
_cell_angle_beta   105.02923469
_cell_angle_gamma   90.00000000
_symmetry_Int_Tables_number   1
_chemical_formula_structural   Li6B3SbO9
_chemical_formula_sum   'Li24 B12 Sb4 O36'
_cell_volume   797.80036152
_cell_formula_units_Z   4
loop_
 _symmetry_equiv_pos_site_id
 _symmetry_equiv_pos_as_xyz
  1  'x, y, z'
loop_
 _atom_site_type_symbol
 _atom_site_label
 _atom_site_symmetry_multiplicity
 _atom_site_fract_x
 _atom_site_fract_y
 _atom_site_fract_z
 _atom_site_occupancy
  Li  Li0  1  0.071032  0.996949  0.677169  1
  Li  Li1  1  0.144622  0.549379  0.584973  1
  Li  Li2  1  0.071032  0.503051  0.177169  1
  Li  Li3  1  0.302362  0.462755  0.944266  1
  Li  Li4  1  0.144622  0.950621  0.084973  1
  Li  Li5  1  0.288288  0.707449  0.633300  1
  Li  Li6  1  0.302362  0.037245  0.444266  1
  Li  Li7  1  0.427609  0.295863  0.950287  1
  Li  Li8  1  0.455699  0.968900  0.830755  1
  Li  Li9  1  0.288288  0.792551  0.133300  1
  Li  Li10  1  0.427609  0.204137  0.450287  1
  Li  Li11  1  0.455699  0.531100  0.330755  1
  Li  Li12  1  0.544301  0.468900  0.669245  1
  Li  Li13  1  0.572391  0.795863  0.549713  1
  Li  Li14  1  0.711712  0.207449  0.866700  1
  Li  Li15  1  0.544301  0.031100  0.169245  1
  Li  Li16  1  0.572391  0.704137  0.049713  1
  Li  Li17  1  0.697638  0.962755  0.555734  1
  Li  Li18  1  0.711712  0.292551  0.366700  1
  Li  Li19  1  0.855378  0.049379  0.915027  1
  Li  Li20  1  0.697638  0.537245  0.055734  1
  Li  Li21  1  0.928968  0.496949  0.822831  1
  Li  Li22  1  0.855378  0.450621  0.415027  1
  Li  Li23  1  0.928968  0.003051  0.322831  1
  B  B24  1  0.082203  0.365891  0.648409  1
  B  B25  1  0.082203  0.134109  0.148409  1
  B  B26  1  0.292034  0.880641  0.500753  1
  B  B27  1  0.441527  0.113311  0.816061  1
  B  B28  1  0.292034  0.619359  0.000753  1
  B  B29  1  0.441527  0.386689  0.316061  1
  B  B30  1  0.558473  0.613311  0.683939  1
  B  B31  1  0.707966  0.380641  0.999247  1
  B  B32  1  0.558473  0.886689  0.183939  1
  B  B33  1  0.707966  0.119359  0.499247  1
  B  B34  1  0.917797  0.865891  0.851591  1
  B  B35  1  0.917797  0.634109  0.351591  1
  Sb  Sb36  1  0.073500  0.185299  0.672834  1
  Sb  Sb37  1  0.073500  0.314701  0.172834  1
  Sb  Sb38  1  0.926500  0.685299  0.827166  1
  Sb  Sb39  1  0.926500  0.814701  0.327166  1
  O  O40  1  0.006607  0.664359  0.550037  1
  O  O41  1  0.130239  0.570540  0.959823  1
  O  O42  1  0.085677  0.447149  0.675128  1
  O  O43  1  0.146629  0.312895  0.806180  1
  O  O44  1  0.006607  0.835641  0.050037  1
  O  O45  1  0.130239  0.929460  0.459823  1
  O  O46  1  0.263958  0.700037  0.941082  1
  O  O47  1  0.085677  0.052851  0.175128  1
  O  O48  1  0.146629  0.187105  0.306180  1
  O  O49  1  0.278538  0.066693  0.736221  1
  O  O50  1  0.263958  0.799963  0.441082  1
  O  O51  1  0.278538  0.433307  0.236221  1
  O  O52  1  0.425949  0.195264  0.781727  1
  O  O53  1  0.395176  0.575747  0.576171  1
  O  O54  1  0.531148  0.410502  0.909698  1
  O  O55  1  0.468852  0.910502  0.590302  1
  O  O56  1  0.425949  0.304736  0.281727  1
  O  O57  1  0.604824  0.075747  0.923829  1
  O  O58  1  0.395176  0.924253  0.076171  1
  O  O59  1  0.574051  0.695264  0.718273  1
  O  O60  1  0.531148  0.089498  0.409698  1
  O  O61  1  0.468852  0.589498  0.090302  1
  O  O62  1  0.604824  0.424253  0.423830  1
  O  O63  1  0.574051  0.804736  0.218273  1
  O  O64  1  0.721462  0.566693  0.763779  1
  O  O65  1  0.736042  0.200037  0.558918  1
  O  O66  1  0.721462  0.933307  0.263779  1
  O  O67  1  0.853371  0.812895  0.693820  1
  O  O68  1  0.914323  0.947149  0.824872  1
  O  O69  1  0.736042  0.299963  0.058918  1
  O  O70  1  0.869761  0.070540  0.540177  1
  O  O71  1  0.993393  0.164359  0.949963  1
  O  O72  1  0.853371  0.687105  0.193820  1
  O  O73  1  0.914323  0.552851  0.324872  1
  O  O74  1  0.869761  0.429460  0.040177  1
  O  O75  1  0.993393  0.335641  0.449963  1
