# generated using pymatgen
data_Li5Cr6P5O24
_symmetry_space_group_name_H-M   'P 1'
_cell_length_a   6.78492345
_cell_length_b   10.66712245
_cell_length_c   6.50830179
_cell_angle_alpha   72.03093440
_cell_angle_beta   90.25857797
_cell_angle_gamma   109.53234902
_symmetry_Int_Tables_number   1
_chemical_formula_structural   Li5Cr6P5O24
_chemical_formula_sum   'Li5 Cr6 P5 O24'
_cell_volume   419.71790016
_cell_formula_units_Z   1
loop_
 _symmetry_equiv_pos_site_id
 _symmetry_equiv_pos_as_xyz
  1  'x, y, z'
loop_
 _atom_site_type_symbol
 _atom_site_label
 _atom_site_symmetry_multiplicity
 _atom_site_fract_x
 _atom_site_fract_y
 _atom_site_fract_z
 _atom_site_occupancy
  Li  Li0  1  0.757377  0.523776  0.240763  1
  Li  Li1  1  0.248424  0.477458  0.243464  1
  Li  Li2  1  0.501295  0.016384  0.478574  1
  Li  Li3  1  0.529302  0.038083  0.980726  1
  Li  Li4  1  0.988068  0.971731  0.518079  1
  Cr  Cr5  1  0.871188  0.247691  0.111694  1
  Cr  Cr6  1  0.372579  0.242977  0.196355  1
  Cr  Cr7  1  0.114795  0.750467  0.374809  1
  Cr  Cr8  1  0.378758  0.246432  0.625117  1
  Cr  Cr9  1  0.231581  0.463578  0.766747  1
  Cr  Cr10  1  0.636958  0.755316  0.876438  1
  P  P11  1  0.002693  0.998735  0.006259  1
  P  P12  1  0.873186  0.249190  0.516880  1
  P  P13  1  0.512433  0.751596  0.375978  1
  P  P14  1  0.748691  0.505996  0.751055  1
  P  P15  1  0.240877  0.754952  0.875536  1
  O  O16  1  0.855055  0.080334  0.019277  1
  O  O17  1  0.178167  0.320297  0.063353  1
  O  O18  1  0.569100  0.182007  0.133291  1
  O  O19  1  0.100500  0.719614  0.083854  1
  O  O20  1  0.902098  0.375698  0.301671  1
  O  O21  1  0.846783  0.122815  0.429767  1
  O  O22  1  0.277156  0.114058  0.465399  1
  O  O23  1  0.468535  0.378787  0.330077  1
  O  O24  1  0.616834  0.719795  0.200138  1
  O  O25  1  0.012334  0.909566  0.244888  1
  O  O26  1  0.422788  0.873980  0.287637  1
  O  O27  1  0.084239  0.287726  0.619715  1
  O  O28  1  0.666875  0.211684  0.659558  1
  O  O29  1  0.295926  0.620481  0.467909  1
  O  O30  1  0.841910  0.589764  0.510892  1
  O  O31  1  0.236069  0.094030  0.917020  1
  O  O32  1  0.516032  0.408560  0.751436  1
  O  O33  1  0.650129  0.782188  0.553794  1
  O  O34  1  0.131486  0.780250  0.668382  1
  O  O35  1  0.891191  0.420003  0.849348  1
  O  O36  1  0.734052  0.591160  0.902254  1
  O  O37  1  0.327894  0.628405  0.914750  1
  O  O38  1  0.455646  0.881343  0.836689  1
  O  O39  1  0.910996  0.913097  0.850429  1
