# generated using pymatgen
data_Dy2(SeO4)3
_symmetry_space_group_name_H-M   'P 1'
_cell_length_a   6.83234316
_cell_length_b   6.83234316
_cell_length_c   11.31484293
_cell_angle_alpha   80.47216279
_cell_angle_beta   99.52783721
_cell_angle_gamma   62.81591129
_symmetry_Int_Tables_number   1
_chemical_formula_structural   Dy2(SeO4)3
_chemical_formula_sum   'Dy4 Se6 O24'
_cell_volume   445.51405056
_cell_formula_units_Z   2
loop_
 _symmetry_equiv_pos_site_id
 _symmetry_equiv_pos_as_xyz
  1  'x, y, z'
loop_
 _atom_site_type_symbol
 _atom_site_label
 _atom_site_symmetry_multiplicity
 _atom_site_fract_x
 _atom_site_fract_y
 _atom_site_fract_z
 _atom_site_occupancy
  Dy  Dy0  1  0.301203  0.948503  0.594425  1
  Dy  Dy1  1  0.051497  0.698797  0.094425  1
  Dy  Dy2  1  0.948503  0.301203  0.905575  1
  Dy  Dy3  1  0.698797  0.051497  0.405575  1
  Se  Se4  1  0.452724  0.787958  0.924702  1
  Se  Se5  1  0.212042  0.547276  0.424702  1
  Se  Se6  1  0.868254  0.868254  0.750000  1
  Se  Se7  1  0.131746  0.131746  0.250000  1
  Se  Se8  1  0.787958  0.452724  0.575298  1
  Se  Se9  1  0.547276  0.212042  0.075298  1
  O  O10  1  0.999134  0.584662  0.788481  1
  O  O11  1  0.374267  0.736844  0.790182  1
  O  O12  1  0.955530  0.940939  0.877304  1
  O  O13  1  0.745009  0.654013  0.957532  1
  O  O14  1  0.415338  0.000866  0.288481  1
  O  O15  1  0.073425  0.317633  0.606729  1
  O  O16  1  0.310525  0.618559  0.544421  1
  O  O17  1  0.618559  0.310525  0.955579  1
  O  O18  1  0.317633  0.073425  0.893271  1
  O  O19  1  0.263156  0.625733  0.290182  1
  O  O20  1  0.654013  0.745009  0.542468  1
  O  O21  1  0.940939  0.955530  0.622696  1
  O  O22  1  0.059061  0.044470  0.377304  1
  O  O23  1  0.345987  0.254991  0.457532  1
  O  O24  1  0.736844  0.374267  0.709818  1
  O  O25  1  0.682367  0.926575  0.106729  1
  O  O26  1  0.381441  0.689475  0.044421  1
  O  O27  1  0.689475  0.381441  0.455579  1
  O  O28  1  0.926575  0.682367  0.393271  1
  O  O29  1  0.584662  0.999134  0.711519  1
  O  O30  1  0.254991  0.345987  0.042468  1
  O  O31  1  0.044470  0.059061  0.122696  1
  O  O32  1  0.625733  0.263156  0.209818  1
  O  O33  1  0.000866  0.415338  0.211519  1
