# generated using pymatgen
data_Fe4O3F5
_symmetry_space_group_name_H-M   'P 1'
_cell_length_a   4.82253925
_cell_length_b   9.63412372
_cell_length_c   6.20052061
_cell_angle_alpha   89.64999034
_cell_angle_beta   90.20584472
_cell_angle_gamma   92.45571874
_symmetry_Int_Tables_number   1
_chemical_formula_structural   Fe4O3F5
_chemical_formula_sum   'Fe8 O6 F10'
_cell_volume   287.81048001
_cell_formula_units_Z   2
loop_
 _symmetry_equiv_pos_site_id
 _symmetry_equiv_pos_as_xyz
  1  'x, y, z'
loop_
 _atom_site_type_symbol
 _atom_site_label
 _atom_site_symmetry_multiplicity
 _atom_site_fract_x
 _atom_site_fract_y
 _atom_site_fract_z
 _atom_site_occupancy
  Fe  Fe0  1  0.984081  0.982596  0.006015  1
  Fe  Fe1  1  0.049211  0.011618  0.488251  1
  Fe  Fe2  1  0.971108  0.486867  0.001746  1
  Fe  Fe3  1  0.010162  0.506153  0.498552  1
  Fe  Fe4  1  0.519894  0.257533  0.261483  1
  Fe  Fe5  1  0.522566  0.254882  0.740704  1
  Fe  Fe6  1  0.463174  0.763971  0.251785  1
  Fe  Fe7  1  0.494649  0.746865  0.750241  1
  O  O8  1  0.191976  0.903935  0.260630  1
  O  O9  1  0.319145  0.160126  0.502059  1
  O  O10  1  0.308048  0.652669  0.502657  1
  O  O11  1  0.675400  0.335270  0.000356  1
  O  O12  1  0.716247  0.356451  0.501203  1
  O  O13  1  0.663259  0.832215  0.996269  1
  F  F14  1  0.203122  0.402632  0.258395  1
  F  F15  1  0.202195  0.404422  0.742695  1
  F  F16  1  0.199881  0.897623  0.734787  1
  F  F17  1  0.297071  0.150431  0.994909  1
  F  F18  1  0.286391  0.644162  0.999538  1
  F  F19  1  0.702931  0.852887  0.504555  1
  F  F20  1  0.803486  0.602413  0.741166  1
  F  F21  1  0.813448  0.092244  0.736670  1
  F  F22  1  0.803329  0.602307  0.260771  1
  F  F23  1  0.799228  0.099731  0.264565  1
