# generated using pymatgen
data_V6O5F19
_symmetry_space_group_name_H-M   'P 1'
_cell_length_a   5.59869751
_cell_length_b   5.37474421
_cell_length_c   15.02954291
_cell_angle_alpha   89.71077370
_cell_angle_beta   100.25422697
_cell_angle_gamma   93.00887740
_symmetry_Int_Tables_number   1
_chemical_formula_structural   V6O5F19
_chemical_formula_sum   'V6 O5 F19'
_cell_volume   444.42099370
_cell_formula_units_Z   1
loop_
 _symmetry_equiv_pos_site_id
 _symmetry_equiv_pos_as_xyz
  1  'x, y, z'
loop_
 _atom_site_type_symbol
 _atom_site_label
 _atom_site_symmetry_multiplicity
 _atom_site_fract_x
 _atom_site_fract_y
 _atom_site_fract_z
 _atom_site_occupancy
  V  V0  1  0.042141  0.962889  0.002670  1
  V  V1  1  0.151588  0.510560  0.334938  1
  V  V2  1  0.264349  0.028712  0.662707  1
  V  V3  1  0.534432  0.457897  0.996831  1
  V  V4  1  0.608205  0.038920  0.329318  1
  V  V5  1  0.774772  0.483544  0.665402  1
  O  O6  1  0.023260  0.195631  0.639861  1
  O  O7  1  0.368803  0.207544  0.308437  1
  O  O8  1  0.525382  0.298778  0.643591  1
  O  O9  1  0.712357  0.239070  0.983685  1
  O  O10  1  0.265276  0.779459  0.015896  1
  F  F11  1  0.224471  0.263642  0.972241  1
  F  F12  1  0.144170  0.721953  0.690979  1
  F  F13  1  0.057000  0.090931  0.112270  1
  F  F14  1  0.227745  0.400002  0.447080  1
  F  F15  1  0.390002  0.092176  0.777344  1
  F  F16  1  0.130276  0.568902  0.217868  1
  F  F17  1  0.321262  0.921805  0.557477  1
  F  F18  1  0.459923  0.587444  0.887382  1
  F  F19  1  0.462635  0.724079  0.355608  1
  F  F20  1  0.658219  0.768527  0.695494  1
  F  F21  1  0.517416  0.443491  0.113472  1
  F  F22  1  0.723873  0.074332  0.445501  1
  F  F23  1  0.903802  0.404639  0.777209  1
  F  F24  1  0.647609  0.917607  0.224408  1
  F  F25  1  0.818030  0.574993  0.555909  1
  F  F26  1  0.916139  0.936588  0.886217  1
  F  F27  1  0.849834  0.298584  0.311199  1
  F  F28  1  0.785211  0.727340  0.027684  1
  F  F29  1  0.991820  0.779960  0.361322  1
