# generated using pymatgen
data_Li4Ni3Sn2Sb3O16
_symmetry_space_group_name_H-M   'P 1'
_cell_length_a   6.15474492
_cell_length_b   6.19166830
_cell_length_c   9.90563243
_cell_angle_alpha   89.99966062
_cell_angle_beta   90.22756494
_cell_angle_gamma   120.19934038
_symmetry_Int_Tables_number   1
_chemical_formula_structural   Li4Ni3Sn2Sb3O16
_chemical_formula_sum   'Li4 Ni3 Sn2 Sb3 O16'
_cell_volume   326.24970790
_cell_formula_units_Z   1
loop_
 _symmetry_equiv_pos_site_id
 _symmetry_equiv_pos_as_xyz
  1  'x, y, z'
loop_
 _atom_site_type_symbol
 _atom_site_label
 _atom_site_symmetry_multiplicity
 _atom_site_fract_x
 _atom_site_fract_y
 _atom_site_fract_z
 _atom_site_occupancy
  Li  Li0  1  0.325804  0.662918  0.882723  1
  Li  Li1  1  0.972090  0.986047  0.983313  1
  Li  Li2  1  0.981539  0.990769  0.502779  1
  Li  Li3  1  0.651871  0.325949  0.408794  1
  Ni  Ni4  1  0.661799  0.830914  0.215401  1
  Ni  Ni5  1  0.834276  0.661617  0.712660  1
  Ni  Ni6  1  0.834267  0.172687  0.712658  1
  Sn  Sn7  1  0.355391  0.677717  0.503823  1
  Sn  Sn8  1  0.693233  0.346617  0.976423  1
  Sb  Sb9  1  0.170466  0.832160  0.215924  1
  Sb  Sb10  1  0.170490  0.338320  0.215926  1
  Sb  Sb11  1  0.342675  0.171361  0.714274  1
  O  O12  1  0.173788  0.849222  0.594369  1
  O  O13  1  0.028880  0.514439  0.338801  1
  O  O14  1  0.326463  0.663242  0.105172  1
  O  O15  1  0.002895  0.001447  0.315611  1
  O  O16  1  0.013510  0.006769  0.803374  1
  O  O17  1  0.173784  0.324597  0.594364  1
  O  O18  1  0.472934  0.960659  0.340113  1
  O  O19  1  0.472960  0.512318  0.340111  1
  O  O20  1  0.326611  0.163303  0.102584  1
  O  O21  1  0.682312  0.841175  0.599122  1
  O  O22  1  0.505586  0.473145  0.842273  1
  O  O23  1  0.505578  0.032470  0.842266  1
  O  O24  1  0.653139  0.326593  0.606187  1
  O  O25  1  0.847936  0.680891  0.100198  1
  O  O26  1  0.971781  0.485903  0.838398  1
  O  O27  1  0.847942  0.167053  0.100200  1
