# generated using pymatgen
data_Li4Ti3VO8
_symmetry_space_group_name_H-M   'P 1'
_cell_length_a   6.10895271
_cell_length_b   6.90012967
_cell_length_c   4.13867052
_cell_angle_alpha   89.99973688
_cell_angle_beta   90.00277275
_cell_angle_gamma   88.32167143
_symmetry_Int_Tables_number   1
_chemical_formula_structural   Li4Ti3VO8
_chemical_formula_sum   'Li4 Ti3 V1 O8'
_cell_volume   174.38074150
_cell_formula_units_Z   1
loop_
 _symmetry_equiv_pos_site_id
 _symmetry_equiv_pos_as_xyz
  1  'x, y, z'
loop_
 _atom_site_type_symbol
 _atom_site_label
 _atom_site_symmetry_multiplicity
 _atom_site_fract_x
 _atom_site_fract_y
 _atom_site_fract_z
 _atom_site_occupancy
  Li  Li0  1  0.077579  0.616996  0.939128  1
  Li  Li1  1  0.419161  0.114280  0.439170  1
  Li  Li2  1  0.577859  0.884287  0.939177  1
  Li  Li3  1  0.926741  0.385989  0.439127  1
  Ti  Ti4  1  0.085715  0.132176  0.939180  1
  Ti  Ti5  1  0.417835  0.621810  0.439126  1
  Ti  Ti6  1  0.579609  0.374497  0.939104  1
  V  V7  1  0.912402  0.870834  0.439157  1
  O  O8  1  0.091059  0.128968  0.439139  1
  O  O9  1  0.110121  0.615746  0.439184  1
  O  O10  1  0.400756  0.147783  0.939125  1
  O  O11  1  0.419207  0.624693  0.939122  1
  O  O12  1  0.585905  0.368653  0.439138  1
  O  O13  1  0.573340  0.854891  0.439192  1
  O  O14  1  0.898168  0.359751  0.939155  1
  O  O15  1  0.924544  0.898645  0.939177  1
