# generated using pymatgen
data_Li2MnF4
_symmetry_space_group_name_H-M   'P 1'
_cell_length_a   6.62953686
_cell_length_b   6.54002655
_cell_length_c   5.79449903
_cell_angle_alpha   55.48395644
_cell_angle_beta   55.07149986
_cell_angle_gamma   89.83695587
_symmetry_Int_Tables_number   1
_chemical_formula_structural   Li2MnF4
_chemical_formula_sum   'Li4 Mn2 F8'
_cell_volume   149.25569648
_cell_formula_units_Z   2
loop_
 _symmetry_equiv_pos_site_id
 _symmetry_equiv_pos_as_xyz
  1  'x, y, z'
loop_
 _atom_site_type_symbol
 _atom_site_label
 _atom_site_symmetry_multiplicity
 _atom_site_fract_x
 _atom_site_fract_y
 _atom_site_fract_z
 _atom_site_occupancy
  Li  Li0  1  0.248770  0.484569  0.505432  1
  Li  Li1  1  0.248115  0.007678  0.505404  1
  Li  Li2  1  0.763447  0.498021  0.005016  1
  Li  Li3  1  0.233371  0.494364  0.005855  1
  Mn  Mn4  1  0.843559  0.842305  0.313040  1
  Mn  Mn5  1  0.617679  0.115184  0.767677  1
  F  F6  1  0.965309  0.257173  0.072543  1
  F  F7  1  0.963202  0.666772  0.074672  1
  F  F8  1  0.543377  0.734590  0.920438  1
  F  F9  1  0.539735  0.346446  0.915841  1
  F  F10  1  0.426191  0.217729  0.559232  1
  F  F11  1  0.479373  0.786678  0.429609  1
  F  F12  1  0.090948  0.784285  0.430544  1
  F  F13  1  0.017106  0.219391  0.560659  1
