# generated using pymatgen
data_LiFe2OF3
_symmetry_space_group_name_H-M   'P 1'
_cell_length_a   6.22435129
_cell_length_b   6.22937784
_cell_length_c   8.84264874
_cell_angle_alpha   90.01882143
_cell_angle_beta   90.00717790
_cell_angle_gamma   90.00502512
_symmetry_Int_Tables_number   1
_chemical_formula_structural   LiFe2OF3
_chemical_formula_sum   'Li4 Fe8 O4 F12'
_cell_volume   342.86338957
_cell_formula_units_Z   4
loop_
 _symmetry_equiv_pos_site_id
 _symmetry_equiv_pos_as_xyz
  1  'x, y, z'
loop_
 _atom_site_type_symbol
 _atom_site_label
 _atom_site_symmetry_multiplicity
 _atom_site_fract_x
 _atom_site_fract_y
 _atom_site_fract_z
 _atom_site_occupancy
  Li  Li0  1  0.000046  0.967891  0.017067  1
  Li  Li1  1  0.499958  0.032108  0.232914  1
  Li  Li2  1  0.500038  0.531948  0.517093  1
  Li  Li3  1  0.999960  0.467996  0.732900  1
  Fe  Fe4  1  0.250068  0.499994  0.125021  1
  Fe  Fe5  1  0.749941  0.499992  0.125024  1
  Fe  Fe6  1  0.999992  0.248487  0.385967  1
  Fe  Fe7  1  0.999983  0.748439  0.364120  1
  Fe  Fe8  1  0.249957  0.000023  0.624965  1
  Fe  Fe9  1  0.750042  0.000036  0.624974  1
  Fe  Fe10  1  0.500007  0.751538  0.864012  1
  Fe  Fe11  1  0.500016  0.251516  0.885938  1
  O  O12  1  0.000027  0.698030  0.143158  1
  O  O13  1  0.499974  0.302023  0.106882  1
  O  O14  1  0.499999  0.801982  0.643116  1
  O  O15  1  0.000002  0.197988  0.606824  1
  F  F16  1  0.999967  0.236786  0.150670  1
  F  F17  1  0.500051  0.763218  0.099275  1
  F  F18  1  0.753416  0.996444  0.369571  1
  F  F19  1  0.246578  0.996534  0.369583  1
  F  F20  1  0.246583  0.496511  0.380454  1
  F  F21  1  0.753377  0.496501  0.380439  1
  F  F22  1  0.499995  0.263205  0.650653  1
  F  F23  1  -0.000006  0.736786  0.599345  1
  F  F24  1  0.253471  0.503467  0.869609  1
  F  F25  1  0.746553  0.503512  0.869612  1
  F  F26  1  0.253378  0.003468  0.880394  1
  F  F27  1  0.746627  0.003576  0.880422  1
