# generated using pymatgen
data_Li5Co2(PO4)3
_symmetry_space_group_name_H-M   'P 1'
_cell_length_a   8.69997819
_cell_length_b   8.79296013
_cell_length_c   12.41254086
_cell_angle_alpha   90.02394453
_cell_angle_beta   89.30161921
_cell_angle_gamma   89.93155547
_symmetry_Int_Tables_number   1
_chemical_formula_structural   Li5Co2(PO4)3
_chemical_formula_sum   'Li20 Co8 P12 O48'
_cell_volume   949.47021574
_cell_formula_units_Z   4
loop_
 _symmetry_equiv_pos_site_id
 _symmetry_equiv_pos_as_xyz
  1  'x, y, z'
loop_
 _atom_site_type_symbol
 _atom_site_label
 _atom_site_symmetry_multiplicity
 _atom_site_fract_x
 _atom_site_fract_y
 _atom_site_fract_z
 _atom_site_occupancy
  Li  Li0  1  0.932379  0.520744  0.350292  1
  Li  Li1  1  0.927648  0.093562  0.695700  1
  Li  Li2  1  0.856975  0.732513  0.746846  1
  Li  Li3  1  0.904610  0.657094  0.974720  1
  Li  Li4  1  0.797201  0.770047  0.184121  1
  Li  Li5  1  0.702779  0.269161  0.316181  1
  Li  Li6  1  0.595405  0.155438  0.524419  1
  Li  Li7  1  0.642987  0.232184  0.753252  1
  Li  Li8  1  0.572345  0.593645  0.804475  1
  Li  Li9  1  0.568786  0.020751  0.149788  1
  Li  Li10  1  0.445797  0.987009  0.841718  1
  Li  Li11  1  0.423853  0.405850  0.193869  1
  Li  Li12  1  0.373989  0.771636  0.256544  1
  Li  Li13  1  0.346696  0.681446  0.493000  1
  Li  Li14  1  0.300409  0.738361  0.695859  1
  Li  Li15  1  0.199413  0.237957  0.803721  1
  Li  Li16  1  0.152086  0.182538  0.006590  1
  Li  Li17  1  0.126128  0.271884  0.243845  1
  Li  Li18  1  0.075206  0.905875  0.306699  1
  Li  Li19  1  0.054666  0.486790  0.658261  1
  Co  Co20  1  0.741324  0.530615  0.598663  1
  Co  Co21  1  0.757976  0.030935  0.901104  1
  Co  Co22  1  0.750259  0.450224  0.110159  1
  Co  Co23  1  0.750040  0.950945  0.390336  1
  Co  Co24  1  0.250005  0.044693  0.601625  1
  Co  Co25  1  0.248606  0.545016  0.898645  1
  Co  Co26  1  0.255549  0.944060  0.107726  1
  Co  Co27  1  0.245146  0.443704  0.392379  1
  P  P28  1  0.950220  0.247363  0.493312  1
  P  P29  1  0.892210  0.393534  0.849587  1
  P  P30  1  0.892256  0.100345  0.156034  1
  P  P31  1  0.607591  0.893486  0.650437  1
  P  P32  1  0.607963  0.600411  0.343709  1
  P  P33  1  0.550427  0.747674  0.006679  1
  P  P34  1  0.452283  0.247881  0.990752  1
  P  P35  1  0.397456  0.399407  0.648335  1
  P  P36  1  0.395232  0.107874  0.347764  1
  P  P37  1  0.102678  0.899815  0.851706  1
  P  P38  1  0.104640  0.608302  0.152598  1
  P  P39  1  0.047509  0.747914  0.509508  1
  O  O40  1  0.957860  0.861652  0.441618  1
  O  O41  1  0.927304  0.863569  0.869611  1
  O  O42  1  0.955410  0.680465  0.606445  1
  O  O43  1  0.933678  0.589313  0.190959  1
  O  O44  1  0.909541  0.373567  0.576204  1
  O  O45  1  0.849250  0.226890  0.818373  1
  O  O46  1  0.874747  0.421088  0.970546  1
  O  O47  1  0.871919  0.975591  0.244313  1
  O  O48  1  0.837457  0.258545  0.194268  1
  O  O49  1  0.797637  0.179103  0.448899  1
  O  O50  1  0.795826  0.047520  0.059694  1
  O  O51  1  0.791469  0.510448  0.786525  1
  O  O52  1  0.708317  0.010154  0.713621  1
  O  O53  1  0.704365  0.547521  0.440120  1
  O  O54  1  0.703105  0.679705  0.050759  1
  O  O55  1  0.662581  0.758320  0.305638  1
  O  O56  1  0.625477  0.921344  0.529457  1
  O  O57  1  0.628060  0.475493  0.255416  1
  O  O58  1  0.650827  0.726872  0.681504  1
  O  O59  1  0.590310  0.873691  0.923618  1
  O  O60  1  0.544699  0.180265  0.893749  1
  O  O61  1  0.572840  0.362959  0.630198  1
  O  O62  1  0.566531  0.088492  0.309561  1
  O  O63  1  0.541862  0.361220  0.058806  1
  O  O64  1  0.458074  0.628186  0.944029  1
  O  O65  1  0.436314  0.918667  0.687360  1
  O  O66  1  0.430298  0.613642  0.363714  1
  O  O67  1  0.460009  0.815879  0.105615  1
  O  O68  1  0.399589  0.119900  0.070114  1
  O  O69  1  0.339708  0.266482  0.306026  1
  O  O70  1  0.378951  0.519386  0.740474  1
  O  O71  1  0.385992  0.108751  0.471312  1
  O  O72  1  0.318706  0.248381  0.678867  1
  O  O73  1  0.300232  0.317644  0.943517  1
  O  O74  1  0.322224  0.473306  0.548946  1
  O  O75  1  0.297911  0.980760  0.294974  1
  O  O76  1  0.201955  0.480795  0.204946  1
  O  O77  1  0.177517  0.973417  0.951141  1
  O  O78  1  0.199661  0.817790  0.556323  1
  O  O79  1  0.180754  0.747809  0.820865  1
  O  O80  1  0.121421  0.019464  0.759644  1
  O  O81  1  0.113697  0.608629  0.028602  1
  O  O82  1  0.160521  0.766819  0.193756  1
  O  O83  1  0.100824  0.620118  0.429938  1
  O  O84  1  0.063590  0.418285  0.812499  1
  O  O85  1  0.040456  0.315589  0.394435  1
  O  O86  1  0.069789  0.113829  0.136183  1
  O  O87  1  0.041984  0.127896  0.555866  1
