# generated using pymatgen
data_CaGd4O7
_symmetry_space_group_name_H-M   'P 1'
_cell_length_a   11.63720145
_cell_length_b   9.20806888
_cell_length_c   7.21579971
_cell_angle_alpha   90.05177208
_cell_angle_beta   80.98595995
_cell_angle_gamma   107.49542051
_symmetry_Int_Tables_number   1
_chemical_formula_structural   CaGd4O7
_chemical_formula_sum   'Ca4 Gd16 O28'
_cell_volume   727.46506021
_cell_formula_units_Z   4
loop_
 _symmetry_equiv_pos_site_id
 _symmetry_equiv_pos_as_xyz
  1  'x, y, z'
loop_
 _atom_site_type_symbol
 _atom_site_label
 _atom_site_symmetry_multiplicity
 _atom_site_fract_x
 _atom_site_fract_y
 _atom_site_fract_z
 _atom_site_occupancy
  Ca  Ca0  1  0.160072  0.070300  0.960174  1
  Ca  Ca1  1  0.436391  0.324195  0.139844  1
  Ca  Ca2  1  0.563609  0.675805  0.360156  1
  Ca  Ca3  1  0.839928  0.929700  0.539826  1
  Gd  Gd4  1  0.070888  0.717442  0.230791  1
  Gd  Gd5  1  0.069782  0.715887  0.733935  1
  Gd  Gd6  1  0.240550  0.499317  0.437691  1
  Gd  Gd7  1  0.239421  0.496242  0.941395  1
  Gd  Gd8  1  0.155468  0.065501  0.460900  1
  Gd  Gd9  1  0.375435  0.869888  0.157263  1
  Gd  Gd10  1  0.373182  0.869279  0.655762  1
  Gd  Gd11  1  0.437454  0.326292  0.641142  1
  Gd  Gd12  1  0.562546  0.673708  0.858858  1
  Gd  Gd13  1  0.626818  0.130721  0.844238  1
  Gd  Gd14  1  0.624565  0.130112  0.342737  1
  Gd  Gd15  1  0.844532  0.934499  0.039100  1
  Gd  Gd16  1  0.759450  0.500683  0.062309  1
  Gd  Gd17  1  0.760579  0.503758  0.558605  1
  Gd  Gd18  1  0.929112  0.282558  0.269209  1
  Gd  Gd19  1  0.930218  0.284113  0.766065  1
  O  O20  1  0.000617  0.177036  0.999492  1
  O  O21  1  0.006491  0.181015  0.497977  1
  O  O22  1  0.216884  0.975456  0.199996  1
  O  O23  1  0.218463  0.978426  0.690749  1
  O  O24  1  0.114431  0.474557  0.223185  1
  O  O25  1  0.115069  0.475435  0.719146  1
  O  O26  1  0.230249  0.737599  0.443797  1
  O  O27  1  0.227236  0.737719  0.941257  1
  O  O28  1  0.312168  0.293863  0.915402  1
  O  O29  1  0.309452  0.290646  0.428081  1
  O  O30  1  0.399025  0.587350  0.142041  1
  O  O31  1  0.402483  0.580035  0.657092  1
  O  O32  1  0.497785  0.883633  0.377379  1
  O  O33  1  0.500700  0.881078  0.872542  1
  O  O34  1  0.499300  0.118922  0.627458  1
  O  O35  1  0.502215  0.116367  0.122621  1
  O  O36  1  0.600975  0.412650  0.357959  1
  O  O37  1  0.597517  0.419965  0.842908  1
  O  O38  1  0.690548  0.709354  0.071919  1
  O  O39  1  0.687832  0.706137  0.584598  1
  O  O40  1  0.772764  0.262281  0.558743  1
  O  O41  1  0.769751  0.262401  0.056203  1
  O  O42  1  0.885569  0.525443  0.276815  1
  O  O43  1  0.884931  0.524565  0.780854  1
  O  O44  1  0.783116  0.024545  0.300004  1
  O  O45  1  0.781537  0.021574  0.809251  1
  O  O46  1  0.999383  0.822964  0.500508  1
  O  O47  1  0.993509  0.818985  0.002023  1
