# generated using pymatgen
data_Fe3O5F
_symmetry_space_group_name_H-M   'P 1'
_cell_length_a   4.64186587
_cell_length_b   7.61296574
_cell_length_c   5.53535384
_cell_angle_alpha   94.54611726
_cell_angle_beta   91.99176505
_cell_angle_gamma   88.48959334
_symmetry_Int_Tables_number   1
_chemical_formula_structural   Fe3O5F
_chemical_formula_sum   'Fe6 O10 F2'
_cell_volume   194.82242812
_cell_formula_units_Z   2
loop_
 _symmetry_equiv_pos_site_id
 _symmetry_equiv_pos_as_xyz
  1  'x, y, z'
loop_
 _atom_site_type_symbol
 _atom_site_label
 _atom_site_symmetry_multiplicity
 _atom_site_fract_x
 _atom_site_fract_y
 _atom_site_fract_z
 _atom_site_occupancy
  Fe  Fe0  1  0.513902  0.670995  0.156438  1
  Fe  Fe1  1  0.498365  -0.001452  0.500964  1
  Fe  Fe2  1  0.517825  0.340220  0.822414  1
  Fe  Fe3  1  0.995452  0.672064  0.675587  1
  Fe  Fe4  1  0.978984  0.324291  0.346188  1
  Fe  Fe5  1  0.991213  0.992243  0.000931  1
  O  O6  1  0.815757  0.444137  0.630711  1
  O  O7  1  0.801671  0.767102  0.964802  1
  O  O8  1  0.806289  0.096333  0.289778  1
  O  O9  1  0.696490  0.105124  0.796406  1
  O  O10  1  0.690911  0.766629  0.461521  1
  O  O11  1  0.691560  0.434507  0.129887  1
  O  O12  1  0.306622  0.564831  0.868485  1
  O  O13  1  0.310148  0.232157  0.538398  1
  O  O14  1  0.303700  0.896208  0.205749  1
  O  O15  1  0.185207  0.896247  0.710220  1
  F  F16  1  0.196823  0.234101  0.037507  1
  F  F17  1  0.199081  0.564264  0.364013  1
