# generated using pymatgen
data_GeH12(NF2)4
_symmetry_space_group_name_H-M   'P 1'
_cell_length_a   6.22155311
_cell_length_b   13.72017409
_cell_length_c   11.83733121
_cell_angle_alpha   90.00000000
_cell_angle_beta   90.00000000
_cell_angle_gamma   90.00000000
_symmetry_Int_Tables_number   1
_chemical_formula_structural   GeH12(NF2)4
_chemical_formula_sum   'Ge4 H48 N16 F32'
_cell_volume   1010.44396464
_cell_formula_units_Z   4
loop_
 _symmetry_equiv_pos_site_id
 _symmetry_equiv_pos_as_xyz
  1  'x, y, z'
loop_
 _atom_site_type_symbol
 _atom_site_label
 _atom_site_symmetry_multiplicity
 _atom_site_fract_x
 _atom_site_fract_y
 _atom_site_fract_z
 _atom_site_occupancy
  Ge  Ge0  1  0.250000  0.250000  0.653425  1
  Ge  Ge1  1  0.750000  0.750000  0.846575  1
  Ge  Ge2  1  0.750000  0.750000  0.346575  1
  Ge  Ge3  1  0.250000  0.250000  0.153425  1
  H  H4  1  0.919373  0.144797  0.760418  1
  H  H5  1  0.580627  0.355203  0.760418  1
  H  H6  1  0.419373  0.855203  0.739582  1
  H  H7  1  0.080627  0.644797  0.739582  1
  H  H8  1  0.080627  0.855203  0.239582  1
  H  H9  1  0.419373  0.644797  0.239582  1
  H  H10  1  0.580627  0.144797  0.260418  1
  H  H11  1  0.919373  0.355203  0.260418  1
  H  H12  1  0.470439  0.569415  0.919002  1
  H  H13  1  0.029561  0.930585  0.919002  1
  H  H14  1  0.970439  0.430585  0.580998  1
  H  H15  1  0.529561  0.069415  0.580998  1
  H  H16  1  0.529561  0.430585  0.080998  1
  H  H17  1  0.970439  0.069415  0.080998  1
  H  H18  1  0.029561  0.569415  0.419002  1
  H  H19  1  0.470439  0.930585  0.419002  1
  H  H20  1  0.619935  0.419638  0.409912  1
  H  H21  1  0.880065  0.080362  0.409912  1
  H  H22  1  0.119935  0.580362  0.090088  1
  H  H23  1  0.380065  0.919638  0.090088  1
  H  H24  1  0.380065  0.580362  0.590088  1
  H  H25  1  0.119935  0.919638  0.590088  1
  H  H26  1  0.880065  0.419638  0.909912  1
  H  H27  1  0.619935  0.080362  0.909912  1
  H  H28  1  0.411769  0.147635  0.867461  1
  H  H29  1  0.088231  0.352365  0.867461  1
  H  H30  1  0.911769  0.852365  0.632539  1
  H  H31  1  0.588231  0.647635  0.632539  1
  H  H32  1  0.588231  0.852365  0.132539  1
  H  H33  1  0.911769  0.647635  0.132539  1
  H  H34  1  0.088231  0.147635  0.367461  1
  H  H35  1  0.411769  0.352365  0.367461  1
  H  H36  1  0.874336  0.565283  0.030161  1
  H  H37  1  0.625664  0.934717  0.030161  1
  H  H38  1  0.374336  0.434717  0.469839  1
  H  H39  1  0.125664  0.065283  0.469839  1
  H  H40  1  0.125664  0.434717  0.969839  1
  H  H41  1  0.374336  0.065283  0.969839  1
  H  H42  1  0.625664  0.565283  0.530161  1
  H  H43  1  0.874336  0.934717  0.530161  1
  H  H44  1  0.081923  0.473064  0.836433  1
  H  H45  1  0.418077  0.026936  0.836433  1
  H  H46  1  0.581923  0.526936  0.663567  1
  H  H47  1  0.918077  0.973064  0.663567  1
  H  H48  1  0.918077  0.526936  0.163567  1
  H  H49  1  0.581923  0.973064  0.163567  1
  H  H50  1  0.418077  0.473064  0.336433  1
  H  H51  1  0.081923  0.026936  0.336433  1
  N  N52  1  0.580084  0.476380  0.015921  1
  N  N53  1  0.919916  0.023620  0.015921  1
  N  N54  1  0.080084  0.523620  0.484079  1
  N  N55  1  0.419916  0.976380  0.484079  1
  N  N56  1  0.419916  0.523620  0.984079  1
  N  N57  1  0.080084  0.976380  0.984079  1
  N  N58  1  0.919916  0.476380  0.515921  1
  N  N59  1  0.580084  0.023620  0.515921  1
  N  N60  1  0.043631  0.420303  0.896164  1
  N  N61  1  0.456369  0.079697  0.896164  1
  N  N62  1  0.543631  0.579697  0.603836  1
  N  N63  1  0.956369  0.920303  0.603836  1
  N  N64  1  0.956369  0.579697  0.103836  1
  N  N65  1  0.543631  0.920303  0.103836  1
  N  N66  1  0.456369  0.420303  0.396164  1
  N  N67  1  0.043631  0.079697  0.396164  1
  F  F68  1  0.211022  0.381334  0.661864  1
  F  F69  1  0.288978  0.118666  0.661864  1
  F  F70  1  0.711022  0.618666  0.838136  1
  F  F71  1  0.788978  0.881334  0.838136  1
  F  F72  1  0.788978  0.618666  0.338136  1
  F  F73  1  0.711022  0.881334  0.338136  1
  F  F74  1  0.288978  0.381334  0.161864  1
  F  F75  1  0.211022  0.118666  0.161864  1
  F  F76  1  0.460211  0.262299  0.550679  1
  F  F77  1  0.039789  0.237701  0.550679  1
  F  F78  1  0.960211  0.737701  0.949321  1
  F  F79  1  0.539789  0.762299  0.949321  1
  F  F80  1  0.539789  0.737701  0.449321  1
  F  F81  1  0.960211  0.762299  0.449321  1
  F  F82  1  0.039789  0.262299  0.050679  1
  F  F83  1  0.460211  0.237701  0.050679  1
  F  F84  1  0.452012  0.266053  0.772956  1
  F  F85  1  0.047988  0.233947  0.772956  1
  F  F86  1  0.952012  0.733947  0.727044  1
  F  F87  1  0.547988  0.766053  0.727044  1
  F  F88  1  0.547988  0.733947  0.227044  1
  F  F89  1  0.952012  0.766053  0.227044  1
  F  F90  1  0.047988  0.266053  0.272956  1
  F  F91  1  0.452012  0.233947  0.272956  1
  F  F92  1  0.162339  0.582997  0.745810  1
  F  F93  1  0.337661  0.917003  0.745810  1
  F  F94  1  0.662339  0.417003  0.754190  1
  F  F95  1  0.837661  0.082997  0.754190  1
  F  F96  1  0.837661  0.417003  0.254190  1
  F  F97  1  0.662339  0.082997  0.254190  1
  F  F98  1  0.337661  0.582997  0.245810  1
  F  F99  1  0.162339  0.917003  0.245810  1
