# generated using pymatgen
data_LiFeF3
_symmetry_space_group_name_H-M   'P 1'
_cell_length_a   5.36776806
_cell_length_b   5.40789770
_cell_length_c   10.05689002
_cell_angle_alpha   105.61668786
_cell_angle_beta   79.22703005
_cell_angle_gamma   121.41630202
_symmetry_Int_Tables_number   1
_chemical_formula_structural   LiFeF3
_chemical_formula_sum   'Li4 Fe4 F12'
_cell_volume   239.55487624
_cell_formula_units_Z   4
loop_
 _symmetry_equiv_pos_site_id
 _symmetry_equiv_pos_as_xyz
  1  'x, y, z'
loop_
 _atom_site_type_symbol
 _atom_site_label
 _atom_site_symmetry_multiplicity
 _atom_site_fract_x
 _atom_site_fract_y
 _atom_site_fract_z
 _atom_site_occupancy
  Li  Li0  1  0.298882  0.727902  0.929780  1
  Li  Li1  1  0.325177  0.598896  0.567272  1
  Li  Li2  1  0.688300  0.404958  0.443453  1
  Li  Li3  1  0.722214  0.289348  0.067178  1
  Fe  Fe4  1  0.341915  0.670646  0.248032  1
  Fe  Fe5  1  0.022589  0.011693  0.251829  1
  Fe  Fe6  1  0.992438  -0.001151  0.747992  1
  Fe  Fe7  1  0.646405  0.325910  0.751912  1
  F  F8  1  0.970572  0.601804  0.621262  1
  F  F9  1  0.294949  0.025224  0.859424  1
  F  F10  1  0.943538  0.359106  0.881043  1
  F  F11  1  0.342623  0.293351  0.630105  1
  F  F12  1  0.678580  0.964521  0.639958  1
  F  F13  1  0.332908  0.392514  0.375602  1
  F  F14  1  0.648441  0.702211  0.862120  1
  F  F15  1  0.357226  0.945324  0.119401  1
  F  F16  1  0.693358  0.638212  0.140481  1
  F  F17  1  0.009078  0.720955  0.360426  1
  F  F18  1  0.664279  0.039874  0.365148  1
  F  F19  1  0.026328  0.288699  0.137580  1
