# generated using pymatgen
data_CuH4SeO5
_symmetry_space_group_name_H-M   'P 1'
_cell_length_a   6.66805077
_cell_length_b   9.31907804
_cell_length_c   7.49033096
_cell_angle_alpha   90.00000000
_cell_angle_beta   90.00000000
_cell_angle_gamma   90.00000000
_symmetry_Int_Tables_number   1
_chemical_formula_structural   CuH4SeO5
_chemical_formula_sum   'Cu4 H16 Se4 O20'
_cell_volume   465.44980628
_cell_formula_units_Z   4
loop_
 _symmetry_equiv_pos_site_id
 _symmetry_equiv_pos_as_xyz
  1  'x, y, z'
loop_
 _atom_site_type_symbol
 _atom_site_label
 _atom_site_symmetry_multiplicity
 _atom_site_fract_x
 _atom_site_fract_y
 _atom_site_fract_z
 _atom_site_occupancy
  Cu  Cu0  1  0.978646  0.351071  0.716637  1
  Cu  Cu1  1  0.521354  0.648929  0.216637  1
  Cu  Cu2  1  0.478646  0.148929  0.283363  1
  Cu  Cu3  1  0.021354  0.851071  0.783363  1
  H  H4  1  0.066457  0.288432  0.379715  1
  H  H5  1  0.433543  0.711568  0.879715  1
  H  H6  1  0.566457  0.211568  0.620285  1
  H  H7  1  0.933543  0.788432  0.120285  1
  H  H8  1  0.878981  0.191574  0.442814  1
  H  H9  1  0.621019  0.808426  0.942813  1
  H  H10  1  0.378982  0.308426  0.557187  1
  H  H11  1  0.121019  0.691574  0.057187  1
  H  H12  1  0.736378  0.596844  0.804574  1
  H  H13  1  0.763622  0.403156  0.304574  1
  H  H14  1  0.236378  0.903156  0.195426  1
  H  H15  1  0.263622  0.096844  0.695426  1
  H  H16  1  0.675059  0.567181  0.607645  1
  H  H17  1  0.824941  0.432819  0.107645  1
  H  H18  1  0.175059  0.932819  0.392355  1
  H  H19  1  0.324941  0.067181  0.892355  1
  Se  Se20  1  0.271207  0.389172  0.046209  1
  Se  Se21  1  0.228793  0.610828  0.546209  1
  Se  Se22  1  0.771207  0.110828  0.953791  1
  Se  Se23  1  0.728793  0.889172  0.453791  1
  O  O24  1  0.023530  0.388806  0.973068  1
  O  O25  1  0.476470  0.611194  0.473068  1
  O  O26  1  0.523530  0.111194  0.026932  1
  O  O27  1  0.976470  0.888806  0.526932  1
  O  O28  1  0.250977  0.278641  0.232541  1
  O  O29  1  0.249023  0.721359  0.732541  1
  O  O30  1  0.750977  0.221359  0.767459  1
  O  O31  1  0.749023  0.778641  0.267459  1
  O  O32  1  0.265460  0.558763  0.146780  1
  O  O33  1  0.234540  0.441237  0.646780  1
  O  O34  1  0.765460  0.941237  0.853220  1
  O  O35  1  0.734540  0.058763  0.353220  1
  O  O36  1  0.945291  0.287229  0.460741  1
  O  O37  1  0.554709  0.712771  0.960741  1
  O  O38  1  0.445291  0.212771  0.539259  1
  O  O39  1  0.054709  0.787229  0.039259  1
  O  O40  1  0.791712  0.560079  0.691333  1
  O  O41  1  0.708288  0.439921  0.191333  1
  O  O42  1  0.291712  0.939921  0.308667  1
  O  O43  1  0.208288  0.060079  0.808667  1
