# generated using pymatgen
data_Mn12O5F19
_symmetry_space_group_name_H-M   'P 1'
_cell_length_a   4.85144913
_cell_length_b   5.86391672
_cell_length_c   15.99572069
_cell_angle_alpha   90.22939210
_cell_angle_beta   89.89720765
_cell_angle_gamma   88.25605347
_symmetry_Int_Tables_number   1
_chemical_formula_structural   Mn12O5F19
_chemical_formula_sum   'Mn12 O5 F19'
_cell_volume   454.83890205
_cell_formula_units_Z   1
loop_
 _symmetry_equiv_pos_site_id
 _symmetry_equiv_pos_as_xyz
  1  'x, y, z'
loop_
 _atom_site_type_symbol
 _atom_site_label
 _atom_site_symmetry_multiplicity
 _atom_site_fract_x
 _atom_site_fract_y
 _atom_site_fract_z
 _atom_site_occupancy
  Mn  Mn0  1  0.993761  0.168885  0.408972  1
  Mn  Mn1  1  0.010165  0.851194  0.249269  1
  Mn  Mn2  1  0.992707  0.176938  0.079861  1
  Mn  Mn3  1  0.016193  0.145876  0.750786  1
  Mn  Mn4  1  0.023850  0.828690  0.583938  1
  Mn  Mn5  1  0.010563  0.834455  0.910550  1
  Mn  Mn6  1  0.502046  0.352155  0.586135  1
  Mn  Mn7  1  0.509616  0.346499  0.923071  1
  Mn  Mn8  1  0.489608  0.320112  0.261287  1
  Mn  Mn9  1  0.523772  0.651682  0.085229  1
  Mn  Mn10  1  0.509867  0.649919  0.414599  1
  Mn  Mn11  1  0.474880  0.667087  0.746756  1
  O  O12  1  0.208533  0.120801  0.306564  1
  O  O13  1  0.218683  0.872389  0.800592  1
  O  O14  1  0.286577  0.611267  0.645337  1
  O  O15  1  0.713225  0.391511  0.022012  1
  O  O16  1  0.709906  0.368367  0.361439  1
  F  F17  1  0.234179  0.115187  0.637049  1
  F  F18  1  0.237441  0.110563  0.970647  1
  F  F19  1  0.237153  0.883860  0.133900  1
  F  F20  1  0.230159  0.900673  0.467375  1
  F  F21  1  0.278777  0.381271  0.149483  1
  F  F22  1  0.263725  0.616551  0.307454  1
  F  F23  1  0.257944  0.399382  0.476157  1
  F  F24  1  0.275448  0.371708  0.817655  1
  F  F25  1  0.264963  0.606889  0.975250  1
  F  F26  1  0.734812  0.606534  0.198112  1
  F  F27  1  0.738294  0.612220  0.527166  1
  F  F28  1  0.701281  0.624972  0.854505  1
  F  F29  1  0.734516  0.394483  0.702789  1
  F  F30  1  0.758032  0.105076  0.188904  1
  F  F31  1  0.782312  0.121909  0.523470  1
  F  F32  1  0.765686  0.881477  0.358787  1
  F  F33  1  0.777991  0.884612  0.022126  1
  F  F34  1  0.770643  0.123788  0.862838  1
  F  F35  1  0.762690  0.901016  0.689937  1
