# generated using pymatgen
data_LiFePO4
_symmetry_space_group_name_H-M   'P 1'
_cell_length_a   8.48569682
_cell_length_b   7.40018358
_cell_length_c   14.84516155
_cell_angle_alpha   90.00000000
_cell_angle_beta   90.95803661
_cell_angle_gamma   90.00000000
_symmetry_Int_Tables_number   1
_chemical_formula_structural   LiFePO4
_chemical_formula_sum   'Li12 Fe12 P12 O48'
_cell_volume   932.08220761
_cell_formula_units_Z   12
loop_
 _symmetry_equiv_pos_site_id
 _symmetry_equiv_pos_as_xyz
  1  'x, y, z'
loop_
 _atom_site_type_symbol
 _atom_site_label
 _atom_site_symmetry_multiplicity
 _atom_site_fract_x
 _atom_site_fract_y
 _atom_site_fract_z
 _atom_site_occupancy
  Li  Li0  1  0.066707  0.668694  0.407503  1
  Li  Li1  1  0.078626  0.822134  0.758582  1
  Li  Li2  1  0.096362  0.674472  0.080252  1
  Li  Li3  1  0.403638  0.174472  0.419748  1
  Li  Li4  1  0.421374  0.322134  0.741418  1
  Li  Li5  1  0.433293  0.168694  0.092497  1
  Li  Li6  1  0.566707  0.831306  0.907503  1
  Li  Li7  1  0.578626  0.677866  0.258582  1
  Li  Li8  1  0.596362  0.825528  0.580252  1
  Li  Li9  1  0.903638  0.325528  0.919748  1
  Li  Li10  1  0.921374  0.177866  0.241418  1
  Li  Li11  1  0.933293  0.331306  0.592497  1
  Fe  Fe12  1  0.236974  0.961415  0.923681  1
  Fe  Fe13  1  0.241175  0.044020  0.586574  1
  Fe  Fe14  1  0.248419  0.954483  0.244555  1
  Fe  Fe15  1  0.251581  0.454483  0.255445  1
  Fe  Fe16  1  0.258825  0.544020  0.913426  1
  Fe  Fe17  1  0.263026  0.461415  0.576319  1
  Fe  Fe18  1  0.736974  0.538585  0.423681  1
  Fe  Fe19  1  0.741175  0.455980  0.086574  1
  Fe  Fe20  1  0.748419  0.545517  0.744555  1
  Fe  Fe21  1  0.751581  0.045517  0.755445  1
  Fe  Fe22  1  0.758825  0.955980  0.413426  1
  Fe  Fe23  1  0.763026  0.038585  0.076319  1
  P  P24  1  0.052467  0.258718  0.410921  1
  P  P25  1  0.081726  0.238778  0.770744  1
  P  P26  1  0.109452  0.264470  0.075502  1
  P  P27  1  0.390548  0.764470  0.424498  1
  P  P28  1  0.418274  0.738778  0.729256  1
  P  P29  1  0.447533  0.758718  0.089079  1
  P  P30  1  0.552467  0.241282  0.910921  1
  P  P31  1  0.581726  0.261222  0.270744  1
  P  P32  1  0.609452  0.235530  0.575502  1
  P  P33  1  0.890548  0.735530  0.924498  1
  P  P34  1  0.918274  0.761222  0.229256  1
  P  P35  1  0.947533  0.741282  0.589079  1
  O  O36  1  0.043182  0.564332  0.602429  1
  O  O37  1  0.042453  0.899090  0.630551  1
  O  O38  1  0.065435  0.766305  0.956322  1
  O  O39  1  0.078892  0.055159  0.821089  1
  O  O40  1  0.096885  0.389217  0.842295  1
  O  O41  1  0.083224  0.737652  0.278809  1
  O  O42  1  0.093198  0.231606  0.513205  1
  O  O43  1  0.110598  0.275443  0.181354  1
  O  O44  1  0.172670  0.443565  0.038167  1
  O  O45  1  0.213374  0.242848  0.699171  1
  O  O46  1  0.211490  0.275335  0.360384  1
  O  O47  1  0.216687  0.107746  0.046037  1
  O  O48  1  0.283313  0.607746  0.453963  1
  O  O49  1  0.288510  0.775335  0.139616  1
  O  O50  1  0.286626  0.742848  0.800829  1
  O  O51  1  0.327330  0.943565  0.461833  1
  O  O52  1  0.389402  0.775443  0.318646  1
  O  O53  1  0.406802  0.731606  0.986795  1
  O  O54  1  0.403115  0.889217  0.657705  1
  O  O55  1  0.416776  0.237652  0.221191  1
  O  O56  1  0.421108  0.555159  0.678911  1
  O  O57  1  0.434565  0.266305  0.543678  1
  O  O58  1  0.457548  0.399090  0.869449  1
  O  O59  1  0.456818  0.064332  0.897571  1
  O  O60  1  0.543182  0.935668  0.102429  1
  O  O61  1  0.542453  0.600910  0.130551  1
  O  O62  1  0.565435  0.733695  0.456322  1
  O  O63  1  0.578892  0.444841  0.321089  1
  O  O64  1  0.583224  0.762348  0.778809  1
  O  O65  1  0.596885  0.110783  0.342295  1
  O  O66  1  0.593198  0.268394  0.013205  1
  O  O67  1  0.610598  0.224557  0.681354  1
  O  O68  1  0.672670  0.056435  0.538167  1
  O  O69  1  0.713374  0.257152  0.199171  1
  O  O70  1  0.711490  0.224665  0.860384  1
  O  O71  1  0.716687  0.392254  0.546037  1
  O  O72  1  0.783313  0.892254  0.953963  1
  O  O73  1  0.788510  0.724665  0.639616  1
  O  O74  1  0.786626  0.757152  0.300829  1
  O  O75  1  0.827330  0.556435  0.961833  1
  O  O76  1  0.889402  0.724557  0.818646  1
  O  O77  1  0.906802  0.768394  0.486795  1
  O  O78  1  0.916776  0.262348  0.721191  1
  O  O79  1  0.903115  0.610783  0.157705  1
  O  O80  1  0.921108  0.944841  0.178911  1
  O  O81  1  0.934565  0.233695  0.043678  1
  O  O82  1  0.957547  0.100910  0.369449  1
  O  O83  1  0.956818  0.435668  0.397571  1
