# generated using pymatgen
data_V4O7F5
_symmetry_space_group_name_H-M   'P 1'
_cell_length_a   5.21901590
_cell_length_b   5.34767037
_cell_length_c   8.94748700
_cell_angle_alpha   74.45233549
_cell_angle_beta   90.65623856
_cell_angle_gamma   60.59273728
_symmetry_Int_Tables_number   1
_chemical_formula_structural   V4O7F5
_chemical_formula_sum   'V4 O7 F5'
_cell_volume   206.51660928
_cell_formula_units_Z   1
loop_
 _symmetry_equiv_pos_site_id
 _symmetry_equiv_pos_as_xyz
  1  'x, y, z'
loop_
 _atom_site_type_symbol
 _atom_site_label
 _atom_site_symmetry_multiplicity
 _atom_site_fract_x
 _atom_site_fract_y
 _atom_site_fract_z
 _atom_site_occupancy
  V  V0  1  0.790685  0.456575  0.255509  1
  V  V1  1  0.487272  0.956851  0.506025  1
  V  V2  1  0.311096  0.455828  0.752330  1
  V  V3  1  0.041862  0.976723  0.005171  1
  O  O4  1  0.938854  0.259305  0.130445  1
  O  O5  1  0.541515  0.759111  0.381071  1
  O  O6  1  0.402343  0.761996  0.087871  1
  O  O7  1  0.401659  0.764410  0.664227  1
  O  O8  1  0.585336  0.258278  0.909255  1
  O  O9  1  0.442280  0.265904  0.623281  1
  O  O10  1  0.080572  0.264368  0.411506  1
  F  F11  1  0.897203  0.777132  0.580675  1
  F  F12  1  0.895594  0.760499  0.165403  1
  F  F13  1  0.573204  0.269327  0.331227  1
  F  F14  1  0.035077  0.748640  0.870832  1
  F  F15  1  0.075448  0.265054  0.825171  1
