# generated using pymatgen
data_MgSiO3
_symmetry_space_group_name_H-M   'P 1'
_cell_length_a   10.05101110
_cell_length_b   10.05101110
_cell_length_c   10.05101110
_cell_angle_alpha   109.24861485
_cell_angle_beta   109.24861485
_cell_angle_gamma   109.91735546
_symmetry_Int_Tables_number   1
_chemical_formula_structural   MgSiO3
_chemical_formula_sum   'Mg16 Si16 O48'
_cell_volume   781.60548894
_cell_formula_units_Z   16
loop_
 _symmetry_equiv_pos_site_id
 _symmetry_equiv_pos_as_xyz
  1  'x, y, z'
loop_
 _atom_site_type_symbol
 _atom_site_label
 _atom_site_symmetry_multiplicity
 _atom_site_fract_x
 _atom_site_fract_y
 _atom_site_fract_z
 _atom_site_occupancy
  Mg  Mg0  1  0.627343  0.377343  0.250000  1
  Mg  Mg1  1  0.877343  0.127343  0.750000  1
  Mg  Mg2  1  0.500000  0.500000  0.000000  1
  Mg  Mg3  1  0.749476  0.863077  0.141855  1
  Mg  Mg4  1  0.778778  0.392379  0.641855  1
  Mg  Mg5  1  0.363077  0.721222  0.113601  1
  Mg  Mg6  1  0.892379  0.750524  0.613601  1
  Mg  Mg7  1  0.000000  0.500000  0.000000  1
  Mg  Mg8  1  0.000000  0.000000  0.500000  1
  Mg  Mg9  1  0.107621  0.249476  0.386399  1
  Mg  Mg10  1  0.636923  0.278778  0.886399  1
  Mg  Mg11  1  0.221222  0.607621  0.358145  1
  Mg  Mg12  1  0.250524  0.136923  0.858145  1
  Mg  Mg13  1  0.122657  0.872657  0.250000  1
  Mg  Mg14  1  0.000000  0.500000  0.500000  1
  Mg  Mg15  1  0.372657  0.622657  0.750000  1
  Si  Si16  1  0.870265  0.234362  0.114372  1
  Si  Si17  1  0.500000  0.000000  0.000000  1
  Si  Si18  1  0.734362  0.119990  0.364098  1
  Si  Si19  1  0.000000  0.000000  0.000000  1
  Si  Si20  1  0.375000  0.125000  0.250000  1
  Si  Si21  1  0.875000  0.625000  0.250000  1
  Si  Si22  1  0.500000  0.000000  0.500000  1
  Si  Si23  1  0.255892  0.370265  0.135902  1
  Si  Si24  1  0.380010  0.244108  0.614372  1
  Si  Si25  1  0.500000  0.500000  0.500000  1
  Si  Si26  1  0.619990  0.755892  0.385628  1
  Si  Si27  1  0.744108  0.629735  0.864098  1
  Si  Si28  1  0.125000  0.375000  0.750000  1
  Si  Si29  1  0.625000  0.875000  0.750000  1
  Si  Si30  1  0.265638  0.880010  0.635902  1
  Si  Si31  1  0.129735  0.765638  0.885628  1
  O  O32  1  0.919002  0.089099  0.117107  1
  O  O33  1  0.883595  0.085725  0.371476  1
  O  O34  1  0.683421  0.185418  0.087504  1
  O  O35  1  0.431084  0.115173  0.111296  1
  O  O36  1  0.694249  0.468776  0.100225  1
  O  O37  1  0.904083  0.816579  0.001996  1
  O  O38  1  0.685418  0.097914  0.501996  1
  O  O39  1  0.774020  0.307024  0.415287  1
  O  O40  1  0.391737  0.358732  0.084713  1
  O  O41  1  0.180213  0.068916  0.184090  1
  O  O42  1  0.615173  0.003877  0.684090  1
  O  O43  1  0.868551  0.594025  0.399775  1
  O  O44  1  0.968776  0.368551  0.774526  1
  O  O45  1  0.905975  0.805751  0.274526  1
  O  O46  1  0.503877  0.319787  0.388704  1
  O  O47  1  0.528007  0.198105  0.617107  1
  O  O48  1  0.585725  0.714249  0.202130  1
  O  O49  1  0.987881  0.616405  0.702130  1
  O  O50  1  0.192976  0.108263  0.466996  1
  O  O51  1  0.858733  0.274020  0.966996  1
  O  O52  1  0.597914  0.595917  0.412496  1
  O  O53  1  0.214249  0.512119  0.128524  1
  O  O54  1  0.301895  0.419002  0.329902  1
  O  O55  1  0.410901  0.028007  0.829902  1
  O  O56  1  0.698105  0.580998  0.670098  1
  O  O57  1  0.589099  0.971993  0.170098  1
  O  O58  1  0.785751  0.487881  0.871476  1
  O  O59  1  0.402086  0.404082  0.587504  1
  O  O60  1  0.807024  0.891737  0.533004  1
  O  O61  1  0.141268  0.725980  0.033004  1
  O  O62  1  0.012119  0.383595  0.297870  1
  O  O63  1  0.414275  0.285751  0.797870  1
  O  O64  1  0.471993  0.801895  0.382893  1
  O  O65  1  0.496123  0.680213  0.611296  1
  O  O66  1  0.031224  0.631449  0.225474  1
  O  O67  1  0.094025  0.194249  0.725474  1
  O  O68  1  0.131449  0.405975  0.600225  1
  O  O69  1  0.819787  0.931084  0.815910  1
  O  O70  1  0.384827  0.996123  0.315910  1
  O  O71  1  0.608263  0.641267  0.915287  1
  O  O72  1  0.225980  0.692976  0.584713  1
  O  O73  1  0.314582  0.902086  0.498004  1
  O  O74  1  0.095918  0.183421  0.998004  1
  O  O75  1  0.305751  0.531224  0.899775  1
  O  O76  1  0.568916  0.884827  0.888704  1
  O  O77  1  0.316579  0.814582  0.912496  1
  O  O78  1  0.116405  0.914275  0.628524  1
  O  O79  1  0.080998  0.910901  0.882893  1
