# generated using pymatgen
data_WOF3
_symmetry_space_group_name_H-M   'P 1'
_cell_length_a   9.30806587
_cell_length_b   9.31157129
_cell_length_c   3.86126074
_cell_angle_alpha   89.97794853
_cell_angle_beta   90.02696351
_cell_angle_gamma   90.04084268
_symmetry_Int_Tables_number   1
_chemical_formula_structural   WOF3
_chemical_formula_sum   'W4 O4 F12'
_cell_volume   334.66582044
_cell_formula_units_Z   4
loop_
 _symmetry_equiv_pos_site_id
 _symmetry_equiv_pos_as_xyz
  1  'x, y, z'
loop_
 _atom_site_type_symbol
 _atom_site_label
 _atom_site_symmetry_multiplicity
 _atom_site_fract_x
 _atom_site_fract_y
 _atom_site_fract_z
 _atom_site_occupancy
  W  W0  1  0.132506  0.367485  0.258682  1
  W  W1  1  0.368618  0.868331  0.741400  1
  W  W2  1  0.631747  0.131424  0.741379  1
  W  W3  1  0.868849  0.631159  0.258485  1
  O  O4  1  0.127931  0.372044  0.758637  1
  O  O5  1  0.374291  0.874115  0.241517  1
  O  O6  1  0.625965  0.125760  0.241488  1
  O  O7  1  0.874715  0.625304  0.758362  1
  F  F8  1  0.093400  0.591861  0.257956  1
  F  F9  1  0.109751  0.166182  0.258923  1
  F  F10  1  0.166648  0.884479  0.741220  1
  F  F11  1  0.333886  0.390165  0.258756  1
  F  F12  1  0.384355  0.666533  0.741760  1
  F  F13  1  0.406808  0.093186  0.741825  1
  F  F14  1  0.593160  0.906954  0.742469  1
  F  F15  1  0.615438  0.333268  0.741143  1
  F  F16  1  0.666748  0.616322  0.257934  1
  F  F17  1  0.833580  0.115586  0.741753  1
  F  F18  1  0.883548  0.833188  0.258390  1
  F  F19  1  0.908069  0.406663  0.257920  1
