# generated using pymatgen
data_Li3Co4WO8
_symmetry_space_group_name_H-M   'P 1'
_cell_length_a   10.59532230
_cell_length_b   10.59532277
_cell_length_c   14.86099683
_cell_angle_alpha   19.45788814
_cell_angle_beta   19.45789188
_cell_angle_gamma   33.78095783
_symmetry_Int_Tables_number   1
_chemical_formula_structural   Li3Co4WO8
_chemical_formula_sum   'Li3 Co4 W1 O8'
_cell_volume   157.95949654
_cell_formula_units_Z   1
loop_
 _symmetry_equiv_pos_site_id
 _symmetry_equiv_pos_as_xyz
  1  'x, y, z'
loop_
 _atom_site_type_symbol
 _atom_site_label
 _atom_site_symmetry_multiplicity
 _atom_site_fract_x
 _atom_site_fract_y
 _atom_site_fract_z
 _atom_site_occupancy
  Li  Li0  1  0.000000  0.500000  0.500000  1
  Li  Li1  1  0.500000  0.000000  0.500000  1
  Li  Li2  1  0.500000  0.500000  0.500000  1
  Co  Co3  1  0.000000  0.000000  0.000000  1
  Co  Co4  1  0.000000  0.500000  0.000000  1
  Co  Co5  1  0.500000  0.000000  0.000000  1
  Co  Co6  1  0.000000  0.000000  0.500000  1
  W  W7  1  0.500000  0.500000  0.000000  1
  O  O8  1  0.966431  0.966431  0.298287  1
  O  O9  1  0.030967  0.506440  0.228043  1
  O  O10  1  0.506440  0.030967  0.228043  1
  O  O11  1  0.033569  0.033569  0.701713  1
  O  O12  1  0.522048  0.522048  0.228334  1
  O  O13  1  0.969033  0.493560  0.771957  1
  O  O14  1  0.493560  0.969033  0.771957  1
  O  O15  1  0.477952  0.477952  0.771666  1
