# generated using pymatgen
data_LiTi(PO3)4
_symmetry_space_group_name_H-M   'P 1'
_cell_length_a   7.30305335
_cell_length_b   13.09652806
_cell_length_c   9.46348299
_cell_angle_alpha   90.00000000
_cell_angle_beta   93.68415074
_cell_angle_gamma   90.00000000
_symmetry_Int_Tables_number   1
_chemical_formula_structural   LiTi(PO3)4
_chemical_formula_sum   'Li4 Ti4 P16 O48'
_cell_volume   903.26093685
_cell_formula_units_Z   4
loop_
 _symmetry_equiv_pos_site_id
 _symmetry_equiv_pos_as_xyz
  1  'x, y, z'
loop_
 _atom_site_type_symbol
 _atom_site_label
 _atom_site_symmetry_multiplicity
 _atom_site_fract_x
 _atom_site_fract_y
 _atom_site_fract_z
 _atom_site_occupancy
  Li  Li0  1  0.919175  0.218458  0.040642  1
  Li  Li1  1  0.580825  0.718458  0.459358  1
  Li  Li2  1  0.419175  0.281542  0.540642  1
  Li  Li3  1  0.080825  0.781542  0.959358  1
  Ti  Ti4  1  0.953688  0.298959  0.435722  1
  Ti  Ti5  1  0.546312  0.798959  0.064278  1
  Ti  Ti6  1  0.453688  0.201041  0.935722  1
  Ti  Ti7  1  0.046312  0.701041  0.564278  1
  P  P8  1  0.075401  0.611196  0.245897  1
  P  P9  1  0.108703  0.134229  0.694791  1
  P  P10  1  0.166015  0.916296  0.708518  1
  P  P11  1  0.300630  0.893729  0.229640  1
  P  P12  1  0.199370  0.393729  0.270360  1
  P  P13  1  0.333985  0.416296  0.791482  1
  P  P14  1  0.391297  0.634229  0.805209  1
  P  P15  1  0.424599  0.111196  0.254103  1
  P  P16  1  0.575401  0.888804  0.745897  1
  P  P17  1  0.608703  0.365771  0.194791  1
  P  P18  1  0.666015  0.583704  0.208518  1
  P  P19  1  0.800630  0.606271  0.729640  1
  P  P20  1  0.699370  0.106271  0.770360  1
  P  P21  1  0.833985  0.083704  0.291482  1
  P  P22  1  0.891297  0.865771  0.305209  1
  P  P23  1  0.924599  0.388804  0.754103  1
  O  O24  1  0.105663  0.866872  0.279731  1
  O  O25  1  0.043510  0.902516  0.824980  1
  O  O26  1  0.126811  0.430228  0.729310  1
  O  O27  1  0.053865  0.319006  0.213490  1
  O  O28  1  0.083564  0.682723  0.125318  1
  O  O29  1  0.216733  0.140775  0.834898  1
  O  O30  1  0.151958  0.642172  0.392607  1
  O  O31  1  0.309638  0.891282  0.068777  1
  O  O32  1  0.174237  0.505155  0.204523  1
  O  O33  1  0.137892  0.024400  0.624973  1
  O  O34  1  0.138714  0.215733  0.585930  1
  O  O35  1  0.340864  0.337709  0.910359  1
  O  O36  1  0.159136  0.837709  0.589641  1
  O  O37  1  0.325763  0.005155  0.295477  1
  O  O38  1  0.361286  0.715733  0.914070  1
  O  O39  1  0.190362  0.391282  0.431223  1
  O  O40  1  0.362108  0.524400  0.875027  1
  O  O41  1  0.348042  0.142172  0.107393  1
  O  O42  1  0.283267  0.640775  0.665102  1
  O  O43  1  0.416436  0.182723  0.374682  1
  O  O44  1  0.446135  0.819006  0.286510  1
  O  O45  1  0.373189  0.930228  0.770690  1
  O  O46  1  0.394337  0.366872  0.220269  1
  O  O47  1  0.456490  0.402516  0.675020  1
  O  O48  1  0.543510  0.597484  0.324980  1
  O  O49  1  0.605663  0.633128  0.779731  1
  O  O50  1  0.626811  0.069772  0.229310  1
  O  O51  1  0.553865  0.180994  0.713490  1
  O  O52  1  0.583564  0.817277  0.625318  1
  O  O53  1  0.716733  0.359225  0.334898  1
  O  O54  1  0.651958  0.857828  0.892607  1
  O  O55  1  0.637892  0.475600  0.124973  1
  O  O56  1  0.809638  0.608718  0.568777  1
  O  O57  1  0.638714  0.284267  0.085930  1
  O  O58  1  0.674237  0.994845  0.704523  1
  O  O59  1  0.840864  0.162291  0.410359  1
  O  O60  1  0.659136  0.662291  0.089641  1
  O  O61  1  0.861286  0.784267  0.414070  1
  O  O62  1  0.862108  0.975600  0.375027  1
  O  O63  1  0.825763  0.494845  0.795477  1
  O  O64  1  0.690362  0.108718  0.931223  1
  O  O65  1  0.848042  0.357828  0.607393  1
  O  O66  1  0.783267  0.859225  0.165102  1
  O  O67  1  0.916436  0.317277  0.874682  1
  O  O68  1  0.946135  0.680994  0.786510  1
  O  O69  1  0.873189  0.569772  0.270690  1
  O  O70  1  0.956490  0.097484  0.175020  1
  O  O71  1  0.894337  0.133128  0.720269  1
