# generated using pymatgen
data_Li9Mn2P4HO18
_symmetry_space_group_name_H-M   'P 1'
_cell_length_a   6.75555136
_cell_length_b   10.73138248
_cell_length_c   10.73138248
_cell_angle_alpha   96.94039349
_cell_angle_beta   108.34613025
_cell_angle_gamma   71.65386975
_symmetry_Int_Tables_number   1
_chemical_formula_structural   Li9Mn2P4HO18
_chemical_formula_sum   'Li18 Mn4 P8 H2 O36'
_cell_volume   700.70553976
_cell_formula_units_Z   2
loop_
 _symmetry_equiv_pos_site_id
 _symmetry_equiv_pos_as_xyz
  1  'x, y, z'
loop_
 _atom_site_type_symbol
 _atom_site_label
 _atom_site_symmetry_multiplicity
 _atom_site_fract_x
 _atom_site_fract_y
 _atom_site_fract_z
 _atom_site_occupancy
  Li  Li0  1  0.236035  0.235409  0.227481  1
  Li  Li1  1  0.756037  0.235409  0.227481  1
  Li  Li2  1  0.117304  0.255016  0.489624  1
  Li  Li3  1  0.381035  0.489489  0.251558  1
  Li  Li4  1  0.125139  0.761396  0.011674  1
  Li  Li5  1  0.229020  0.020980  0.979020  1
  Li  Li6  1  0.493458  0.256542  0.743458  1
  Li  Li7  1  0.511457  0.738543  0.261457  1
  Li  Li8  1  0.749856  0.500144  0.499856  1
  Li  Li9  1  0.993458  0.256542  0.743458  1
  Li  Li10  1  0.729020  0.020980  0.979020  1
  Li  Li11  1  0.011457  0.738543  0.261457  1
  Li  Li12  1  0.249856  0.500144  0.499856  1
  Li  Li13  1  0.625139  0.988326  0.238604  1
  Li  Li14  1  0.617304  0.510376  0.744984  1
  Li  Li15  1  0.881035  0.748442  0.510511  1
  Li  Li16  1  0.736035  0.772519  0.764591  1
  Li  Li17  1  0.256037  0.772519  0.764591  1
  Mn  Mn18  1  0.490913  0.504211  0.002311  1
  Mn  Mn19  1  0.990913  0.997689  0.495789  1
  Mn  Mn20  1  0.507186  0.997689  0.495789  1
  Mn  Mn21  1  0.007186  0.504211  0.002311  1
  P  P22  1  0.892274  0.495776  0.280323  1
  P  P23  1  0.607669  0.278649  0.493986  1
  P  P24  1  0.884431  0.997811  0.766674  1
  P  P25  1  0.612127  0.778244  0.002498  1
  P  P26  1  0.384431  0.233326  0.002189  1
  P  P27  1  0.112127  0.997502  0.221756  1
  P  P28  1  0.392274  0.719677  0.504224  1
  P  P29  1  0.107669  0.506014  0.721351  1
  H  H30  1  0.311849  0.032926  0.656624  1
  H  H31  1  0.811849  0.343376  0.967074  1
  O  O32  1  0.488845  0.108343  0.086033  1
  O  O33  1  0.008660  0.080929  0.098248  1
  O  O34  1  0.177710  0.311895  0.044743  1
  O  O35  1  0.941813  0.039126  0.301991  1
  O  O36  1  0.555137  0.311895  0.044743  1
  O  O37  1  0.321053  0.039126  0.301991  1
  O  O38  1  0.243849  0.569051  0.056750  1
  O  O39  1  0.255818  0.050770  0.562407  1
  O  O40  1  0.981900  0.345861  0.309661  1
  O  O41  1  0.517580  0.309759  0.344920  1
  O  O42  1  0.855634  0.201532  0.529710  1
  O  O43  1  0.027544  0.532787  0.204719  1
  O  O44  1  0.644388  0.532787  0.204719  1
  O  O45  1  0.472545  0.201532  0.529710  1
  O  O46  1  0.826938  0.146478  0.800354  1
  O  O47  1  0.672729  0.807865  0.153324  1
  O  O48  1  0.911790  0.582886  0.406466  1
  O  O49  1  0.589908  0.403521  0.583339  1
  O  O50  1  0.411790  0.593534  0.417114  1
  O  O51  1  0.089908  0.416661  0.596479  1
  O  O52  1  0.326938  0.199646  0.853522  1
  O  O53  1  0.172729  0.846676  0.192135  1
  O  O54  1  0.144388  0.795281  0.467213  1
  O  O55  1  0.972545  0.470290  0.798468  1
  O  O56  1  0.527544  0.795281  0.467213  1
  O  O57  1  0.355634  0.470290  0.798468  1
  O  O58  1  0.481900  0.690339  0.654139  1
  O  O59  1  0.017580  0.655080  0.690241  1
  O  O60  1  0.755818  0.437593  0.949230  1
  O  O61  1  0.743849  0.943250  0.430949  1
  O  O62  1  0.821053  0.698009  0.960874  1
  O  O63  1  0.441813  0.698009  0.960874  1
  O  O64  1  0.055137  0.955257  0.688105  1
  O  O65  1  0.677710  0.955257  0.688105  1
  O  O66  1  0.988845  0.913967  0.891657  1
  O  O67  1  0.508660  0.901752  0.919072  1
