# generated using pymatgen
data_Mg21FeSi12(HO16)3
_symmetry_space_group_name_H-M   'P 1'
_cell_length_a   5.76518251
_cell_length_b   7.80800206
_cell_length_c   24.12693069
_cell_angle_alpha   97.06437150
_cell_angle_beta   109.58977811
_cell_angle_gamma   112.22822222
_symmetry_Int_Tables_number   1
_chemical_formula_structural   Mg21FeSi12(HO16)3
_chemical_formula_sum   'Mg21 Fe1 Si12 H3 O48'
_cell_volume   907.46631367
_cell_formula_units_Z   1
loop_
 _symmetry_equiv_pos_site_id
 _symmetry_equiv_pos_as_xyz
  1  'x, y, z'
loop_
 _atom_site_type_symbol
 _atom_site_label
 _atom_site_symmetry_multiplicity
 _atom_site_fract_x
 _atom_site_fract_y
 _atom_site_fract_z
 _atom_site_occupancy
  Mg  Mg0  1  0.856636  0.872652  0.659814  1
  Mg  Mg1  1  0.061637  0.330005  0.762980  1
  Mg  Mg2  1  0.943774  0.626475  0.430444  1
  Mg  Mg3  1  0.554191  0.947705  0.722525  1
  Mg  Mg4  1  0.490710  0.125132  0.961219  1
  Mg  Mg5  1  0.947966  0.189575  0.397802  1
  Mg  Mg6  1  0.989612  0.889248  0.044243  1
  Mg  Mg7  1  0.979393  0.738162  0.913563  1
  Mg  Mg8  1  0.451184  0.088156  0.618624  1
  Mg  Mg9  1  0.977895  0.499796  0.994785  1
  Mg  Mg10  1  0.993894  0.274176  0.084281  1
  Mg  Mg11  1  0.997345  0.124222  0.960686  1
  Mg  Mg12  1  0.995440  0.693402  0.578466  1
  Mg  Mg13  1  0.036391  0.030847  0.835779  1
  Mg  Mg14  1  0.017317  0.541306  0.676805  1
  Mg  Mg15  1  0.519092  0.090182  0.265623  1
  Mg  Mg16  1  0.487615  0.876918  0.039143  1
  Mg  Mg17  1  0.948572  0.183173  0.603899  1
  Mg  Mg18  1  0.911935  0.717417  0.212726  1
  Mg  Mg19  1  0.005716  0.007189  0.499925  1
  Mg  Mg20  1  0.970552  0.120645  0.199960  1
  Fe  Fe21  1  0.951483  0.485740  0.302952  1
  Si  Si22  1  0.428493  0.798205  0.854037  1
  Si  Si23  1  0.374435  0.504920  0.921110  1
  Si  Si24  1  0.434433  0.769967  0.528910  1
  Si  Si25  1  0.360905  0.487536  0.582884  1
  Si  Si26  1  0.574267  0.144169  0.831398  1
  Si  Si27  1  0.662097  0.577990  0.752539  1
  Si  Si28  1  0.348537  0.766722  0.152662  1
  Si  Si29  1  0.560591  0.731197  0.305682  1
  Si  Si30  1  0.469758  0.034584  0.467423  1
  Si  Si31  1  0.449395  0.384297  0.350323  1
  Si  Si32  1  0.571356  0.251437  0.151002  1
  Si  Si33  1  0.578106  0.493059  0.065725  1
  H  H34  1  0.585242  0.443263  0.822971  1
  H  H35  1  0.486719  0.443374  0.451656  1
  H  H36  1  0.368729  0.530065  0.193247  1
  O  O37  1  0.211878  0.971852  0.992741  1
  O  O38  1  0.235400  0.612529  0.954038  1
  O  O39  1  0.263127  0.890121  0.882602  1
  O  O40  1  0.453736  0.765875  0.602449  1
  O  O41  1  0.387454  0.887270  0.793340  1
  O  O42  1  0.250980  0.271141  0.915741  1
  O  O43  1  0.300007  0.562254  0.851150  1
  O  O44  1  0.095890  0.472936  0.603191  1
  O  O45  1  0.111220  0.783195  0.514978  1
  O  O46  1  0.326546  0.490952  0.726377  1
  O  O47  1  0.327980  0.206121  0.804630  1
  O  O48  1  0.714326  0.607284  0.952627  1
  O  O49  1  0.765960  0.891270  0.883886  1
  O  O50  1  0.684369  0.964049  0.321343  1
  O  O51  1  0.360579  0.788117  0.451873  1
  O  O52  1  0.218063  0.919885  0.659818  1
  O  O53  1  0.309239  0.514515  0.510094  1
  O  O54  1  0.747418  0.559471  0.825290  1
  O  O55  1  0.785718  0.806579  0.749072  1
  O  O56  1  0.721224  0.222512  0.907329  1
  O  O57  1  0.213764  0.642355  0.273796  1
  O  O58  1  0.229064  0.868967  0.192781  1
  O  O59  1  0.190275  0.061911  0.437476  1
  O  O60  1  0.148610  0.361802  0.350529  1
  O  O61  1  0.707874  0.572562  0.619481  1
  O  O62  1  0.787090  0.870210  0.553473  1
  O  O63  1  0.795440  0.173154  0.799606  1
  O  O64  1  0.806334  0.464017  0.726289  1
  O  O65  1  0.226386  0.753417  0.079585  1
  O  O66  1  0.293308  0.217557  0.279062  1
  O  O67  1  0.239440  0.533601  0.155069  1
  O  O68  1  0.591542  0.413809  0.430493  1
  O  O69  1  0.612325  0.642071  0.364733  1
  O  O70  1  0.564774  0.095742  0.543529  1
  O  O71  1  0.826997  0.125315  0.676488  1
  O  O72  1  0.239252  0.151467  0.128013  1
  O  O73  1  0.237136  0.378948  0.035211  1
  O  O74  1  0.704240  0.634894  0.268575  1
  O  O75  1  0.685527  0.866309  0.189191  1
  O  O76  1  0.259283  0.241205  0.578229  1
  O  O77  1  0.763558  0.385014  0.356497  1
  O  O78  1  0.675912  0.472559  0.140095  1
  O  O79  1  0.698508  0.720255  0.070473  1
  O  O80  1  0.732193  0.270386  0.225661  1
  O  O81  1  0.741407  0.108073  0.452203  1
  O  O82  1  0.717415  0.143836  0.121890  1
  O  O83  1  0.718256  0.379400  0.035428  1
  O  O84  1  0.770564  0.035829  0.010594  1
