# generated using pymatgen
data_Li5La3Nb2O12
_symmetry_space_group_name_H-M   'P 1'
_cell_length_a   11.18866655
_cell_length_b   11.14644962
_cell_length_c   11.16091022
_cell_angle_alpha   109.76778511
_cell_angle_beta   109.50649615
_cell_angle_gamma   109.27468180
_symmetry_Int_Tables_number   1
_chemical_formula_structural   Li5La3Nb2O12
_chemical_formula_sum   'Li20 La12 Nb8 O48'
_cell_volume   1069.69328061
_cell_formula_units_Z   4
loop_
 _symmetry_equiv_pos_site_id
 _symmetry_equiv_pos_as_xyz
  1  'x, y, z'
loop_
 _atom_site_type_symbol
 _atom_site_label
 _atom_site_symmetry_multiplicity
 _atom_site_fract_x
 _atom_site_fract_y
 _atom_site_fract_z
 _atom_site_occupancy
  Li  Li0  1  0.809625  0.060144  0.110013  1
  Li  Li1  1  0.428934  0.245653  0.041109  1
  Li  Li2  1  0.800133  0.246924  0.692678  1
  Li  Li3  1  0.703888  0.395640  0.451549  1
  Li  Li4  1  0.888995  0.180402  0.925326  1
  Li  Li5  1  0.607954  0.530403  0.284967  1
  Li  Li6  1  0.248949  0.045713  0.439894  1
  Li  Li7  1  0.537792  0.290752  0.616718  1
  Li  Li8  1  0.966789  0.581088  0.755559  1
  Li  Li9  1  0.690027  0.799520  0.249334  1
  Li  Li10  1  0.476878  0.715265  0.388634  1
  Li  Li11  1  0.017095  0.411798  0.237571  1
  Li  Li12  1  0.393003  0.443947  0.696921  1
  Li  Li13  1  0.109539  0.826238  0.090994  1
  Li  Li14  1  0.061180  0.110358  0.809489  1
  Li  Li15  1  0.212716  0.743318  0.321896  1
  Li  Li16  1  0.288108  0.611651  0.534296  1
  Li  Li17  1  0.569926  0.750853  0.958565  1
  Li  Li18  1  0.252940  0.685378  0.786825  1
  Li  Li19  1  0.172715  0.912876  0.890622  1
  La  La20  1  0.749709  0.124219  0.374800  1
  La  La21  1  0.378382  0.126845  0.251176  1
  La  La22  1  0.879892  0.634497  0.250879  1
  La  La23  1  0.250003  0.380176  0.130004  1
  La  La24  1  0.623665  0.250178  0.884727  1
  La  La25  1  0.125955  0.246977  0.376033  1
  La  La26  1  0.868047  0.760394  0.615920  1
  La  La27  1  0.369472  0.748825  0.118593  1
  La  La28  1  0.755953  0.630014  0.882587  1
  La  La29  1  0.125802  0.372840  0.748240  1
  La  La30  1  0.623147  0.874075  0.746241  1
  La  La31  1  0.249440  0.893938  0.636294  1
  Nb  Nb32  1  0.505604  0.003145  0.004350  1
  Nb  Nb33  1  0.999346  0.999733  0.004725  1
  Nb  Nb34  1  0.505972  0.000127  0.502936  1
  Nb  Nb35  1  0.493111  0.493579  0.992396  1
  Nb  Nb36  1  0.502125  0.500173  0.504458  1
  Nb  Nb37  1  0.998705  0.005670  0.496874  1
  Nb  Nb38  1  0.997755  0.496661  0.995508  1
  Nb  Nb39  1  0.993632  0.500708  0.494100  1
  O  O40  1  0.901632  0.025195  0.324846  1
  O  O41  1  0.884619  0.404217  0.075937  1
  O  O42  1  0.925532  0.305731  0.327345  1
  O  O43  1  0.978349  0.672272  0.092775  1
  O  O44  1  0.580279  0.169398  0.203771  1
  O  O45  1  0.924011  0.124603  0.596315  1
  O  O46  1  0.608283  0.419287  0.093913  1
  O  O47  1  0.196295  0.112964  0.019195  1
  O  O48  1  0.687279  0.674890  0.075552  1
  O  O49  1  0.598836  0.179156  0.486344  1
  O  O50  1  0.899178  0.389084  0.577283  1
  O  O51  1  0.123644  0.028348  0.202308  1
  O  O52  1  0.675416  0.088585  0.707308  1
  O  O53  1  0.824408  0.535297  0.412938  1
  O  O54  1  0.475878  0.382528  0.300257  1
  O  O55  1  0.421857  0.095746  0.614196  1
  O  O56  1  0.017285  0.198737  0.116403  1
  O  O57  1  0.480161  0.595913  0.178443  1
  O  O58  1  0.826348  0.796439  0.403212  1
  O  O59  1  0.674232  0.083529  0.972347  1
  O  O60  1  0.387387  0.300171  0.480562  1
  O  O61  1  0.802620  0.416726  0.822865  1
  O  O62  1  0.699474  0.525447  0.616176  1
  O  O63  1  0.593496  0.913786  0.114432  1
  O  O64  1  0.299409  0.471989  0.386332  1
  O  O65  1  0.201827  0.584707  0.172195  1
  O  O66  1  0.414935  0.088436  0.892799  1
  O  O67  1  0.324429  0.904589  0.022013  1
  O  O68  1  0.173814  0.199743  0.575380  1
  O  O69  1  0.611557  0.694566  0.521781  1
  O  O70  1  0.575413  0.902846  0.375551  1
  O  O71  1  0.530684  0.412001  0.824528  1
  O  O72  1  0.983563  0.803316  0.892747  1
  O  O73  1  0.523441  0.614137  0.701019  1
  O  O74  1  0.889464  0.986099  0.811047  1
  O  O75  1  0.320588  0.917996  0.303798  1
  O  O76  1  0.176516  0.489835  0.599097  1
  O  O77  1  0.297183  0.327376  0.921834  1
  O  O78  1  0.092139  0.614348  0.412614  1
  O  O79  1  0.406709  0.819542  0.516172  1
  O  O80  1  0.796232  0.884307  0.970154  1
  O  O81  1  0.383010  0.581738  0.900134  1
  O  O82  1  0.022912  0.320436  0.905746  1
  O  O83  1  0.093948  0.889278  0.421596  1
  O  O84  1  0.414282  0.826678  0.797923  1
  O  O85  1  0.082234  0.703637  0.680874  1
  O  O86  1  0.114237  0.586390  0.910032  1
  O  O87  1  0.077773  0.970161  0.672309  1
