# generated using pymatgen
data_KGePCO7
_symmetry_space_group_name_H-M   'P 1'
_cell_length_a   10.43620426
_cell_length_b   6.24118585
_cell_length_c   5.12952988
_cell_angle_alpha   90.00000000
_cell_angle_beta   87.79643329
_cell_angle_gamma   90.00000000
_symmetry_Int_Tables_number   1
_chemical_formula_structural   KGePCO7
_chemical_formula_sum   'K2 Ge2 P2 C2 O14'
_cell_volume   333.86122384
_cell_formula_units_Z   2
loop_
 _symmetry_equiv_pos_site_id
 _symmetry_equiv_pos_as_xyz
  1  'x, y, z'
loop_
 _atom_site_type_symbol
 _atom_site_label
 _atom_site_symmetry_multiplicity
 _atom_site_fract_x
 _atom_site_fract_y
 _atom_site_fract_z
 _atom_site_occupancy
  K  K0  1  0.200353  0.361104  0.234768  1
  K  K1  1  0.799647  0.861104  0.765232  1
  Ge  Ge2  1  0.359390  0.778935  0.780008  1
  Ge  Ge3  1  0.640610  0.278935  0.219992  1
  P  P4  1  0.446088  0.275153  0.727036  1
  P  P5  1  0.553912  0.775153  0.272964  1
  C  C6  1  0.138543  0.744566  0.705316  1
  C  C7  1  0.861457  0.244566  0.294684  1
  O  O8  1  0.975397  0.208679  0.332123  1
  O  O9  1  0.190315  0.766652  0.940085  1
  O  O10  1  0.232344  0.759604  0.517429  1
  O  O11  1  0.355241  0.083133  0.783097  1
  O  O12  1  0.357690  0.467955  0.788659  1
  O  O13  1  0.433898  0.773387  0.109014  1
  O  O14  1  0.487335  0.278682  0.431093  1
  O  O15  1  0.512665  0.778682  0.568907  1
  O  O16  1  0.566102  0.273387  0.890986  1
  O  O17  1  0.642310  0.967955  0.211341  1
  O  O18  1  0.644759  0.583133  0.216903  1
  O  O19  1  0.767656  0.259604  0.482571  1
  O  O20  1  0.809685  0.266652  0.059915  1
  O  O21  1  0.024603  0.708679  0.667877  1
