# generated using pymatgen
data_Cu6OF11
_symmetry_space_group_name_H-M   'P 1'
_cell_length_a   9.95448009
_cell_length_b   4.57207022
_cell_length_c   4.67418105
_cell_angle_alpha   91.63930961
_cell_angle_beta   82.15912470
_cell_angle_gamma   90.84178111
_symmetry_Int_Tables_number   1
_chemical_formula_structural   Cu6OF11
_chemical_formula_sum   'Cu6 O1 F11'
_cell_volume   210.64639197
_cell_formula_units_Z   1
loop_
 _symmetry_equiv_pos_site_id
 _symmetry_equiv_pos_as_xyz
  1  'x, y, z'
loop_
 _atom_site_type_symbol
 _atom_site_label
 _atom_site_symmetry_multiplicity
 _atom_site_fract_x
 _atom_site_fract_y
 _atom_site_fract_z
 _atom_site_occupancy
  Cu  Cu0  1  0.999375  0.981593  0.977073  1
  Cu  Cu1  1  0.158783  0.514091  0.512697  1
  Cu  Cu2  1  0.331060  0.007181  0.004078  1
  Cu  Cu3  1  0.500516  0.499637  0.499833  1
  Cu  Cu4  1  0.667535  0.000906  0.002720  1
  Cu  Cu5  1  0.851097  0.519178  0.516730  1
  O  O6  1  0.005101  0.688577  0.698972  1
  F  F7  1  0.182432  0.796734  0.210916  1
  F  F8  1  0.150114  0.198229  0.789751  1
  F  F9  1  0.314039  0.305534  0.301724  1
  F  F10  1  0.347539  0.706279  0.708377  1
  F  F11  1  0.515735  0.795040  0.208544  1
  F  F12  1  0.483869  0.208077  0.793649  1
  F  F13  1  0.656684  0.299242  0.298682  1
  F  F14  1  0.683542  0.705713  0.705328  1
  F  F15  1  0.850165  0.790801  0.199978  1
  F  F16  1  0.815798  0.206056  0.792480  1
  F  F17  1  0.986611  0.277133  0.278469  1
