# generated using pymatgen
data_LiNiPO4
_symmetry_space_group_name_H-M   'P 1'
_cell_length_a   9.90872177
_cell_length_b   6.98379370
_cell_length_c   4.90049678
_cell_angle_alpha   90.00000000
_cell_angle_beta   90.00000000
_cell_angle_gamma   90.00000000
_symmetry_Int_Tables_number   1
_chemical_formula_structural   LiNiPO4
_chemical_formula_sum   'Li4 Ni4 P4 O16'
_cell_volume   339.11667390
_cell_formula_units_Z   4
loop_
 _symmetry_equiv_pos_site_id
 _symmetry_equiv_pos_as_xyz
  1  'x, y, z'
loop_
 _atom_site_type_symbol
 _atom_site_label
 _atom_site_symmetry_multiplicity
 _atom_site_fract_x
 _atom_site_fract_y
 _atom_site_fract_z
 _atom_site_occupancy
  Li  Li0  1  0.160645  0.995662  0.242428  1
  Li  Li1  1  0.339355  0.495662  0.742428  1
  Li  Li2  1  0.660645  0.504338  0.242428  1
  Li  Li3  1  0.839355  0.004338  0.742428  1
  Ni  Ni4  1  0.143892  0.491721  0.231328  1
  Ni  Ni5  1  0.356108  0.991721  0.731328  1
  Ni  Ni6  1  0.643892  0.008279  0.231328  1
  Ni  Ni7  1  0.856108  0.508279  0.731328  1
  P  P8  1  0.096330  0.753515  0.752455  1
  P  P9  1  0.403670  0.253515  0.252455  1
  P  P10  1  0.596330  0.746485  0.752455  1
  P  P11  1  0.903670  0.246485  0.252455  1
  O  O12  1  0.057790  0.235592  0.195982  1
  O  O13  1  0.124920  0.746294  0.064213  1
  O  O14  1  0.151986  0.564009  0.625543  1
  O  O15  1  0.166303  0.932946  0.633900  1
  O  O16  1  0.333697  0.432946  0.133900  1
  O  O17  1  0.348014  0.064009  0.125543  1
  O  O18  1  0.375080  0.246294  0.564213  1
  O  O19  1  0.442210  0.735592  0.695982  1
  O  O20  1  0.557790  0.264408  0.195982  1
  O  O21  1  0.624920  0.753706  0.064213  1
  O  O22  1  0.651986  0.935991  0.625543  1
  O  O23  1  0.666303  0.567054  0.633900  1
  O  O24  1  0.833697  0.067054  0.133900  1
  O  O25  1  0.848014  0.435991  0.125543  1
  O  O26  1  0.875080  0.253706  0.564213  1
  O  O27  1  0.942210  0.764408  0.695982  1
