# generated using pymatgen
data_Fe10O11
_symmetry_space_group_name_H-M   'P 1'
_cell_length_a   34.26124148
_cell_length_b   23.46881332
_cell_length_c   10.75721587
_cell_angle_alpha   28.13274320
_cell_angle_beta   29.54462467
_cell_angle_gamma   6.45229085
_symmetry_Int_Tables_number   1
_chemical_formula_structural   Fe10O11
_chemical_formula_sum   'Fe20 O22'
_cell_volume   455.06357521
_cell_formula_units_Z   2
loop_
 _symmetry_equiv_pos_site_id
 _symmetry_equiv_pos_as_xyz
  1  'x, y, z'
loop_
 _atom_site_type_symbol
 _atom_site_label
 _atom_site_symmetry_multiplicity
 _atom_site_fract_x
 _atom_site_fract_y
 _atom_site_fract_z
 _atom_site_occupancy
  Fe  Fe0  1  0.090859  0.000065  0.000035  1
  Fe  Fe1  1  0.010189  0.993135  0.485520  1
  Fe  Fe2  1  0.090909  0.000018  0.499950  1
  Fe  Fe3  1  0.281811  0.987207  0.999795  1
  Fe  Fe4  1  0.171655  0.006799  0.514564  1
  Fe  Fe5  1  0.386750  0.963553  0.000530  1
  Fe  Fe6  1  0.267534  0.003929  0.511279  1
  Fe  Fe7  1  0.468041  0.983575  0.995060  1
  Fe  Fe8  1  0.351645  0.012438  0.506905  1
  Fe  Fe9  1  0.565669  0.967883  0.002658  1
  Fe  Fe10  1  0.466940  0.972907  0.517389  1
  Fe  Fe11  1  0.616071  0.032307  0.997141  1
  Fe  Fe12  1  0.526554  0.034952  0.481605  1
  Fe  Fe13  1  0.713803  0.016368  0.005006  1
  Fe  Fe14  1  0.655157  0.965217  0.518369  1
  Fe  Fe15  1  0.794929  0.036657  0.999457  1
  Fe  Fe16  1  0.714881  0.027093  0.482579  1
  Fe  Fe17  1  0.900133  0.012651  0.000176  1
  Fe  Fe18  1  0.830259  0.987418  0.493095  1
  Fe  Fe19  1  0.914358  0.995946  0.488772  1
  O  O20  1  0.068165  0.468453  0.252615  1
  O  O21  1  0.154714  0.468282  0.251964  1
  O  O22  1  0.027310  0.531492  0.747857  1
  O  O23  1  0.224667  0.490590  0.264611  1
  O  O24  1  0.113629  0.531559  0.747435  1
  O  O25  1  0.332641  0.477637  0.259394  1
  O  O26  1  0.203860  0.538733  0.745834  1
  O  O27  1  0.415100  0.478770  0.268169  1
  O  O28  1  0.305374  0.518950  0.740059  1
  O  O29  1  0.527232  0.454092  0.279239  1
  O  O30  1  0.429548  0.482629  0.724580  1
  O  O31  1  0.562055  0.528885  0.273984  1
  O  O32  1  0.492144  0.514500  0.733746  1
  O  O33  1  0.689677  0.485476  0.266317  1
  O  O34  1  0.619721  0.471153  0.726087  1
  O  O35  1  0.752410  0.517086  0.275530  1
  O  O36  1  0.654534  0.546004  0.720710  1
  O  O37  1  0.876354  0.481294  0.259752  1
  O  O38  1  0.766738  0.521180  0.731859  1
  O  O39  1  0.977924  0.461290  0.254217  1
  O  O40  1  0.849208  0.522295  0.740645  1
  O  O41  1  0.957032  0.509534  0.735507  1
