# generated using pymatgen
data_MnP2WO8
_symmetry_space_group_name_H-M   'P 1'
_cell_length_a   10.31267632
_cell_length_b   6.08044030
_cell_length_c   5.02477084
_cell_angle_alpha   90.00000000
_cell_angle_beta   91.76386053
_cell_angle_gamma   90.00000000
_symmetry_Int_Tables_number   1
_chemical_formula_structural   MnP2WO8
_chemical_formula_sum   'Mn2 P4 W2 O16'
_cell_volume   314.93204055
_cell_formula_units_Z   2
loop_
 _symmetry_equiv_pos_site_id
 _symmetry_equiv_pos_as_xyz
  1  'x, y, z'
loop_
 _atom_site_type_symbol
 _atom_site_label
 _atom_site_symmetry_multiplicity
 _atom_site_fract_x
 _atom_site_fract_y
 _atom_site_fract_z
 _atom_site_occupancy
  Mn  Mn0  1  0.275651  0.250000  0.956203  1
  Mn  Mn1  1  0.724349  0.750000  0.043797  1
  P  P2  1  0.090794  0.250000  0.425744  1
  P  P3  1  0.402550  0.750000  0.900084  1
  P  P4  1  0.597450  0.250000  0.099916  1
  P  P5  1  0.909206  0.750000  0.574256  1
  W  W6  1  0.220220  0.750000  0.459021  1
  W  W7  1  0.779780  0.250000  0.540979  1
  O  O8  1  0.049719  0.750000  0.681579  1
  O  O9  1  0.102950  0.250000  0.726317  1
  O  O10  1  0.167059  0.049042  0.296892  1
  O  O11  1  0.167059  0.450958  0.296892  1
  O  O12  1  0.326422  0.943708  0.747409  1
  O  O13  1  0.326422  0.556292  0.747409  1
  O  O14  1  0.374968  0.750000  0.196966  1
  O  O15  1  0.454367  0.250000  0.151065  1
  O  O16  1  0.545633  0.750000  0.848935  1
  O  O17  1  0.625032  0.250000  0.803034  1
  O  O18  1  0.673578  0.056292  0.252591  1
  O  O19  1  0.673578  0.443708  0.252591  1
  O  O20  1  0.832941  0.549042  0.703108  1
  O  O21  1  0.832941  0.950958  0.703108  1
  O  O22  1  0.897050  0.750000  0.273683  1
  O  O23  1  0.950281  0.250000  0.318421  1
