# generated using pymatgen
data_CaBi2O5
_symmetry_space_group_name_H-M   'P 1'
_cell_length_a   8.70643546
_cell_length_b   11.34971833
_cell_length_c   8.70643567
_cell_angle_alpha   89.95738197
_cell_angle_beta   96.48345614
_cell_angle_gamma   90.04261481
_symmetry_Int_Tables_number   1
_chemical_formula_structural   CaBi2O5
_chemical_formula_sum   'Ca6 Bi12 O30'
_cell_volume   854.82890458
_cell_formula_units_Z   6
loop_
 _symmetry_equiv_pos_site_id
 _symmetry_equiv_pos_as_xyz
  1  'x, y, z'
loop_
 _atom_site_type_symbol
 _atom_site_label
 _atom_site_symmetry_multiplicity
 _atom_site_fract_x
 _atom_site_fract_y
 _atom_site_fract_z
 _atom_site_occupancy
  Ca  Ca0  1  0.027445  0.571315  0.696119  1
  Ca  Ca1  1  0.303881  0.071315  0.972555  1
  Ca  Ca2  1  0.323556  0.250000  0.323556  1
  Ca  Ca3  1  0.676444  0.750000  0.676444  1
  Ca  Ca4  1  0.696119  0.928685  0.027445  1
  Ca  Ca5  1  0.972555  0.428685  0.303881  1
  Bi  Bi6  1  0.025343  0.931853  0.701454  1
  Bi  Bi7  1  0.013917  0.747972  0.349419  1
  Bi  Bi8  1  0.298546  0.431852  0.974657  1
  Bi  Bi9  1  0.355414  0.557076  0.361229  1
  Bi  Bi10  1  0.361229  0.942924  0.355414  1
  Bi  Bi11  1  0.349419  0.752028  0.013917  1
  Bi  Bi12  1  0.650581  0.247972  0.986083  1
  Bi  Bi13  1  0.638771  0.057076  0.644586  1
  Bi  Bi14  1  0.644586  0.442924  0.638771  1
  Bi  Bi15  1  0.701454  0.568147  0.025343  1
  Bi  Bi16  1  0.986083  0.252028  0.650581  1
  Bi  Bi17  1  0.974657  0.068147  0.298546  1
  O  O18  1  0.135183  0.912114  0.458893  1
  O  O19  1  0.134850  0.591095  0.460185  1
  O  O20  1  0.102927  0.115831  0.783435  1
  O  O21  1  0.078351  0.247939  0.432243  1
  O  O22  1  0.216565  0.615831  0.897073  1
  O  O23  1  0.209247  0.426271  0.206181  1
  O  O24  1  0.115818  0.381283  0.782382  1
  O  O25  1  0.245936  0.750000  0.245936  1
  O  O26  1  0.206181  0.073729  0.209247  1
  O  O27  1  0.217618  0.881283  0.884182  1
  O  O28  1  0.432243  0.252061  0.078351  1
  O  O29  1  0.451057  0.393642  0.466267  1
  O  O30  1  0.458893  0.587886  0.135183  1
  O  O31  1  0.539815  0.091095  0.865150  1
  O  O32  1  0.466267  0.106358  0.451057  1
  O  O33  1  0.533733  0.893642  0.548943  1
  O  O34  1  0.460185  0.908905  0.134850  1
  O  O35  1  0.541107  0.412114  0.864817  1
  O  O36  1  0.548943  0.606358  0.533733  1
  O  O37  1  0.567757  0.747939  0.921649  1
  O  O38  1  0.782382  0.118717  0.115818  1
  O  O39  1  0.793819  0.926271  0.790753  1
  O  O40  1  0.754064  0.250000  0.754064  1
  O  O41  1  0.884182  0.618717  0.217618  1
  O  O42  1  0.790753  0.573729  0.793819  1
  O  O43  1  0.783435  0.384169  0.102927  1
  O  O44  1  0.921649  0.752061  0.567757  1
  O  O45  1  0.897073  0.884169  0.216565  1
  O  O46  1  0.865150  0.408905  0.539815  1
  O  O47  1  0.864817  0.087886  0.541107  1
