# generated using pymatgen
data_LiNi(SO4)2
_symmetry_space_group_name_H-M   'P 1'
_cell_length_a   9.02463314
_cell_length_b   8.99830604
_cell_length_c   9.00874681
_cell_angle_alpha   55.58187889
_cell_angle_beta   55.29546667
_cell_angle_gamma   55.29543001
_symmetry_Int_Tables_number   1
_chemical_formula_structural   LiNi(SO4)2
_chemical_formula_sum   'Li3 Ni3 S6 O24'
_cell_volume   461.90369791
_cell_formula_units_Z   3
loop_
 _symmetry_equiv_pos_site_id
 _symmetry_equiv_pos_as_xyz
  1  'x, y, z'
loop_
 _atom_site_type_symbol
 _atom_site_label
 _atom_site_symmetry_multiplicity
 _atom_site_fract_x
 _atom_site_fract_y
 _atom_site_fract_z
 _atom_site_occupancy
  Li  Li0  1  0.354634  0.359698  0.350213  1
  Li  Li1  1  0.185727  0.429175  0.753214  1
  Li  Li2  1  0.754425  0.183298  0.433185  1
  Ni  Ni3  1  0.160468  0.145809  0.156486  1
  Ni  Ni4  1  0.641193  0.642828  0.645939  1
  Ni  Ni5  1  0.846191  0.846351  0.851351  1
  S  S6  1  0.036455  0.753811  0.461347  1
  S  S7  1  0.459838  0.034618  0.760176  1
  S  S8  1  0.758474  0.461075  0.036977  1
  S  S9  1  0.244808  0.549668  0.951924  1
  S  S10  1  0.548174  0.952618  0.247484  1
  S  S11  1  0.954465  0.241828  0.552150  1
  O  O12  1  0.107380  0.287184  0.514802  1
  O  O13  1  0.287745  0.510779  0.107316  1
  O  O14  1  0.999140  0.962896  0.342654  1
  O  O15  1  0.525008  0.104604  0.287558  1
  O  O16  1  0.025727  0.711757  0.656939  1
  O  O17  1  0.233756  0.628286  0.379511  1
  O  O18  1  0.376690  0.236083  0.635784  1
  O  O19  1  0.339058  0.000070  0.965651  1
  O  O20  1  0.642243  0.368941  0.236588  1
  O  O21  1  0.036676  0.681313  0.989186  1
  O  O22  1  0.269072  0.366837  0.956918  1
  O  O23  1  0.357289  0.968182  0.284972  1
  O  O24  1  0.657091  0.020950  0.714815  1
  O  O25  1  0.721374  0.650514  0.028256  1
  O  O26  1  0.969107  0.336904  0.996509  1
  O  O27  1  0.370241  0.638298  0.757990  1
  O  O28  1  0.673884  0.987672  0.039193  1
  O  O29  1  0.635909  0.756979  0.371159  1
  O  O30  1  0.757662  0.369481  0.637761  1
  O  O31  1  0.960134  0.266670  0.368744  1
  O  O32  1  0.487341  0.895208  0.702036  1
  O  O33  1  0.985730  0.035309  0.683836  1
  O  O34  1  0.701725  0.490164  0.896039  1
  O  O35  1  0.889665  0.704144  0.491639  1
