# generated using pymatgen
data_Ge2(WO3)9
_symmetry_space_group_name_H-M   'P 1'
_cell_length_a   7.59754755
_cell_length_b   7.59718911
_cell_length_c   11.58999637
_cell_angle_alpha   89.97014144
_cell_angle_beta   90.05971439
_cell_angle_gamma   120.00156074
_symmetry_Int_Tables_number   1
_chemical_formula_structural   Ge2(WO3)9
_chemical_formula_sum   'Ge2 W9 O27'
_cell_volume   579.33961860
_cell_formula_units_Z   1
loop_
 _symmetry_equiv_pos_site_id
 _symmetry_equiv_pos_as_xyz
  1  'x, y, z'
loop_
 _atom_site_type_symbol
 _atom_site_label
 _atom_site_symmetry_multiplicity
 _atom_site_fract_x
 _atom_site_fract_y
 _atom_site_fract_z
 _atom_site_occupancy
  Ge  Ge0  1  0.102576  0.000000  0.506643  1
  Ge  Ge1  1  0.897424  0.000000  0.826690  1
  W  W2  1  0.000000  0.500000  0.166667  1
  W  W3  1  -0.006036  0.485892  0.499554  1
  W  W4  1  0.006036  0.514108  0.833779  1
  W  W5  1  0.508072  0.514108  0.499554  1
  W  W6  1  0.500000  0.500000  0.166667  1
  W  W7  1  0.491928  0.485892  0.833779  1
  W  W8  1  0.500000  0.000000  0.166667  1
  W  W9  1  0.495373  0.000000  0.834150  1
  W  W10  1  0.504627  0.000000  0.499183  1
  O  O11  1  0.003389  0.504465  0.335634  1
  O  O12  1  0.000000  0.500000  0.666667  1
  O  O13  1  0.996611  0.495535  0.997699  1
  O  O14  1  0.215102  0.784783  0.165677  1
  O  O15  1  0.203217  0.787788  0.832008  1
  O  O16  1  0.187317  0.805164  0.502353  1
  O  O17  1  0.219329  0.436477  0.832259  1
  O  O18  1  0.217149  0.436477  0.501074  1
  O  O19  1  0.215091  0.430182  0.166667  1
  O  O20  1  0.569680  0.784783  0.167656  1
  O  O21  1  0.584571  0.787788  0.501325  1
  O  O22  1  0.617847  0.805164  0.830980  1
  O  O23  1  0.501076  0.504465  0.997699  1
  O  O24  1  0.498924  0.495535  0.335634  1
  O  O25  1  0.500000  0.500000  0.666667  1
  O  O26  1  0.430320  0.215217  0.165677  1
  O  O27  1  0.382153  0.194836  0.502353  1
  O  O28  1  0.415429  0.212212  0.832008  1
  O  O29  1  0.501302  0.000000  0.996796  1
  O  O30  1  0.498698  0.000000  0.336538  1
  O  O31  1  0.500000  0.000000  0.666667  1
  O  O32  1  0.784909  0.569818  0.166667  1
  O  O33  1  0.780671  0.563523  0.501074  1
  O  O34  1  0.782851  0.563523  0.832259  1
  O  O35  1  0.796783  0.212212  0.501325  1
  O  O36  1  0.784898  0.215217  0.167656  1
  O  O37  1  0.812683  0.194836  0.830980  1
