# generated using pymatgen
data_Li3Mn2F9
_symmetry_space_group_name_H-M   'P 1'
_cell_length_a   5.48373626
_cell_length_b   5.69011941
_cell_length_c   15.51745968
_cell_angle_alpha   77.39110066
_cell_angle_beta   114.52177471
_cell_angle_gamma   119.17145622
_symmetry_Int_Tables_number   1
_chemical_formula_structural   Li3Mn2F9
_chemical_formula_sum   'Li6 Mn4 F18'
_cell_volume   384.56920162
_cell_formula_units_Z   2
loop_
 _symmetry_equiv_pos_site_id
 _symmetry_equiv_pos_as_xyz
  1  'x, y, z'
loop_
 _atom_site_type_symbol
 _atom_site_label
 _atom_site_symmetry_multiplicity
 _atom_site_fract_x
 _atom_site_fract_y
 _atom_site_fract_z
 _atom_site_occupancy
  Li  Li0  1  0.242399  0.583419  0.757098  1
  Li  Li1  1  0.263339  0.717492  0.548655  1
  Li  Li2  1  0.437034  0.710123  0.955455  1
  Li  Li3  1  0.666290  0.414836  0.248657  1
  Li  Li4  1  0.743617  0.282637  0.452547  1
  Li  Li5  1  0.559315  0.292273  0.043900  1
  Mn  Mn6  1  0.002511  0.971192  0.150659  1
  Mn  Mn7  1  0.982476  0.978056  0.346808  1
  Mn  Mn8  1  0.035404  0.034543  0.653852  1
  Mn  Mn9  1  0.994926  0.015051  0.848883  1
  F  F10  1  0.116030  0.755315  0.250828  1
  F  F11  1  0.206627  0.801283  0.646324  1
  F  F12  1  0.177147  0.841525  0.949938  1
  F  F13  1  0.236075  0.328325  0.924312  1
  F  F14  1  0.138219  0.224444  0.250508  1
  F  F15  1  0.086196  0.329096  0.565570  1
  F  F16  1  0.368467  0.247136  0.750238  1
  F  F17  1  0.408476  0.189831  0.141420  1
  F  F18  1  0.345182  0.153097  0.442166  1
  F  F19  1  0.664313  0.844591  0.563250  1
  F  F20  1  0.585251  0.808860  0.856745  1
  F  F21  1  0.657913  0.769293  0.244390  1
  F  F22  1  0.923730  0.773124  0.759261  1
  F  F23  1  0.740946  0.672350  0.068377  1
  F  F24  1  0.910716  0.675893  0.430546  1
  F  F25  1  0.790003  0.197378  0.352371  1
  F  F26  1  0.833556  0.169904  0.056485  1
  F  F27  1  0.883919  0.219131  0.740758  1
