# generated using pymatgen
data_LiVBO4
_symmetry_space_group_name_H-M   'P 1'
_cell_length_a   9.29340251
_cell_length_b   8.33552456
_cell_length_c   5.22500395
_cell_angle_alpha   90.00000000
_cell_angle_beta   90.00000000
_cell_angle_gamma   123.88014914
_symmetry_Int_Tables_number   1
_chemical_formula_structural   LiVBO4
_chemical_formula_sum   'Li4 V4 B4 O16'
_cell_volume   336.03142842
_cell_formula_units_Z   4
loop_
 _symmetry_equiv_pos_site_id
 _symmetry_equiv_pos_as_xyz
  1  'x, y, z'
loop_
 _atom_site_type_symbol
 _atom_site_label
 _atom_site_symmetry_multiplicity
 _atom_site_fract_x
 _atom_site_fract_y
 _atom_site_fract_z
 _atom_site_occupancy
  Li  Li0  1  0.250144  0.549426  0.758250  1
  Li  Li1  1  0.299283  0.549426  0.258250  1
  Li  Li2  1  0.700717  0.450574  0.258250  1
  Li  Li3  1  0.749856  0.450574  0.758250  1
  V  V4  1  0.102091  0.804329  0.469118  1
  V  V5  1  0.297761  0.195671  0.969118  1
  V  V6  1  0.702239  0.804329  0.969118  1
  V  V7  1  0.897909  0.195671  0.469118  1
  B  B8  1  0.177289  0.787555  0.023557  1
  B  B9  1  0.610265  0.787555  0.523557  1
  B  B10  1  0.389735  0.212445  0.523557  1
  B  B11  1  0.822711  0.212445  0.023557  1
  O  O12  1  0.147170  0.928209  0.107435  1
  O  O13  1  0.185524  0.740372  0.777851  1
  O  O14  1  0.195737  0.699534  0.234744  1
  O  O15  1  0.113068  0.350252  0.495536  1
  O  O16  1  0.237185  0.350252  0.995536  1
  O  O17  1  0.218961  0.071791  0.607435  1
  O  O18  1  0.503797  0.699534  0.734744  1
  O  O19  1  0.554847  0.740372  0.277851  1
  O  O20  1  0.445153  0.259628  0.277851  1
  O  O21  1  0.496203  0.300466  0.734744  1
  O  O22  1  0.781039  0.928209  0.607435  1
  O  O23  1  0.762815  0.649748  0.995536  1
  O  O24  1  0.886932  0.649748  0.495536  1
  O  O25  1  0.804263  0.300466  0.234744  1
  O  O26  1  0.814476  0.259628  0.777851  1
  O  O27  1  0.852830  0.071791  0.107435  1
