# generated using pymatgen
data_Li5Sn5(PO4)6
_symmetry_space_group_name_H-M   'P 1'
_cell_length_a   9.27718041
_cell_length_b   9.41733328
_cell_length_c   9.44487709
_cell_angle_alpha   58.16334479
_cell_angle_beta   58.54914812
_cell_angle_gamma   58.63943116
_symmetry_Int_Tables_number   1
_chemical_formula_structural   Li5Sn5(PO4)6
_chemical_formula_sum   'Li5 Sn5 P6 O24'
_cell_volume   562.77018849
_cell_formula_units_Z   1
loop_
 _symmetry_equiv_pos_site_id
 _symmetry_equiv_pos_as_xyz
  1  'x, y, z'
loop_
 _atom_site_type_symbol
 _atom_site_label
 _atom_site_symmetry_multiplicity
 _atom_site_fract_x
 _atom_site_fract_y
 _atom_site_fract_z
 _atom_site_occupancy
  Li  Li0  1  0.736938  0.134325  0.350572  1
  Li  Li1  1  0.154592  0.819653  0.682263  1
  Li  Li2  1  0.683299  0.138197  0.827441  1
  Li  Li3  1  0.817875  0.691997  0.149060  1
  Li  Li4  1  0.827233  0.802914  0.813226  1
  Sn  Sn5  1  0.004624  0.988385  0.966826  1
  Sn  Sn6  1  0.486908  0.498500  0.498941  1
  Sn  Sn7  1  0.159128  0.154255  0.155507  1
  Sn  Sn8  1  0.341281  0.353489  0.346795  1
  Sn  Sn9  1  0.649170  0.657280  0.668114  1
  P  P10  1  0.071960  0.755967  0.437349  1
  P  P11  1  0.441854  0.065287  0.760940  1
  P  P12  1  0.231357  0.560942  0.970168  1
  P  P13  1  0.570919  0.972868  0.238775  1
  P  P14  1  0.956043  0.233025  0.554639  1
  P  P15  1  0.758760  0.439875  0.070334  1
  O  O16  1  0.078461  0.320888  0.518065  1
  O  O17  1  0.311369  0.540788  0.089956  1
  O  O18  1  0.115750  0.919266  0.266795  1
  O  O19  1  0.577597  0.080193  0.314374  1
  O  O20  1  0.037670  0.776223  0.604524  1
  O  O21  1  0.249088  0.587426  0.413846  1
  O  O22  1  0.274942  0.124238  0.915819  1
  O  O23  1  0.440176  0.239035  0.585477  1
  O  O24  1  0.189170  0.396666  0.027806  1
  O  O25  1  0.599974  0.407617  0.257557  1
  O  O26  1  0.049496  0.724013  0.977637  1
  O  O27  1  0.383269  0.051650  0.222377  1
  O  O28  1  0.618438  0.006368  0.786236  1
  O  O29  1  0.915586  0.258034  0.116651  1
  O  O30  1  0.352467  0.610123  0.772128  1
  O  O31  1  0.791735  0.602563  0.028514  1
  O  O32  1  0.615060  0.772380  0.350693  1
  O  O33  1  0.721234  0.986923  0.049980  1
  O  O34  1  0.754719  0.343282  0.622452  1
  O  O35  1  0.989319  0.201882  0.392441  1
  O  O36  1  0.422771  0.926771  0.738960  1
  O  O37  1  0.984597  0.047267  0.710660  1
  O  O38  1  0.719467  0.448019  0.927934  1
  O  O39  1  0.915706  0.738426  0.441171  1
