# generated using pymatgen
data_LiV3(O2F)2
_symmetry_space_group_name_H-M   'P 1'
_cell_length_a   4.90295493
_cell_length_b   10.29891976
_cell_length_c   8.66088450
_cell_angle_alpha   89.99747727
_cell_angle_beta   89.99837408
_cell_angle_gamma   90.00105616
_symmetry_Int_Tables_number   1
_chemical_formula_structural   LiV3(O2F)2
_chemical_formula_sum   'Li4 V12 O16 F8'
_cell_volume   437.33256991
_cell_formula_units_Z   4
loop_
 _symmetry_equiv_pos_site_id
 _symmetry_equiv_pos_as_xyz
  1  'x, y, z'
loop_
 _atom_site_type_symbol
 _atom_site_label
 _atom_site_symmetry_multiplicity
 _atom_site_fract_x
 _atom_site_fract_y
 _atom_site_fract_z
 _atom_site_occupancy
  Li  Li0  1  0.044148  0.219656  0.249892  1
  Li  Li1  1  0.455830  0.719677  0.250110  1
  Li  Li2  1  0.544175  0.280312  0.750116  1
  Li  Li3  1  0.955837  0.780330  0.749873  1
  V  V4  1  0.962564  0.100497  0.749989  1
  V  V5  1  0.988015  0.358415  0.575108  1
  V  V6  1  0.988006  0.358424  0.924935  1
  V  V7  1  0.511991  0.858417  0.575066  1
  V  V8  1  0.511996  0.858386  0.924884  1
  V  V9  1  0.537471  0.600486  0.750012  1
  V  V10  1  0.462523  0.399502  0.250002  1
  V  V11  1  0.487994  0.141565  0.075059  1
  V  V12  1  0.488027  0.141601  0.424897  1
  V  V13  1  0.011988  0.641612  0.075121  1
  V  V14  1  0.011980  0.641585  0.424929  1
  V  V15  1  0.037455  0.899515  0.250001  1
  O  O16  1  0.262067  0.061543  0.249985  1
  O  O17  1  0.254951  0.300927  0.081812  1
  O  O18  1  0.254911  0.300956  0.418101  1
  O  O19  1  0.174641  0.267379  0.750016  1
  O  O20  1  0.325374  0.767341  0.749981  1
  O  O21  1  0.245102  0.800947  0.081898  1
  O  O22  1  0.245060  0.800951  0.418167  1
  O  O23  1  0.237912  0.561546  0.250034  1
  O  O24  1  0.762069  0.438456  0.750035  1
  O  O25  1  0.754971  0.199052  0.918174  1
  O  O26  1  0.754932  0.199057  0.581883  1
  O  O27  1  0.674622  0.232627  0.249963  1
  O  O28  1  0.825357  0.732652  0.250033  1
  O  O29  1  0.745074  0.699063  0.581840  1
  O  O30  1  0.745113  0.699051  0.918108  1
  O  O31  1  0.737912  0.938461  0.749960  1
  F  F32  1  0.233828  0.531689  0.588536  1
  F  F33  1  0.233766  0.531699  0.911540  1
  F  F34  1  0.266228  0.031690  0.588483  1
  F  F35  1  0.266151  0.031658  0.911442  1
  F  F36  1  0.733762  0.968294  0.088466  1
  F  F37  1  0.733829  0.968333  0.411461  1
  F  F38  1  0.766153  0.468335  0.088567  1
  F  F39  1  0.766216  0.468316  0.411523  1
