# generated using pymatgen
data_Li10Si(PSe6)2
_symmetry_space_group_name_H-M   'P 1'
_cell_length_a   9.04091265
_cell_length_b   9.38321865
_cell_length_c   13.63791907
_cell_angle_alpha   91.81536578
_cell_angle_beta   90.72548580
_cell_angle_gamma   90.35035010
_symmetry_Int_Tables_number   1
_chemical_formula_structural   Li10Si(PSe6)2
_chemical_formula_sum   'Li20 Si2 P4 Se24'
_cell_volume   1156.24574004
_cell_formula_units_Z   2
loop_
 _symmetry_equiv_pos_site_id
 _symmetry_equiv_pos_as_xyz
  1  'x, y, z'
loop_
 _atom_site_type_symbol
 _atom_site_label
 _atom_site_symmetry_multiplicity
 _atom_site_fract_x
 _atom_site_fract_y
 _atom_site_fract_z
 _atom_site_occupancy
  Li  Li0  1  0.988560  0.516059  0.955218  1
  Li  Li1  1  0.966145  0.516707  0.424840  1
  Li  Li2  1  0.508894  0.966338  0.547655  1
  Li  Li3  1  0.496922  0.993021  0.048188  1
  Li  Li4  1  0.256660  0.292029  0.158119  1
  Li  Li5  1  0.745983  0.746694  0.281144  1
  Li  Li6  1  0.218479  0.817954  0.755335  1
  Li  Li7  1  0.230582  0.755620  0.251104  1
  Li  Li8  1  0.753557  0.220060  0.349721  1
  Li  Li9  1  0.462563  0.516502  0.751276  1
  Li  Li10  1  0.230225  0.227262  0.364026  1
  Li  Li11  1  0.731642  0.256495  0.856953  1
  Li  Li12  1  0.247639  0.760233  0.006793  1
  Li  Li13  1  0.741840  0.265511  0.132818  1
  Li  Li14  1  0.763104  0.726322  0.690460  1
  Li  Li15  1  0.224504  0.261200  0.919747  1
  Li  Li16  1  0.745456  0.759602  0.009128  1
  Li  Li17  1  0.241809  0.721582  0.484103  1
  Li  Li18  1  0.784162  0.213954  0.625495  1
  Li  Li19  1  0.241291  0.210906  0.649807  1
  Si  Si20  1  0.997101  0.485990  0.183039  1
  Si  Si21  1  0.507776  0.992594  0.816340  1
  P  P22  1  0.993134  0.965673  0.501486  1
  P  P23  1  0.492113  0.515295  0.992979  1
  P  P24  1  0.008759  0.482090  0.684311  1
  P  P25  1  0.487557  0.009727  0.310625  1
  Se  Se26  1  0.988553  0.183716  0.443726  1
  Se  Se27  1  0.005216  0.790508  0.385731  1
  Se  Se28  1  0.288666  0.534264  0.898020  1
  Se  Se29  1  0.689787  0.533744  0.895549  1
  Se  Se30  1  0.496721  0.698526  0.101842  1
  Se  Se31  1  0.485455  0.304376  0.061344  1
  Se  Se32  1  0.202857  0.945641  0.590750  1
  Se  Se33  1  0.795549  0.945524  0.593786  1
  Se  Se34  1  0.005703  0.297588  0.068632  1
  Se  Se35  1  0.000120  0.704119  0.107243  1
  Se  Se36  1  0.219462  0.485526  0.598603  1
  Se  Se37  1  0.808843  0.491485  0.586856  1
  Se  Se38  1  0.486932  0.794451  0.376369  1
  Se  Se39  1  0.496221  0.184352  0.425685  1
  Se  Se40  1  0.288154  0.990643  0.903849  1
  Se  Se41  1  0.711722  0.996526  0.917097  1
  Se  Se42  1  0.991690  0.666494  0.791500  1
  Se  Se43  1  0.003283  0.274393  0.761549  1
  Se  Se44  1  0.782441  0.466927  0.269983  1
  Se  Se45  1  0.197046  0.479797  0.289395  1
  Se  Se46  1  0.515746  0.197138  0.724421  1
  Se  Se47  1  0.492987  0.800193  0.705635  1
  Se  Se48  1  0.691890  0.014602  0.218617  1
  Se  Se49  1  0.285898  0.031146  0.216312  1
