# generated using pymatgen
data_Li2BiBO4
_symmetry_space_group_name_H-M   'P 1'
_cell_length_a   6.67169938
_cell_length_b   10.50478771
_cell_length_c   4.93924567
_cell_angle_alpha   90.00000000
_cell_angle_beta   90.00000000
_cell_angle_gamma   90.00000000
_symmetry_Int_Tables_number   1
_chemical_formula_structural   Li2BiBO4
_chemical_formula_sum   'Li8 Bi4 B4 O16'
_cell_volume   346.16597406
_cell_formula_units_Z   4
loop_
 _symmetry_equiv_pos_site_id
 _symmetry_equiv_pos_as_xyz
  1  'x, y, z'
loop_
 _atom_site_type_symbol
 _atom_site_label
 _atom_site_symmetry_multiplicity
 _atom_site_fract_x
 _atom_site_fract_y
 _atom_site_fract_z
 _atom_site_occupancy
  Li  Li0  1  0.999166  0.417204  0.183479  1
  Li  Li1  1  0.999166  0.917204  0.316521  1
  Li  Li2  1  0.500834  0.917204  0.316521  1
  Li  Li3  1  0.500834  0.417204  0.183479  1
  Li  Li4  1  0.499166  0.082796  0.683479  1
  Li  Li5  1  0.499166  0.582796  0.816521  1
  Li  Li6  1  0.000834  0.582796  0.816521  1
  Li  Li7  1  0.000834  0.082796  0.683479  1
  Bi  Bi8  1  0.250000  0.170869  0.193971  1
  Bi  Bi9  1  0.250000  0.670869  0.306029  1
  Bi  Bi10  1  0.750000  0.329131  0.693971  1
  Bi  Bi11  1  0.750000  0.829131  0.806029  1
  B  B12  1  0.250000  0.345604  0.671035  1
  B  B13  1  0.250000  0.845604  0.828965  1
  B  B14  1  0.750000  0.654396  0.328965  1
  B  B15  1  0.750000  0.154396  0.171035  1
  O  O16  1  0.070176  0.402601  0.795233  1
  O  O17  1  0.070176  0.902601  0.704767  1
  O  O18  1  0.250000  0.366438  0.365010  1
  O  O19  1  0.250000  0.698993  0.792344  1
  O  O20  1  0.250000  0.198993  0.707656  1
  O  O21  1  0.250000  0.866438  0.134990  1
  O  O22  1  0.429824  0.902601  0.704767  1
  O  O23  1  0.429824  0.402601  0.795233  1
  O  O24  1  0.570176  0.597399  0.204767  1
  O  O25  1  0.570176  0.097399  0.295233  1
  O  O26  1  0.750000  0.633562  0.634990  1
  O  O27  1  0.750000  0.133562  0.865010  1
  O  O28  1  0.750000  0.301007  0.207656  1
  O  O29  1  0.750000  0.801007  0.292344  1
  O  O30  1  0.929824  0.597399  0.204767  1
  O  O31  1  0.929824  0.097399  0.295233  1
