# generated using pymatgen
data_Ti3CrNi2(PO4)6
_symmetry_space_group_name_H-M   'P 1'
_cell_length_a   8.50409641
_cell_length_b   8.50409630
_cell_length_c   8.50409591
_cell_angle_alpha   60.83299885
_cell_angle_beta   60.83299686
_cell_angle_gamma   60.83299544
_symmetry_Int_Tables_number   1
_chemical_formula_structural   Ti3CrNi2(PO4)6
_chemical_formula_sum   'Ti3 Cr1 Ni2 P6 O24'
_cell_volume   443.04895684
_cell_formula_units_Z   1
loop_
 _symmetry_equiv_pos_site_id
 _symmetry_equiv_pos_as_xyz
  1  'x, y, z'
loop_
 _atom_site_type_symbol
 _atom_site_label
 _atom_site_symmetry_multiplicity
 _atom_site_fract_x
 _atom_site_fract_y
 _atom_site_fract_z
 _atom_site_occupancy
  Ti  Ti0  1  0.143122  0.143122  0.143122  1
  Ti  Ti1  1  0.355542  0.355542  0.355542  1
  Ti  Ti2  1  0.644077  0.644077  0.644077  1
  Cr  Cr3  1  0.859005  0.859005  0.859005  1
  Ni  Ni4  1  0.000088  0.000088  0.000088  1
  Ni  Ni5  1  0.498879  0.498879  0.498879  1
  P  P6  1  0.248958  0.545296  0.954280  1
  P  P7  1  0.545296  0.954280  0.248958  1
  P  P8  1  0.954280  0.248958  0.545296  1
  P  P9  1  0.044328  0.750686  0.458414  1
  P  P10  1  0.458414  0.044328  0.750686  1
  P  P11  1  0.750686  0.458414  0.044328  1
  O  O12  1  0.113897  0.317274  0.499617  1
  O  O13  1  0.317274  0.499617  0.113897  1
  O  O14  1  0.055348  0.910736  0.259256  1
  O  O15  1  0.499617  0.113897  0.317274  1
  O  O16  1  0.007313  0.813705  0.614676  1
  O  O17  1  0.241774  0.588097  0.439680  1
  O  O18  1  0.259256  0.055348  0.910736  1
  O  O19  1  0.439680  0.241774  0.588097  1
  O  O20  1  0.183387  0.384601  0.998179  1
  O  O21  1  0.588097  0.439680  0.241774  1
  O  O22  1  0.089597  0.742188  0.943668  1
  O  O23  1  0.384601  0.998179  0.183387  1
  O  O24  1  0.614676  0.007313  0.813705  1
  O  O25  1  0.910736  0.259256  0.055348  1
  O  O26  1  0.411890  0.556352  0.757842  1
  O  O27  1  0.813705  0.614676  0.007313  1
  O  O28  1  0.556352  0.757842  0.411890  1
  O  O29  1  0.742188  0.943668  0.089597  1
  O  O30  1  0.757842  0.411890  0.556352  1
  O  O31  1  0.998179  0.183387  0.384601  1
  O  O32  1  0.501766  0.882880  0.683601  1
  O  O33  1  0.943668  0.089597  0.742188  1
  O  O34  1  0.683601  0.501766  0.882880  1
  O  O35  1  0.882880  0.683601  0.501766  1
