# generated using pymatgen
data_LiCoSiO4
_symmetry_space_group_name_H-M   'P 1'
_cell_length_a   5.34021877
_cell_length_b   8.27583729
_cell_length_c   5.34021877
_cell_angle_alpha   98.54158988
_cell_angle_beta   53.70358790
_cell_angle_gamma   83.40962026
_symmetry_Int_Tables_number   1
_chemical_formula_structural   LiCoSiO4
_chemical_formula_sum   'Li2 Co2 Si2 O8'
_cell_volume   181.92142351
_cell_formula_units_Z   2
loop_
 _symmetry_equiv_pos_site_id
 _symmetry_equiv_pos_as_xyz
  1  'x, y, z'
loop_
 _atom_site_type_symbol
 _atom_site_label
 _atom_site_symmetry_multiplicity
 _atom_site_fract_x
 _atom_site_fract_y
 _atom_site_fract_z
 _atom_site_occupancy
  Li  Li0  1  0.706155  0.135452  0.647487  1
  Li  Li1  1  0.012035  0.635452  0.841607  1
  Co  Co2  1  0.355497  0.493856  0.991838  1
  Co  Co3  1  0.997982  0.993856  0.849353  1
  Si  Si4  1  0.365767  0.253368  0.418752  1
  Si  Si5  1  0.665385  0.753368  0.619133  1
  O  O6  1  0.373702  0.304939  0.126481  1
  O  O7  1  0.707443  0.117168  0.271606  1
  O  O8  1  0.080442  0.158505  0.613387  1
  O  O9  1  0.324947  0.421812  0.653916  1
  O  O10  1  0.321542  0.804939  0.678641  1
  O  O11  1  0.654438  0.617168  0.824611  1
  O  O12  1  0.954882  0.658505  0.238947  1
  O  O13  1  0.732104  0.921812  0.746759  1
