# generated using pymatgen
data_Er4(B2O5)3
_symmetry_space_group_name_H-M   'P 1'
_cell_length_a   4.38087654
_cell_length_b   6.22025788
_cell_length_c   18.84042221
_cell_angle_alpha   83.95384708
_cell_angle_beta   89.99640593
_cell_angle_gamma   69.38136822
_symmetry_Int_Tables_number   1
_chemical_formula_structural   Er4(B2O5)3
_chemical_formula_sum   'Er8 B12 O30'
_cell_volume   477.46755619
_cell_formula_units_Z   2
loop_
 _symmetry_equiv_pos_site_id
 _symmetry_equiv_pos_as_xyz
  1  'x, y, z'
loop_
 _atom_site_type_symbol
 _atom_site_label
 _atom_site_symmetry_multiplicity
 _atom_site_fract_x
 _atom_site_fract_y
 _atom_site_fract_z
 _atom_site_occupancy
  Er  Er0  1  0.347067  0.725122  0.802463  1
  Er  Er1  1  0.333420  0.734672  0.598932  1
  Er  Er2  1  0.068123  0.265301  0.901072  1
  Er  Er3  1  0.072115  0.274831  0.697515  1
  Er  Er4  1  0.927872  0.725179  0.302483  1
  Er  Er5  1  0.931878  0.734698  0.098928  1
  Er  Er6  1  0.666578  0.265329  0.401067  1
  Er  Er7  1  0.652936  0.274877  0.197532  1
  B  B8  1  0.359709  0.661739  0.974406  1
  B  B9  1  0.803218  0.805430  0.912771  1
  B  B10  1  0.795479  0.864833  0.694274  1
  B  B11  1  0.391393  0.805439  0.412774  1
  B  B12  1  0.339597  0.864891  0.194290  1
  B  B13  1  0.021344  0.338272  0.525592  1
  B  B14  1  0.978655  0.661727  0.474410  1
  B  B15  1  0.660403  0.135106  0.805710  1
  B  B16  1  0.608609  0.194562  0.587227  1
  B  B17  1  0.204525  0.135167  0.305726  1
  B  B18  1  0.196782  0.194569  0.087229  1
  B  B19  1  0.640295  0.338263  0.025595  1
  O  O20  1  0.006097  0.745271  0.979452  1
  O  O21  1  0.457375  0.831390  0.929790  1
  O  O22  1  0.465402  0.870831  0.696652  1
  O  O23  1  0.840004  0.972159  0.621487  1
  O  O24  1  0.187833  0.972160  0.121493  1
  O  O25  1  0.048572  0.636197  0.703719  1
  O  O26  1  0.248732  0.745290  0.479480  1
  O  O27  1  0.711410  0.831328  0.429743  1
  O  O28  1  0.663660  0.870852  0.196680  1
  O  O29  1  0.923308  0.636855  0.861656  1
  O  O30  1  0.495043  0.417074  0.950533  1
  O  O31  1  0.439615  0.636900  0.361662  1
  O  O32  1  0.314939  0.636294  0.203753  1
  O  O33  1  0.088212  0.417041  0.450561  1
  O  O34  1  0.911782  0.582964  0.549443  1
  O  O35  1  0.685055  0.363704  0.796246  1
  O  O36  1  0.560376  0.363103  0.638339  1
  O  O37  1  0.504960  0.582929  0.049470  1
  O  O38  1  0.076689  0.363141  0.138343  1
  O  O39  1  0.336340  0.129144  0.803318  1
  O  O40  1  0.288590  0.168673  0.570258  1
  O  O41  1  0.751274  0.254703  0.520521  1
  O  O42  1  0.951430  0.363801  0.296281  1
  O  O43  1  0.812167  0.027842  0.878505  1
  O  O44  1  0.159999  0.027844  0.378514  1
  O  O45  1  0.534602  0.129164  0.303346  1
  O  O46  1  0.131342  0.000107  0.249994  1
  O  O47  1  0.868660  0.999893  0.750005  1
  O  O48  1  0.542628  0.168613  0.070211  1
  O  O49  1  0.993906  0.254723  0.020548  1
