# generated using pymatgen
data_Na6Co2C4SO16
_symmetry_space_group_name_H-M   'P 1'
_cell_length_a   9.88670539
_cell_length_b   9.88670489
_cell_length_c   9.88670471
_cell_angle_alpha   59.99999859
_cell_angle_beta   60.00000111
_cell_angle_gamma   60.00000170
_symmetry_Int_Tables_number   1
_chemical_formula_structural   Na6Co2C4SO16
_chemical_formula_sum   'Na12 Co4 C8 S2 O32'
_cell_volume   683.34454808
_cell_formula_units_Z   2
loop_
 _symmetry_equiv_pos_site_id
 _symmetry_equiv_pos_as_xyz
  1  'x, y, z'
loop_
 _atom_site_type_symbol
 _atom_site_label
 _atom_site_symmetry_multiplicity
 _atom_site_fract_x
 _atom_site_fract_y
 _atom_site_fract_z
 _atom_site_occupancy
  Na  Na0  1  0.159363  0.090637  0.090637  1
  Na  Na1  1  0.159363  0.659363  0.090637  1
  Na  Na2  1  0.159363  0.090637  0.659363  1
  Na  Na3  1  0.409363  0.340637  0.340637  1
  Na  Na4  1  0.590637  0.659363  0.090637  1
  Na  Na5  1  0.590637  0.090637  0.659363  1
  Na  Na6  1  0.409363  0.340637  0.909363  1
  Na  Na7  1  0.409363  0.909363  0.340637  1
  Na  Na8  1  0.590637  0.659363  0.659363  1
  Na  Na9  1  0.840637  0.340637  0.909363  1
  Na  Na10  1  0.840637  0.909363  0.340637  1
  Na  Na11  1  0.840637  0.909363  0.909363  1
  Co  Co12  1  0.000000  0.000000  0.500000  1
  Co  Co13  1  0.000000  0.500000  0.000000  1
  Co  Co14  1  0.000000  0.500000  0.500000  1
  Co  Co15  1  0.500000  0.500000  0.500000  1
  C  C16  1  0.157665  0.280778  0.280778  1
  C  C17  1  0.219222  0.342335  0.719222  1
  C  C18  1  0.219222  0.719222  0.342335  1
  C  C19  1  0.219222  0.719222  0.719222  1
  C  C20  1  0.780778  0.280778  0.280778  1
  C  C21  1  0.780778  0.657665  0.280778  1
  C  C22  1  0.780778  0.280778  0.657665  1
  C  C23  1  0.842335  0.719222  0.719222  1
  S  S24  1  0.625000  0.125000  0.125000  1
  S  S25  1  0.375000  0.875000  0.875000  1
  O  O26  1  0.159548  0.301533  0.139050  1
  O  O27  1  0.159548  0.139050  0.399870  1
  O  O28  1  0.159548  0.399870  0.301533  1
  O  O29  1  0.100130  0.698467  0.340452  1
  O  O30  1  0.563154  0.063155  0.063155  1
  O  O31  1  0.198467  0.340452  0.600130  1
  O  O32  1  0.100130  0.340452  0.860950  1
  O  O33  1  0.563154  0.310536  0.063155  1
  O  O34  1  0.563154  0.063155  0.310536  1
  O  O35  1  0.198467  0.860950  0.340452  1
  O  O36  1  0.360950  0.600130  0.340452  1
  O  O37  1  0.810535  0.063155  0.063155  1
  O  O38  1  0.100130  0.860950  0.698467  1
  O  O39  1  0.360950  0.340452  0.698467  1
  O  O40  1  0.198467  0.600130  0.860950  1
  O  O41  1  0.639050  0.301533  0.399870  1
  O  O42  1  0.360950  0.698467  0.600130  1
  O  O43  1  0.801533  0.399870  0.139050  1
  O  O44  1  0.639050  0.659548  0.301533  1
  O  O45  1  0.899870  0.139050  0.301533  1
  O  O46  1  0.189465  0.936846  0.936846  1
  O  O47  1  0.639050  0.399870  0.659548  1
  O  O48  1  0.801533  0.139050  0.659548  1
  O  O49  1  0.436846  0.936846  0.689465  1
  O  O50  1  0.436846  0.689465  0.936846  1
  O  O51  1  0.899870  0.659548  0.139050  1
  O  O52  1  0.801533  0.659548  0.399870  1
  O  O53  1  0.436846  0.936846  0.936846  1
  O  O54  1  0.899870  0.301533  0.659548  1
  O  O55  1  0.840452  0.600130  0.698467  1
  O  O56  1  0.840452  0.860950  0.600130  1
  O  O57  1  0.840452  0.698467  0.860950  1
