# generated using pymatgen
data_LiMnF3
_symmetry_space_group_name_H-M   'P 1'
_cell_length_a   5.96731919
_cell_length_b   8.75869976
_cell_length_c   5.64678446
_cell_angle_alpha   90.00000000
_cell_angle_beta   89.96256504
_cell_angle_gamma   90.00000000
_symmetry_Int_Tables_number   1
_chemical_formula_structural   LiMnF3
_chemical_formula_sum   'Li4 Mn4 F12'
_cell_volume   295.13453189
_cell_formula_units_Z   4
loop_
 _symmetry_equiv_pos_site_id
 _symmetry_equiv_pos_as_xyz
  1  'x, y, z'
loop_
 _atom_site_type_symbol
 _atom_site_label
 _atom_site_symmetry_multiplicity
 _atom_site_fract_x
 _atom_site_fract_y
 _atom_site_fract_z
 _atom_site_occupancy
  Li  Li0  1  0.183579  0.750000  0.676333  1
  Li  Li1  1  0.316698  0.250000  0.176721  1
  Li  Li2  1  0.683302  0.750000  0.823279  1
  Li  Li3  1  0.816421  0.250000  0.323667  1
  Mn  Mn4  1  0.000000  0.000000  0.000000  1
  Mn  Mn5  1  0.000000  0.500000  0.000000  1
  Mn  Mn6  1  0.500000  0.000000  0.500000  1
  Mn  Mn7  1  0.500000  0.500000  0.500000  1
  F  F8  1  0.191419  0.532028  0.686418  1
  F  F9  1  0.191419  0.967972  0.686418  1
  F  F10  1  0.488716  0.750000  0.538087  1
  F  F11  1  0.986579  0.750000  0.961549  1
  F  F12  1  0.691342  0.531151  0.813529  1
  F  F13  1  0.691342  0.968849  0.813529  1
  F  F14  1  0.308658  0.031151  0.186470  1
  F  F15  1  0.308658  0.468849  0.186470  1
  F  F16  1  0.013421  0.250000  0.038451  1
  F  F17  1  0.511284  0.250000  0.461913  1
  F  F18  1  0.808581  0.467972  0.313582  1
  F  F19  1  0.808581  0.032028  0.313582  1
