# generated using pymatgen
data_Li5Ti3Mn2(PO4)6
_symmetry_space_group_name_H-M   'P 1'
_cell_length_a   8.52967880
_cell_length_b   8.61100229
_cell_length_c   8.60783566
_cell_angle_alpha   62.61957970
_cell_angle_beta   63.08521665
_cell_angle_gamma   63.04281099
_symmetry_Int_Tables_number   1
_chemical_formula_structural   Li5Ti3Mn2(PO4)6
_chemical_formula_sum   'Li5 Ti3 Mn2 P6 O24'
_cell_volume   476.00060708
_cell_formula_units_Z   1
loop_
 _symmetry_equiv_pos_site_id
 _symmetry_equiv_pos_as_xyz
  1  'x, y, z'
loop_
 _atom_site_type_symbol
 _atom_site_label
 _atom_site_symmetry_multiplicity
 _atom_site_fract_x
 _atom_site_fract_y
 _atom_site_fract_z
 _atom_site_occupancy
  Li  Li0  1  0.756362  0.142120  0.355445  1
  Li  Li1  1  0.194597  0.852422  0.666966  1
  Li  Li2  1  0.666817  0.192567  0.854171  1
  Li  Li3  1  0.853599  0.665345  0.194199  1
  Li  Li4  1  0.841836  0.836404  0.842523  1
  Ti  Ti5  1  0.148308  0.147552  0.143329  1
  Ti  Ti6  1  0.354821  0.357538  0.355164  1
  Ti  Ti7  1  0.647930  0.648841  0.652780  1
  Mn  Mn8  1  0.008742  0.997389  0.991286  1
  Mn  Mn9  1  0.485675  0.505716  0.499524  1
  P  P10  1  0.253816  0.544196  0.957420  1
  P  P11  1  0.551044  0.958286  0.254957  1
  P  P12  1  0.950748  0.253138  0.543476  1
  P  P13  1  0.050841  0.754278  0.450967  1
  P  P14  1  0.451063  0.051095  0.755986  1
  P  P15  1  0.754538  0.450106  0.053066  1
  O  O16  1  0.110644  0.323462  0.485409  1
  O  O17  1  0.334046  0.494726  0.106796  1
  O  O18  1  0.049432  0.917704  0.264097  1
  O  O19  1  0.522351  0.107076  0.325674  1
  O  O20  1  0.030068  0.811632  0.603322  1
  O  O21  1  0.240436  0.599337  0.419307  1
  O  O22  1  0.257828  0.069890  0.907282  1
  O  O23  1  0.438109  0.237078  0.589707  1
  O  O24  1  0.186105  0.390015  0.993236  1
  O  O25  1  0.601970  0.418311  0.248513  1
  O  O26  1  0.099342  0.733241  0.948309  1
  O  O27  1  0.385998  0.003583  0.195657  1
  O  O28  1  0.605540  0.024756  0.816875  1
  O  O29  1  0.903630  0.252778  0.074755  1
  O  O30  1  0.402370  0.571107  0.759574  1
  O  O31  1  0.815739  0.601124  0.028940  1
  O  O32  1  0.568787  0.762004  0.406400  1
  O  O33  1  0.738654  0.943059  0.098338  1
  O  O34  1  0.755240  0.404379  0.575287  1
  O  O35  1  0.968150  0.192485  0.391052  1
  O  O36  1  0.486938  0.890087  0.695046  1
  O  O37  1  0.948732  0.096849  0.731252  1
  O  O38  1  0.690894  0.485525  0.894465  1
  O  O39  1  0.888259  0.689801  0.492446  1
