# generated using pymatgen
data_Na2GaPCO7
_symmetry_space_group_name_H-M   'P 1'
_cell_length_a   8.96434155
_cell_length_b   6.52562302
_cell_length_c   5.17517997
_cell_angle_alpha   90.00000000
_cell_angle_beta   89.53389570
_cell_angle_gamma   90.00000000
_symmetry_Int_Tables_number   1
_chemical_formula_structural   Na2GaPCO7
_chemical_formula_sum   'Na4 Ga2 P2 C2 O14'
_cell_volume   302.72721344
_cell_formula_units_Z   2
loop_
 _symmetry_equiv_pos_site_id
 _symmetry_equiv_pos_as_xyz
  1  'x, y, z'
loop_
 _atom_site_type_symbol
 _atom_site_label
 _atom_site_symmetry_multiplicity
 _atom_site_fract_x
 _atom_site_fract_y
 _atom_site_fract_z
 _atom_site_occupancy
  Na  Na0  1  0.227913  0.496895  0.233084  1
  Na  Na1  1  0.227913  0.003105  0.233084  1
  Na  Na2  1  0.772087  0.503105  0.766916  1
  Na  Na3  1  0.772087  0.996895  0.766916  1
  Ga  Ga4  1  0.351702  0.750000  0.778190  1
  Ga  Ga5  1  0.648298  0.250000  0.221810  1
  P  P6  1  0.427267  0.250000  0.714503  1
  P  P7  1  0.572733  0.750000  0.285497  1
  C  C8  1  0.077203  0.750000  0.731046  1
  C  C9  1  0.922797  0.250000  0.268954  1
  O  O10  1  0.061901  0.250000  0.300515  1
  O  O11  1  0.142525  0.750000  0.956450  1
  O  O12  1  0.174275  0.750000  0.535163  1
  O  O13  1  0.334997  0.058548  0.787928  1
  O  O14  1  0.334997  0.441452  0.787928  1
  O  O15  1  0.419770  0.750000  0.144186  1
  O  O16  1  0.458740  0.250000  0.413958  1
  O  O17  1  0.541260  0.750000  0.586042  1
  O  O18  1  0.580230  0.250000  0.855814  1
  O  O19  1  0.665003  0.558548  0.212072  1
  O  O20  1  0.665003  0.941452  0.212072  1
  O  O21  1  0.825725  0.250000  0.464837  1
  O  O22  1  0.857475  0.250000  0.043550  1
  O  O23  1  0.938099  0.750000  0.699485  1
