# generated using pymatgen
data_NdH4S2NO8
_symmetry_space_group_name_H-M   'P 1'
_cell_length_a   8.93718212
_cell_length_b   7.25413038
_cell_length_c   10.89965611
_cell_angle_alpha   90.00000000
_cell_angle_beta   91.62081334
_cell_angle_gamma   90.00000000
_symmetry_Int_Tables_number   1
_chemical_formula_structural   NdH4S2NO8
_chemical_formula_sum   'Nd4 H16 S8 N4 O32'
_cell_volume   706.35816152
_cell_formula_units_Z   4
loop_
 _symmetry_equiv_pos_site_id
 _symmetry_equiv_pos_as_xyz
  1  'x, y, z'
loop_
 _atom_site_type_symbol
 _atom_site_label
 _atom_site_symmetry_multiplicity
 _atom_site_fract_x
 _atom_site_fract_y
 _atom_site_fract_z
 _atom_site_occupancy
  Nd  Nd0  1  0.055237  0.670913  0.850373  1
  Nd  Nd1  1  0.055237  0.829087  0.350373  1
  Nd  Nd2  1  0.944763  0.170913  0.649627  1
  Nd  Nd3  1  0.944763  0.329087  0.149627  1
  H  H4  1  0.327525  0.405906  0.648065  1
  H  H5  1  0.327525  0.094094  0.148065  1
  H  H6  1  0.451500  0.301716  0.743446  1
  H  H7  1  0.449528  0.251782  0.592603  1
  H  H8  1  0.451500  0.198284  0.243446  1
  H  H9  1  0.449528  0.248218  0.092603  1
  H  H10  1  0.488410  0.958484  0.857266  1
  H  H11  1  0.511590  0.458484  0.642734  1
  H  H12  1  0.488410  0.541516  0.357266  1
  H  H13  1  0.511590  0.041516  0.142734  1
  H  H14  1  0.550472  0.751782  0.907397  1
  H  H15  1  0.548500  0.801716  0.756554  1
  H  H16  1  0.550472  0.748218  0.407397  1
  H  H17  1  0.548500  0.698284  0.256554  1
  H  H18  1  0.672475  0.905906  0.851935  1
  H  H19  1  0.672475  0.594094  0.351935  1
  S  S20  1  0.175618  0.169236  0.887431  1
  S  S21  1  0.175618  0.330764  0.387431  1
  S  S22  1  0.266102  0.837508  0.586946  1
  S  S23  1  0.266102  0.662492  0.086946  1
  S  S24  1  0.733898  0.337508  0.913054  1
  S  S25  1  0.733898  0.162492  0.413054  1
  S  S26  1  0.824382  0.669236  0.612569  1
  S  S27  1  0.824382  0.830764  0.112569  1
  N  N28  1  0.434703  0.354389  0.656293  1
  N  N29  1  0.434703  0.145611  0.156293  1
  N  N30  1  0.565297  0.854389  0.843707  1
  N  N31  1  0.565297  0.645611  0.343707  1
  O  O32  1  0.098607  0.013410  0.817984  1
  O  O33  1  0.098607  0.486590  0.317984  1
  O  O34  1  0.116594  0.323796  0.512728  1
  O  O35  1  0.128862  0.336968  0.811783  1
  O  O36  1  0.124842  0.949282  0.559312  1
  O  O37  1  0.116594  0.176204  0.012728  1
  O  O38  1  0.128862  0.163032  0.311783  1
  O  O39  1  0.124842  0.550718  0.059312  1
  O  O40  1  0.233588  0.696625  0.683305  1
  O  O41  1  0.233588  0.803375  0.183305  1
  O  O42  1  0.290185  0.757162  0.967056  1
  O  O43  1  0.290185  0.742838  0.467056  1
  O  O44  1  0.338510  0.151584  0.890383  1
  O  O45  1  0.338510  0.348416  0.390383  1
  O  O46  1  0.390715  0.955354  0.625124  1
  O  O47  1  0.390715  0.544646  0.125124  1
  O  O48  1  0.609285  0.455354  0.874876  1
  O  O49  1  0.609285  0.044646  0.374876  1
  O  O50  1  0.661490  0.651584  0.609617  1
  O  O51  1  0.661490  0.848416  0.109617  1
  O  O52  1  0.709815  0.257162  0.532944  1
  O  O53  1  0.709815  0.242838  0.032944  1
  O  O54  1  0.766412  0.196625  0.816695  1
  O  O55  1  0.766412  0.303375  0.316695  1
  O  O56  1  0.875158  0.449282  0.940688  1
  O  O57  1  0.871138  0.836968  0.688217  1
  O  O58  1  0.883406  0.823796  0.987272  1
  O  O59  1  0.875158  0.050718  0.440688  1
  O  O60  1  0.871138  0.663032  0.188217  1
  O  O61  1  0.883406  0.676204  0.487272  1
  O  O62  1  0.901393  0.513410  0.682016  1
  O  O63  1  0.901393  0.986590  0.182016  1
