# generated using pymatgen
data_SrCo2H2(SeO3)4
_symmetry_space_group_name_H-M   'P 1'
_cell_length_a   15.11723303
_cell_length_b   5.38026147
_cell_length_c   14.05317006
_cell_angle_alpha   90.00000000
_cell_angle_beta   94.35906780
_cell_angle_gamma   90.00000000
_symmetry_Int_Tables_number   1
_chemical_formula_structural   SrCo2H2(SeO3)4
_chemical_formula_sum   'Sr4 Co8 H8 Se16 O48'
_cell_volume   1139.70352132
_cell_formula_units_Z   4
loop_
 _symmetry_equiv_pos_site_id
 _symmetry_equiv_pos_as_xyz
  1  'x, y, z'
loop_
 _atom_site_type_symbol
 _atom_site_label
 _atom_site_symmetry_multiplicity
 _atom_site_fract_x
 _atom_site_fract_y
 _atom_site_fract_z
 _atom_site_occupancy
  Sr  Sr0  1  0.250000  0.540846  0.750000  1
  Sr  Sr1  1  0.750000  0.459154  0.250000  1
  Sr  Sr2  1  0.250000  0.328519  0.250000  1
  Sr  Sr3  1  0.750000  0.671481  0.750000  1
  Co  Co4  1  0.745145  0.952943  0.497466  1
  Co  Co5  1  0.254855  0.047057  0.502534  1
  Co  Co6  1  0.754855  0.952943  0.002534  1
  Co  Co7  1  0.245145  0.047057  0.997466  1
  Co  Co8  1  0.503417  0.594440  0.753663  1
  Co  Co9  1  0.496583  0.405560  0.246337  1
  Co  Co10  1  0.996583  0.594440  0.746337  1
  Co  Co11  1  0.003417  0.405560  0.253663  1
  H  H12  1  0.381966  0.223963  0.633635  1
  H  H13  1  0.618034  0.776037  0.366365  1
  H  H14  1  0.118034  0.223963  0.866365  1
  H  H15  1  0.881966  0.776037  0.133635  1
  H  H16  1  0.370672  0.884791  0.127475  1
  H  H17  1  0.629328  0.115209  0.872525  1
  H  H18  1  0.129328  0.884791  0.372525  1
  H  H19  1  0.870672  0.115209  0.627475  1
  Se  Se20  1  0.408106  0.081206  0.841809  1
  Se  Se21  1  0.591894  0.918794  0.158191  1
  Se  Se22  1  0.091894  0.081206  0.658191  1
  Se  Se23  1  0.908106  0.918794  0.341809  1
  Se  Se24  1  0.410272  0.895158  0.335093  1
  Se  Se25  1  0.589728  0.104842  0.664907  1
  Se  Se26  1  0.089728  0.895158  0.164907  1
  Se  Se27  1  0.910272  0.104842  0.835093  1
  Se  Se28  1  0.384644  0.574457  0.531352  1
  Se  Se29  1  0.615356  0.425543  0.468648  1
  Se  Se30  1  0.115356  0.574457  0.968648  1
  Se  Se31  1  0.884644  0.425543  0.031352  1
  Se  Se32  1  0.378488  0.520628  0.025716  1
  Se  Se33  1  0.621512  0.479372  0.974284  1
  Se  Se34  1  0.121512  0.520628  0.474284  1
  Se  Se35  1  0.878488  0.479372  0.525716  1
  O  O36  1  0.390793  0.794777  0.788333  1
  O  O37  1  0.609207  0.205223  0.211667  1
  O  O38  1  0.109207  0.794777  0.711667  1
  O  O39  1  0.890793  0.205223  0.288333  1
  O  O40  1  0.302104  0.157544  0.871767  1
  O  O41  1  0.697896  0.842456  0.128233  1
  O  O42  1  0.197896  0.157544  0.628233  1
  O  O43  1  0.802104  0.842456  0.371767  1
  O  O44  1  0.411345  0.282307  0.743456  1
  O  O45  1  0.588655  0.717693  0.256544  1
  O  O46  1  0.088655  0.282307  0.756544  1
  O  O47  1  0.911345  0.717693  0.243456  1
  O  O48  1  0.385596  0.617416  0.275641  1
  O  O49  1  0.614404  0.382584  0.724359  1
  O  O50  1  0.114404  0.617416  0.224359  1
  O  O51  1  0.885596  0.382584  0.775641  1
  O  O52  1  0.307531  0.979369  0.372092  1
  O  O53  1  0.692469  0.020631  0.627908  1
  O  O54  1  0.192469  0.979369  0.127908  1
  O  O55  1  0.807531  0.020631  0.872092  1
  O  O56  1  0.411036  0.090116  0.236268  1
  O  O57  1  0.588964  0.909884  0.763732  1
  O  O58  1  0.088964  0.090116  0.263732  1
  O  O59  1  0.911036  0.909884  0.736268  1
  O  O60  1  0.475365  0.637189  0.605514  1
  O  O61  1  0.524635  0.362811  0.394486  1
  O  O62  1  0.024635  0.637189  0.894486  1
  O  O63  1  0.975365  0.362811  0.105514  1
  O  O64  1  0.297327  0.713187  0.582095  1
  O  O65  1  0.702673  0.286813  0.417905  1
  O  O66  1  0.202673  0.713187  0.917905  1
  O  O67  1  0.797327  0.286813  0.082095  1
  O  O68  1  0.366983  0.240774  0.561403  1
  O  O69  1  0.633017  0.759226  0.438597  1
  O  O70  1  0.133017  0.240774  0.938597  1
  O  O71  1  0.866983  0.759226  0.061402  1
  O  O72  1  0.469133  0.461004  0.099744  1
  O  O73  1  0.530867  0.538996  0.900256  1
  O  O74  1  0.030867  0.461004  0.400256  1
  O  O75  1  0.969133  0.538996  0.599744  1
  O  O76  1  0.291877  0.375869  0.074870  1
  O  O77  1  0.708123  0.624131  0.925130  1
  O  O78  1  0.208123  0.375869  0.425130  1
  O  O79  1  0.791877  0.624131  0.574870  1
  O  O80  1  0.358465  0.855023  0.057328  1
  O  O81  1  0.641535  0.144977  0.942672  1
  O  O82  1  0.141535  0.855023  0.442672  1
  O  O83  1  0.858465  0.144977  0.557328  1
