# generated using pymatgen
data_CrH14N4Cl3O
_symmetry_space_group_name_H-M   'P 1'
_cell_length_a   13.38869982
_cell_length_b   10.69717536
_cell_length_c   6.83799736
_cell_angle_alpha   90.00000000
_cell_angle_beta   90.00000000
_cell_angle_gamma   90.00000000
_symmetry_Int_Tables_number   1
_chemical_formula_structural   CrH14N4Cl3O
_chemical_formula_sum   'Cr4 H56 N16 Cl12 O4'
_cell_volume   979.34666490
_cell_formula_units_Z   4
loop_
 _symmetry_equiv_pos_site_id
 _symmetry_equiv_pos_as_xyz
  1  'x, y, z'
loop_
 _atom_site_type_symbol
 _atom_site_label
 _atom_site_symmetry_multiplicity
 _atom_site_fract_x
 _atom_site_fract_y
 _atom_site_fract_z
 _atom_site_occupancy
  Cr  Cr0  1  0.596592  0.750000  0.827809  1
  Cr  Cr1  1  0.096592  0.750000  0.672191  1
  Cr  Cr2  1  0.403407  0.250000  0.172191  1
  Cr  Cr3  1  0.903408  0.250000  0.327809  1
  H  H4  1  0.685392  0.824699  0.146834  1
  H  H5  1  0.185392  0.675301  0.353166  1
  H  H6  1  0.314608  0.324699  0.853166  1
  H  H7  1  0.814608  0.175301  0.646834  1
  H  H8  1  0.314608  0.175301  0.853166  1
  H  H9  1  0.814608  0.324699  0.646834  1
  H  H10  1  0.685392  0.675301  0.146834  1
  H  H11  1  0.185392  0.824699  0.353166  1
  H  H12  1  0.785951  0.750000  0.704217  1
  H  H13  1  0.285951  0.750000  0.795783  1
  H  H14  1  0.214049  0.250000  0.295783  1
  H  H15  1  0.714049  0.250000  0.204217  1
  H  H16  1  0.715966  0.672650  0.545833  1
  H  H17  1  0.215966  0.827350  0.954167  1
  H  H18  1  0.284034  0.172650  0.454167  1
  H  H19  1  0.784034  0.327350  0.045833  1
  H  H20  1  0.284034  0.327350  0.454167  1
  H  H21  1  0.784034  0.172650  0.045833  1
  H  H22  1  0.715966  0.827350  0.545833  1
  H  H23  1  0.215966  0.672650  0.954167  1
  H  H24  1  0.538515  0.750000  0.453152  1
  H  H25  1  0.038515  0.750000  0.046848  1
  H  H26  1  0.461485  0.250000  0.546848  1
  H  H27  1  0.961485  0.250000  0.953152  1
  H  H28  1  0.456308  0.672539  0.586807  1
  H  H29  1  0.956308  0.827461  0.913193  1
  H  H30  1  0.543692  0.172539  0.413193  1
  H  H31  1  0.043692  0.327461  0.086807  1
  H  H32  1  0.543692  0.327461  0.413193  1
  H  H33  1  0.043692  0.172539  0.086807  1
  H  H34  1  0.456308  0.827461  0.586807  1
  H  H35  1  0.956308  0.672539  0.913193  1
  H  H36  1  0.528887  0.982716  0.793137  1
  H  H37  1  0.028887  0.517284  0.706863  1
  H  H38  1  0.471113  0.482716  0.206863  1
  H  H39  1  0.971113  0.017284  0.293137  1
  H  H40  1  0.471113  0.017284  0.206863  1
  H  H41  1  0.971113  0.482716  0.293137  1
  H  H42  1  0.528887  0.517284  0.793137  1
  H  H43  1  0.028887  0.982716  0.706863  1
  H  H44  1  0.620906  0.982152  0.954140  1
  H  H45  1  0.120906  0.517848  0.545860  1
  H  H46  1  0.379094  0.482152  0.045860  1
  H  H47  1  0.879094  0.017848  0.454140  1
  H  H48  1  0.379094  0.017848  0.045860  1
  H  H49  1  0.879094  0.482152  0.454140  1
  H  H50  1  0.620906  0.517848  0.954140  1
  H  H51  1  0.120906  0.982152  0.545860  1
  H  H52  1  0.645938  0.981005  0.717798  1
  H  H53  1  0.145938  0.518995  0.782202  1
  H  H54  1  0.354062  0.481005  0.282202  1
  H  H55  1  0.854062  0.018995  0.217798  1
  H  H56  1  0.354062  0.018995  0.282202  1
  H  H57  1  0.854062  0.481005  0.217798  1
  H  H58  1  0.645938  0.518995  0.717798  1
  H  H59  1  0.145938  0.981005  0.782202  1
  N  N60  1  0.598383  0.946559  0.821867  1
  N  N61  1  0.098383  0.553441  0.678133  1
  N  N62  1  0.401617  0.446559  0.178133  1
  N  N63  1  0.901617  0.053441  0.321867  1
  N  N64  1  0.401617  0.053441  0.178133  1
  N  N65  1  0.901617  0.446559  0.321867  1
  N  N66  1  0.598383  0.553441  0.821867  1
  N  N67  1  0.098383  0.946559  0.678133  1
  N  N68  1  0.718393  0.750000  0.635745  1
  N  N69  1  0.218393  0.750000  0.864255  1
  N  N70  1  0.281607  0.250000  0.364255  1
  N  N71  1  0.781607  0.250000  0.135745  1
  N  N72  1  0.501584  0.750000  0.584031  1
  N  N73  1  0.001584  0.750000  0.915969  1
  N  N74  1  0.498416  0.250000  0.415969  1
  N  N75  1  0.998416  0.250000  0.084031  1
  Cl  Cl76  1  0.458673  0.750000  0.039721  1
  Cl  Cl77  1  0.958673  0.750000  0.460279  1
  Cl  Cl78  1  0.541327  0.250000  0.960279  1
  Cl  Cl79  1  0.041327  0.250000  0.539721  1
  Cl  Cl80  1  0.851106  0.020345  0.822395  1
  Cl  Cl81  1  0.351106  0.479655  0.677605  1
  Cl  Cl82  1  0.148894  0.520345  0.177605  1
  Cl  Cl83  1  0.648894  0.979655  0.322395  1
  Cl  Cl84  1  0.148894  0.979655  0.177605  1
  Cl  Cl85  1  0.648894  0.520345  0.322395  1
  Cl  Cl86  1  0.851106  0.479655  0.822395  1
  Cl  Cl87  1  0.351106  0.020345  0.677605  1
  O  O88  1  0.696265  0.750000  0.060378  1
  O  O89  1  0.196265  0.750000  0.439622  1
  O  O90  1  0.303735  0.250000  0.939622  1
  O  O91  1  0.803735  0.250000  0.560378  1
