# generated using pymatgen
data_ZnH20S2(NO7)2
_symmetry_space_group_name_H-M   'P 1'
_cell_length_a   9.43877770
_cell_length_b   12.90779628
_cell_length_c   6.41591533
_cell_angle_alpha   90.00000000
_cell_angle_beta   108.82840160
_cell_angle_gamma   90.00000000
_symmetry_Int_Tables_number   1
_chemical_formula_structural   ZnH20S2(NO7)2
_chemical_formula_sum   'Zn2 H40 S4 N4 O28'
_cell_volume   739.84754479
_cell_formula_units_Z   2
loop_
 _symmetry_equiv_pos_site_id
 _symmetry_equiv_pos_as_xyz
  1  'x, y, z'
loop_
 _atom_site_type_symbol
 _atom_site_label
 _atom_site_symmetry_multiplicity
 _atom_site_fract_x
 _atom_site_fract_y
 _atom_site_fract_z
 _atom_site_occupancy
  Zn  Zn0  1  0.500000  0.500000  0.000000  1
  Zn  Zn1  1  0.000000  0.000000  0.000000  1
  H  H2  1  0.570590  0.191519  0.193515  1
  H  H3  1  0.929410  0.691519  0.806485  1
  H  H4  1  0.429410  0.808481  0.806485  1
  H  H5  1  0.070590  0.308481  0.193515  1
  H  H6  1  0.748122  0.208158  0.405041  1
  H  H7  1  0.751878  0.708158  0.594959  1
  H  H8  1  0.251878  0.791842  0.594959  1
  H  H9  1  0.248122  0.291842  0.405041  1
  H  H10  1  0.530190  0.016648  0.536972  1
  H  H11  1  0.969810  0.516648  0.463028  1
  H  H12  1  0.469810  0.983352  0.463028  1
  H  H13  1  0.030190  0.483352  0.536972  1
  H  H14  1  0.673177  0.081871  0.320858  1
  H  H15  1  0.826823  0.581871  0.679142  1
  H  H16  1  0.326823  0.918129  0.679142  1
  H  H17  1  0.173177  0.418129  0.320858  1
  H  H18  1  0.725698  0.414778  0.332873  1
  H  H19  1  0.774302  0.914778  0.667127  1
  H  H20  1  0.274302  0.585222  0.667127  1
  H  H21  1  0.225698  0.085222  0.332873  1
  H  H22  1  0.745539  0.376211  0.104271  1
  H  H23  1  0.754461  0.876211  0.895729  1
  H  H24  1  0.254461  0.623789  0.895729  1
  H  H25  1  0.245539  0.123789  0.104271  1
  H  H26  1  0.231609  0.400616  0.957887  1
  H  H27  1  0.268391  0.900616  0.042113  1
  H  H28  1  0.768391  0.599384  0.042113  1
  H  H29  1  0.731609  0.099384  0.957887  1
  H  H30  1  0.354461  0.314385  0.999452  1
  H  H31  1  0.145539  0.814385  0.000548  1
  H  H32  1  0.645539  0.685615  0.000548  1
  H  H33  1  0.854461  0.185615  0.999452  1
  H  H34  1  0.400660  0.562796  0.324188  1
  H  H35  1  0.099340  0.062796  0.675812  1
  H  H36  1  0.599340  0.437204  0.675812  1
  H  H37  1  0.900660  0.937204  0.324188  1
  H  H38  1  0.526681  0.641918  0.314600  1
  H  H39  1  0.973319  0.141918  0.685400  1
  H  H40  1  0.473319  0.358082  0.685400  1
  H  H41  1  0.026681  0.858082  0.314600  1
  S  S42  1  0.896810  0.354587  0.767459  1
  S  S43  1  0.603190  0.854587  0.232541  1
  S  S44  1  0.103190  0.645413  0.232541  1
  S  S45  1  0.396810  0.145414  0.767459  1
  N  N46  1  0.667065  0.160832  0.300085  1
  N  N47  1  0.832935  0.660832  0.699915  1
  N  N48  1  0.332935  0.839168  0.699915  1
  N  N49  1  0.167065  0.339168  0.300085  1
  O  O50  1  0.905821  0.269879  0.613903  1
  O  O51  1  0.594179  0.769879  0.386097  1
  O  O52  1  0.094179  0.730121  0.386097  1
  O  O53  1  0.405821  0.230121  0.613903  1
  O  O54  1  0.042546  0.407677  0.860744  1
  O  O55  1  0.457454  0.907677  0.139256  1
  O  O56  1  0.957454  0.592323  0.139256  1
  O  O57  1  0.542546  0.092323  0.860744  1
  O  O58  1  0.780100  0.430739  0.645713  1
  O  O59  1  0.719900  0.930739  0.354287  1
  O  O60  1  0.219900  0.569261  0.354287  1
  O  O61  1  0.280100  0.069261  0.645713  1
  O  O62  1  0.854232  0.309504  0.956419  1
  O  O63  1  0.645768  0.809504  0.043581  1
  O  O64  1  0.145768  0.690496  0.043581  1
  O  O65  1  0.354232  0.190496  0.956419  1
  O  O66  1  0.672517  0.397968  0.176789  1
  O  O67  1  0.827483  0.897968  0.823211  1
  O  O68  1  0.327483  0.602032  0.823211  1
  O  O69  1  0.172517  0.102032  0.176789  1
  O  O70  1  0.340056  0.388993  0.032531  1
  O  O71  1  0.159944  0.888993  0.967469  1
  O  O72  1  0.659944  0.611007  0.967469  1
  O  O73  1  0.840056  0.111007  0.032531  1
  O  O74  1  0.497408  0.567710  0.295212  1
  O  O75  1  0.002592  0.067710  0.704788  1
  O  O76  1  0.502592  0.432290  0.704788  1
  O  O77  1  0.997408  0.932290  0.295212  1
