# generated using pymatgen
data_Li3V3P8O29
_symmetry_space_group_name_H-M   'P 1'
_cell_length_a   9.73175736
_cell_length_b   9.79870814
_cell_length_c   14.21052974
_cell_angle_alpha   90.16108151
_cell_angle_beta   89.65793211
_cell_angle_gamma   60.03530427
_symmetry_Int_Tables_number   1
_chemical_formula_structural   Li3V3P8O29
_chemical_formula_sum   'Li6 V6 P16 O58'
_cell_volume   1173.91846416
_cell_formula_units_Z   2
loop_
 _symmetry_equiv_pos_site_id
 _symmetry_equiv_pos_as_xyz
  1  'x, y, z'
loop_
 _atom_site_type_symbol
 _atom_site_label
 _atom_site_symmetry_multiplicity
 _atom_site_fract_x
 _atom_site_fract_y
 _atom_site_fract_z
 _atom_site_occupancy
  Li  Li0  1  0.777170  0.916369  0.555618  1
  Li  Li1  1  0.765272  0.331953  0.059515  1
  Li  Li2  1  0.306543  0.777205  0.555671  1
  Li  Li3  1  0.232848  0.672082  0.946650  1
  Li  Li4  1  0.224282  0.092243  0.441702  1
  Li  Li5  1  0.002194  0.999075  0.006489  1
  V  V6  1  0.566524  0.431512  0.256763  1
  V  V7  1  0.437960  0.560804  0.747610  1
  V  V8  1  0.564206  0.001839  0.759874  1
  V  V9  1  0.439117  0.995945  0.238467  1
  V  V10  1  0.996402  0.566790  0.249979  1
  V  V11  1  0.002049  0.434052  0.748568  1
  P  P12  1  0.919959  0.773070  0.841583  1
  P  P13  1  0.768231  0.913238  0.340346  1
  P  P14  1  0.915538  0.313858  0.344113  1
  P  P15  1  0.670162  0.658559  0.130394  1
  P  P16  1  0.665786  0.671995  0.633229  1
  P  P17  1  0.774974  0.313820  0.840448  1
  P  P18  1  0.689109  0.222420  0.659039  1
  P  P19  1  0.303881  0.912654  0.842273  1
  P  P20  1  0.698552  0.086161  0.158704  1
  P  P21  1  0.317799  0.774844  0.339787  1
  P  P22  1  0.227865  0.683393  0.160847  1
  P  P23  1  0.328930  0.329189  0.367443  1
  P  P24  1  0.329642  0.338672  0.868358  1
  P  P25  1  0.085786  0.685129  0.655874  1
  P  P26  1  0.232642  0.086420  0.660494  1
  P  P27  1  0.081173  0.225176  0.158678  1
  O  O28  1  0.995491  0.767855  0.571093  1
  O  O29  1  0.911495  0.743776  0.330020  1
  O  O30  1  0.799310  0.007798  0.075202  1
  O  O31  1  0.744546  0.909988  0.834918  1
  O  O32  1  0.922025  0.614907  0.830006  1
  O  O33  1  0.812186  0.665496  0.176918  1
  O  O34  1  0.907601  0.473624  0.325170  1
  O  O35  1  0.995982  0.206997  0.076925  1
  O  O36  1  0.914202  0.345873  0.827851  1
  O  O37  1  0.661366  0.821154  0.677834  1
  O  O38  1  0.616217  0.906485  0.315017  1
  O  O39  1  0.814508  0.528340  0.678426  1
  O  O40  1  0.671758  0.656479  0.026027  1
  O  O41  1  0.661530  0.675862  0.528983  1
  O  O42  1  0.673416  0.507903  0.171123  1
  O  O43  1  0.462368  0.917568  0.831426  1
  O  O44  1  0.516090  0.810211  0.172065  1
  O  O45  1  0.742441  0.344611  0.335998  1
  O  O46  1  0.790673  0.201391  0.754330  1
  O  O47  1  0.765409  0.234621  0.572454  1
  O  O48  1  0.777607  0.242237  0.932891  1
  O  O49  1  0.617444  0.472320  0.822696  1
  O  O50  1  0.514415  0.668776  0.674386  1
  O  O51  1  0.657706  0.261564  0.165210  1
  O  O52  1  0.479898  0.621080  0.320693  1
  O  O53  1  0.340689  0.920217  0.333987  1
  O  O54  1  0.789733  0.010570  0.256006  1
  O  O55  1  0.756001  0.989259  0.432307  1
  O  O56  1  0.246633  0.001863  0.569805  1
  O  O57  1  0.660863  0.079663  0.665313  1
  O  O58  1  0.525464  0.378147  0.680136  1
  O  O59  1  0.343112  0.737657  0.835261  1
  O  O60  1  0.476826  0.337645  0.323687  1
  O  O61  1  0.385925  0.528522  0.175782  1
  O  O62  1  0.217269  0.766078  0.070879  1
  O  O63  1  0.246944  0.765673  0.430578  1
  O  O64  1  0.208177  0.793666  0.250674  1
  O  O65  1  0.257743  0.658859  0.658334  1
  O  O66  1  0.483311  0.189176  0.827026  1
  O  O67  1  0.539026  0.082310  0.167424  1
  O  O68  1  0.326309  0.490542  0.825779  1
  O  O69  1  0.327662  0.347863  0.972481  1
  O  O70  1  0.327853  0.331785  0.471643  1
  O  O71  1  0.182260  0.472521  0.320818  1
  O  O72  1  0.384457  0.093639  0.682549  1
  O  O73  1  0.336813  0.178112  0.324515  1
  O  O74  1  0.088512  0.650525  0.170512  1
  O  O75  1  0.002393  0.792817  0.747866  1
  O  O76  1  0.005068  0.787628  0.924241  1
  O  O77  1  0.093719  0.525235  0.675002  1
  O  O78  1  0.187028  0.333215  0.822406  1
  O  O79  1  0.076810  0.384087  0.168107  1
  O  O80  1  0.257452  0.089765  0.164588  1
  O  O81  1  0.204274  0.991957  0.925835  1
  O  O82  1  0.210648  0.989785  0.744934  1
  O  O83  1  0.089120  0.255161  0.666505  1
  O  O84  1  0.003465  0.232194  0.429507  1
  O  O85  1  0.001744  0.203818  0.253230  1
