# generated using pymatgen
data_Li32Mn3Cr13O48
_symmetry_space_group_name_H-M   'P 1'
_cell_length_a   5.03711523
_cell_length_b   8.72059281
_cell_length_c   19.50966385
_cell_angle_alpha   97.95031752
_cell_angle_beta   94.85397474
_cell_angle_gamma   89.53627919
_symmetry_Int_Tables_number   1
_chemical_formula_structural   Li32Mn3Cr13O48
_chemical_formula_sum   'Li32 Mn3 Cr13 O48'
_cell_volume   845.70705083
_cell_formula_units_Z   1
loop_
 _symmetry_equiv_pos_site_id
 _symmetry_equiv_pos_as_xyz
  1  'x, y, z'
loop_
 _atom_site_type_symbol
 _atom_site_label
 _atom_site_symmetry_multiplicity
 _atom_site_fract_x
 _atom_site_fract_y
 _atom_site_fract_z
 _atom_site_occupancy
  Li  Li0  1  0.989635  0.169643  0.250034  1
  Li  Li1  1  0.875114  0.375030  0.375085  1
  Li  Li2  1  0.750959  0.250031  0.000069  1
  Li  Li3  1  0.743809  0.920953  0.999761  1
  Li  Li4  1  0.992098  0.168964  0.749543  1
  Li  Li5  1  0.760719  0.579437  0.499643  1
  Li  Li6  1  0.874264  0.375143  0.874911  1
  Li  Li7  1  0.752591  0.249699  0.500245  1
  Li  Li8  1  0.741979  0.920799  0.499515  1
  Li  Li9  1  0.626822  0.126463  0.124698  1
  Li  Li10  1  0.759526  0.579398  0.999769  1
  Li  Li11  1  0.512295  0.331578  0.250196  1
  Li  Li12  1  0.624591  0.125787  0.624742  1
  Li  Li13  1  0.501925  0.000132  0.250652  1
  Li  Li14  1  0.489604  0.668293  0.249338  1
  Li  Li15  1  0.507593  0.329644  0.749689  1
  Li  Li16  1  0.374771  0.874081  0.374955  1
  Li  Li17  1  0.503495  0.001505  0.750563  1
  Li  Li18  1  0.252776  0.749115  0.999471  1
  Li  Li19  1  0.489881  0.669126  0.749822  1
  Li  Li20  1  0.239294  0.420878  0.000218  1
  Li  Li21  1  0.374846  0.873954  0.874876  1
  Li  Li22  1  0.254403  0.080540  0.500347  1
  Li  Li23  1  0.253444  0.749400  0.499605  1
  Li  Li24  1  0.123244  0.623398  0.125166  1
  Li  Li25  1  0.240519  0.419873  0.500441  1
  Li  Li26  1  0.007951  0.830525  0.250599  1
  Li  Li27  1  0.253617  0.078971  0.999959  1
  Li  Li28  1  0.122693  0.623280  0.625233  1
  Li  Li29  1  0.999461  0.500525  0.249576  1
  Li  Li30  1  0.007184  0.830533  0.750761  1
  Li  Li31  1  0.998379  0.500983  0.749229  1
  Mn  Mn32  1  0.874618  0.042087  0.374525  1
  Mn  Mn33  1  0.873585  0.041649  0.874227  1
  Mn  Mn34  1  0.123647  0.290059  0.624359  1
  Cr  Cr35  1  0.874518  0.712319  0.375293  1
  Cr  Cr36  1  0.876408  0.712101  0.875356  1
  Cr  Cr37  1  0.628384  0.797414  0.125947  1
  Cr  Cr38  1  0.619563  0.461678  0.125345  1
  Cr  Cr39  1  0.630939  0.797006  0.626439  1
  Cr  Cr40  1  0.616906  0.458236  0.624508  1
  Cr  Cr41  1  0.380863  0.538492  0.375595  1
  Cr  Cr42  1  0.368477  0.205266  0.374625  1
  Cr  Cr43  1  0.382732  0.539155  0.875777  1
  Cr  Cr44  1  0.366104  0.206127  0.874625  1
  Cr  Cr45  1  0.122082  0.952369  0.124104  1
  Cr  Cr46  1  0.130197  0.288131  0.124716  1
  Cr  Cr47  1  0.127106  0.953931  0.625108  1
  O  O48  1  0.963473  0.102384  0.068692  1
  O  O49  1  0.936680  0.787406  0.068746  1
  O  O50  1  0.926199  0.426826  0.067972  1
  O  O51  1  0.963413  0.107580  0.569554  1
  O  O52  1  0.813516  0.962839  0.181283  1
  O  O53  1  0.823955  0.323754  0.182107  1
  O  O54  1  0.937443  0.790523  0.568919  1
  O  O55  1  0.930061  0.427566  0.567726  1
  O  O56  1  0.785846  0.647880  0.181406  1
  O  O57  1  0.712456  0.859404  0.319153  1
  O  O58  1  0.814638  0.962693  0.681567  1
  O  O59  1  0.823309  0.324198  0.681654  1
  O  O60  1  0.670941  0.537173  0.319114  1
  O  O61  1  0.681081  0.178040  0.317725  1
  O  O62  1  0.783317  0.645647  0.681491  1
  O  O63  1  0.711666  0.859310  0.819182  1
  O  O64  1  0.468209  0.606037  0.069620  1
  O  O65  1  0.581335  0.714570  0.431397  1
  O  O66  1  0.573935  0.073500  0.431614  1
  O  O67  1  0.671603  0.537459  0.819028  1
  O  O68  1  0.680521  0.178364  0.817965  1
  O  O69  1  0.433762  0.923276  0.067180  1
  O  O70  1  0.418465  0.284407  0.068536  1
  O  O71  1  0.532506  0.392857  0.431301  1
  O  O72  1  0.471303  0.605780  0.569480  1
  O  O73  1  0.579985  0.715084  0.931447  1
  O  O74  1  0.573650  0.073692  0.931632  1
  O  O75  1  0.316276  0.826708  0.182856  1
  O  O76  1  0.330682  0.465898  0.181436  1
  O  O77  1  0.434764  0.922707  0.567271  1
  O  O78  1  0.424295  0.283480  0.568741  1
  O  O79  1  0.532174  0.394660  0.931550  1
  O  O80  1  0.281752  0.143702  0.180443  1
  O  O81  1  0.219270  0.353216  0.318721  1
  O  O82  1  0.317189  0.826615  0.683102  1
  O  O83  1  0.320745  0.462866  0.680568  1
  O  O84  1  0.171069  0.676518  0.317971  1
  O  O85  1  0.175647  0.034568  0.318816  1
  O  O86  1  0.285197  0.142937  0.680538  1
  O  O87  1  0.219406  0.352635  0.818904  1
  O  O88  1  0.078549  0.573262  0.432431  1
  O  O89  1  0.068122  0.213556  0.430385  1
  O  O90  1  0.171654  0.675481  0.817959  1
  O  O91  1  0.174566  0.033483  0.818837  1
  O  O92  1  0.037335  0.895592  0.430994  1
  O  O93  1  0.076662  0.572400  0.932394  1
  O  O94  1  0.069364  0.213155  0.930461  1
  O  O95  1  0.036403  0.894610  0.930869  1
