# generated using pymatgen
data_LiCoSiO4
_symmetry_space_group_name_H-M   'P 1'
_cell_length_a   5.35517364
_cell_length_b   5.31443021
_cell_length_c   6.24694562
_cell_angle_alpha   90.00302702
_cell_angle_beta   89.99595159
_cell_angle_gamma   88.57919941
_symmetry_Int_Tables_number   1
_chemical_formula_structural   LiCoSiO4
_chemical_formula_sum   'Li2 Co2 Si2 O8'
_cell_volume   177.73151654
_cell_formula_units_Z   2
loop_
 _symmetry_equiv_pos_site_id
 _symmetry_equiv_pos_as_xyz
  1  'x, y, z'
loop_
 _atom_site_type_symbol
 _atom_site_label
 _atom_site_symmetry_multiplicity
 _atom_site_fract_x
 _atom_site_fract_y
 _atom_site_fract_z
 _atom_site_occupancy
  Li  Li0  1  0.329699  0.688283  0.493056  1
  Li  Li1  1  0.670313  0.311722  0.993046  1
  Co  Co2  1  0.825993  0.820883  0.743706  1
  Co  Co3  1  0.174011  0.179111  0.243706  1
  Si  Si4  1  0.320392  0.680125  0.992082  1
  Si  Si5  1  0.679583  0.319853  0.492012  1
  O  O6  1  0.236185  0.832631  0.210377  1
  O  O7  1  0.170924  0.774211  0.775120  1
  O  O8  1  0.624343  0.700971  0.958560  1
  O  O9  1  0.712099  0.625184  0.521481  1
  O  O10  1  0.287918  0.374823  0.021466  1
  O  O11  1  0.375666  0.299057  0.458562  1
  O  O12  1  0.829055  0.225808  0.275150  1
  O  O13  1  0.763822  0.167337  0.710405  1
