# generated using pymatgen
data_Li2Co2(SiO3)3
_symmetry_space_group_name_H-M   'P 1'
_cell_length_a   12.53913976
_cell_length_b   10.07637927
_cell_length_c   7.12023050
_cell_angle_alpha   90.00000000
_cell_angle_beta   90.00000000
_cell_angle_gamma   90.00000000
_symmetry_Int_Tables_number   1
_chemical_formula_structural   Li2Co2(SiO3)3
_chemical_formula_sum   'Li8 Co8 Si12 O36'
_cell_volume   899.63491442
_cell_formula_units_Z   4
loop_
 _symmetry_equiv_pos_site_id
 _symmetry_equiv_pos_as_xyz
  1  'x, y, z'
loop_
 _atom_site_type_symbol
 _atom_site_label
 _atom_site_symmetry_multiplicity
 _atom_site_fract_x
 _atom_site_fract_y
 _atom_site_fract_z
 _atom_site_occupancy
  Li  Li0  1  0.160358  0.514785  0.562708  1
  Li  Li1  1  0.160358  0.985215  0.562708  1
  Li  Li2  1  0.339642  0.014785  0.062708  1
  Li  Li3  1  0.339642  0.485215  0.062708  1
  Li  Li4  1  0.660358  0.514785  0.937292  1
  Li  Li5  1  0.660358  0.985215  0.937292  1
  Li  Li6  1  0.839642  0.014785  0.437292  1
  Li  Li7  1  0.839642  0.485215  0.437292  1
  Co  Co8  1  0.087521  0.564656  0.115891  1
  Co  Co9  1  0.087521  0.935344  0.115891  1
  Co  Co10  1  0.412479  0.064656  0.615891  1
  Co  Co11  1  0.412479  0.435344  0.615891  1
  Co  Co12  1  0.587521  0.564656  0.384109  1
  Co  Co13  1  0.587521  0.935344  0.384109  1
  Co  Co14  1  0.912479  0.064656  0.884109  1
  Co  Co15  1  0.912479  0.435344  0.884109  1
  Si  Si16  1  0.026542  0.750000  0.457037  1
  Si  Si17  1  0.059710  0.250000  0.144203  1
  Si  Si18  1  0.214646  0.250000  0.469211  1
  Si  Si19  1  0.285354  0.750000  0.969211  1
  Si  Si20  1  0.440290  0.750000  0.644203  1
  Si  Si21  1  0.473458  0.250000  0.957037  1
  Si  Si22  1  0.526542  0.750000  0.042963  1
  Si  Si23  1  0.559710  0.250000  0.355797  1
  Si  Si24  1  0.714646  0.250000  0.030789  1
  Si  Si25  1  0.785354  0.750000  0.530789  1
  Si  Si26  1  0.940290  0.750000  0.855797  1
  Si  Si27  1  0.973458  0.250000  0.542963  1
  O  O28  1  0.034218  0.750000  0.689939  1
  O  O29  1  0.046396  0.115910  0.020413  1
  O  O30  1  0.046396  0.384090  0.020413  1
  O  O31  1  0.081689  0.613360  0.382124  1
  O  O32  1  0.081689  0.886640  0.382124  1
  O  O33  1  0.102269  0.250000  0.593299  1
  O  O34  1  0.226350  0.610207  0.014482  1
  O  O35  1  0.226350  0.889793  0.014482  1
  O  O36  1  0.178626  0.250000  0.244196  1
  O  O37  1  0.321374  0.750000  0.744196  1
  O  O38  1  0.273650  0.110207  0.514482  1
  O  O39  1  0.273650  0.389793  0.514482  1
  O  O40  1  0.397731  0.750000  0.093299  1
  O  O41  1  0.418311  0.113360  0.882124  1
  O  O42  1  0.418311  0.386640  0.882124  1
  O  O43  1  0.453604  0.615910  0.520413  1
  O  O44  1  0.453604  0.884090  0.520413  1
  O  O45  1  0.465782  0.250000  0.189939  1
  O  O46  1  0.534218  0.750000  0.810061  1
  O  O47  1  0.546396  0.115910  0.479587  1
  O  O48  1  0.546396  0.384090  0.479587  1
  O  O49  1  0.581689  0.613360  0.117876  1
  O  O50  1  0.581689  0.886640  0.117876  1
  O  O51  1  0.602269  0.250000  0.906701  1
  O  O52  1  0.726350  0.610207  0.485518  1
  O  O53  1  0.726350  0.889793  0.485518  1
  O  O54  1  0.678626  0.250000  0.255804  1
  O  O55  1  0.821374  0.750000  0.755804  1
  O  O56  1  0.773650  0.110207  0.985518  1
  O  O57  1  0.773650  0.389793  0.985518  1
  O  O58  1  0.897731  0.750000  0.406701  1
  O  O59  1  0.918311  0.113360  0.617876  1
  O  O60  1  0.918311  0.386640  0.617876  1
  O  O61  1  0.953604  0.615910  0.979587  1
  O  O62  1  0.953604  0.884090  0.979587  1
  O  O63  1  0.965782  0.250000  0.310061  1
