# generated using pymatgen
data_Li2MnFe(BO3)2
_symmetry_space_group_name_H-M   'P 1'
_cell_length_a   5.23554732
_cell_length_b   5.23554707
_cell_length_c   10.45933285
_cell_angle_alpha   89.33558329
_cell_angle_beta   90.66441390
_cell_angle_gamma   60.20728867
_symmetry_Int_Tables_number   1
_chemical_formula_structural   Li2MnFe(BO3)2
_chemical_formula_sum   'Li4 Mn2 Fe2 B4 O12'
_cell_volume   248.74023191
_cell_formula_units_Z   2
loop_
 _symmetry_equiv_pos_site_id
 _symmetry_equiv_pos_as_xyz
  1  'x, y, z'
loop_
 _atom_site_type_symbol
 _atom_site_label
 _atom_site_symmetry_multiplicity
 _atom_site_fract_x
 _atom_site_fract_y
 _atom_site_fract_z
 _atom_site_occupancy
  Li  Li0  1  0.321787  0.652340  0.331821  1
  Li  Li1  1  0.347660  0.678213  0.831821  1
  Li  Li2  1  0.653304  0.337440  0.583873  1
  Li  Li3  1  0.662560  0.346696  0.083873  1
  Mn  Mn4  1  0.327825  0.006110  0.116212  1
  Mn  Mn5  1  0.993890  0.672175  0.616212  1
  Fe  Fe6  1  0.682080  0.004355  0.867796  1
  Fe  Fe7  1  0.995645  0.317920  0.367796  1
  B  B8  1  0.002329  0.339407  0.873604  1
  B  B9  1  0.334386  0.004748  0.624590  1
  B  B10  1  0.660593  0.997671  0.373604  1
  B  B11  1  0.995252  0.665614  0.124590  1
  O  O12  1  0.070953  0.246728  0.581244  1
  O  O13  1  0.257820  0.070991  0.901547  1
  O  O14  1  0.021901  0.584267  0.835127  1
  O  O15  1  0.576479  0.038590  0.655690  1
  O  O16  1  0.269019  0.641868  0.138952  1
  O  O17  1  0.358132  0.730981  0.638952  1
  O  O18  1  0.639428  0.271067  0.387645  1
  O  O19  1  0.728933  0.360572  0.887645  1
  O  O20  1  0.415733  0.978099  0.335127  1
  O  O21  1  0.961410  0.423521  0.155690  1
  O  O22  1  0.753272  0.929047  0.081244  1
  O  O23  1  0.929009  0.742180  0.401547  1
