# generated using pymatgen
data_Li2Fe3F8
_symmetry_space_group_name_H-M   'P 1'
_cell_length_a   9.05826594
_cell_length_b   11.51675208
_cell_length_c   6.55461294
_cell_angle_alpha   90.00000000
_cell_angle_beta   96.34533676
_cell_angle_gamma   90.00000000
_symmetry_Int_Tables_number   1
_chemical_formula_structural   Li2Fe3F8
_chemical_formula_sum   'Li8 Fe12 F32'
_cell_volume   679.60002219
_cell_formula_units_Z   4
loop_
 _symmetry_equiv_pos_site_id
 _symmetry_equiv_pos_as_xyz
  1  'x, y, z'
loop_
 _atom_site_type_symbol
 _atom_site_label
 _atom_site_symmetry_multiplicity
 _atom_site_fract_x
 _atom_site_fract_y
 _atom_site_fract_z
 _atom_site_occupancy
  Li  Li0  1  0.073317  0.382154  0.900639  1
  Li  Li1  1  0.073317  0.117846  0.400639  1
  Li  Li2  1  0.401115  0.571637  0.702453  1
  Li  Li3  1  0.401115  0.928363  0.202453  1
  Li  Li4  1  0.598885  0.071637  0.797547  1
  Li  Li5  1  0.598885  0.428363  0.297547  1
  Li  Li6  1  0.926683  0.882154  0.599361  1
  Li  Li7  1  0.926683  0.617846  0.099361  1
  Fe  Fe8  1  0.064930  0.602269  0.639801  1
  Fe  Fe9  1  0.064930  0.897731  0.139801  1
  Fe  Fe10  1  0.259655  0.903216  0.683513  1
  Fe  Fe11  1  0.259655  0.596784  0.183513  1
  Fe  Fe12  1  0.361582  0.296064  0.642099  1
  Fe  Fe13  1  0.361582  0.203936  0.142099  1
  Fe  Fe14  1  0.638418  0.796064  0.857901  1
  Fe  Fe15  1  0.638418  0.703936  0.357901  1
  Fe  Fe16  1  0.740345  0.403216  0.816487  1
  Fe  Fe17  1  0.740345  0.096784  0.316487  1
  Fe  Fe18  1  0.935070  0.102269  0.860199  1
  Fe  Fe19  1  0.935070  0.397731  0.360199  1
  F  F20  1  0.097554  0.419345  0.615585  1
  F  F21  1  0.087762  0.777624  0.637611  1
  F  F22  1  0.089223  0.039965  0.665316  1
  F  F23  1  0.097554  0.080655  0.115585  1
  F  F24  1  0.087762  0.722376  0.137611  1
  F  F25  1  0.089223  0.460035  0.165316  1
  F  F26  1  0.236534  0.284139  0.915025  1
  F  F27  1  0.255818  0.903196  0.979702  1
  F  F28  1  0.236534  0.215861  0.415025  1
  F  F29  1  0.257440  0.591077  0.883605  1
  F  F30  1  0.255818  0.596804  0.479702  1
  F  F31  1  0.257440  0.908923  0.383605  1
  F  F32  1  0.472236  0.187333  0.855413  1
  F  F33  1  0.501457  0.426686  0.747843  1
  F  F34  1  0.472236  0.312667  0.355413  1
  F  F35  1  0.501457  0.073314  0.247843  1
  F  F36  1  0.498543  0.926686  0.752157  1
  F  F37  1  0.527764  0.687333  0.644587  1
  F  F38  1  0.498543  0.573314  0.252157  1
  F  F39  1  0.527764  0.812667  0.144587  1
  F  F40  1  0.742560  0.091077  0.616395  1
  F  F41  1  0.744182  0.403196  0.520298  1
  F  F42  1  0.742560  0.408923  0.116395  1
  F  F43  1  0.763466  0.784139  0.584975  1
  F  F44  1  0.744182  0.096804  0.020298  1
  F  F45  1  0.763466  0.715861  0.084975  1
  F  F46  1  0.910777  0.539965  0.834684  1
  F  F47  1  0.912238  0.277624  0.862389  1
  F  F48  1  0.902446  0.919345  0.884415  1
  F  F49  1  0.910777  0.960035  0.334684  1
  F  F50  1  0.912238  0.222376  0.362389  1
  F  F51  1  0.902446  0.580655  0.384415  1
