# generated using pymatgen
data_Cd9(InSe2)20
_symmetry_space_group_name_H-M   'P 1'
_cell_length_a   32.93358346
_cell_length_b   14.08600408
_cell_length_c   14.38442598
_cell_angle_alpha   52.64901531
_cell_angle_beta   39.56804087
_cell_angle_gamma   27.73444215
_symmetry_Int_Tables_number   1
_chemical_formula_structural   Cd9(InSe2)20
_chemical_formula_sum   'Cd9 In20 Se40'
_cell_volume   1912.71264421
_cell_formula_units_Z   1
loop_
 _symmetry_equiv_pos_site_id
 _symmetry_equiv_pos_as_xyz
  1  'x, y, z'
loop_
 _atom_site_type_symbol
 _atom_site_label
 _atom_site_symmetry_multiplicity
 _atom_site_fract_x
 _atom_site_fract_y
 _atom_site_fract_z
 _atom_site_occupancy
  Cd  Cd0  1  0.091931  0.131014  0.200575  1
  Cd  Cd1  1  0.294863  0.132777  0.196496  1
  Cd  Cd2  1  0.495578  0.124513  0.201015  1
  Cd  Cd3  1  0.154821  0.854064  0.686968  1
  Cd  Cd4  1  0.695667  0.135923  0.193840  1
  Cd  Cd5  1  0.351545  0.858746  0.690450  1
  Cd  Cd6  1  0.553847  0.854980  0.688401  1
  Cd  Cd7  1  0.755249  0.852506  0.687353  1
  Cd  Cd8  1  0.952575  0.858656  0.687911  1
  In  In9  1  0.103231  0.005445  0.992906  1
  In  In10  1  0.313252  0.017793  0.968250  1
  In  In11  1  0.053619  0.269683  0.483966  1
  In  In12  1  0.513050  0.016149  0.968288  1
  In  In13  1  0.253457  0.268991  0.482000  1
  In  In14  1  0.001097  0.537646  0.967015  1
  In  In15  1  0.151043  0.779199  0.477227  1
  In  In16  1  0.712640  0.016707  0.969832  1
  In  In17  1  0.458204  0.267388  0.475908  1
  In  In18  1  0.195676  0.542604  0.976631  1
  In  In19  1  0.352886  0.772275  0.479683  1
  In  In20  1  0.914306  0.013503  0.973462  1
  In  In21  1  0.663284  0.266466  0.474656  1
  In  In22  1  0.399933  0.535305  0.971673  1
  In  In23  1  0.560607  0.765884  0.474991  1
  In  In24  1  0.849626  0.284472  0.474514  1
  In  In25  1  0.602306  0.537666  0.966034  1
  In  In26  1  0.751436  0.777127  0.479791  1
  In  In27  1  0.798357  0.514720  0.991455  1
  In  In28  1  0.946905  0.789222  0.477291  1
  Se  Se29  1  -0.000046  0.101443  0.670488  1
  Se  Se30  1  0.160909  0.332616  0.168785  1
  Se  Se31  1  0.015013  0.168142  0.877960  1
  Se  Se32  1  0.076703  0.804237  0.171761  1
  Se  Se33  1  0.159603  0.456894  0.366059  1
  Se  Se34  1  0.203124  0.097783  0.667083  1
  Se  Se35  1  0.361135  0.328881  0.170651  1
  Se  Se36  1  0.059610  0.899866  0.395025  1
  Se  Se37  1  0.132971  0.547561  0.668472  1
  Se  Se38  1  0.203789  0.159462  0.910065  1
  Se  Se39  1  0.274309  0.807686  0.170860  1
  Se  Se40  1  0.363459  0.443627  0.369333  1
  Se  Se41  1  0.402343  0.097915  0.669026  1
  Se  Se42  1  0.130726  0.644614  0.853448  1
  Se  Se43  1  0.560891  0.329414  0.172489  1
  Se  Se44  1  0.264204  0.889441  0.393485  1
  Se  Se45  1  0.338430  0.541842  0.664181  1
  Se  Se46  1  0.406480  0.159611  0.903285  1
  Se  Se47  1  0.475411  0.805620  0.171192  1
  Se  Se48  1  0.567273  0.442156  0.369853  1
  Se  Se49  1  0.604093  0.099075  0.666946  1
  Se  Se50  1  0.324211  0.654570  0.859066  1
  Se  Se51  1  0.756145  0.337251  0.171907  1
  Se  Se52  1  0.463463  0.893115  0.398975  1
  Se  Se53  1  0.530326  0.551909  0.673454  1
  Se  Se54  1  0.604891  0.157320  0.908949  1
  Se  Se55  1  0.678909  0.798184  0.169655  1
  Se  Se56  1  0.775429  0.397730  0.362937  1
  Se  Se57  1  0.799458  0.102823  0.672604  1
  Se  Se58  1  0.527272  0.645822  0.859427  1
  Se  Se59  1  0.958709  0.333465  0.168238  1
  Se  Se60  1  0.666613  0.883352  0.393690  1
  Se  Se61  1  0.735019  0.544353  0.667911  1
  Se  Se62  1  0.806639  0.160359  0.903866  1
  Se  Se63  1  0.877005  0.805947  0.167241  1
  Se  Se64  1  0.963994  0.443774  0.367849  1
  Se  Se65  1  0.726816  0.648948  0.859810  1
  Se  Se66  1  0.868886  0.880559  0.389232  1
  Se  Se67  1  0.932770  0.548715  0.668639  1
  Se  Se68  1  0.927126  0.647394  0.857322  1
