# generated using pymatgen
data_CuP2(HO3)2
_symmetry_space_group_name_H-M   'P 1'
_cell_length_a   7.44205480
_cell_length_b   9.92568500
_cell_length_c   7.63276892
_cell_angle_alpha   90.00000000
_cell_angle_beta   100.62867164
_cell_angle_gamma   90.00000000
_symmetry_Int_Tables_number   1
_chemical_formula_structural   CuP2(HO3)2
_chemical_formula_sum   'Cu4 P8 H8 O24'
_cell_volume   554.14024424
_cell_formula_units_Z   4
loop_
 _symmetry_equiv_pos_site_id
 _symmetry_equiv_pos_as_xyz
  1  'x, y, z'
loop_
 _atom_site_type_symbol
 _atom_site_label
 _atom_site_symmetry_multiplicity
 _atom_site_fract_x
 _atom_site_fract_y
 _atom_site_fract_z
 _atom_site_occupancy
  Cu  Cu0  1  0.203714  0.409297  0.562493  1
  Cu  Cu1  1  0.796286  0.909297  0.937507  1
  Cu  Cu2  1  0.796286  0.590703  0.437507  1
  Cu  Cu3  1  0.203714  0.090703  0.062493  1
  P  P4  1  0.457728  0.079791  0.779786  1
  P  P5  1  0.542272  0.579791  0.720214  1
  P  P6  1  0.542272  0.920209  0.220214  1
  P  P7  1  0.457728  0.420209  0.279786  1
  P  P8  1  0.956460  0.205475  0.713811  1
  P  P9  1  0.043540  0.705475  0.786189  1
  P  P10  1  0.043540  0.794525  0.286189  1
  P  P11  1  0.956460  0.294525  0.213811  1
  H  H12  1  0.537979  0.193206  0.874038  1
  H  H13  1  0.462021  0.693206  0.625962  1
  H  H14  1  0.462021  0.806794  0.125962  1
  H  H15  1  0.537979  0.306794  0.374038  1
  H  H16  1  0.987122  0.116293  0.578162  1
  H  H17  1  0.012878  0.616293  0.921838  1
  H  H18  1  0.012878  0.883707  0.421838  1
  H  H19  1  0.987122  0.383707  0.078162  1
  O  O20  1  0.400651  0.467998  0.737798  1
  O  O21  1  0.599349  0.967998  0.762202  1
  O  O22  1  0.599349  0.532002  0.262202  1
  O  O23  1  0.400651  0.032002  0.237798  1
  O  O24  1  0.311167  0.018672  0.883647  1
  O  O25  1  0.688833  0.518672  0.616353  1
  O  O26  1  0.688833  0.981328  0.116353  1
  O  O27  1  0.311167  0.481328  0.383647  1
  O  O28  1  0.350516  0.116934  0.596069  1
  O  O29  1  0.649484  0.616934  0.903931  1
  O  O30  1  0.649484  0.883066  0.403931  1
  O  O31  1  0.350516  0.383066  0.096069  1
  O  O32  1  0.104648  0.318924  0.738585  1
  O  O33  1  0.895352  0.818924  0.761415  1
  O  O34  1  0.895352  0.681076  0.261415  1
  O  O35  1  0.104648  0.181076  0.238585  1
  O  O36  1  0.989894  0.125919  0.897023  1
  O  O37  1  0.010106  0.625919  0.602977  1
  O  O38  1  0.010106  0.874081  0.102977  1
  O  O39  1  0.989894  0.374081  0.397023  1
  O  O40  1  0.759455  0.249511  0.683435  1
  O  O41  1  0.240545  0.749511  0.816565  1
  O  O42  1  0.240545  0.750489  0.316565  1
  O  O43  1  0.759455  0.250489  0.183435  1
