# generated using pymatgen
data_Co6O5F7
_symmetry_space_group_name_H-M   'P 1'
_cell_length_a   7.18056240
_cell_length_b   5.57862279
_cell_length_c   5.57862279
_cell_angle_alpha   72.27119703
_cell_angle_beta   71.97797287
_cell_angle_gamma   71.97797287
_symmetry_Int_Tables_number   1
_chemical_formula_structural   Co6O5F7
_chemical_formula_sum   'Co6 O5 F7'
_cell_volume   196.61644952
_cell_formula_units_Z   1
loop_
 _symmetry_equiv_pos_site_id
 _symmetry_equiv_pos_as_xyz
  1  'x, y, z'
loop_
 _atom_site_type_symbol
 _atom_site_label
 _atom_site_symmetry_multiplicity
 _atom_site_fract_x
 _atom_site_fract_y
 _atom_site_fract_z
 _atom_site_occupancy
  Co  Co0  1  0.820212  0.699653  0.699653  1
  Co  Co1  1  0.308520  0.647621  0.647621  1
  Co  Co2  1  0.671011  0.336358  0.336358  1
  Co  Co3  1  0.160889  0.328011  0.328011  1
  Co  Co4  1  0.519247  0.977767  0.977767  1
  Co  Co5  1  -0.000006  0.006222  0.006222  1
  O  O6  1  0.673107  0.047579  0.619565  1
  O  O7  1  0.958129  0.229248  0.229248  1
  O  O8  1  0.383277  0.422694  0.422694  1
  O  O9  1  0.031726  0.786843  0.786843  1
  O  O10  1  0.673107  0.619565  0.047579  1
  F  F11  1  0.338795  0.351201  0.958671  1
  F  F12  1  0.629196  0.574797  0.574797  1
  F  F13  1  0.300625  0.893804  0.893804  1
  F  F14  1  0.702962  0.096374  0.096374  1
  F  F15  1  0.338795  0.958671  0.351201  1
  F  F16  1  0.995205  0.317840  0.705751  1
  F  F17  1  0.995205  0.705751  0.317840  1
