# generated using pymatgen
data_Na3Ca3Zr2Si4(O5F)3
_symmetry_space_group_name_H-M   'P 1'
_cell_length_a   9.00239356
_cell_length_b   9.70523332
_cell_length_c   9.82557180
_cell_angle_alpha   84.26267716
_cell_angle_beta   88.29783667
_cell_angle_gamma   96.32056494
_symmetry_Int_Tables_number   1
_chemical_formula_structural   Na3Ca3Zr2Si4(O5F)3
_chemical_formula_sum   'Na6 Ca6 Zr4 Si8 O30 F6'
_cell_volume   848.25147820
_cell_formula_units_Z   2
loop_
 _symmetry_equiv_pos_site_id
 _symmetry_equiv_pos_as_xyz
  1  'x, y, z'
loop_
 _atom_site_type_symbol
 _atom_site_label
 _atom_site_symmetry_multiplicity
 _atom_site_fract_x
 _atom_site_fract_y
 _atom_site_fract_z
 _atom_site_occupancy
  Na  Na0  1  0.150154  0.509303  0.192429  1
  Na  Na1  1  0.208557  0.210518  0.370309  1
  Na  Na2  1  0.443596  0.867405  0.399680  1
  Na  Na3  1  0.556404  0.132595  0.600320  1
  Na  Na4  1  0.791443  0.789482  0.629691  1
  Na  Na5  1  0.849846  0.490697  0.807571  1
  Ca  Ca6  1  0.178992  0.588660  0.535541  1
  Ca  Ca7  1  0.148852  0.080828  0.035753  1
  Ca  Ca8  1  0.407776  0.353282  0.961033  1
  Ca  Ca9  1  0.592224  0.646718  0.038967  1
  Ca  Ca10  1  0.851148  0.919172  -0.035753  1
  Ca  Ca11  1  0.821008  0.411340  0.464459  1
  Zr  Zr12  1  0.373715  0.860726  0.067466  1
  Zr  Zr13  1  0.451875  0.493894  0.329773  1
  Zr  Zr14  1  0.548125  0.506106  0.670227  1
  Zr  Zr15  1  0.626285  0.139274  0.932534  1
  Si  Si16  1  0.754485  0.392674  0.143067  1
  Si  Si17  1  0.830924  0.960478  0.344844  1
  Si  Si18  1  0.086908  0.776581  0.838928  1
  Si  Si19  1  0.941402  0.165298  0.708742  1
  Si  Si20  1  0.058598  0.834702  0.291258  1
  Si  Si21  1  0.913092  0.223419  0.161072  1
  Si  Si22  1  0.169076  0.039522  0.655156  1
  Si  Si23  1  0.245515  0.607326  0.856933  1
  O  O24  1  0.142009  0.855476  0.973928  1
  O  O25  1  0.035136  0.114570  0.571935  1
  O  O26  1  0.152467  0.869303  0.694574  1
  O  O27  1  0.297660  0.510252  0.743665  1
  O  O28  1  0.093094  0.250121  0.163008  1
  O  O29  1  0.067414  0.670833  0.329013  1
  O  O30  1  0.930018  0.906608  0.191540  1
  O  O31  1  0.242101  0.443510  0.401723  1
  O  O32  1  0.369493  0.698440  0.937272  1
  O  O33  1  0.413424  0.464660  0.140262  1
  O  O34  1  0.219260  0.922350  0.232361  1
  O  O35  1  0.565350  0.274598  0.787030  1
  O  O36  1  0.511145  0.721430  0.605167  1
  O  O37  1  0.437511  0.635594  0.502561  1
  O  O38  1  0.400792  0.090848  0.009163  1
  O  O39  1  0.599208  0.909152  -0.009163  1
  O  O40  1  0.562489  0.364406  0.497439  1
  O  O41  1  0.488855  0.278570  0.394833  1
  O  O42  1  0.434650  0.725402  0.212970  1
  O  O43  1  0.780740  0.077650  0.767639  1
  O  O44  1  0.586576  0.535340  0.859738  1
  O  O45  1  0.630507  0.301560  0.062728  1
  O  O46  1  0.757899  0.556490  0.598277  1
  O  O47  1  0.069982  0.093392  0.808460  1
  O  O48  1  0.932586  0.329167  0.670987  1
  O  O49  1  0.906906  0.749879  0.836992  1
  O  O50  1  0.702340  0.489748  0.256335  1
  O  O51  1  0.847533  0.130697  0.305426  1
  O  O52  1  0.964864  0.885430  0.428065  1
  O  O53  1  0.857991  0.144524  0.026072  1
  F  F54  1  0.160371  0.480595  0.971118  1
  F  F55  1  0.272415  0.024768  0.504551  1
  F  F56  1  0.325978  0.115688  0.710554  1
  F  F57  1  0.674022  0.884312  0.289446  1
  F  F58  1  0.727585  -0.024768  0.495449  1
  F  F59  1  0.839629  0.519405  0.028882  1
