# generated using pymatgen
data_LiBi4P7O24
_symmetry_space_group_name_H-M   'P 1'
_cell_length_a   11.00550356
_cell_length_b   11.13680485
_cell_length_c   11.62396863
_cell_angle_alpha   112.28090760
_cell_angle_beta   108.88945813
_cell_angle_gamma   104.86187857
_symmetry_Int_Tables_number   1
_chemical_formula_structural   LiBi4P7O24
_chemical_formula_sum   'Li2 Bi8 P14 O48'
_cell_volume   1124.23913783
_cell_formula_units_Z   2
loop_
 _symmetry_equiv_pos_site_id
 _symmetry_equiv_pos_as_xyz
  1  'x, y, z'
loop_
 _atom_site_type_symbol
 _atom_site_label
 _atom_site_symmetry_multiplicity
 _atom_site_fract_x
 _atom_site_fract_y
 _atom_site_fract_z
 _atom_site_occupancy
  Li  Li0  1  0.033105  0.326975  0.617925  1
  Li  Li1  1  0.966895  0.673025  0.382075  1
  Bi  Bi2  1  0.240884  0.824712  0.746785  1
  Bi  Bi3  1  0.079177  0.712056  0.064321  1
  Bi  Bi4  1  0.373314  0.233149  0.888488  1
  Bi  Bi5  1  0.428067  0.598709  0.403634  1
  Bi  Bi6  1  0.571933  0.401291  0.596366  1
  Bi  Bi7  1  0.626686  0.766851  0.111512  1
  Bi  Bi8  1  0.920823  0.287944  0.935679  1
  Bi  Bi9  1  0.759116  0.175288  0.253215  1
  P  P10  1  0.997676  0.974274  0.772998  1
  P  P11  1  0.223183  0.814790  0.425900  1
  P  P12  1  0.076220  0.335356  0.298829  1
  P  P13  1  0.516133  0.725348  0.763713  1
  P  P14  1  0.244442  0.115282  0.504299  1
  P  P15  1  0.398729  0.963629  0.140975  1
  P  P16  1  0.299301  0.523401  0.037427  1
  P  P17  1  0.700699  0.476599  0.962573  1
  P  P18  1  0.601271  0.036371  0.859025  1
  P  P19  1  0.755558  0.884718  0.495701  1
  P  P20  1  0.483867  0.274652  0.236287  1
  P  P21  1  0.923780  0.664644  0.701171  1
  P  P22  1  0.776817  0.185210  0.574100  1
  P  P23  1  0.002324  0.025726  0.227002  1
  O  O24  1  0.012036  0.658235  0.828805  1
  O  O25  1  0.994894  0.658472  0.605844  1
  O  O26  1  0.326106  0.918173  0.986702  1
  O  O27  1  0.022471  0.912821  0.124482  1
  O  O28  1  0.158100  0.800881  0.522367  1
  O  O29  1  0.094556  0.725729  0.276668  1
  O  O30  1  0.254731  0.367367  0.922053  1
  O  O31  1  0.151428  0.007793  0.799707  1
  O  O32  1  0.284406  0.981656  0.466354  1
  O  O33  1  0.359138  0.687832  0.726577  1
  O  O34  1  0.082179  0.053928  0.385163  1
  O  O35  1  0.073408  0.173018  0.233211  1
  O  O36  1  0.231459  0.441525  0.382006  1
  O  O37  1  0.238481  0.166256  0.641145  1
  O  O38  1  0.154503  0.531353  0.021031  1
  O  O39  1  0.349439  0.779329  0.445731  1
  O  O40  1  0.311259  0.870891  0.181211  1
  O  O41  1  0.606631  0.746438  0.906163  1
  O  O42  1  0.583374  0.875135  0.766213  1
  O  O43  1  0.341339  0.221667  0.486828  1
  O  O44  1  0.526141  0.615227  0.641952  1
  O  O45  1  0.446515  0.024535  0.807646  1
  O  O46  1  0.613106  0.368980  0.991583  1
  O  O47  1  0.390998  0.554376  0.186985  1
  O  O48  1  0.609002  0.445624  0.813015  1
  O  O49  1  0.386894  0.631020  0.008417  1
  O  O50  1  0.553485  0.975465  0.192354  1
  O  O51  1  0.473859  0.384773  0.358048  1
  O  O52  1  0.658661  0.778333  0.513172  1
  O  O53  1  0.416626  0.124865  0.233787  1
  O  O54  1  0.393369  0.253562  0.093837  1
  O  O55  1  0.688741  0.129109  0.818789  1
  O  O56  1  0.650561  0.220671  0.554269  1
  O  O57  1  0.845497  0.468647  0.978969  1
  O  O58  1  0.761519  0.833744  0.358855  1
  O  O59  1  0.768541  0.558475  0.617994  1
  O  O60  1  0.926592  0.826982  0.766789  1
  O  O61  1  0.917821  0.946072  0.614837  1
  O  O62  1  0.640862  0.312168  0.273423  1
  O  O63  1  0.715594  0.018344  0.533646  1
  O  O64  1  0.848572  0.992207  0.200293  1
  O  O65  1  0.745269  0.632633  0.077947  1
  O  O66  1  0.905444  0.274271  0.723332  1
  O  O67  1  0.841900  0.199119  0.477633  1
  O  O68  1  0.977529  0.087179  0.875518  1
  O  O69  1  0.673894  0.081827  0.013298  1
  O  O70  1  0.005106  0.341528  0.394156  1
  O  O71  1  0.987964  0.341765  0.171195  1
