# generated using pymatgen
data_NaVAsCO7
_symmetry_space_group_name_H-M   'P 1'
_cell_length_a   9.30863086
_cell_length_b   6.53112623
_cell_length_c   5.43491916
_cell_angle_alpha   90.00000000
_cell_angle_beta   86.94790181
_cell_angle_gamma   90.00000000
_symmetry_Int_Tables_number   1
_chemical_formula_structural   NaVAsCO7
_chemical_formula_sum   'Na2 V2 As2 C2 O14'
_cell_volume   329.95180271
_cell_formula_units_Z   2
loop_
 _symmetry_equiv_pos_site_id
 _symmetry_equiv_pos_as_xyz
  1  'x, y, z'
loop_
 _atom_site_type_symbol
 _atom_site_label
 _atom_site_symmetry_multiplicity
 _atom_site_fract_x
 _atom_site_fract_y
 _atom_site_fract_z
 _atom_site_occupancy
  Na  Na0  1  0.222471  0.484614  0.236648  1
  Na  Na1  1  0.777529  0.984614  0.763352  1
  V  V2  1  0.329036  0.769399  0.789724  1
  V  V3  1  0.670964  0.269399  0.210276  1
  As  As4  1  0.438691  0.261260  0.716891  1
  As  As5  1  0.561309  0.761260  0.283109  1
  C  C6  1  0.076434  0.741592  0.723807  1
  C  C7  1  0.923566  0.241592  0.276193  1
  O  O8  1  0.052898  0.248810  0.309137  1
  O  O9  1  0.135670  0.742646  0.943473  1
  O  O10  1  0.182011  0.736101  0.545604  1
  O  O11  1  0.329087  0.050462  0.785756  1
  O  O12  1  0.328150  0.459843  0.800998  1
  O  O13  1  0.409095  0.742290  0.123702  1
  O  O14  1  0.479197  0.260834  0.404747  1
  O  O15  1  0.520803  0.760834  0.595253  1
  O  O16  1  0.590905  0.242290  0.876298  1
  O  O17  1  0.671850  0.959843  0.199002  1
  O  O18  1  0.670913  0.550461  0.214244  1
  O  O19  1  0.817989  0.236101  0.454396  1
  O  O20  1  0.864330  0.242646  0.056527  1
  O  O21  1  0.947102  0.748810  0.690863  1
