# generated using pymatgen
data_Li2Cu2F7
_symmetry_space_group_name_H-M   'P 1'
_cell_length_a   7.49047531
_cell_length_b   12.91262351
_cell_length_c   5.06350116
_cell_angle_alpha   90.00000000
_cell_angle_beta   90.00000000
_cell_angle_gamma   97.56873289
_symmetry_Int_Tables_number   1
_chemical_formula_structural   Li2Cu2F7
_chemical_formula_sum   'Li8 Cu8 F28'
_cell_volume   485.48346002
_cell_formula_units_Z   4
loop_
 _symmetry_equiv_pos_site_id
 _symmetry_equiv_pos_as_xyz
  1  'x, y, z'
loop_
 _atom_site_type_symbol
 _atom_site_label
 _atom_site_symmetry_multiplicity
 _atom_site_fract_x
 _atom_site_fract_y
 _atom_site_fract_z
 _atom_site_occupancy
  Li  Li0  1  0.141738  0.556275  0.264777  1
  Li  Li1  1  0.222170  0.902061  0.775095  1
  Li  Li2  1  0.290710  0.136537  0.241160  1
  Li  Li3  1  0.395522  0.428298  0.799190  1
  Li  Li4  1  0.604478  0.571702  0.299190  1
  Li  Li5  1  0.709290  0.863463  0.741159  1
  Li  Li6  1  0.777830  0.097939  0.275095  1
  Li  Li7  1  0.858262  0.443725  0.764777  1
  Cu  Cu8  1  0.024729  0.106407  0.762346  1
  Cu  Cu9  1  0.079629  0.318426  0.253937  1
  Cu  Cu10  1  0.415367  0.682997  0.770302  1
  Cu  Cu11  1  0.472711  0.891190  0.265526  1
  Cu  Cu12  1  0.527289  0.108810  0.765526  1
  Cu  Cu13  1  0.584633  0.317003  0.270302  1
  Cu  Cu14  1  0.920371  0.681574  0.753937  1
  Cu  Cu15  1  0.975271  0.893593  0.262346  1
  F  F16  1  0.017705  0.813277  0.945243  1
  F  F17  1  0.056405  0.413262  0.528270  1
  F  F18  1  0.165576  0.667165  0.621906  1
  F  F19  1  0.227327  0.880680  0.402830  1
  F  F20  1  0.072345  0.020806  0.073957  1
  F  F21  1  0.121475  0.222027  0.974405  1
  F  F22  1  0.178941  0.430541  0.040776  1
  F  F23  1  0.389511  0.820730  0.929848  1
  F  F24  1  0.367283  0.616182  0.095512  1
  F  F25  1  0.277900  0.086016  0.619316  1
  F  F26  1  0.320993  0.291836  0.387376  1
  F  F27  1  0.437320  0.555298  0.595405  1
  F  F28  1  0.518421  0.767011  0.468910  1
  F  F29  1  0.569089  0.974942  0.576403  1
  F  F30  1  0.430911  0.025058  0.076403  1
  F  F31  1  0.481579  0.232989  0.968910  1
  F  F32  1  0.562680  0.444702  0.095405  1
  F  F33  1  0.679007  0.708164  0.887376  1
  F  F34  1  0.722100  0.913984  0.119316  1
  F  F35  1  0.632717  0.383818  0.595512  1
  F  F36  1  0.610489  0.179270  0.429848  1
  F  F37  1  0.821059  0.569459  0.540776  1
  F  F38  1  0.878525  0.777973  0.474405  1
  F  F39  1  0.927655  0.979194  0.573957  1
  F  F40  1  0.772673  0.119320  0.902830  1
  F  F41  1  0.834424  0.332835  0.121906  1
  F  F42  1  0.943595  0.586738  0.028270  1
  F  F43  1  0.982295  0.186723  0.445243  1
