# generated using pymatgen
data_LiBi3(IO2)2
_symmetry_space_group_name_H-M   'P 1'
_cell_length_a   5.64033544
_cell_length_b   7.36508168
_cell_length_c   11.26355844
_cell_angle_alpha   90.00000000
_cell_angle_beta   90.00000000
_cell_angle_gamma   112.51408186
_symmetry_Int_Tables_number   1
_chemical_formula_structural   LiBi3(IO2)2
_chemical_formula_sum   'Li2 Bi6 I4 O8'
_cell_volume   432.24426058
_cell_formula_units_Z   2
loop_
 _symmetry_equiv_pos_site_id
 _symmetry_equiv_pos_as_xyz
  1  'x, y, z'
loop_
 _atom_site_type_symbol
 _atom_site_label
 _atom_site_symmetry_multiplicity
 _atom_site_fract_x
 _atom_site_fract_y
 _atom_site_fract_z
 _atom_site_occupancy
  Li  Li0  1  0.790516  0.581033  0.000000  1
  Li  Li1  1  0.209484  0.418967  0.500000  1
  Bi  Bi2  1  0.161820  0.323640  0.000000  1
  Bi  Bi3  1  0.667132  0.334263  0.252626  1
  Bi  Bi4  1  0.332868  0.665737  0.247374  1
  Bi  Bi5  1  0.838180  0.676360  0.500000  1
  Bi  Bi6  1  0.667132  0.334263  0.747374  1
  Bi  Bi7  1  0.332868  0.665737  0.752626  1
  I  I8  1  0.507715  0.015431  0.000000  1
  I  I9  1  0.000000  0.000000  0.250000  1
  I  I10  1  0.492285  0.984569  0.500000  1
  I  I11  1  0.000000  0.000000  0.750000  1
  O  O12  1  0.492707  0.492149  0.126518  1
  O  O13  1  0.999441  0.492149  0.126518  1
  O  O14  1  0.507293  0.507851  0.373482  1
  O  O15  1  0.000559  0.507851  0.373482  1
  O  O16  1  0.507293  0.507851  0.626518  1
  O  O17  1  0.492707  0.492149  0.873482  1
  O  O18  1  0.000559  0.507851  0.626518  1
  O  O19  1  0.999441  0.492149  0.873482  1
