# generated using pymatgen
data_LiCr(PO3)4
_symmetry_space_group_name_H-M   'P 1'
_cell_length_a   8.11856789
_cell_length_b   8.56815116
_cell_length_c   9.46193460
_cell_angle_alpha   119.35531676
_cell_angle_beta   115.40487862
_cell_angle_gamma   61.72107722
_symmetry_Int_Tables_number   1
_chemical_formula_structural   LiCr(PO3)4
_chemical_formula_sum   'Li2 Cr2 P8 O24'
_cell_volume   488.32237210
_cell_formula_units_Z   2
loop_
 _symmetry_equiv_pos_site_id
 _symmetry_equiv_pos_as_xyz
  1  'x, y, z'
loop_
 _atom_site_type_symbol
 _atom_site_label
 _atom_site_symmetry_multiplicity
 _atom_site_fract_x
 _atom_site_fract_y
 _atom_site_fract_z
 _atom_site_occupancy
  Li  Li0  1  0.000000  0.500000  0.500000  1
  Li  Li1  1  0.000000  0.000000  0.000000  1
  Cr  Cr2  1  0.664068  0.750000  0.750000  1
  Cr  Cr3  1  0.335932  0.250000  0.250000  1
  P  P4  1  0.697418  0.857114  0.138515  1
  P  P5  1  0.345358  0.810073  0.104975  1
  P  P6  1  0.050455  0.689927  0.395025  1
  P  P7  1  0.416019  0.642886  0.361485  1
  P  P8  1  0.583981  0.357114  0.638515  1
  P  P9  1  0.949545  0.310073  0.604975  1
  P  P10  1  0.654642  0.189927  0.895025  1
  P  P11  1  0.302582  0.142886  0.861485  1
  O  O12  1  0.275833  0.021719  0.208756  1
  O  O13  1  0.785236  0.782612  0.996892  1
  O  O14  1  0.864090  0.812747  0.293432  1
  O  O15  1  0.562690  0.739402  0.089623  1
  O  O16  1  0.412168  0.933748  0.800122  1
  O  O17  1  0.212469  0.760598  0.410377  1
  O  O18  1  0.383404  0.687253  0.206568  1
  O  O19  1  0.021121  0.747157  0.560185  1
  O  O20  1  0.570955  0.717388  0.503108  1
  O  O21  1  0.208091  0.752843  0.939815  1
  O  O22  1  0.088797  0.478281  0.291244  1
  O  O23  1  0.545794  0.566252  0.699878  1
  O  O24  1  0.454206  0.433748  0.300122  1
  O  O25  1  0.911203  0.521719  0.708756  1
  O  O26  1  0.791909  0.247157  0.060185  1
  O  O27  1  0.429045  0.282612  0.496892  1
  O  O28  1  0.978879  0.252843  0.439815  1
  O  O29  1  0.616596  0.312747  0.793432  1
  O  O30  1  0.787531  0.239402  0.589623  1
  O  O31  1  0.587832  0.066252  0.199878  1
  O  O32  1  0.437310  0.260598  0.910377  1
  O  O33  1  0.135910  0.187253  0.706568  1
  O  O34  1  0.214764  0.217388  0.003108  1
  O  O35  1  0.724167  0.978281  0.791244  1
