# generated using pymatgen
data_Li10Cr3Fe3(NiO8)2
_symmetry_space_group_name_H-M   'P 1'
_cell_length_a   5.96490126
_cell_length_b   5.96656216
_cell_length_c   9.83837754
_cell_angle_alpha   89.76643517
_cell_angle_beta   90.01475754
_cell_angle_gamma   119.72863173
_symmetry_Int_Tables_number   1
_chemical_formula_structural   Li10Cr3Fe3(NiO8)2
_chemical_formula_sum   'Li10 Cr3 Fe3 Ni2 O16'
_cell_volume   304.05918645
_cell_formula_units_Z   1
loop_
 _symmetry_equiv_pos_site_id
 _symmetry_equiv_pos_as_xyz
  1  'x, y, z'
loop_
 _atom_site_type_symbol
 _atom_site_label
 _atom_site_symmetry_multiplicity
 _atom_site_fract_x
 _atom_site_fract_y
 _atom_site_fract_z
 _atom_site_occupancy
  Li  Li0  1  0.183218  0.793878  0.058739  1
  Li  Li1  1  0.983276  0.986921  0.983556  1
  Li  Li2  1  0.987493  0.982448  0.484719  1
  Li  Li3  1  0.594663  0.788679  0.056726  1
  Li  Li4  1  0.323824  0.649702  0.283352  1
  Li  Li5  1  0.189128  0.381022  0.057671  1
  Li  Li6  1  0.380195  0.191047  0.558287  1
  Li  Li7  1  0.649353  0.323709  0.783222  1
  Li  Li8  1  0.785502  0.595581  0.557396  1
  Li  Li9  1  0.792971  0.186195  0.559660  1
  Cr  Cr10  1  0.152015  0.820734  0.785432  1
  Cr  Cr11  1  0.646856  0.820446  0.785258  1
  Cr  Cr12  1  0.820508  0.646612  0.285649  1
  Fe  Fe13  1  0.152251  0.326900  0.784972  1
  Fe  Fe14  1  0.326954  0.152704  0.285345  1
  Fe  Fe15  1  0.820138  0.152523  0.284959  1
  Ni  Ni16  1  0.318233  0.653420  0.529855  1
  Ni  Ni17  1  0.653794  0.317907  0.029536  1
  O  O18  1  0.148363  0.819761  0.402140  1
  O  O19  1  0.474640  0.971576  0.667077  1
  O  O20  1  0.319048  0.657816  0.902426  1
  O  O21  1  0.000252  0.498740  0.667832  1
  O  O22  1  0.981329  0.985618  0.674056  1
  O  O23  1  0.987340  0.979751  0.172897  1
  O  O24  1  0.665083  0.819599  0.403185  1
  O  O25  1  0.476853  0.497584  0.668373  1
  O  O26  1  0.821975  0.664897  0.902131  1
  O  O27  1  0.150430  0.306152  0.405729  1
  O  O28  1  0.497592  0.476790  0.167222  1
  O  O29  1  0.972185  0.475501  0.166598  1
  O  O30  1  0.656462  0.319899  0.404266  1
  O  O31  1  0.306561  0.148563  0.903515  1
  O  O32  1  0.496861  0.999842  0.166865  1
  O  O33  1  0.820162  0.147907  0.902379  1
