# generated using pymatgen
data_NiP2H2O7
_symmetry_space_group_name_H-M   'P 1'
_cell_length_a   8.89080679
_cell_length_b   13.02309454
_cell_length_c   9.67812381
_cell_angle_alpha   90.00000000
_cell_angle_beta   106.40243224
_cell_angle_gamma   90.00000000
_symmetry_Int_Tables_number   1
_chemical_formula_structural   NiP2H2O7
_chemical_formula_sum   'Ni8 P16 H16 O56'
_cell_volume   1074.98371134
_cell_formula_units_Z   8
loop_
 _symmetry_equiv_pos_site_id
 _symmetry_equiv_pos_as_xyz
  1  'x, y, z'
loop_
 _atom_site_type_symbol
 _atom_site_label
 _atom_site_symmetry_multiplicity
 _atom_site_fract_x
 _atom_site_fract_y
 _atom_site_fract_z
 _atom_site_occupancy
  Ni  Ni0  1  0.747379  0.255062  0.750578  1
  Ni  Ni1  1  0.252621  0.755062  0.749422  1
  Ni  Ni2  1  0.252621  0.744938  0.249422  1
  Ni  Ni3  1  0.747379  0.244938  0.250578  1
  Ni  Ni4  1  0.748491  0.409764  0.003283  1
  Ni  Ni5  1  0.251509  0.909764  0.496717  1
  Ni  Ni6  1  0.251509  0.590236  0.996717  1
  Ni  Ni7  1  0.748491  0.090236  0.503283  1
  P  P8  1  0.525364  0.051897  0.715480  1
  P  P9  1  0.474636  0.551897  0.784520  1
  P  P10  1  0.474636  0.948103  0.284520  1
  P  P11  1  0.525364  0.448103  0.215480  1
  P  P12  1  0.992250  0.292957  0.567046  1
  P  P13  1  0.007750  0.792957  0.932954  1
  P  P14  1  0.007750  0.707043  0.432954  1
  P  P15  1  0.992250  0.207043  0.067046  1
  P  P16  1  0.040611  0.538885  0.220669  1
  P  P17  1  0.959389  0.038885  0.279331  1
  P  P18  1  0.959389  0.461115  0.779331  1
  P  P19  1  0.040611  0.961115  0.720669  1
  P  P20  1  0.498992  0.214882  0.933105  1
  P  P21  1  0.501008  0.714882  0.566895  1
  P  P22  1  0.501008  0.785118  0.066895  1
  P  P23  1  0.498992  0.285118  0.433105  1
  H  H24  1  0.043846  0.393020  0.335062  1
  H  H25  1  0.956154  0.893020  0.164938  1
  H  H26  1  0.956154  0.606980  0.664938  1
  H  H27  1  0.043846  0.106980  0.835062  1
  H  H28  1  0.526050  0.911909  0.844445  1
  H  H29  1  0.473950  0.411909  0.655555  1
  H  H30  1  0.473950  0.088091  0.155555  1
  H  H31  1  0.526050  0.588091  0.344445  1
  H  H32  1  0.220794  0.254059  0.718105  1
  H  H33  1  0.779206  0.754059  0.781895  1
  H  H34  1  0.779206  0.745941  0.281895  1
  H  H35  1  0.220794  0.245941  0.218105  1
  H  H36  1  0.280083  0.259977  0.990514  1
  H  H37  1  0.719917  0.759977  0.509486  1
  H  H38  1  0.719917  0.740023  0.009486  1
  H  H39  1  0.280083  0.240023  0.490514  1
  O  O40  1  0.166282  0.602919  0.179500  1
  O  O41  1  0.833718  0.102919  0.320500  1
  O  O42  1  0.833718  0.397081  0.820500  1
  O  O43  1  0.166282  0.897081  0.679500  1
  O  O44  1  0.657978  0.113274  0.681106  1
  O  O45  1  0.342022  0.613274  0.818894  1
  O  O46  1  0.342022  0.886726  0.318894  1
  O  O47  1  0.657978  0.386726  0.181106  1
  O  O48  1  0.604792  0.290301  0.883053  1
  O  O49  1  0.395208  0.790301  0.616947  1
  O  O50  1  0.395208  0.709699  0.116947  1
  O  O51  1  0.604792  0.209699  0.383053  1
  O  O52  1  0.893474  0.521547  0.102385  1
  O  O53  1  0.106526  0.021547  0.397615  1
  O  O54  1  0.106526  0.478453  0.897615  1
  O  O55  1  0.893474  0.978453  0.602385  1
  O  O56  1  0.566600  0.173851  0.084993  1
  O  O57  1  0.433400  0.673851  0.415007  1
  O  O58  1  0.433400  0.826149  0.915007  1
  O  O59  1  0.566600  0.326149  0.584993  1
  O  O60  1  0.945219  0.311717  0.406209  1
  O  O61  1  0.054781  0.811717  0.093791  1
  O  O62  1  0.054781  0.688283  0.593791  1
  O  O63  1  0.945219  0.188283  0.906209  1
  O  O64  1  0.601472  0.960209  0.816004  1
  O  O65  1  0.398528  0.460209  0.683996  1
  O  O66  1  0.398528  0.039791  0.183996  1
  O  O67  1  0.601472  0.539791  0.316004  1
  O  O68  1  0.453211  0.125297  0.817395  1
  O  O69  1  0.546789  0.625297  0.682605  1
  O  O70  1  0.546789  0.874703  0.182605  1
  O  O71  1  0.453211  0.374703  0.317395  1
  O  O72  1  0.391023  0.025774  0.588755  1
  O  O73  1  0.608977  0.525774  0.911245  1
  O  O74  1  0.608977  0.974226  0.411245  1
  O  O75  1  0.391023  0.474226  0.088755  1
  O  O76  1  0.884447  0.219309  0.616705  1
  O  O77  1  0.115553  0.719309  0.883295  1
  O  O78  1  0.115553  0.780691  0.383295  1
  O  O79  1  0.884447  0.280691  0.116705  1
  O  O80  1  0.329933  0.264401  0.909843  1
  O  O81  1  0.670067  0.764401  0.590157  1
  O  O82  1  0.670067  0.735599  0.090157  1
  O  O83  1  0.329933  0.235599  0.409843  1
  O  O84  1  0.118228  0.439410  0.301391  1
  O  O85  1  0.881772  0.939410  0.198609  1
  O  O86  1  0.881772  0.560590  0.698609  1
  O  O87  1  0.118228  0.060590  0.801391  1
  O  O88  1  0.995353  0.601522  0.349357  1
  O  O89  1  0.004647  0.101522  0.150643  1
  O  O90  1  0.004647  0.398478  0.650643  1
  O  O91  1  0.995353  0.898478  0.849357  1
  O  O92  1  0.169992  0.253519  0.611906  1
  O  O93  1  0.830008  0.753519  0.888094  1
  O  O94  1  0.830008  0.746481  0.388094  1
  O  O95  1  0.169992  0.246481  0.111906  1
