# generated using pymatgen
data_Li32Mn3Cr13O48
_symmetry_space_group_name_H-M   'P 1'
_cell_length_a   5.02353915
_cell_length_b   8.73402561
_cell_length_c   19.50254585
_cell_angle_alpha   97.92975699
_cell_angle_beta   94.65203516
_cell_angle_gamma   89.43864924
_symmetry_Int_Tables_number   1
_chemical_formula_structural   Li32Mn3Cr13O48
_chemical_formula_sum   'Li32 Mn3 Cr13 O48'
_cell_volume   844.71326007
_cell_formula_units_Z   1
loop_
 _symmetry_equiv_pos_site_id
 _symmetry_equiv_pos_as_xyz
  1  'x, y, z'
loop_
 _atom_site_type_symbol
 _atom_site_label
 _atom_site_symmetry_multiplicity
 _atom_site_fract_x
 _atom_site_fract_y
 _atom_site_fract_z
 _atom_site_occupancy
  Li  Li0  1  0.988294  0.168469  0.249755  1
  Li  Li1  1  0.873870  0.373986  0.375009  1
  Li  Li2  1  0.750540  0.250132  0.000040  1
  Li  Li3  1  0.744985  0.920624  0.999747  1
  Li  Li4  1  0.992660  0.167801  0.749833  1
  Li  Li5  1  0.755062  0.579286  0.499616  1
  Li  Li6  1  0.874848  0.375077  0.874960  1
  Li  Li7  1  0.753465  0.249971  0.500167  1
  Li  Li8  1  0.740634  0.920048  0.500129  1
  Li  Li9  1  0.626262  0.126430  0.124878  1
  Li  Li10  1  0.758589  0.579288  0.999620  1
  Li  Li11  1  0.510163  0.332250  0.250485  1
  Li  Li12  1  0.624247  0.124042  0.624975  1
  Li  Li13  1  0.499529  0.000985  0.250571  1
  Li  Li14  1  0.492447  0.668423  0.249977  1
  Li  Li15  1  0.506657  0.330723  0.750009  1
  Li  Li16  1  0.374547  0.874916  0.374886  1
  Li  Li17  1  0.502860  0.999817  0.750122  1
  Li  Li18  1  0.251583  0.749040  0.999428  1
  Li  Li19  1  0.489062  0.668801  0.749600  1
  Li  Li20  1  0.241001  0.420594  0.000271  1
  Li  Li21  1  0.373967  0.874596  0.875004  1
  Li  Li22  1  0.257724  0.080542  0.499998  1
  Li  Li23  1  0.250290  0.750730  0.499780  1
  Li  Li24  1  0.123606  0.623481  0.125092  1
  Li  Li25  1  0.243976  0.419674  0.500238  1
  Li  Li26  1  0.008006  0.830960  0.250473  1
  Li  Li27  1  0.253688  0.079314  0.999656  1
  Li  Li28  1  0.124472  0.624954  0.624958  1
  Li  Li29  1  0.001703  0.500133  0.249890  1
  Li  Li30  1  0.009691  0.832214  0.750338  1
  Li  Li31  1  0.000306  0.500741  0.749734  1
  Mn  Mn32  1  0.875102  0.041359  0.874697  1
  Mn  Mn33  1  0.375817  0.541793  0.374979  1
  Mn  Mn34  1  0.125209  0.291697  0.624701  1
  Cr  Cr35  1  0.869026  0.705356  0.374610  1
  Cr  Cr36  1  0.879249  0.038501  0.375158  1
  Cr  Cr37  1  0.872154  0.712654  0.875499  1
  Cr  Cr38  1  0.628421  0.797576  0.125886  1
  Cr  Cr39  1  0.620242  0.461912  0.125175  1
  Cr  Cr40  1  0.630686  0.788649  0.625437  1
  Cr  Cr41  1  0.618159  0.455447  0.624579  1
  Cr  Cr42  1  0.371185  0.212314  0.375188  1
  Cr  Cr43  1  0.382217  0.539203  0.875476  1
  Cr  Cr44  1  0.365924  0.207290  0.874553  1
  Cr  Cr45  1  0.122362  0.952385  0.124213  1
  Cr  Cr46  1  0.130016  0.287921  0.124889  1
  Cr  Cr47  1  0.123361  0.962370  0.625249  1
  O  O48  1  0.963894  0.103281  0.068898  1
  O  O49  1  0.937499  0.787846  0.068752  1
  O  O50  1  0.925304  0.426789  0.067699  1
  O  O51  1  0.964019  0.108760  0.569290  1
  O  O52  1  0.813001  0.962256  0.181298  1
  O  O53  1  0.824700  0.323374  0.182286  1
  O  O54  1  0.920867  0.786686  0.568787  1
  O  O55  1  0.931938  0.427752  0.567686  1
  O  O56  1  0.786141  0.646698  0.181145  1
  O  O57  1  0.717830  0.853559  0.318881  1
  O  O58  1  0.830147  0.964412  0.681303  1
  O  O59  1  0.823304  0.324206  0.681894  1
  O  O60  1  0.677199  0.534976  0.319142  1
  O  O61  1  0.672961  0.176963  0.317567  1
  O  O62  1  0.782740  0.643788  0.681313  1
  O  O63  1  0.715063  0.857800  0.819534  1
  O  O64  1  0.468105  0.607023  0.069579  1
  O  O65  1  0.567411  0.713967  0.430718  1
  O  O66  1  0.576251  0.073966  0.432276  1
  O  O67  1  0.670407  0.535565  0.818690  1
  O  O68  1  0.680033  0.177907  0.817935  1
  O  O69  1  0.434365  0.923238  0.067106  1
  O  O70  1  0.419499  0.285185  0.068514  1
  O  O71  1  0.538472  0.396061  0.431177  1
  O  O72  1  0.468824  0.603203  0.568999  1
  O  O73  1  0.581397  0.715104  0.931608  1
  O  O74  1  0.573440  0.073900  0.931773  1
  O  O75  1  0.316390  0.826809  0.182934  1
  O  O76  1  0.330304  0.464871  0.181297  1
  O  O77  1  0.422549  0.926239  0.567752  1
  O  O78  1  0.427250  0.284664  0.569183  1
  O  O79  1  0.532992  0.396377  0.931457  1
  O  O80  1  0.281476  0.143036  0.180415  1
  O  O81  1  0.215099  0.358145  0.319358  1
  O  O82  1  0.326985  0.823297  0.682468  1
  O  O83  1  0.317772  0.463670  0.680870  1
  O  O84  1  0.181461  0.677622  0.317693  1
  O  O85  1  0.169799  0.036317  0.318516  1
  O  O86  1  0.287685  0.145234  0.680975  1
  O  O87  1  0.218496  0.352005  0.818769  1
  O  O88  1  0.073444  0.574036  0.431861  1
  O  O89  1  0.080197  0.214139  0.431091  1
  O  O90  1  0.174251  0.675813  0.818016  1
  O  O91  1  0.175295  0.032892  0.818770  1
  O  O92  1  0.032230  0.893658  0.431141  1
  O  O93  1  0.074497  0.572712  0.932334  1
  O  O94  1  0.070543  0.213434  0.930496  1
  O  O95  1  0.038607  0.896296  0.931224  1
