# generated using pymatgen
data_Li3V(PO4)2
_symmetry_space_group_name_H-M   'P 1'
_cell_length_a   8.44951606
_cell_length_b   8.49050360
_cell_length_c   7.16176122
_cell_angle_alpha   90.40410875
_cell_angle_beta   89.53194224
_cell_angle_gamma   119.96794977
_symmetry_Int_Tables_number   1
_chemical_formula_structural   Li3V(PO4)2
_chemical_formula_sum   'Li9 V3 P6 O24'
_cell_volume   445.08081660
_cell_formula_units_Z   3
loop_
 _symmetry_equiv_pos_site_id
 _symmetry_equiv_pos_as_xyz
  1  'x, y, z'
loop_
 _atom_site_type_symbol
 _atom_site_label
 _atom_site_symmetry_multiplicity
 _atom_site_fract_x
 _atom_site_fract_y
 _atom_site_fract_z
 _atom_site_occupancy
  Li  Li0  1  0.342014  0.031260  0.664346  1
  Li  Li1  1  0.963861  0.306837  0.662902  1
  Li  Li2  1  0.002042  0.001633  0.496503  1
  Li  Li3  1  0.334302  0.663253  0.507573  1
  Li  Li4  1  0.306345  0.345257  0.331631  1
  Li  Li5  1  0.694297  0.654996  0.668066  1
  Li  Li6  1  0.666231  0.337040  0.493479  1
  Li  Li7  1  0.036276  0.693213  0.338022  1
  Li  Li8  1  0.657910  0.968711  0.335644  1
  V  V9  1  0.999817  0.999571  0.999694  1
  V  V10  1  0.334585  0.666433  0.076338  1
  V  V11  1  0.665827  0.332844  0.924620  1
  P  P12  1  0.039884  0.686855  0.766740  1
  P  P13  1  0.310606  0.349517  0.766681  1
  P  P14  1  0.647253  0.957412  0.764777  1
  P  P15  1  0.352006  0.041912  0.235690  1
  P  P16  1  0.689316  0.650614  0.233767  1
  P  P17  1  0.960419  0.313093  0.234346  1
  O  O18  1  0.140210  0.939541  0.206549  1
  O  O19  1  0.158848  0.758803  0.587235  1
  O  O20  1  0.164264  0.715429  0.931159  1
  O  O21  1  0.409613  0.893356  0.248303  1
  O  O22  1  0.112757  0.516689  0.260346  1
  O  O23  1  0.061014  0.202472  0.201296  1
  O  O24  1  0.552306  0.821574  0.922667  1
  O  O25  1  0.277847  0.445323  0.930397  1
  O  O26  1  0.202673  0.138793  0.799004  1
  O  O27  1  0.238581  0.392984  0.586658  1
  O  O28  1  0.601922  0.846834  0.580571  1
  O  O29  1  0.483688  0.595734  0.258492  1
  O  O30  1  0.516234  0.403703  0.741465  1
  O  O31  1  0.398449  0.153353  0.419440  1
  O  O32  1  0.761796  0.607081  0.413305  1
  O  O33  1  0.797130  0.861144  0.200688  1
  O  O34  1  0.720359  0.554659  0.068423  1
  O  O35  1  0.446161  0.177169  0.076437  1
  O  O36  1  0.938594  0.797215  0.799283  1
  O  O37  1  0.887086  0.483119  0.739151  1
  O  O38  1  0.590614  0.106785  0.751017  1
  O  O39  1  0.836699  0.286522  0.068646  1
  O  O40  1  0.841393  0.240954  0.413452  1
  O  O41  1  0.858966  0.060307  0.795199  1
