# generated using pymatgen
data_BeH8(IO5)2
_symmetry_space_group_name_H-M   'P 1'
_cell_length_a   15.88971053
_cell_length_b   6.56898553
_cell_length_c   8.88047109
_cell_angle_alpha   90.00000745
_cell_angle_beta   90.00006751
_cell_angle_gamma   89.99996762
_symmetry_Int_Tables_number   1
_chemical_formula_structural   BeH8(IO5)2
_chemical_formula_sum   'Be4 H32 I8 O40'
_cell_volume   926.93716554
_cell_formula_units_Z   4
loop_
 _symmetry_equiv_pos_site_id
 _symmetry_equiv_pos_as_xyz
  1  'x, y, z'
loop_
 _atom_site_type_symbol
 _atom_site_label
 _atom_site_symmetry_multiplicity
 _atom_site_fract_x
 _atom_site_fract_y
 _atom_site_fract_z
 _atom_site_occupancy
  Be  Be0  1  0.750000  0.750000  0.669002  1
  Be  Be1  1  0.250001  0.250000  0.830999  1
  Be  Be2  1  0.250000  0.250002  0.330997  1
  Be  Be3  1  0.749999  0.749998  0.169000  1
  H  H4  1  0.709739  0.021672  0.511879  1
  H  H5  1  0.790261  0.478329  0.511878  1
  H  H6  1  0.209739  0.978328  0.988122  1
  H  H7  1  0.290261  0.521671  0.988122  1
  H  H8  1  0.290261  0.978330  0.488122  1
  H  H9  1  0.209739  0.521670  0.488121  1
  H  H10  1  0.790261  0.021671  0.011879  1
  H  H11  1  0.709739  0.478328  0.011878  1
  H  H12  1  0.811952  0.006490  0.539926  1
  H  H13  1  0.688048  0.493510  0.539926  1
  H  H14  1  0.311952  0.993510  0.960074  1
  H  H15  1  0.188048  0.506490  0.960074  1
  H  H16  1  0.188048  0.993511  0.460074  1
  H  H17  1  0.311951  0.506489  0.460073  1
  H  H18  1  0.688048  0.006490  0.039926  1
  H  H19  1  0.811952  0.493511  0.039926  1
  H  H20  1  0.865024  0.863575  0.318127  1
  H  H21  1  0.634975  0.636425  0.318128  1
  H  H22  1  0.365024  0.136425  0.181872  1
  H  H23  1  0.134975  0.363575  0.181872  1
  H  H24  1  0.134976  0.136425  0.681873  1
  H  H25  1  0.365024  0.363575  0.681873  1
  H  H26  1  0.634976  0.863575  0.818127  1
  H  H27  1  0.865024  0.636425  0.818128  1
  H  H28  1  0.858641  0.616395  0.303711  1
  H  H29  1  0.641359  0.883607  0.303711  1
  H  H30  1  0.358641  0.383606  0.196289  1
  H  H31  1  0.141358  0.116394  0.196289  1
  H  H32  1  0.141359  0.383606  0.696289  1
  H  H33  1  0.358641  0.116394  0.696289  1
  H  H34  1  0.641359  0.616395  0.803711  1
  H  H35  1  0.858641  0.883606  0.803710  1
  I  I36  1  0.955921  0.263566  0.431176  1
  I  I37  1  0.544079  0.236435  0.431177  1
  I  I38  1  0.455921  0.736435  0.068824  1
  I  I39  1  0.044079  0.763566  0.068824  1
  I  I40  1  0.044079  0.736435  0.568824  1
  I  I41  1  0.455921  0.763565  0.568823  1
  I  I42  1  0.544079  0.263566  0.931176  1
  I  I43  1  0.955921  0.236434  0.931177  1
  O  O44  1  0.859268  0.402260  0.382419  1
  O  O45  1  0.640734  0.097740  0.382420  1
  O  O46  1  0.359268  0.597742  0.117581  1
  O  O47  1  0.140732  0.902260  0.117581  1
  O  O48  1  0.140732  0.597740  0.617581  1
  O  O49  1  0.359268  0.902259  0.617582  1
  O  O50  1  0.640733  0.402260  0.882419  1
  O  O51  1  0.859268  0.097740  0.882419  1
  O  O52  1  0.905902  0.013847  0.467573  1
  O  O53  1  0.594098  0.486153  0.467572  1
  O  O54  1  0.405902  0.986153  0.032428  1
  O  O55  1  0.094098  0.513847  0.032428  1
  O  O56  1  0.094097  0.986153  0.532429  1
  O  O57  1  0.405902  0.513848  0.532428  1
  O  O58  1  0.594098  0.013848  0.967572  1
  O  O59  1  0.905902  0.486154  0.967571  1
  O  O60  1  0.970963  0.356616  0.624204  1
  O  O61  1  0.529038  0.143384  0.624204  1
  O  O62  1  0.470964  0.643385  0.875796  1
  O  O63  1  0.029037  0.856617  0.875796  1
  O  O64  1  0.029037  0.643384  0.375796  1
  O  O65  1  0.470963  0.856617  0.375795  1
  O  O66  1  0.529037  0.356615  0.124204  1
  O  O67  1  0.970963  0.143384  0.124204  1
  O  O68  1  0.754896  0.965245  0.578946  1
  O  O69  1  0.745104  0.534753  0.578945  1
  O  O70  1  0.254895  0.034753  0.921055  1
  O  O71  1  0.245105  0.465245  0.921055  1
  O  O72  1  0.245105  0.034754  0.421056  1
  O  O73  1  0.254896  0.465245  0.421054  1
  O  O74  1  0.745105  0.965245  0.078945  1
  O  O75  1  0.754896  0.534754  0.078946  1
  O  O76  1  0.840834  0.750851  0.256511  1
  O  O77  1  0.659165  0.749146  0.256510  1
  O  O78  1  0.340835  0.249146  0.243489  1
  O  O79  1  0.159165  0.250854  0.243489  1
  O  O80  1  0.159164  0.249147  0.743490  1
  O  O81  1  0.340835  0.250852  0.743489  1
  O  O82  1  0.659166  0.750853  0.756511  1
  O  O83  1  0.840836  0.749146  0.756510  1
