# generated using pymatgen
data_LiNb(BO3)2
_symmetry_space_group_name_H-M   'P 1'
_cell_length_a   5.04573810
_cell_length_b   9.10767423
_cell_length_c   11.23857783
_cell_angle_alpha   90.00000000
_cell_angle_beta   97.57886724
_cell_angle_gamma   90.00000000
_symmetry_Int_Tables_number   1
_chemical_formula_structural   LiNb(BO3)2
_chemical_formula_sum   'Li4 Nb4 B8 O24'
_cell_volume   511.95642246
_cell_formula_units_Z   4
loop_
 _symmetry_equiv_pos_site_id
 _symmetry_equiv_pos_as_xyz
  1  'x, y, z'
loop_
 _atom_site_type_symbol
 _atom_site_label
 _atom_site_symmetry_multiplicity
 _atom_site_fract_x
 _atom_site_fract_y
 _atom_site_fract_z
 _atom_site_occupancy
  Li  Li0  1  0.185738  0.961740  0.093021  1
  Li  Li1  1  0.314262  0.461740  0.406979  1
  Li  Li2  1  0.685738  0.538260  0.593021  1
  Li  Li3  1  0.814262  0.038260  0.906979  1
  Nb  Nb4  1  0.133426  0.303891  0.130900  1
  Nb  Nb5  1  0.366574  0.803891  0.369100  1
  Nb  Nb6  1  0.633426  0.196109  0.630900  1
  Nb  Nb7  1  0.866574  0.696109  0.869100  1
  B  B8  1  0.175769  0.316723  0.618124  1
  B  B9  1  0.143410  0.647458  0.131344  1
  B  B10  1  0.324231  0.816723  0.881876  1
  B  B11  1  0.356590  0.147458  0.368656  1
  B  B12  1  0.643410  0.852542  0.631344  1
  B  B13  1  0.675769  0.183277  0.118124  1
  B  B14  1  0.856590  0.352542  0.868656  1
  B  B15  1  0.824231  0.683277  0.381876  1
  O  O16  1  0.069230  0.337407  0.958420  1
  O  O17  1  0.090127  0.644272  0.391038  1
  O  O18  1  0.116086  0.898257  0.912954  1
  O  O19  1  0.238771  0.268912  0.312332  1
  O  O20  1  0.264725  0.007225  0.337314  1
  O  O21  1  0.243534  0.673065  0.843658  1
  O  O22  1  0.256466  0.173065  0.656342  1
  O  O23  1  0.235275  0.507225  0.162686  1
  O  O24  1  0.261229  0.768912  0.187668  1
  O  O25  1  0.383914  0.398257  0.587046  1
  O  O26  1  0.430770  0.837407  0.541580  1
  O  O27  1  0.409873  0.144272  0.108962  1
  O  O28  1  0.590127  0.855728  0.891038  1
  O  O29  1  0.569230  0.162593  0.458420  1
  O  O30  1  0.616086  0.601743  0.412954  1
  O  O31  1  0.738771  0.231088  0.812332  1
  O  O32  1  0.764725  0.492775  0.837314  1
  O  O33  1  0.743534  0.826935  0.343658  1
  O  O34  1  0.756466  0.326935  0.156342  1
  O  O35  1  0.735275  0.992775  0.662686  1
  O  O36  1  0.761229  0.731088  0.687668  1
  O  O37  1  0.883914  0.101743  0.087046  1
  O  O38  1  0.909873  0.355728  0.608962  1
  O  O39  1  0.930770  0.662593  0.041580  1
