# generated using pymatgen
data_Na4Al3Si3ClO16
_symmetry_space_group_name_H-M   'P 1'
_cell_length_a   9.13087302
_cell_length_b   9.20327674
_cell_length_c   9.19587536
_cell_angle_alpha   90.06913941
_cell_angle_beta   90.00000000
_cell_angle_gamma   90.00000000
_symmetry_Int_Tables_number   1
_chemical_formula_structural   Na4Al3Si3ClO16
_chemical_formula_sum   'Na8 Al6 Si6 Cl2 O32'
_cell_volume   772.76517930
_cell_formula_units_Z   2
loop_
 _symmetry_equiv_pos_site_id
 _symmetry_equiv_pos_as_xyz
  1  'x, y, z'
loop_
 _atom_site_type_symbol
 _atom_site_label
 _atom_site_symmetry_multiplicity
 _atom_site_fract_x
 _atom_site_fract_y
 _atom_site_fract_z
 _atom_site_occupancy
  Na  Na0  1  0.210368  0.782187  0.783084  1
  Na  Na1  1  0.210368  0.217813  0.216916  1
  Na  Na2  1  0.287125  0.286784  0.711563  1
  Na  Na3  1  0.287125  0.713216  0.288437  1
  Na  Na4  1  0.716293  0.283020  0.283039  1
  Na  Na5  1  0.716293  0.716980  0.716961  1
  Na  Na6  1  0.788764  0.216321  0.788158  1
  Na  Na7  1  0.788764  0.783679  0.211842  1
  Al  Al8  1  0.999458  0.250405  0.500361  1
  Al  Al9  1  0.249300  0.500000  0.000000  1
  Al  Al10  1  0.499097  0.999454  0.750304  1
  Al  Al11  1  0.499097  0.000546  0.249696  1
  Al  Al12  1  0.750213  0.500000  0.000000  1
  Al  Al13  1  0.999458  0.749595  0.499639  1
  Si  Si14  1  0.000223  0.498758  0.250926  1
  Si  Si15  1  0.000223  0.501242  0.749074  1
  Si  Si16  1  0.248663  0.000000  0.500000  1
  Si  Si17  1  0.499452  0.750354  0.000734  1
  Si  Si18  1  0.499452  0.249646  0.999266  1
  Si  Si19  1  0.749340  0.000000  0.500000  1
  Cl  Cl20  1  0.015034  0.000000  0.000000  1
  Cl  Cl21  1  0.515137  0.500000  0.500000  1
  O  O22  1  0.045550  0.638746  0.351458  1
  O  O23  1  0.045550  0.361254  0.648542  1
  O  O24  1  0.146141  0.455591  0.155088  1
  O  O25  1  0.146141  0.544408  0.844912  1
  O  O26  1  0.150981  0.142017  0.455083  1
  O  O27  1  0.150981  0.857983  0.544917  1
  O  O28  1  0.344376  0.042876  0.644903  1
  O  O29  1  0.344376  0.957124  0.355097  1
  O  O30  1  0.355897  0.347106  0.955366  1
  O  O31  1  0.355897  0.652894  0.044634  1
  O  O32  1  0.423364  0.369192  0.499139  1
  O  O33  1  0.423364  0.630808  0.500861  1
  O  O34  1  0.452578  0.151589  0.141244  1
  O  O35  1  0.452578  0.848411  0.858756  1
  O  O36  1  0.543041  0.151629  0.856864  1
  O  O37  1  0.543041  0.848371  0.143136  1
  O  O38  1  0.606314  0.501128  0.369685  1
  O  O39  1  0.606314  0.498872  0.630316  1
  O  O40  1  0.643038  0.346265  0.042228  1
  O  O41  1  0.643038  0.653735  0.957772  1
  O  O42  1  0.651347  0.044878  0.357363  1
  O  O43  1  0.651347  0.955122  0.642637  1
  O  O44  1  0.846200  0.143467  0.543571  1
  O  O45  1  0.846200  0.856533  0.456429  1
  O  O46  1  0.856831  0.539620  0.153714  1
  O  O47  1  0.856831  0.460380  0.846286  1
  O  O48  1  0.923336  0.958485  0.867359  1
  O  O49  1  0.923336  0.041515  0.132641  1
  O  O50  1  0.957551  0.354714  0.346637  1
  O  O51  1  0.957551  0.645286  0.653363  1
  O  O52  1  -0.000169  0.174146  0.931149  1
  O  O53  1  -0.000169  0.825854  0.068851  1
