# generated using pymatgen
data_Nb9AsO25
_symmetry_space_group_name_H-M   'P 1'
_cell_length_a   15.96847233
_cell_length_b   3.89214738
_cell_length_c   15.96847233
_cell_angle_alpha   90.00000000
_cell_angle_beta   90.00000000
_cell_angle_gamma   90.00000000
_symmetry_Int_Tables_number   1
_chemical_formula_structural   Nb9AsO25
_chemical_formula_sum   'Nb18 As2 O50'
_cell_volume   992.46686723
_cell_formula_units_Z   2
loop_
 _symmetry_equiv_pos_site_id
 _symmetry_equiv_pos_as_xyz
  1  'x, y, z'
loop_
 _atom_site_type_symbol
 _atom_site_label
 _atom_site_symmetry_multiplicity
 _atom_site_fract_x
 _atom_site_fract_y
 _atom_site_fract_z
 _atom_site_occupancy
  Nb  Nb0  1  0.892971  0.999346  0.218758  1
  Nb  Nb1  1  0.884231  0.006806  0.673024  1
  Nb  Nb2  1  0.826976  0.493194  0.384231  1
  Nb  Nb3  1  0.781242  0.999346  0.892971  1
  Nb  Nb4  1  0.718758  0.500654  0.607029  1
  Nb  Nb5  1  0.673024  0.006806  0.115769  1
  Nb  Nb6  1  0.615769  0.493194  0.826976  1
  Nb  Nb7  1  0.607029  0.500654  0.281242  1
  Nb  Nb8  1  0.500000  0.461579  0.500000  1
  Nb  Nb9  1  0.392971  0.500654  0.718758  1
  Nb  Nb10  1  0.384231  0.493194  0.173024  1
  Nb  Nb11  1  0.326976  0.006806  0.884231  1
  Nb  Nb12  1  0.281242  0.500654  0.392971  1
  Nb  Nb13  1  0.218758  0.999346  0.107029  1
  Nb  Nb14  1  0.173024  0.493194  0.615769  1
  Nb  Nb15  1  0.115769  0.006806  0.326976  1
  Nb  Nb16  1  0.107029  0.999346  0.781242  1
  Nb  Nb17  1  0.000000  0.038421  0.000000  1
  As  As18  1  0.500000  0.750000  0.000000  1
  As  As19  1  0.000000  0.750000  0.500000  1
  O  O20  1  0.988375  0.999710  0.718608  1
  O  O21  1  0.949123  0.512180  0.425103  1
  O  O22  1  0.949382  0.002755  0.116649  1
  O  O23  1  0.925103  0.987820  0.550877  1
  O  O24  1  0.887800  0.499922  0.251182  1
  O  O25  1  0.883351  0.002755  0.949382  1
  O  O26  1  0.853266  0.497042  0.657414  1
  O  O27  1  0.842586  0.002958  0.353266  1
  O  O28  1  0.824826  0.996378  0.782575  1
  O  O29  1  0.782575  0.996378  0.175174  1
  O  O30  1  0.781392  0.500290  0.488375  1
  O  O31  1  0.751182  0.000078  0.612200  1
  O  O32  1  0.748818  0.499922  0.887800  1
  O  O33  1  0.718608  0.999710  0.011625  1
  O  O34  1  0.717425  0.503622  0.324826  1
  O  O35  1  0.675174  0.503622  0.717425  1
  O  O36  1  0.657414  0.497042  0.146734  1
  O  O37  1  0.646734  0.002958  0.842586  1
  O  O38  1  0.616649  0.497245  0.550618  1
  O  O39  1  0.612200  0.000078  0.248818  1
  O  O40  1  0.574897  0.512180  0.949123  1
  O  O41  1  0.550618  0.497245  0.383351  1
  O  O42  1  0.550877  0.987820  0.074897  1
  O  O43  1  0.511625  0.500290  0.781392  1
  O  O44  1  0.500000  0.991562  0.500000  1
  O  O45  1  0.488375  0.500290  0.218608  1
  O  O46  1  0.449123  0.987820  0.925103  1
  O  O47  1  0.449382  0.497245  0.616649  1
  O  O48  1  0.425103  0.512180  0.050877  1
  O  O49  1  0.387800  0.000078  0.751182  1
  O  O50  1  0.383351  0.497245  0.449382  1
  O  O51  1  0.353266  0.002958  0.157414  1
  O  O52  1  0.342586  0.497042  0.853266  1
  O  O53  1  0.324826  0.503622  0.282575  1
  O  O54  1  0.282575  0.503622  0.675174  1
  O  O55  1  0.281392  0.999710  0.988375  1
  O  O56  1  0.251182  0.499922  0.112200  1
  O  O57  1  0.248818  0.000078  0.387800  1
  O  O58  1  0.218608  0.500290  0.511625  1
  O  O59  1  0.217425  0.996378  0.824826  1
  O  O60  1  0.175174  0.996378  0.217425  1
  O  O61  1  0.157414  0.002958  0.646734  1
  O  O62  1  0.146734  0.497042  0.342586  1
  O  O63  1  0.116649  0.002755  0.050618  1
  O  O64  1  0.112200  0.499922  0.748818  1
  O  O65  1  0.074897  0.987820  0.449123  1
  O  O66  1  0.050618  0.002755  0.883351  1
  O  O67  1  0.050877  0.512180  0.574897  1
  O  O68  1  0.011625  0.999710  0.281392  1
  O  O69  1  0.000000  0.508438  0.000000  1
