# generated using pymatgen
data_Li2Ti3CrO8
_symmetry_space_group_name_H-M   'P 1'
_cell_length_a   5.89560900
_cell_length_b   5.89547955
_cell_length_c   9.64688891
_cell_angle_alpha   89.99035475
_cell_angle_beta   90.00482218
_cell_angle_gamma   119.99927010
_symmetry_Int_Tables_number   1
_chemical_formula_structural   Li2Ti3CrO8
_chemical_formula_sum   'Li4 Ti6 Cr2 O16'
_cell_volume   290.38147548
_cell_formula_units_Z   2
loop_
 _symmetry_equiv_pos_site_id
 _symmetry_equiv_pos_as_xyz
  1  'x, y, z'
loop_
 _atom_site_type_symbol
 _atom_site_label
 _atom_site_symmetry_multiplicity
 _atom_site_fract_x
 _atom_site_fract_y
 _atom_site_fract_z
 _atom_site_occupancy
  Li  Li0  1  0.333327  0.666680  0.892185  1
  Li  Li1  1  0.000013  0.999964  0.996600  1
  Li  Li2  1  0.999987  0.999950  0.496600  1
  Li  Li3  1  0.666673  0.333353  0.392185  1
  Ti  Ti4  1  0.169023  0.831023  0.213481  1
  Ti  Ti5  1  0.169029  0.338024  0.213469  1
  Ti  Ti6  1  0.661997  0.831013  0.213471  1
  Ti  Ti7  1  0.338003  0.169016  0.713471  1
  Ti  Ti8  1  0.830977  0.662001  0.713481  1
  Ti  Ti9  1  0.830971  0.168994  0.713469  1
  Cr  Cr10  1  0.333241  0.666594  0.484039  1
  Cr  Cr11  1  0.666759  0.333353  0.984039  1
  O  O12  1  0.163479  0.836516  0.603512  1
  O  O13  1  0.039910  0.519990  0.338358  1
  O  O14  1  0.333338  0.666654  0.102901  1
  O  O15  1  0.999962  0.000071  0.312207  1
  O  O16  1  0.000038  0.000110  0.812207  1
  O  O17  1  0.163456  0.326928  0.603510  1
  O  O18  1  0.480008  0.960116  0.338373  1
  O  O19  1  0.480009  0.519969  0.338315  1
  O  O20  1  0.326955  0.163478  0.103503  1
  O  O21  1  0.673045  0.836523  0.603503  1
  O  O22  1  0.519992  0.480108  0.838373  1
  O  O23  1  0.519991  0.039961  0.838315  1
  O  O24  1  0.666662  0.333317  0.602901  1
  O  O25  1  0.836521  0.673038  0.103512  1
  O  O26  1  0.960090  0.480081  0.838358  1
  O  O27  1  0.836544  0.163472  0.103510  1
