# generated using pymatgen
data_RbCr5S8
_symmetry_space_group_name_H-M   'P 1'
_cell_length_a   3.51056732
_cell_length_b   8.78669538
_cell_length_c   9.20749955
_cell_angle_alpha   105.20673778
_cell_angle_beta   100.98992033
_cell_angle_gamma   90.00000001
_symmetry_Int_Tables_number   1
_chemical_formula_structural   RbCr5S8
_chemical_formula_sum   'Rb1 Cr5 S8'
_cell_volume   268.67109464
_cell_formula_units_Z   1
loop_
 _symmetry_equiv_pos_site_id
 _symmetry_equiv_pos_as_xyz
  1  'x, y, z'
loop_
 _atom_site_type_symbol
 _atom_site_label
 _atom_site_symmetry_multiplicity
 _atom_site_fract_x
 _atom_site_fract_y
 _atom_site_fract_z
 _atom_site_occupancy
  S  S0  1  0.238373  0.155982  0.476745  1
  S  S1  1  0.761627  0.844018  0.523255  1
  S  S2  1  0.172454  0.484599  0.344907  1
  S  S3  1  0.827546  0.515401  0.655093  1
  S  S4  1  0.085730  0.831704  0.171460  1
  S  S5  1  0.914270  0.168296  0.828540  1
  S  S6  1  0.422766  0.853141  0.845532  1
  S  S7  1  0.577234  0.146859  0.154468  1
  Cr  Cr8  1  0.295534  0.666017  0.591068  1
  Cr  Cr9  1  0.704466  0.333983  0.408932  1
  Cr  Cr10  1  0.341122  0.025579  0.682243  1
  Cr  Cr11  1  0.658878  0.974421  0.317757  1
  Cr  Cr12  1  0.000000  0.000000  0.000000  1
  Rb  Rb13  1  0.500000  0.500000  0.000000  1
