# generated using pymatgen
data_Na2LiFePCO7
_symmetry_space_group_name_H-M   'P 1'
_cell_length_a   8.82365331
_cell_length_b   6.80647525
_cell_length_c   10.22272557
_cell_angle_alpha   90.06068396
_cell_angle_beta   88.13501436
_cell_angle_gamma   89.60749232
_symmetry_Int_Tables_number   1
_chemical_formula_structural   Na2LiFePCO7
_chemical_formula_sum   'Na8 Li4 Fe4 P4 C4 O28'
_cell_volume   613.61610392
_cell_formula_units_Z   4
loop_
 _symmetry_equiv_pos_site_id
 _symmetry_equiv_pos_as_xyz
  1  'x, y, z'
loop_
 _atom_site_type_symbol
 _atom_site_label
 _atom_site_symmetry_multiplicity
 _atom_site_fract_x
 _atom_site_fract_y
 _atom_site_fract_z
 _atom_site_occupancy
  Na  Na0  1  0.084475  0.244992  0.880236  1
  Na  Na1  1  0.262614  0.001401  0.626433  1
  Na  Na2  1  0.262533  0.497135  0.624654  1
  Na  Na3  1  0.261764  0.002716  0.126864  1
  Na  Na4  1  0.261497  0.499647  0.126865  1
  Na  Na5  1  0.742833  0.500651  0.870947  1
  Na  Na6  1  0.738035  0.502475  0.377984  1
  Na  Na7  1  0.737594  0.998585  0.374947  1
  Li  Li8  1  0.089186  0.248912  0.376381  1
  Li  Li9  1  0.718682  0.969390  0.883956  1
  Li  Li10  1  0.901397  0.762516  0.623259  1
  Li  Li11  1  0.900130  0.755088  0.124798  1
  Fe  Fe12  1  0.359000  0.747359  0.883887  1
  Fe  Fe13  1  0.350170  0.751837  0.391311  1
  Fe  Fe14  1  0.650712  0.246718  0.615218  1
  Fe  Fe15  1  0.652506  0.247437  0.107786  1
  P  P16  1  0.416251  0.241840  0.852877  1
  P  P17  1  0.408019  0.251475  0.356670  1
  P  P18  1  0.599647  0.753654  0.646361  1
  P  P19  1  0.590628  0.749251  0.141485  1
  C  C20  1  0.043756  0.758875  0.866350  1
  C  C21  1  0.048836  0.750871  0.359572  1
  C  C22  1  0.951814  0.250026  0.629526  1
  C  C23  1  0.942997  0.250568  0.145901  1
  O  O24  1  0.093147  0.251128  0.655097  1
  O  O25  1  0.086111  0.252465  0.168714  1
  O  O26  1  0.071774  0.752257  0.990154  1
  O  O27  1  0.080921  0.752516  0.483121  1
  O  O28  1  0.157254  0.745838  0.779969  1
  O  O29  1  0.160242  0.752394  0.271603  1
  O  O30  1  0.315501  0.063492  0.892824  1
  O  O31  1  0.327560  0.429538  0.898489  1
  O  O32  1  0.309077  0.069971  0.394786  1
  O  O33  1  0.308014  0.434153  0.393967  1
  O  O34  1  0.436745  0.246831  0.700314  1
  O  O35  1  0.441468  0.748948  0.584125  1
  O  O36  1  0.440718  0.250953  0.204959  1
  O  O37  1  0.435775  0.751400  0.074739  1
  O  O38  1  0.576656  0.227018  0.910663  1
  O  O39  1  0.575280  0.768408  0.799038  1
  O  O40  1  0.561318  0.252332  0.426072  1
  O  O41  1  0.560859  0.757048  0.292787  1
  O  O42  1  0.697208  0.568445  0.612384  1
  O  O43  1  0.697647  0.930107  0.598966  1
  O  O44  1  0.687022  0.563339  0.105401  1
  O  O45  1  0.692200  0.926094  0.096126  1
  O  O46  1  0.849803  0.248398  0.725830  1
  O  O47  1  0.843976  0.243812  0.242647  1
  O  O48  1  0.907124  0.249955  0.509530  1
  O  O49  1  0.892657  0.254504  0.027567  1
  O  O50  1  0.907474  0.777237  0.824819  1
  O  O51  1  0.911392  0.748004  0.321040  1
