# generated using pymatgen
data_K3H2S2NO7
_symmetry_space_group_name_H-M   'P 1'
_cell_length_a   8.21978685
_cell_length_b   8.05423299
_cell_length_c   6.81867974
_cell_angle_alpha   103.24889546
_cell_angle_beta   90.89203249
_cell_angle_gamma   97.63847817
_symmetry_Int_Tables_number   1
_chemical_formula_structural   K3H2S2NO7
_chemical_formula_sum   'K6 H4 S4 N2 O14'
_cell_volume   435.01402969
_cell_formula_units_Z   2
loop_
 _symmetry_equiv_pos_site_id
 _symmetry_equiv_pos_as_xyz
  1  'x, y, z'
loop_
 _atom_site_type_symbol
 _atom_site_label
 _atom_site_symmetry_multiplicity
 _atom_site_fract_x
 _atom_site_fract_y
 _atom_site_fract_z
 _atom_site_occupancy
  K  K0  1  0.759138  0.055442  0.686917  1
  K  K1  1  0.240862  0.944558  0.313083  1
  K  K2  1  0.063764  0.344403  0.198767  1
  K  K3  1  0.936236  0.655597  0.801233  1
  K  K4  1  0.423433  0.673916  0.668413  1
  K  K5  1  0.576567  0.326084  0.331587  1
  H  H6  1  0.660257  0.454796  0.900287  1
  H  H7  1  0.339743  0.545204  0.099713  1
  H  H8  1  0.519415  0.316511  0.780713  1
  H  H9  1  0.480585  0.683489  0.219287  1
  S  S10  1  0.277185  0.062147  0.849201  1
  S  S11  1  0.722815  0.937853  0.150799  1
  S  S12  1  0.145976  0.306728  0.680605  1
  S  S13  1  0.854024  0.693272  0.319395  1
  N  N14  1  0.122693  0.127221  0.751152  1
  N  N15  1  0.877307  0.872779  0.248848  1
  O  O16  1  0.337744  0.185828  0.040908  1
  O  O17  1  0.662256  0.814172  0.959092  1
  O  O18  1  0.209267  0.892915  0.886407  1
  O  O19  1  0.790733  0.107085  0.113593  1
  O  O20  1  0.411446  0.042337  0.704672  1
  O  O21  1  0.588554  0.957663  0.295328  1
  O  O22  1  0.197767  0.457535  0.854637  1
  O  O23  1  0.802233  0.542465  0.145363  1
  O  O24  1  0.267987  0.306311  0.521062  1
  O  O25  1  0.732013  0.693689  0.478938  1
  O  O26  1  0.980347  0.317870  0.600143  1
  O  O27  1  0.019653  0.682130  0.399857  1
  O  O28  1  0.611448  0.401540  0.763864  1
  O  O29  1  0.388552  0.598460  0.236136  1
