# generated using pymatgen
data_Li5Mn3Cu2(PO4)6
_symmetry_space_group_name_H-M   'P 1'
_cell_length_a   8.22794353
_cell_length_b   9.16489367
_cell_length_c   8.39505410
_cell_angle_alpha   60.30391255
_cell_angle_beta   63.16341099
_cell_angle_gamma   61.09175258
_symmetry_Int_Tables_number   1
_chemical_formula_structural   Li5Mn3Cu2(PO4)6
_chemical_formula_sum   'Li5 Mn3 Cu2 P6 O24'
_cell_volume   462.31153152
_cell_formula_units_Z   1
loop_
 _symmetry_equiv_pos_site_id
 _symmetry_equiv_pos_as_xyz
  1  'x, y, z'
loop_
 _atom_site_type_symbol
 _atom_site_label
 _atom_site_symmetry_multiplicity
 _atom_site_fract_x
 _atom_site_fract_y
 _atom_site_fract_z
 _atom_site_occupancy
  Li  Li0  1  0.768779  0.131081  0.352476  1
  Li  Li1  1  0.189290  0.858282  0.669435  1
  Li  Li2  1  0.675586  0.163351  0.844954  1
  Li  Li3  1  0.861632  0.674380  0.198883  1
  Li  Li4  1  0.845741  0.822089  0.851266  1
  Mn  Mn5  1  0.145307  0.161068  0.134701  1
  Mn  Mn6  1  0.354344  0.353469  0.357154  1
  Mn  Mn7  1  0.639572  0.661295  0.649588  1
  Cu  Cu8  1  0.016393  0.983590  0.999768  1
  Cu  Cu9  1  0.492272  0.502747  0.501755  1
  P  P10  1  0.748921  0.464358  0.064388  1
  P  P11  1  0.051886  0.749424  0.453994  1
  P  P12  1  0.432689  0.044429  0.759303  1
  P  P13  1  0.256688  0.540312  0.947840  1
  P  P14  1  0.565116  0.970484  0.254026  1
  P  P15  1  0.950462  0.249527  0.536018  1
  O  O16  1  0.095019  0.345412  0.450776  1
  O  O17  1  0.353903  0.479092  0.099210  1
  O  O18  1  0.032440  0.916861  0.262487  1
  O  O19  1  0.555324  0.100768  0.323174  1
  O  O20  1  0.022052  0.811622  0.604740  1
  O  O21  1  0.254722  0.601764  0.424131  1
  O  O22  1  0.237189  0.062518  0.926379  1
  O  O23  1  0.406695  0.234878  0.598764  1
  O  O24  1  0.208529  0.391560  0.965995  1
  O  O25  1  0.596919  0.413669  0.269575  1
  O  O26  1  0.090098  0.717676  0.953756  1
  O  O27  1  0.381573  0.024278  0.204211  1
  O  O28  1  0.602213  0.009797  0.816544  1
  O  O29  1  0.906134  0.274801  0.071748  1
  O  O30  1  0.402519  0.592224  0.737404  1
  O  O31  1  0.803288  0.602951  0.055982  1
  O  O32  1  0.587957  0.773543  0.401758  1
  O  O33  1  0.750938  0.953225  0.081451  1
  O  O34  1  0.737666  0.381429  0.583358  1
  O  O35  1  0.969571  0.180210  0.391984  1
  O  O36  1  0.452571  0.900322  0.702651  1
  O  O37  1  0.975519  0.089674  0.726831  1
  O  O38  1  0.685441  0.515836  0.893026  1
  O  O39  1  0.897040  0.673001  0.501514  1
