# generated using pymatgen
data_LiFe2(BO3)2
_symmetry_space_group_name_H-M   'P 1'
_cell_length_a   5.21721929
_cell_length_b   5.23453052
_cell_length_c   10.29807855
_cell_angle_alpha   89.65933975
_cell_angle_beta   91.45892156
_cell_angle_gamma   60.81647681
_symmetry_Int_Tables_number   1
_chemical_formula_structural   LiFe2(BO3)2
_chemical_formula_sum   'Li2 Fe4 B4 O12'
_cell_volume   245.40384307
_cell_formula_units_Z   2
loop_
 _symmetry_equiv_pos_site_id
 _symmetry_equiv_pos_as_xyz
  1  'x, y, z'
loop_
 _atom_site_type_symbol
 _atom_site_label
 _atom_site_symmetry_multiplicity
 _atom_site_fract_x
 _atom_site_fract_y
 _atom_site_fract_z
 _atom_site_occupancy
  Li  Li0  1  0.332045  0.650589  0.348447  1
  Li  Li1  1  0.653502  0.352246  0.083877  1
  Fe  Fe2  1  0.000775  0.664363  0.633886  1
  Fe  Fe3  1  0.680229  0.005802  0.864110  1
  Fe  Fe4  1  0.320006  0.998922  0.107882  1
  Fe  Fe5  1  0.000185  0.327431  0.371726  1
  B  B6  1  0.001510  0.336611  0.874877  1
  B  B7  1  0.337592  0.001526  0.610102  1
  B  B8  1  0.661693  0.996821  0.372187  1
  B  B9  1  0.991624  0.668119  0.136285  1
  O  O10  1  0.104842  0.278425  0.565918  1
  O  O11  1  0.268419  0.100015  0.911492  1
  O  O12  1  0.998974  0.584740  0.817990  1
  O  O13  1  0.601477  0.985010  0.645717  1
  O  O14  1  0.262206  0.653802  0.150100  1
  O  O15  1  0.293998  0.766583  0.608759  1
  O  O16  1  0.675287  0.252595  0.365734  1
  O  O17  1  0.742873  0.342077  0.897927  1
  O  O18  1  0.398731  0.996203  0.344465  1
  O  O19  1  0.970926  0.415672  0.174680  1
  O  O20  1  0.746593  0.916199  0.090767  1
  O  O21  1  0.915407  0.732293  0.403833  1
