# generated using pymatgen
data_Li2Fe(Si2O5)3
_symmetry_space_group_name_H-M   'P 1'
_cell_length_a   7.26039391
_cell_length_b   7.45110790
_cell_length_c   14.84122231
_cell_angle_alpha   80.23535126
_cell_angle_beta   90.00000000
_cell_angle_gamma   60.84313738
_symmetry_Int_Tables_number   1
_chemical_formula_structural   Li2Fe(Si2O5)3
_chemical_formula_sum   'Li4 Fe2 Si12 O30'
_cell_volume   687.79664438
_cell_formula_units_Z   2
loop_
 _symmetry_equiv_pos_site_id
 _symmetry_equiv_pos_as_xyz
  1  'x, y, z'
loop_
 _atom_site_type_symbol
 _atom_site_label
 _atom_site_symmetry_multiplicity
 _atom_site_fract_x
 _atom_site_fract_y
 _atom_site_fract_z
 _atom_site_occupancy
  Li  Li0  1  0.683759  0.602755  0.949431  1
  Li  Li1  1  0.349414  0.601482  0.839248  1
  Li  Li2  1  0.713486  0.602755  0.449431  1
  Li  Li3  1  0.049104  0.601482  0.339248  1
  Fe  Fe4  1  0.280869  0.950788  0.896203  1
  Fe  Fe5  1  0.768343  0.950788  0.396203  1
  Si  Si6  1  0.639910  0.819322  0.746893  1
  Si  Si7  1  0.080883  0.887955  0.564440  1
  Si  Si8  1  0.540768  0.819322  0.246893  1
  Si  Si9  1  0.031163  0.887955  0.064440  1
  Si  Si10  1  0.166633  0.458955  0.550462  1
  Si  Si11  1  0.999676  0.366615  0.747420  1
  Si  Si12  1  0.374413  0.458955  0.050462  1
  Si  Si13  1  0.633709  0.366615  0.247420  1
  Si  Si14  1  0.911572  0.014817  0.756428  1
  Si  Si15  1  0.435974  0.008395  0.541974  1
  Si  Si16  1  0.073611  0.014817  0.256428  1
  Si  Si17  1  0.555631  0.008395  0.041974  1
  O  O18  1  0.538827  0.899489  0.958092  1
  O  O19  1  0.079236  0.881968  0.848384  1
  O  O20  1  0.030202  0.902960  0.671372  1
  O  O21  1  0.463102  0.797130  0.807361  1
  O  O22  1  0.572461  0.855119  0.638309  1
  O  O23  1  0.561685  0.899489  0.458092  1
  O  O24  1  0.465482  0.538729  0.963079  1
  O  O25  1  0.038797  0.881968  0.348384  1
  O  O26  1  0.855887  0.592227  0.779335  1
  O  O27  1  0.066838  0.902960  0.171372  1
  O  O28  1  0.739769  0.797130  0.307361  1
  O  O29  1  0.231625  0.639980  0.559920  1
  O  O30  1  0.572421  0.855119  0.138309  1
  O  O31  1  0.995789  0.538729  0.463079  1
  O  O32  1  0.078922  0.405512  0.647180  1
  O  O33  1  0.551886  0.592227  0.279335  1
  O  O34  1  0.190549  0.222524  0.826360  1
  O  O35  1  0.845430  0.262431  0.737984  1
  O  O36  1  0.128396  0.639980  0.059920  1
  O  O37  1  0.387920  0.247412  0.538795  1
  O  O38  1  0.515566  0.405512  0.147180  1
  O  O39  1  0.695061  0.998582  0.767235  1
  O  O40  1  0.586927  0.222524  0.326360  1
  O  O41  1  0.892140  0.262431  0.237984  1
  O  O42  1  0.208503  0.013760  0.533214  1
  O  O43  1  0.851819  0.002176  0.503795  1
  O  O44  1  0.364668  0.247412  0.038795  1
  O  O45  1  0.306358  0.998582  0.267235  1
  O  O46  1  0.777738  0.013760  0.033214  1
  O  O47  1  0.146004  0.002176  0.003795  1
