# generated using pymatgen
data_CoH15N7ClO5
_symmetry_space_group_name_H-M   'P 1'
_cell_length_a   15.96756021
_cell_length_b   10.29302287
_cell_length_c   8.91237741
_cell_angle_alpha   90.00000000
_cell_angle_beta   90.00000000
_cell_angle_gamma   90.00000000
_symmetry_Int_Tables_number   1
_chemical_formula_structural   CoH15N7ClO5
_chemical_formula_sum   'Co4 H60 N28 Cl4 O20'
_cell_volume   1464.78899810
_cell_formula_units_Z   4
loop_
 _symmetry_equiv_pos_site_id
 _symmetry_equiv_pos_as_xyz
  1  'x, y, z'
loop_
 _atom_site_type_symbol
 _atom_site_label
 _atom_site_symmetry_multiplicity
 _atom_site_fract_x
 _atom_site_fract_y
 _atom_site_fract_z
 _atom_site_occupancy
  Co  Co0  1  0.364007  0.246669  0.715500  1
  Co  Co1  1  0.635993  0.753331  0.215500  1
  Co  Co2  1  0.135993  0.746669  0.215500  1
  Co  Co3  1  0.864007  0.253331  0.715500  1
  H  H4  1  0.396154  0.039149  0.855604  1
  H  H5  1  0.603846  0.960851  0.355604  1
  H  H6  1  0.103846  0.539149  0.355604  1
  H  H7  1  0.896154  0.460851  0.855604  1
  H  H8  1  0.325516  0.006186  0.718875  1
  H  H9  1  0.674484  0.993814  0.218875  1
  H  H10  1  0.174484  0.506186  0.218875  1
  H  H11  1  0.825516  0.493814  0.718875  1
  H  H12  1  0.435980  0.966129  0.515143  1
  H  H13  1  0.564020  0.033871  0.015143  1
  H  H14  1  0.064020  0.466129  0.015143  1
  H  H15  1  0.935980  0.533871  0.515143  1
  H  H16  1  0.212912  0.274169  0.926878  1
  H  H17  1  0.787088  0.725831  0.426878  1
  H  H18  1  0.287088  0.774169  0.426878  1
  H  H19  1  0.712912  0.225831  0.926878  1
  H  H20  1  0.496778  0.392097  0.340657  1
  H  H21  1  0.503222  0.607903  0.840657  1
  H  H22  1  0.003222  0.892097  0.840657  1
  H  H23  1  0.996778  0.107903  0.340657  1
  H  H24  1  0.243151  0.221281  0.948995  1
  H  H25  1  0.756849  0.778719  0.448995  1
  H  H26  1  0.256849  0.721281  0.448995  1
  H  H27  1  0.743151  0.278719  0.948995  1
  H  H28  1  0.337951  0.409896  0.435293  1
  H  H29  1  0.662049  0.590104  0.935293  1
  H  H30  1  0.162049  0.909896  0.935293  1
  H  H31  1  0.837951  0.090104  0.435293  1
  H  H32  1  0.131603  0.374752  0.618267  1
  H  H33  1  0.868397  0.625248  0.118267  1
  H  H34  1  0.368397  0.874752  0.118267  1
  H  H35  1  0.631603  0.125248  0.618267  1
  H  H36  1  0.289919  0.184731  0.460075  1
  H  H37  1  0.710081  0.815269  0.960075  1
  H  H38  1  0.210081  0.684731  0.960075  1
  H  H39  1  0.789919  0.315269  0.460075  1
  H  H40  1  0.452064  0.282945  0.473612  1
  H  H41  1  0.547936  0.717055  0.973612  1
  H  H42  1  0.047936  0.782945  0.973612  1
  H  H43  1  0.952064  0.217055  0.473612  1
  H  H44  1  0.363193  0.471344  0.428718  1
  H  H45  1  0.636807  0.528656  0.928718  1
  H  H46  1  0.136807  0.971344  0.928718  1
  H  H47  1  0.863193  0.028656  0.428718  1
  H  H48  1  0.515267  0.202910  0.746737  1
  H  H49  1  0.484733  0.797090  0.246737  1
  H  H50  1  0.984733  0.702910  0.246737  1
  H  H51  1  0.015267  0.297090  0.746737  1
  H  H52  1  0.527381  0.169573  0.978286  1
  H  H53  1  0.472619  0.830427  0.478286  1
  H  H54  1  0.972619  0.669573  0.478286  1
  H  H55  1  0.027381  0.330427  0.978286  1
  H  H56  1  0.394956  0.396964  0.146552  1
  H  H57  1  0.605044  0.603036  0.646552  1
  H  H58  1  0.105044  0.896964  0.646552  1
  H  H59  1  0.894956  0.103036  0.146552  1
  H  H60  1  0.492822  0.360535  0.773691  1
  H  H61  1  0.507178  0.639465  0.273691  1
  H  H62  1  0.007178  0.860535  0.273691  1
  H  H63  1  0.992822  0.139465  0.773691  1
  N  N64  1  0.355439  0.442043  0.723091  1
  N  N65  1  0.644561  0.557957  0.223091  1
  N  N66  1  0.144561  0.942043  0.223091  1
  N  N67  1  0.855439  0.057957  0.723091  1
  N  N68  1  0.364359  0.074097  0.764419  1
  N  N69  1  0.635641  0.925903  0.264419  1
  N  N70  1  0.135641  0.574097  0.264419  1
  N  N71  1  0.864359  0.425903  0.764419  1
  N  N72  1  0.077401  0.211932  0.458311  1
  N  N73  1  0.922599  0.788068  0.958311  1
  N  N74  1  0.422599  0.711932  0.958311  1
  N  N75  1  0.577401  0.288068  0.458311  1
  N  N76  1  0.296482  0.230916  0.561645  1
  N  N77  1  0.703518  0.769084  0.061645  1
  N  N78  1  0.203518  0.730916  0.061645  1
  N  N79  1  0.796482  0.269084  0.561645  1
  N  N80  1  0.507363  0.320624  0.423302  1
  N  N81  1  0.492637  0.679376  0.923302  1
  N  N82  1  0.992637  0.820624  0.923302  1
  N  N83  1  0.007363  0.179376  0.423302  1
  N  N84  1  0.471126  0.267434  0.782080  1
  N  N85  1  0.528874  0.732566  0.282080  1
  N  N86  1  0.028874  0.767434  0.282080  1
  N  N87  1  0.971126  0.232566  0.782080  1
  N  N88  1  0.116539  0.545649  0.712399  1
  N  N89  1  0.883461  0.454351  0.212399  1
  N  N90  1  0.383461  0.045649  0.212399  1
  N  N91  1  0.616539  0.954351  0.712399  1
  Cl  Cl92  1  0.657405  0.511926  0.615406  1
  Cl  Cl93  1  0.342595  0.488074  0.115406  1
  Cl  Cl94  1  0.842595  0.011926  0.115406  1
  Cl  Cl95  1  0.157405  0.988074  0.615406  1
  O  O96  1  0.285917  0.487587  0.753520  1
  O  O97  1  0.714083  0.512413  0.253520  1
  O  O98  1  0.214083  0.987587  0.253520  1
  O  O99  1  0.785917  0.012413  0.753520  1
  O  O100  1  0.418020  0.512613  0.699738  1
  O  O101  1  0.581980  0.487387  0.199738  1
  O  O102  1  0.081980  0.012613  0.199738  1
  O  O103  1  0.918020  0.987387  0.699738  1
  O  O104  1  0.079793  0.375513  0.002381  1
  O  O105  1  0.920207  0.624487  0.502381  1
  O  O106  1  0.420207  0.875513  0.502381  1
  O  O107  1  0.579793  0.124487  0.002381  1
  O  O108  1  0.101799  0.455822  0.591617  1
  O  O109  1  0.898201  0.544178  0.091617  1
  O  O110  1  0.398201  0.955822  0.091617  1
  O  O111  1  0.601799  0.044178  0.591617  1
  O  O112  1  0.087842  0.649572  0.681707  1
  O  O113  1  0.912158  0.350428  0.181707  1
  O  O114  1  0.412158  0.149572  0.181707  1
  O  O115  1  0.587842  0.850428  0.681707  1
