# generated using pymatgen
data_Ru3C10I2O9
_symmetry_space_group_name_H-M   'P 1'
_cell_length_a   24.18160165
_cell_length_b   8.42598901
_cell_length_c   9.37480490
_cell_angle_alpha   90.00000000
_cell_angle_beta   90.00000000
_cell_angle_gamma   90.00000000
_symmetry_Int_Tables_number   1
_chemical_formula_structural   Ru3C10I2O9
_chemical_formula_sum   'Ru12 C40 I8 O36'
_cell_volume   1910.15315149
_cell_formula_units_Z   4
loop_
 _symmetry_equiv_pos_site_id
 _symmetry_equiv_pos_as_xyz
  1  'x, y, z'
loop_
 _atom_site_type_symbol
 _atom_site_label
 _atom_site_symmetry_multiplicity
 _atom_site_fract_x
 _atom_site_fract_y
 _atom_site_fract_z
 _atom_site_occupancy
  Ru  Ru0  1  0.581319  0.787937  0.056771  1
  Ru  Ru1  1  0.418681  0.212063  0.556771  1
  Ru  Ru2  1  0.918681  0.287937  0.556771  1
  Ru  Ru3  1  0.081319  0.712063  0.056771  1
  Ru  Ru4  1  0.594969  0.642123  0.343287  1
  Ru  Ru5  1  0.405031  0.357877  0.843287  1
  Ru  Ru6  1  0.905031  0.142123  0.843287  1
  Ru  Ru7  1  0.094969  0.857877  0.343287  1
  Ru  Ru8  1  0.701088  0.754757  0.124892  1
  Ru  Ru9  1  0.298912  0.245243  0.624892  1
  Ru  Ru10  1  0.798912  0.254757  0.624892  1
  Ru  Ru11  1  0.201088  0.745243  0.124892  1
  C  C12  1  0.501403  0.776004  0.053794  1
  C  C13  1  0.498597  0.223996  0.553794  1
  C  C14  1  0.998597  0.276004  0.553794  1
  C  C15  1  0.001403  0.723996  0.053794  1
  C  C16  1  0.591537  0.858666  0.861581  1
  C  C17  1  0.408463  0.141334  0.361581  1
  C  C18  1  0.908463  0.358666  0.361581  1
  C  C19  1  0.091537  0.641334  0.861581  1
  C  C20  1  0.587327  0.541257  0.987141  1
  C  C21  1  0.412673  0.458743  0.487141  1
  C  C22  1  0.912673  0.041257  0.487141  1
  C  C23  1  0.087327  0.958743  0.987141  1
  C  C24  1  0.585844  0.974615  0.142249  1
  C  C25  1  0.414156  0.025385  0.642249  1
  C  C26  1  0.914156  0.474615  0.642249  1
  C  C27  1  0.085844  0.525385  0.142249  1
  C  C28  1  0.542770  0.492166  0.278132  1
  C  C29  1  0.457230  0.507834  0.778132  1
  C  C30  1  0.957230  0.992166  0.778132  1
  C  C31  1  0.042770  0.007834  0.278132  1
  C  C32  1  0.606011  0.562675  0.533715  1
  C  C33  1  0.393989  0.437325  0.033715  1
  C  C34  1  0.893989  0.062675  0.033715  1
  C  C35  1  0.106011  0.937325  0.533715  1
  C  C36  1  0.539116  0.790811  0.386618  1
  C  C37  1  0.460884  0.209189  0.886618  1
  C  C38  1  0.960884  0.290811  0.886618  1
  C  C39  1  0.039116  0.709189  0.386618  1
  C  C40  1  0.704944  0.670940  0.938534  1
  C  C41  1  0.295056  0.329060  0.438534  1
  C  C42  1  0.795056  0.170940  0.438534  1
  C  C43  1  0.204944  0.829060  0.938534  1
  C  C44  1  0.778368  0.733077  0.174607  1
  C  C45  1  0.221632  0.266923  0.674607  1
  C  C46  1  0.721632  0.233077  0.674607  1
  C  C47  1  0.278368  0.766923  0.174607  1
  C  C48  1  0.703134  0.965062  0.055572  1
  C  C49  1  0.296866  0.034938  0.555572  1
  C  C50  1  0.796866  0.465062  0.555572  1
  C  C51  1  0.203134  0.534938  0.055572  1
  I  I52  1  0.682110  0.450195  0.241105  1
  I  I53  1  0.317890  0.549805  0.741105  1
  I  I54  1  0.817890  0.950195  0.741105  1
  I  I55  1  0.182110  0.049805  0.241105  1
  I  I56  1  0.675987  0.871818  0.397892  1
  I  I57  1  0.324013  0.128182  0.897892  1
  I  I58  1  0.824013  0.371818  0.897892  1
  I  I59  1  0.175987  0.628182  0.397892  1
  O  O60  1  0.453595  0.779363  0.049336  1
  O  O61  1  0.546405  0.220637  0.549336  1
  O  O62  1  0.046405  0.279363  0.549336  1
  O  O63  1  0.953595  0.720637  0.049336  1
  O  O64  1  0.594937  0.905837  0.745919  1
  O  O65  1  0.405063  0.094163  0.245919  1
  O  O66  1  0.905063  0.405837  0.245919  1
  O  O67  1  0.094937  0.594163  0.745919  1
  O  O68  1  0.586602  0.412109  0.947656  1
  O  O69  1  0.413398  0.587891  0.447656  1
  O  O70  1  0.913398  0.912109  0.447656  1
  O  O71  1  0.086602  0.087891  0.947656  1
  O  O72  1  0.509787  0.400911  0.241108  1
  O  O73  1  0.490213  0.599089  0.741108  1
  O  O74  1  0.990213  0.900911  0.741108  1
  O  O75  1  0.009787  0.099089  0.241108  1
  O  O76  1  0.610596  0.520756  0.650730  1
  O  O77  1  0.389404  0.479244  0.150730  1
  O  O78  1  0.889404  0.020756  0.150730  1
  O  O79  1  0.110596  0.979244  0.650730  1
  O  O80  1  0.503972  0.877558  0.418000  1
  O  O81  1  0.496028  0.122442  0.918000  1
  O  O82  1  0.996028  0.377558  0.918000  1
  O  O83  1  0.003972  0.622442  0.418000  1
  O  O84  1  0.708923  0.622980  0.822692  1
  O  O85  1  0.291077  0.377020  0.322692  1
  O  O86  1  0.791077  0.122980  0.322692  1
  O  O87  1  0.208923  0.877020  0.822692  1
  O  O88  1  0.825014  0.720266  0.198996  1
  O  O89  1  0.174986  0.279734  0.698996  1
  O  O90  1  0.674986  0.220266  0.698996  1
  O  O91  1  0.325014  0.779734  0.198996  1
  O  O92  1  0.706468  0.093537  0.012221  1
  O  O93  1  0.293532  0.906463  0.512221  1
  O  O94  1  0.793532  0.593537  0.512221  1
  O  O95  1  0.206468  0.406463  0.012221  1
