# generated using pymatgen
data_LiSnPCO7
_symmetry_space_group_name_H-M   'P 1'
_cell_length_a   8.51344356
_cell_length_b   5.09619137
_cell_length_c   6.58108604
_cell_angle_alpha   90.00000000
_cell_angle_beta   90.00000000
_cell_angle_gamma   85.19674961
_symmetry_Int_Tables_number   1
_chemical_formula_structural   LiSnPCO7
_chemical_formula_sum   'Li2 Sn2 P2 C2 O14'
_cell_volume   284.52516211
_cell_formula_units_Z   2
loop_
 _symmetry_equiv_pos_site_id
 _symmetry_equiv_pos_as_xyz
  1  'x, y, z'
loop_
 _atom_site_type_symbol
 _atom_site_label
 _atom_site_symmetry_multiplicity
 _atom_site_fract_x
 _atom_site_fract_y
 _atom_site_fract_z
 _atom_site_occupancy
  Li  Li0  1  0.092626  0.757359  0.250000  1
  Li  Li1  1  0.907374  0.242641  0.750000  1
  Sn  Sn2  1  0.323234  0.801745  0.750000  1
  Sn  Sn3  1  0.676766  0.198255  0.250000  1
  P  P4  1  0.419498  0.719695  0.250000  1
  P  P5  1  0.580502  0.280305  0.750000  1
  C  C6  1  0.034976  0.698617  0.750000  1
  C  C7  1  0.965024  0.301383  0.250000  1
  O  O8  1  0.076919  0.948187  0.750000  1
  O  O9  1  0.103341  0.363343  0.250000  1
  O  O10  1  0.158542  0.521317  0.750000  1
  O  O11  1  0.309867  0.796010  0.067191  1
  O  O12  1  0.309867  0.796010  0.432809  1
  O  O13  1  0.425179  0.145076  0.750000  1
  O  O14  1  0.466160  0.419181  0.250000  1
  O  O15  1  0.533840  0.580819  0.750000  1
  O  O16  1  0.574821  0.854924  0.250000  1
  O  O17  1  0.690133  0.203990  0.567191  1
  O  O18  1  0.690133  0.203990  0.932809  1
  O  O19  1  0.841458  0.478683  0.250000  1
  O  O20  1  0.896659  0.636657  0.750000  1
  O  O21  1  0.923081  0.051813  0.250000  1
