# generated using pymatgen
data_Li2NiBO4
_symmetry_space_group_name_H-M   'P 1'
_cell_length_a   4.94591466
_cell_length_b   4.94591466
_cell_length_c   6.10975146
_cell_angle_alpha   90.00000000
_cell_angle_beta   90.00000000
_cell_angle_gamma   87.92323353
_symmetry_Int_Tables_number   1
_chemical_formula_structural   Li2NiBO4
_chemical_formula_sum   'Li4 Ni2 B2 O8'
_cell_volume   149.35901097
_cell_formula_units_Z   2
loop_
 _symmetry_equiv_pos_site_id
 _symmetry_equiv_pos_as_xyz
  1  'x, y, z'
loop_
 _atom_site_type_symbol
 _atom_site_label
 _atom_site_symmetry_multiplicity
 _atom_site_fract_x
 _atom_site_fract_y
 _atom_site_fract_z
 _atom_site_occupancy
  Li  Li0  1  0.318991  0.681009  0.500000  1
  Li  Li1  1  0.192205  0.192205  0.750000  1
  Li  Li2  1  0.807795  0.807795  0.250000  1
  Li  Li3  1  0.681009  0.318991  0.000000  1
  Ni  Ni4  1  0.187314  0.187314  0.250000  1
  Ni  Ni5  1  0.812686  0.812686  0.750000  1
  B  B6  1  0.315671  0.684329  0.000000  1
  B  B7  1  0.684329  0.315671  0.500000  1
  O  O8  1  0.203827  0.808337  0.202124  1
  O  O9  1  0.191663  0.796173  0.797876  1
  O  O10  1  0.279480  0.384169  0.008912  1
  O  O11  1  0.615831  0.720520  0.991088  1
  O  O12  1  0.384169  0.279480  0.491088  1
  O  O13  1  0.720520  0.615831  0.508912  1
  O  O14  1  0.796173  0.191663  0.702124  1
  O  O15  1  0.808337  0.203827  0.297876  1
