# generated using pymatgen
data_Ba9Rh8O27
_symmetry_space_group_name_H-M   'P 1'
_cell_length_a   10.12457036
_cell_length_b   10.12619540
_cell_length_c   15.22604091
_cell_angle_alpha   77.47906691
_cell_angle_beta   96.54017657
_cell_angle_gamma   119.72124880
_symmetry_Int_Tables_number   1
_chemical_formula_structural   Ba9Rh8O27
_chemical_formula_sum   'Ba18 Rh16 O54'
_cell_volume   1323.38875397
_cell_formula_units_Z   2
loop_
 _symmetry_equiv_pos_site_id
 _symmetry_equiv_pos_as_xyz
  1  'x, y, z'
loop_
 _atom_site_type_symbol
 _atom_site_label
 _atom_site_symmetry_multiplicity
 _atom_site_fract_x
 _atom_site_fract_y
 _atom_site_fract_z
 _atom_site_occupancy
  Ba  Ba0  1  0.016458  0.250741  0.240020  1
  Ba  Ba1  1  0.322169  0.014548  0.921950  1
  Ba  Ba2  1  0.338832  0.313903  0.073201  1
  Ba  Ba3  1  0.008391  0.652131  0.079419  1
  Ba  Ba4  1  0.649007  0.046241  0.740871  1
  Ba  Ba5  1  0.332063  0.416667  0.745168  1
  Ba  Ba6  1  0.673572  0.195946  0.424810  1
  Ba  Ba7  1  0.340580  0.534622  0.418729  1
  Ba  Ba8  1  0.005671  0.874021  0.408592  1
  Ba  Ba9  1  0.659329  0.469127  0.581092  1
  Ba  Ba10  1  0.327231  0.798269  0.578916  1
  Ba  Ba11  1  0.991378  0.129536  0.583453  1
  Ba  Ba12  1  0.706011  0.626313  0.238242  1
  Ba  Ba13  1  0.329462  0.935776  0.241151  1
  Ba  Ba14  1  0.661234  0.690763  0.909959  1
  Ba  Ba15  1  0.988566  0.347865  0.922641  1
  Ba  Ba16  1  0.677721  0.981609  0.080632  1
  Ba  Ba17  1  0.960242  0.735908  0.739287  1
  Rh  Rh18  1  0.004980  0.001085  0.013016  1
  Rh  Rh19  1  0.312870  0.086127  0.678942  1
  Rh  Rh20  1  0.333826  0.167886  0.500273  1
  Rh  Rh21  1  0.999652  0.498282  0.500981  1
  Rh  Rh22  1  0.364497  0.256235  0.323491  1
  Rh  Rh23  1  0.017829  0.570999  0.324550  1
  Rh  Rh24  1  0.332602  0.666964  0.000269  1
  Rh  Rh25  1  0.666180  0.330029  0.001146  1
  Rh  Rh26  1  0.685971  0.291957  0.181371  1
  Rh  Rh27  1  0.353538  0.626998  0.179472  1
  Rh  Rh28  1  0.987962  0.045880  0.826024  1
  Rh  Rh29  1  0.305154  0.705761  0.823000  1
  Rh  Rh30  1  0.647033  0.363848  0.823915  1
  Rh  Rh31  1  0.979931  0.420248  0.679864  1
  Rh  Rh32  1  0.663832  0.827456  0.511582  1
  Rh  Rh33  1  0.678287  0.909948  0.325389  1
  O  O34  1  0.007030  0.147449  0.074005  1
  O  O35  1  0.224363  0.144308  0.237033  1
  O  O36  1  0.136797  0.055882  0.745012  1
  O  O37  1  0.009127  0.379563  0.413478  1
  O  O38  1  0.346926  0.060821  0.404733  1
  O  O39  1  0.194918  0.211491  0.404281  1
  O  O40  1  0.148116  0.177177  0.913219  1
  O  O41  1  0.523887  0.159736  0.100218  1
  O  O42  1  0.194520  0.491582  0.098924  1
  O  O43  1  0.472995  0.122951  0.595956  1
  O  O44  1  0.143741  0.461381  0.596353  1
  O  O45  1  0.325449  0.277505  0.596154  1
  O  O46  1  0.699484  0.117952  0.264630  1
  O  O47  1  0.206175  0.612535  0.263833  1
  O  O48  1  0.023273  0.755914  0.255126  1
  O  O49  1  0.554740  0.301310  0.265731  1
  O  O50  1  0.386974  0.463236  0.262907  1
  O  O51  1  0.460847  0.199549  0.770465  1
  O  O52  1  0.120172  0.538980  0.771274  1
  O  O53  1  0.820400  0.013692  0.423178  1
  O  O54  1  0.500181  0.357081  0.429106  1
  O  O55  1  0.159060  0.687456  0.422103  1
  O  O56  1  0.166309  0.684186  0.922273  1
  O  O57  1  0.848122  0.025210  0.917554  1
  O  O58  1  0.657968  0.190635  0.922608  1
  O  O59  1  0.323975  0.534791  0.914970  1
  O  O60  1  0.506251  0.351628  0.916017  1
  O  O61  1  0.339100  0.797544  0.086766  1
  O  O62  1  0.824932  0.307438  0.087584  1
  O  O63  1  0.675685  0.463786  0.087214  1
  O  O64  1  0.495467  0.648784  0.085908  1
  O  O65  1  0.172489  0.983877  0.073222  1
  O  O66  1  0.171288  0.981240  0.578071  1
  O  O67  1  0.841272  0.310830  0.580658  1
  O  O68  1  0.498061  0.639993  0.568201  1
  O  O69  1  0.525330  0.798882  0.235573  1
  O  O70  1  0.881606  0.451707  0.232483  1
  O  O71  1  0.783277  0.363737  0.739044  1
  O  O72  1  0.973773  0.223110  0.745756  1
  O  O73  1  0.449237  0.722950  0.744072  1
  O  O74  1  0.277052  0.871269  0.738661  1
  O  O75  1  0.638879  0.536026  0.746098  1
  O  O76  1  0.668239  0.722243  0.407192  1
  O  O77  1  0.519488  0.870198  0.415517  1
  O  O78  1  0.856406  0.535770  0.406442  1
  O  O79  1  0.808140  0.501449  0.902830  1
  O  O80  1  0.470395  0.841149  0.901588  1
  O  O81  1  0.844061  0.819663  0.076322  1
  O  O82  1  0.988148  0.607257  0.596431  1
  O  O83  1  0.661315  0.964566  0.578771  1
  O  O84  1  0.824363  0.799935  0.573446  1
  O  O85  1  0.843788  0.937563  0.259137  1
  O  O86  1  0.820066  0.898460  0.764271  1
  O  O87  1  0.997500  0.875609  0.917645  1
