# generated using pymatgen
data_RbAs7H24C8N3
_symmetry_space_group_name_H-M   'P 1'
_cell_length_a   13.48767555
_cell_length_b   9.50116502
_cell_length_c   19.51498137
_cell_angle_alpha   90.00000000
_cell_angle_beta   100.86171212
_cell_angle_gamma   90.00000000
_symmetry_Int_Tables_number   1
_chemical_formula_structural   RbAs7H24C8N3
_chemical_formula_sum   'Rb4 As28 H96 C32 N12'
_cell_volume   2456.01563327
_cell_formula_units_Z   4
loop_
 _symmetry_equiv_pos_site_id
 _symmetry_equiv_pos_as_xyz
  1  'x, y, z'
loop_
 _atom_site_type_symbol
 _atom_site_label
 _atom_site_symmetry_multiplicity
 _atom_site_fract_x
 _atom_site_fract_y
 _atom_site_fract_z
 _atom_site_occupancy
  Rb  Rb0  1  0.068468  0.269935  0.495112  1
  Rb  Rb1  1  0.931532  0.769935  0.004888  1
  Rb  Rb2  1  0.931532  0.730065  0.504888  1
  Rb  Rb3  1  0.068468  0.230065  0.995112  1
  As  As4  1  0.817432  0.110516  0.520392  1
  As  As5  1  0.182568  0.610516  0.979608  1
  As  As6  1  0.182568  0.889484  0.479608  1
  As  As7  1  0.817432  0.389484  0.020392  1
  As  As8  1  0.664449  0.073353  0.422996  1
  As  As9  1  0.335551  0.573353  0.077004  1
  As  As10  1  0.335551  0.926647  0.577004  1
  As  As11  1  0.664449  0.426647  0.922996  1
  As  As12  1  0.839542  0.078118  0.392617  1
  As  As13  1  0.160458  0.578118  0.107383  1
  As  As14  1  0.160458  0.921882  0.607383  1
  As  As15  1  0.839542  0.421882  0.892617  1
  As  As16  1  0.756473  0.441433  0.421822  1
  As  As17  1  0.243527  0.941433  0.078178  1
  As  As18  1  0.243527  0.558567  0.578178  1
  As  As19  1  0.756473  0.058567  0.921822  1
  As  As20  1  0.858276  0.313569  0.350910  1
  As  As21  1  0.141724  0.813569  0.149090  1
  As  As22  1  0.141724  0.686431  0.649090  1
  As  As23  1  0.858276  0.186431  0.850910  1
  As  As24  1  0.598755  0.304266  0.392867  1
  As  As25  1  0.401245  0.804266  0.107133  1
  As  As26  1  0.401245  0.695734  0.607133  1
  As  As27  1  0.598755  0.195734  0.892867  1
  As  As28  1  0.827237  0.358903  0.540161  1
  As  As29  1  0.172763  0.858903  0.959839  1
  As  As30  1  0.172763  0.641097  0.459839  1
  As  As31  1  0.827237  0.141097  0.040161  1
  H  H32  1  0.175460  0.120286  0.847070  1
  H  H33  1  0.824540  0.620286  0.652930  1
  H  H34  1  0.824540  0.879714  0.152930  1
  H  H35  1  0.175460  0.379714  0.347070  1
  H  H36  1  0.044351  0.111870  0.804934  1
  H  H37  1  0.955649  0.611870  0.695066  1
  H  H38  1  0.955649  0.888130  0.195066  1
  H  H39  1  0.044351  0.388130  0.304934  1
  H  H40  1  0.141003  0.039193  0.761864  1
  H  H41  1  0.858997  0.539193  0.738136  1
  H  H42  1  0.858997  0.960807  0.238136  1
  H  H43  1  0.141003  0.460807  0.261864  1
  H  H44  1  0.292088  0.267947  0.786009  1
  H  H45  1  0.707912  0.767947  0.713991  1
  H  H46  1  0.707912  0.732053  0.213991  1
  H  H47  1  0.292088  0.232053  0.286009  1
  H  H48  1  0.239674  0.182429  0.703878  1
  H  H49  1  0.760326  0.682429  0.796122  1
  H  H50  1  0.760326  0.817571  0.296122  1
  H  H51  1  0.239674  0.317571  0.203878  1
  H  H52  1  0.235505  0.371412  0.710464  1
  H  H53  1  0.764495  0.871412  0.789536  1
  H  H54  1  0.764495  0.628588  0.289536  1
  H  H55  1  0.235505  0.128588  0.210464  1
  H  H56  1  0.183297  0.375380  0.855987  1
  H  H57  1  0.816703  0.875380  0.644013  1
  H  H58  1  0.816703  0.624620  0.144013  1
  H  H59  1  0.183297  0.124620  0.355987  1
  H  H60  1  0.133624  0.481382  0.780392  1
  H  H61  1  0.866376  0.981382  0.719608  1
  H  H62  1  0.866376  0.518618  0.219608  1
  H  H63  1  0.133624  0.018618  0.280392  1
  H  H64  1  0.048387  0.382950  0.823747  1
  H  H65  1  0.951613  0.882950  0.676253  1
  H  H66  1  0.951613  0.617050  0.176253  1
  H  H67  1  0.048387  0.117050  0.323747  1
  H  H68  1  0.053805  0.378016  0.673592  1
  H  H69  1  0.946195  0.878016  0.826408  1
  H  H70  1  0.946195  0.621984  0.326408  1
  H  H71  1  0.053805  0.121984  0.173592  1
  H  H72  1  0.059698  0.189793  0.660564  1
  H  H73  1  0.940302  0.689793  0.839436  1
  H  H74  1  0.940302  0.810207  0.339436  1
  H  H75  1  0.059698  0.310207  0.160564  1
  H  H76  1  0.975935  0.261179  0.713898  1
  H  H77  1  0.024065  0.761179  0.786102  1
  H  H78  1  0.024065  0.738821  0.286102  1
  H  H79  1  0.975935  0.238821  0.213898  1
  H  H80  1  0.421604  0.356706  0.663689  1
  H  H81  1  0.578396  0.856706  0.836311  1
  H  H82  1  0.578396  0.643294  0.336311  1
  H  H83  1  0.421604  0.143294  0.163689  1
  H  H84  1  0.436597  0.173663  0.687182  1
  H  H85  1  0.563403  0.673663  0.812818  1
  H  H86  1  0.563403  0.826337  0.312818  1
  H  H87  1  0.436597  0.326337  0.187182  1
  H  H88  1  0.496175  0.304679  0.747700  1
  H  H89  1  0.503825  0.804679  0.752300  1
  H  H90  1  0.503825  0.695321  0.252300  1
  H  H91  1  0.496175  0.195321  0.247700  1
  H  H92  1  0.507610  0.192926  0.556810  1
  H  H93  1  0.492390  0.692926  0.943190  1
  H  H94  1  0.492390  0.807074  0.443190  1
  H  H95  1  0.507610  0.307074  0.056810  1
  H  H96  1  0.483607  0.376370  0.569990  1
  H  H97  1  0.516393  0.876370  0.930010  1
  H  H98  1  0.516393  0.623630  0.430010  1
  H  H99  1  0.483607  0.123630  0.069990  1
  H  H100  1  0.608613  0.319313  0.562037  1
  H  H101  1  0.391387  0.819313  0.937963  1
  H  H102  1  0.391387  0.680687  0.437963  1
  H  H103  1  0.608613  0.180687  0.062037  1
  H  H104  1  0.560644  0.048625  0.673835  1
  H  H105  1  0.439356  0.548625  0.826165  1
  H  H106  1  0.439356  0.951375  0.326165  1
  H  H107  1  0.560644  0.451375  0.173835  1
  H  H108  1  0.664193  0.109907  0.635388  1
  H  H109  1  0.335807  0.609907  0.864612  1
  H  H110  1  0.335807  0.890093  0.364612  1
  H  H111  1  0.664193  0.390093  0.135388  1
  H  H112  1  0.667285  0.135535  0.727940  1
  H  H113  1  0.332715  0.635535  0.772060  1
  H  H114  1  0.332715  0.864465  0.272060  1
  H  H115  1  0.667285  0.364465  0.227940  1
  H  H116  1  0.601970  0.487087  0.677684  1
  H  H117  1  0.398030  0.987087  0.822316  1
  H  H118  1  0.398030  0.512913  0.322316  1
  H  H119  1  0.601970  0.012913  0.177684  1
  H  H120  1  0.654705  0.368257  0.748796  1
  H  H121  1  0.345295  0.868257  0.751204  1
  H  H122  1  0.345295  0.631743  0.251204  1
  H  H123  1  0.654705  0.131743  0.248796  1
  H  H124  1  0.707690  0.374674  0.670047  1
  H  H125  1  0.292310  0.874674  0.829953  1
  H  H126  1  0.292310  0.625326  0.329953  1
  H  H127  1  0.707690  0.125326  0.170047  1
  C  C128  1  0.122579  0.122992  0.796681  1
  C  C129  1  0.877421  0.622992  0.703319  1
  C  C130  1  0.877421  0.877008  0.203319  1
  C  C131  1  0.122579  0.377008  0.296681  1
  C  C132  1  0.232782  0.271521  0.738995  1
  C  C133  1  0.767218  0.771521  0.761005  1
  C  C134  1  0.767218  0.728479  0.261005  1
  C  C135  1  0.232782  0.228479  0.238995  1
  C  C136  1  0.123384  0.384054  0.809309  1
  C  C137  1  0.876616  0.884054  0.690691  1
  C  C138  1  0.876616  0.615946  0.190691  1
  C  C139  1  0.123384  0.115946  0.309309  1
  C  C140  1  0.049064  0.273815  0.697471  1
  C  C141  1  0.950936  0.773815  0.802529  1
  C  C142  1  0.950936  0.726185  0.302529  1
  C  C143  1  0.049064  0.226185  0.197471  1
  C  C144  1  0.473178  0.277450  0.692058  1
  C  C145  1  0.526822  0.777450  0.807942  1
  C  C146  1  0.526822  0.722550  0.307942  1
  C  C147  1  0.473178  0.222550  0.192058  1
  C  C148  1  0.539665  0.291242  0.581398  1
  C  C149  1  0.460335  0.791242  0.918602  1
  C  C150  1  0.460335  0.708758  0.418602  1
  C  C151  1  0.539665  0.208758  0.081398  1
  C  C152  1  0.618858  0.130128  0.675681  1
  C  C153  1  0.381142  0.630128  0.824319  1
  C  C154  1  0.381142  0.869872  0.324319  1
  C  C155  1  0.618858  0.369872  0.175681  1
  C  C156  1  0.638481  0.384656  0.691831  1
  C  C157  1  0.361519  0.884656  0.808169  1
  C  C158  1  0.361519  0.615344  0.308169  1
  C  C159  1  0.638481  0.115344  0.191831  1
  N  N160  1  0.131870  0.262276  0.760995  1
  N  N161  1  0.868130  0.762276  0.739005  1
  N  N162  1  0.868130  0.737724  0.239005  1
  N  N163  1  0.131870  0.237724  0.260995  1
  N  N164  1  0.566627  0.270599  0.659939  1
  N  N165  1  0.433373  0.770599  0.840061  1
  N  N166  1  0.433373  0.729401  0.340061  1
  N  N167  1  0.566627  0.229401  0.159939  1
  N  N168  1  0.331226  0.268880  0.430627  1
  N  N169  1  0.668774  0.768880  0.069373  1
  N  N170  1  0.668774  0.731120  0.569373  1
  N  N171  1  0.331226  0.231120  0.930627  1
