# generated using pymatgen
data_CrH8(NO2)2
_symmetry_space_group_name_H-M   'P 1'
_cell_length_a   6.93590589
_cell_length_b   6.93590589
_cell_length_c   7.70550948
_cell_angle_alpha   67.69029706
_cell_angle_beta   112.30970294
_cell_angle_gamma   125.37847322
_symmetry_Int_Tables_number   1
_chemical_formula_structural   CrH8(NO2)2
_chemical_formula_sum   'Cr2 H16 N4 O8'
_cell_volume   273.26563114
_cell_formula_units_Z   2
loop_
 _symmetry_equiv_pos_site_id
 _symmetry_equiv_pos_as_xyz
  1  'x, y, z'
loop_
 _atom_site_type_symbol
 _atom_site_label
 _atom_site_symmetry_multiplicity
 _atom_site_fract_x
 _atom_site_fract_y
 _atom_site_fract_z
 _atom_site_occupancy
  Cr  Cr0  1  0.827422  0.172578  0.786151  1
  Cr  Cr1  1  0.172578  0.827422  0.213849  1
  H  H2  1  0.562362  0.437638  0.735363  1
  H  H3  1  0.437638  0.562362  0.264637  1
  H  H4  1  0.411751  0.588249  0.606547  1
  H  H5  1  0.588249  0.411751  0.393453  1
  H  H6  1  0.606019  0.657122  0.819605  1
  H  H7  1  0.342878  0.393981  0.819605  1
  H  H8  1  0.393981  0.342878  0.180395  1
  H  H9  1  0.657122  0.606019  0.180395  1
  H  H10  1  0.080506  0.919494  0.750617  1
  H  H11  1  0.919494  0.080506  0.249383  1
  H  H12  1  0.141207  0.858793  0.590514  1
  H  H13  1  0.858793  0.141207  0.409486  1
  H  H14  1  0.342347  0.918043  0.803709  1
  H  H15  1  0.081957  0.657653  0.803709  1
  H  H16  1  0.657653  0.081957  0.196291  1
  H  H17  1  0.918043  0.342347  0.196291  1
  N  N18  1  0.481090  0.518910  0.746192  1
  N  N19  1  0.518910  0.481090  0.253808  1
  N  N20  1  0.160674  0.839326  0.736913  1
  N  N21  1  0.839326  0.160674  0.263087  1
  O  O22  1  0.680190  0.319810  0.640581  1
  O  O23  1  0.319810  0.680190  0.359419  1
  O  O24  1  0.909270  0.090730  0.660481  1
  O  O25  1  0.090730  0.909270  0.339519  1
  O  O26  1  0.073241  0.355833  0.921664  1
  O  O27  1  0.644167  0.926759  0.921664  1
  O  O28  1  0.926759  0.644167  0.078336  1
  O  O29  1  0.355833  0.073241  0.078336  1
