# generated using pymatgen
data_Na4CuP6(H4O11)2
_symmetry_space_group_name_H-M   'P 1'
_cell_length_a   8.01293553
_cell_length_b   8.42929368
_cell_length_c   7.18476044
_cell_angle_alpha   102.16342385
_cell_angle_beta   98.03077314
_cell_angle_gamma   84.20026772
_symmetry_Int_Tables_number   1
_chemical_formula_structural   Na4CuP6(H4O11)2
_chemical_formula_sum   'Na4 Cu1 P6 H8 O22'
_cell_volume   468.44907953
_cell_formula_units_Z   1
loop_
 _symmetry_equiv_pos_site_id
 _symmetry_equiv_pos_as_xyz
  1  'x, y, z'
loop_
 _atom_site_type_symbol
 _atom_site_label
 _atom_site_symmetry_multiplicity
 _atom_site_fract_x
 _atom_site_fract_y
 _atom_site_fract_z
 _atom_site_occupancy
  Na  Na0  1  0.421322  0.203682  0.643210  1
  Na  Na1  1  0.578678  0.796318  0.356790  1
  Na  Na2  1  0.310780  0.593720  0.898401  1
  Na  Na3  1  0.689220  0.406280  0.101599  1
  Cu  Cu4  1  0.000000  0.000000  0.000000  1
  P  P5  1  0.208401  0.835021  0.558245  1
  P  P6  1  0.791599  0.164979  0.441755  1
  P  P7  1  0.015309  0.295578  0.783866  1
  P  P8  1  0.984691  0.704422  0.216134  1
  P  P9  1  0.710521  0.490649  0.662746  1
  P  P10  1  0.289479  0.509351  0.337254  1
  H  H11  1  0.788192  0.815735  0.768500  1
  H  H12  1  0.211808  0.184265  0.231500  1
  H  H13  1  0.752731  0.998799  0.742154  1
  H  H14  1  0.247269  0.001201  0.257846  1
  H  H15  1  0.411277  0.185121  0.030682  1
  H  H16  1  0.588723  0.814879  0.969318  1
  H  H17  1  0.399597  0.888317  0.960701  1
  H  H18  1  0.600403  0.111683  0.039299  1
  O  O19  1  0.682046  0.074454  0.532440  1
  O  O20  1  0.317954  0.925546  0.467560  1
  O  O21  1  0.184309  0.893063  0.764245  1
  O  O22  1  0.815691  0.106937  0.235755  1
  O  O23  1  0.975490  0.185353  0.569747  1
  O  O24  1  0.024510  0.814647  0.430253  1
  O  O25  1  0.281075  0.643646  0.537850  1
  O  O26  1  0.718925  0.356354  0.462150  1
  O  O27  1  0.942271  0.221948  0.927966  1
  O  O28  1  0.057729  0.778052  0.072034  1
  O  O29  1  0.196636  0.330831  0.815580  1
  O  O30  1  0.803364  0.669169  0.184420  1
  O  O31  1  0.903199  0.463724  0.766574  1
  O  O32  1  0.096801  0.536276  0.233426  1
  O  O33  1  0.586646  0.446190  0.777849  1
  O  O34  1  0.413354  0.553810  0.222151  1
  O  O35  1  0.695552  0.656377  0.614689  1
  O  O36  1  0.304448  0.343623  0.385311  1
  O  O37  1  0.789597  0.930960  0.841223  1
  O  O38  1  0.210403  0.069040  0.158777  1
  O  O39  1  0.516293  0.180159  0.972923  1
  O  O40  1  0.483707  0.819841  0.027077  1
