# generated using pymatgen
data_Ba3(BrO)2
_symmetry_space_group_name_H-M   'P 1'
_cell_length_a   13.24494291
_cell_length_b   6.37538311
_cell_length_c   11.02944939
_cell_angle_alpha   90.00000000
_cell_angle_beta   90.00000000
_cell_angle_gamma   90.00000000
_symmetry_Int_Tables_number   1
_chemical_formula_structural   Ba3(BrO)2
_chemical_formula_sum   'Ba12 Br8 O8'
_cell_volume   931.34419171
_cell_formula_units_Z   4
loop_
 _symmetry_equiv_pos_site_id
 _symmetry_equiv_pos_as_xyz
  1  'x, y, z'
loop_
 _atom_site_type_symbol
 _atom_site_label
 _atom_site_symmetry_multiplicity
 _atom_site_fract_x
 _atom_site_fract_y
 _atom_site_fract_z
 _atom_site_occupancy
  Ba  Ba0  1  0.050619  0.250000  0.709945  1
  Ba  Ba1  1  0.076145  0.250000  0.060568  1
  Ba  Ba2  1  0.208912  0.750000  0.864221  1
  Ba  Ba3  1  0.291088  0.250000  0.364221  1
  Ba  Ba4  1  0.423855  0.750000  0.560568  1
  Ba  Ba5  1  0.449381  0.750000  0.209945  1
  Ba  Ba6  1  0.550619  0.250000  0.790055  1
  Ba  Ba7  1  0.576145  0.250000  0.439432  1
  Ba  Ba8  1  0.708912  0.750000  0.635779  1
  Ba  Ba9  1  0.791088  0.250000  0.135778  1
  Ba  Ba10  1  0.923855  0.750000  0.939432  1
  Ba  Ba11  1  0.949381  0.750000  0.290055  1
  Br  Br12  1  0.131502  0.750000  0.558231  1
  Br  Br13  1  0.192349  0.750000  0.185431  1
  Br  Br14  1  0.307651  0.250000  0.685431  1
  Br  Br15  1  0.368498  0.250000  0.058231  1
  Br  Br16  1  0.631502  0.750000  0.941769  1
  Br  Br17  1  0.692349  0.750000  0.314569  1
  Br  Br18  1  0.807651  0.250000  0.814569  1
  Br  Br19  1  0.868498  0.250000  0.441769  1
  O  O20  1  0.073514  0.000375  0.876987  1
  O  O21  1  0.073514  0.499625  0.876987  1
  O  O22  1  0.426486  0.999625  0.376987  1
  O  O23  1  0.426486  0.500375  0.376987  1
  O  O24  1  0.573514  0.000375  0.623013  1
  O  O25  1  0.573514  0.499625  0.623013  1
  O  O26  1  0.926486  0.500375  0.123013  1
  O  O27  1  0.926486  0.999625  0.123013  1
