# generated using pymatgen
data_Li5Mn6(BO3)6
_symmetry_space_group_name_H-M   'P 1'
_cell_length_a   7.93205852
_cell_length_b   5.29968122
_cell_length_c   9.60229627
_cell_angle_alpha   75.49729615
_cell_angle_beta   76.22809008
_cell_angle_gamma   87.40080014
_symmetry_Int_Tables_number   1
_chemical_formula_structural   Li5Mn6(BO3)6
_chemical_formula_sum   'Li5 Mn6 B6 O18'
_cell_volume   379.51468309
_cell_formula_units_Z   1
loop_
 _symmetry_equiv_pos_site_id
 _symmetry_equiv_pos_as_xyz
  1  'x, y, z'
loop_
 _atom_site_type_symbol
 _atom_site_label
 _atom_site_symmetry_multiplicity
 _atom_site_fract_x
 _atom_site_fract_y
 _atom_site_fract_z
 _atom_site_occupancy
  Li  Li0  1  0.234787  0.472089  0.916345  1
  Li  Li1  1  0.082114  0.875720  0.425888  1
  Li  Li2  1  0.431997  0.192343  0.753440  1
  Li  Li3  1  0.570896  0.805327  0.247799  1
  Li  Li4  1  0.763123  0.523091  0.085827  1
  Mn  Mn5  1  0.363949  0.770957  0.613267  1
  Mn  Mn6  1  0.034433  0.432676  0.288266  1
  Mn  Mn7  1  0.296648  0.893828  0.059621  1
  Mn  Mn8  1  0.706729  0.099975  0.940707  1
  Mn  Mn9  1  0.957779  0.560699  0.713489  1
  Mn  Mn10  1  0.631953  0.222647  0.393802  1
  B  B11  1  0.087977  0.015333  0.826601  1
  B  B12  1  0.581139  0.651467  0.841386  1
  B  B13  1  0.251169  0.319073  0.507005  1
  B  B14  1  0.749641  0.684926  0.484858  1
  B  B15  1  0.418284  0.346945  0.160051  1
  B  B16  1  0.913822  0.981484  0.176859  1
  O  O17  1  0.124425  0.770108  0.796667  1
  O  O18  1  0.195006  0.126369  0.890798  1
  O  O19  1  0.053881  0.849007  0.226699  1
  O  O20  1  0.538926  0.894663  0.869715  1
  O  O21  1  0.199545  0.561044  0.537409  1
  O  O22  1  0.479014  0.533505  0.777443  1
  O  O23  1  0.170430  0.203792  0.428459  1
  O  O24  1  0.723165  0.519636  0.888226  1
  O  O25  1  0.390949  0.191365  0.561549  1
  O  O26  1  0.602723  0.815357  0.443105  1
  O  O27  1  0.275489  0.478239  0.112610  1
  O  O28  1  0.846138  0.792659  0.555174  1
  O  O29  1  0.520647  0.465088  0.223671  1
  O  O30  1  0.795098  0.455192  0.441788  1
  O  O31  1  0.462648  0.104053  0.130758  1
  O  O32  1  0.948014  0.155617  0.787580  1
  O  O33  1  0.813174  0.864196  0.111364  1
  O  O34  1  0.873718  0.227183  0.202691  1
