# generated using pymatgen
data_LiFe2(BO3)2
_symmetry_space_group_name_H-M   'P 1'
_cell_length_a   5.26593562
_cell_length_b   9.07275566
_cell_length_c   10.21963553
_cell_angle_alpha   89.99999833
_cell_angle_beta   91.32572753
_cell_angle_gamma   90.00000123
_symmetry_Int_Tables_number   1
_chemical_formula_structural   LiFe2(BO3)2
_chemical_formula_sum   'Li4 Fe8 B8 O24'
_cell_volume   488.12820248
_cell_formula_units_Z   4
loop_
 _symmetry_equiv_pos_site_id
 _symmetry_equiv_pos_as_xyz
  1  'x, y, z'
loop_
 _atom_site_type_symbol
 _atom_site_label
 _atom_site_symmetry_multiplicity
 _atom_site_fract_x
 _atom_site_fract_y
 _atom_site_fract_z
 _atom_site_occupancy
  Li  Li0  1  0.644682  0.004313  0.085157  1
  Li  Li1  1  0.852826  0.486195  0.333472  1
  Li  Li2  1  0.852826  0.513805  0.833472  1
  Li  Li3  1  0.644682  0.995687  0.585157  1
  Fe  Fe4  1  0.160683  0.174390  0.126412  1
  Fe  Fe5  1  0.842431  0.152083  0.372190  1
  Fe  Fe6  1  0.340764  0.324424  0.864854  1
  Fe  Fe7  1  0.655589  0.342673  0.615234  1
  Fe  Fe8  1  0.340764  0.675576  0.364854  1
  Fe  Fe9  1  0.160683  0.825610  0.626412  1
  Fe  Fe10  1  0.655589  0.657327  0.115234  1
  Fe  Fe11  1  0.842431  0.847917  0.872190  1
  B  B12  1  0.153301  0.154892  0.627369  1
  B  B13  1  0.344955  0.345102  0.364569  1
  B  B14  1  0.826100  0.180246  0.879562  1
  B  B15  1  0.667460  0.320738  0.123093  1
  B  B16  1  0.344955  0.654898  0.864569  1
  B  B17  1  0.667460  0.679262  0.623093  1
  B  B18  1  0.153301  0.845108  0.127369  1
  B  B19  1  0.826100  0.819754  0.379562  1
  O  O20  1  0.283867  0.022417  0.621622  1
  O  O21  1  0.077610  0.192375  0.924942  1
  O  O22  1  0.701626  0.049277  0.885885  1
  O  O23  1  0.206956  0.222544  0.318592  1
  O  O24  1  0.287649  0.278046  0.673140  1
  O  O25  1  0.792780  0.187070  0.156563  1
  O  O26  1  0.899285  0.163697  0.587396  1
  O  O27  1  0.424733  0.306372  0.066675  1
  O  O28  1  0.218823  0.478057  0.368527  1
  O  O29  1  0.599426  0.333570  0.404404  1
  O  O30  1  0.708072  0.311012  0.836144  1
  O  O31  1  0.218823  0.521943  0.868527  1
  O  O32  1  0.776810  0.452829  0.144960  1
  O  O33  1  0.287649  0.721954  0.173140  1
  O  O34  1  0.424733  0.693628  0.566675  1
  O  O35  1  0.776810  0.547171  0.644960  1
  O  O36  1  0.599426  0.666430  0.904404  1
  O  O37  1  0.077610  0.807625  0.424942  1
  O  O38  1  0.206956  0.777456  0.818592  1
  O  O39  1  0.708072  0.688988  0.336144  1
  O  O40  1  0.792780  0.812930  0.656563  1
  O  O41  1  0.283867  0.977583  0.121622  1
  O  O42  1  0.899285  0.836303  0.087396  1
  O  O43  1  0.701626  0.950723  0.385885  1
