# generated using pymatgen
data_Li6V5SbO12
_symmetry_space_group_name_H-M   'P 1'
_cell_length_a   5.29284026
_cell_length_b   5.29284001
_cell_length_c   10.44835584
_cell_angle_alpha   86.25530123
_cell_angle_beta   93.74470007
_cell_angle_gamma   61.90683994
_symmetry_Int_Tables_number   1
_chemical_formula_structural   Li6V5SbO12
_chemical_formula_sum   'Li6 V5 Sb1 O12'
_cell_volume   256.12646852
_cell_formula_units_Z   1
loop_
 _symmetry_equiv_pos_site_id
 _symmetry_equiv_pos_as_xyz
  1  'x, y, z'
loop_
 _atom_site_type_symbol
 _atom_site_label
 _atom_site_symmetry_multiplicity
 _atom_site_fract_x
 _atom_site_fract_y
 _atom_site_fract_z
 _atom_site_occupancy
  Li  Li0  1  0.115657  0.551421  0.283822  1
  Li  Li1  1  0.217055  0.782945  0.710173  1
  Li  Li2  1  0.551368  0.115716  0.716188  1
  Li  Li3  1  0.448579  0.884343  0.283822  1
  Li  Li4  1  0.782841  0.217159  0.289827  1
  Li  Li5  1  0.884284  0.448632  0.716188  1
  V  V6  1  0.170832  0.170912  0.500033  1
  V  V7  1  0.499960  0.500040  0.500017  1
  V  V8  1  0.829088  0.829168  0.500033  1
  V  V9  1  0.341067  0.340959  -0.000052  1
  V  V10  1  0.659041  0.658933  -0.000052  1
  Sb  Sb11  1  -0.000105  0.000105  -0.000127  1
  O  O12  1  0.021925  0.652872  0.102041  1
  O  O13  1  0.186301  0.467651  0.613124  1
  O  O14  1  0.467582  0.186375  0.386880  1
  O  O15  1  0.130518  0.869482  0.392435  1
  O  O16  1  0.288696  0.711304  0.892936  1
  O  O17  1  0.653115  0.021779  0.898009  1
  O  O18  1  0.347127  0.978075  0.102041  1
  O  O19  1  0.711443  0.288557  0.107084  1
  O  O20  1  0.869409  0.130591  0.607566  1
  O  O21  1  0.532349  0.813699  0.613124  1
  O  O22  1  0.813625  0.532418  0.386880  1
  O  O23  1  0.978221  0.346885  0.898009  1
