# generated using pymatgen
data_Mn3Sb(PO4)6
_symmetry_space_group_name_H-M   'P 1'
_cell_length_a   8.73006475
_cell_length_b   8.73006516
_cell_length_c   8.73006514
_cell_angle_alpha   58.08153910
_cell_angle_beta   58.08154057
_cell_angle_gamma   58.08154148
_symmetry_Int_Tables_number   1
_chemical_formula_structural   Mn3Sb(PO4)6
_chemical_formula_sum   'Mn3 Sb1 P6 O24'
_cell_volume   449.78072219
_cell_formula_units_Z   1
loop_
 _symmetry_equiv_pos_site_id
 _symmetry_equiv_pos_as_xyz
  1  'x, y, z'
loop_
 _atom_site_type_symbol
 _atom_site_label
 _atom_site_symmetry_multiplicity
 _atom_site_fract_x
 _atom_site_fract_y
 _atom_site_fract_z
 _atom_site_occupancy
  Mn  Mn0  1  0.144647  0.144647  0.144647  1
  Mn  Mn1  1  0.355367  0.355367  0.355367  1
  Mn  Mn2  1  0.643775  0.643775  0.643775  1
  Sb  Sb3  1  0.857317  0.857317  0.857317  1
  P  P4  1  0.037634  0.748280  0.458746  1
  P  P5  1  0.458746  0.037634  0.748280  1
  P  P6  1  0.748280  0.458746  0.037634  1
  P  P7  1  0.256395  0.530185  0.966100  1
  P  P8  1  0.530185  0.966100  0.256395  1
  P  P9  1  0.966100  0.256395  0.530185  1
  O  O10  1  0.140624  0.276847  0.509215  1
  O  O11  1  0.276847  0.509215  0.140624  1
  O  O12  1  0.060236  0.926933  0.277268  1
  O  O13  1  0.509215  0.140624  0.276847  1
  O  O14  1  0.220999  0.572367  0.437048  1
  O  O15  1  0.019233  0.771088  0.633744  1
  O  O16  1  0.277268  0.060236  0.926933  1
  O  O17  1  0.437048  0.220999  0.572367  1
  O  O18  1  0.572367  0.437048  0.220999  1
  O  O19  1  0.225489  0.360609  0.988218  1
  O  O20  1  0.078155  0.717724  0.944027  1
  O  O21  1  0.360609  0.988218  0.225489  1
  O  O22  1  0.633744  0.019233  0.771088  1
  O  O23  1  0.926933  0.277268  0.060236  1
  O  O24  1  0.771088  0.633744  0.019233  1
  O  O25  1  0.429549  0.556692  0.780936  1
  O  O26  1  0.556692  0.780936  0.429549  1
  O  O27  1  0.717724  0.944027  0.078155  1
  O  O28  1  0.988218  0.225489  0.360609  1
  O  O29  1  0.780936  0.429549  0.556692  1
  O  O30  1  0.488371  0.860279  0.725906  1
  O  O31  1  0.944027  0.078155  0.717724  1
  O  O32  1  0.725906  0.488371  0.860279  1
  O  O33  1  0.860279  0.725906  0.488371  1
