# generated using pymatgen
data_Li2V2OF5
_symmetry_space_group_name_H-M   'P 1'
_cell_length_a   5.34156401
_cell_length_b   5.61415307
_cell_length_c   5.22106602
_cell_angle_alpha   117.64074159
_cell_angle_beta   58.84814078
_cell_angle_gamma   118.30075039
_symmetry_Int_Tables_number   1
_chemical_formula_structural   Li2V2OF5
_chemical_formula_sum   'Li2 V2 O1 F5'
_cell_volume   112.90024397
_cell_formula_units_Z   1
loop_
 _symmetry_equiv_pos_site_id
 _symmetry_equiv_pos_as_xyz
  1  'x, y, z'
loop_
 _atom_site_type_symbol
 _atom_site_label
 _atom_site_symmetry_multiplicity
 _atom_site_fract_x
 _atom_site_fract_y
 _atom_site_fract_z
 _atom_site_occupancy
  Li  Li0  1  0.346147  0.110726  0.369821  1
  Li  Li1  1  0.890720  0.584247  0.853122  1
  V  V2  1  0.145358  0.447012  0.168374  1
  V  V3  1  0.670948  0.973487  0.637835  1
  O  O4  1  0.033869  0.240488  0.435163  1
  F  F5  1  0.558266  0.716136  0.244105  1
  F  F6  1  0.267624  0.734640  0.931385  1
  F  F7  1  0.748957  0.236629  0.056398  1
  F  F8  1  0.405790  0.217315  0.752760  1
  F  F9  1  0.932320  0.739320  0.551036  1
