# generated using pymatgen
data_Li5Mn5V2O12
_symmetry_space_group_name_H-M   'P 1'
_cell_length_a   5.24712643
_cell_length_b   5.24712673
_cell_length_c   9.95928942
_cell_angle_alpha   85.53190081
_cell_angle_beta   94.46809627
_cell_angle_gamma   59.88299053
_symmetry_Int_Tables_number   1
_chemical_formula_structural   Li5Mn5V2O12
_chemical_formula_sum   'Li5 Mn5 V2 O12'
_cell_volume   234.27885564
_cell_formula_units_Z   1
loop_
 _symmetry_equiv_pos_site_id
 _symmetry_equiv_pos_as_xyz
  1  'x, y, z'
loop_
 _atom_site_type_symbol
 _atom_site_label
 _atom_site_symmetry_multiplicity
 _atom_site_fract_x
 _atom_site_fract_y
 _atom_site_fract_z
 _atom_site_occupancy
  Li  Li0  1  0.165556  0.661753  0.504311  1
  Li  Li1  1  0.323923  0.846783  0.995875  1
  Li  Li2  1  0.661753  0.165556  0.995689  1
  Li  Li3  1  0.846783  0.323923  0.504125  1
  Li  Li4  1  0.914613  0.914613  0.750000  1
  Mn  Mn5  1  0.078946  0.078946  0.250000  1
  Mn  Mn6  1  0.998731  0.506058  0.997090  1
  Mn  Mn7  1  0.506058  0.998731  0.502910  1
  Mn  Mn8  1  0.423913  0.423913  0.250000  1
  Mn  Mn9  1  0.575791  0.575791  0.750000  1
  V  V10  1  0.248326  0.248326  0.750000  1
  V  V11  1  0.751391  0.751391  0.250000  1
  O  O12  1  0.965885  0.231630  0.875353  1
  O  O13  1  0.231630  0.965885  0.624647  1
  O  O14  1  0.106614  0.396987  0.366845  1
  O  O15  1  0.396987  0.106614  0.133155  1
  O  O16  1  0.275197  0.527856  0.872805  1
  O  O17  1  0.527856  0.275197  0.627195  1
  O  O18  1  0.471003  0.722487  0.378746  1
  O  O19  1  0.722487  0.471003  0.121254  1
  O  O20  1  0.579007  0.912812  0.861112  1
  O  O21  1  0.912812  0.579007  0.638888  1
  O  O22  1  0.782443  0.032293  0.380082  1
  O  O23  1  0.032293  0.782443  0.119918  1
