# generated using pymatgen
data_Li2MnV(P2O7)2
_symmetry_space_group_name_H-M   'P 1'
_cell_length_a   9.70222632
_cell_length_b   8.33652569
_cell_length_c   7.06888390
_cell_angle_alpha   90.00000000
_cell_angle_beta   108.76028335
_cell_angle_gamma   90.00000000
_symmetry_Int_Tables_number   1
_chemical_formula_structural   Li2MnV(P2O7)2
_chemical_formula_sum   'Li4 Mn2 V2 P8 O28'
_cell_volume   541.37576587
_cell_formula_units_Z   2
loop_
 _symmetry_equiv_pos_site_id
 _symmetry_equiv_pos_as_xyz
  1  'x, y, z'
loop_
 _atom_site_type_symbol
 _atom_site_label
 _atom_site_symmetry_multiplicity
 _atom_site_fract_x
 _atom_site_fract_y
 _atom_site_fract_z
 _atom_site_occupancy
  Li  Li0  1  0.085294  0.858868  0.668956  1
  Li  Li1  1  0.409381  0.357591  0.326922  1
  Li  Li2  1  0.590619  0.857591  0.673078  1
  Li  Li3  1  0.914706  0.358868  0.331044  1
  Mn  Mn4  1  0.108066  0.500669  0.730687  1
  Mn  Mn5  1  0.891934  0.000669  0.269313  1
  V  V6  1  0.394829  0.998117  0.273449  1
  V  V7  1  0.605171  0.498117  0.726551  1
  P  P8  1  0.199053  0.178627  0.517988  1
  P  P9  1  0.105273  0.789183  0.088820  1
  P  P10  1  0.390393  0.282854  0.911759  1
  P  P11  1  0.299036  0.679643  0.477033  1
  P  P12  1  0.700964  0.179643  0.522967  1
  P  P13  1  0.609607  0.782854  0.088241  1
  P  P14  1  0.894727  0.289183  0.911180  1
  P  P15  1  0.800947  0.678627  0.482012  1
  O  O16  1  0.029319  0.329535  0.852063  1
  O  O17  1  0.067163  0.706806  0.888169  1
  O  O18  1  0.092644  0.035664  0.478694  1
  O  O19  1  0.124386  0.340467  0.495725  1
  O  O20  1  0.199704  0.676836  0.608455  1
  O  O21  1  0.297894  0.433096  0.913291  1
  O  O22  1  0.295723  0.153745  0.750202  1
  O  O23  1  0.198557  0.655669  0.247894  1
  O  O24  1  0.200581  0.937707  0.095273  1
  O  O25  1  0.306467  0.171546  0.398621  1
  O  O26  1  0.378214  0.840186  0.492908  1
  O  O27  1  0.405166  0.537466  0.514629  1
  O  O28  1  0.523238  0.326092  0.851905  1
  O  O29  1  0.569019  0.695211  0.888965  1
  O  O30  1  0.430982  0.195211  0.111035  1
  O  O31  1  0.476762  0.826092  0.148095  1
  O  O32  1  0.594834  0.037466  0.485372  1
  O  O33  1  0.621786  0.340185  0.507092  1
  O  O34  1  0.693533  0.671546  0.601379  1
  O  O35  1  0.799419  0.437707  0.904727  1
  O  O36  1  0.801443  0.155669  0.752106  1
  O  O37  1  0.704277  0.653745  0.249798  1
  O  O38  1  0.702106  0.933096  0.086709  1
  O  O39  1  0.800296  0.176836  0.391545  1
  O  O40  1  0.875614  0.840467  0.504275  1
  O  O41  1  0.907356  0.535664  0.521306  1
  O  O42  1  0.932837  0.206806  0.111831  1
  O  O43  1  0.970681  0.829535  0.147937  1
