# generated using pymatgen
data_K8Li9(FeO4)4
_symmetry_space_group_name_H-M   'P 1'
_cell_length_a   5.56758029
_cell_length_b   9.14214305
_cell_length_c   10.49165800
_cell_angle_alpha   91.24626638
_cell_angle_beta   81.31676961
_cell_angle_gamma   90.12126679
_symmetry_Int_Tables_number   1
_chemical_formula_structural   K8Li9(FeO4)4
_chemical_formula_sum   'K8 Li9 Fe4 O16'
_cell_volume   527.77522270
_cell_formula_units_Z   1
loop_
 _symmetry_equiv_pos_site_id
 _symmetry_equiv_pos_as_xyz
  1  'x, y, z'
loop_
 _atom_site_type_symbol
 _atom_site_label
 _atom_site_symmetry_multiplicity
 _atom_site_fract_x
 _atom_site_fract_y
 _atom_site_fract_z
 _atom_site_occupancy
  K  K0  1  0.172222  0.998146  0.123548  1
  K  K1  1  0.101824  0.281271  0.626073  1
  K  K2  1  0.362479  0.483231  0.355557  1
  K  K3  1  0.355846  0.731707  0.877033  1
  K  K4  1  0.648867  0.263032  0.126492  1
  K  K5  1  0.628552  0.507070  0.647275  1
  K  K6  1  0.892762  0.728663  0.380387  1
  K  K7  1  0.836976  0.999649  0.856957  1
  Li  Li8  1  0.075912  0.242392  0.297306  1
  Li  Li9  1  0.162802  0.014837  0.439582  1
  Li  Li10  1  0.277569  0.507798  0.074568  1
  Li  Li11  1  0.410416  0.744668  0.195738  1
  Li  Li12  1  0.413565  0.033148  0.695783  1
  Li  Li13  1  0.594631  0.976586  0.295464  1
  Li  Li14  1  0.582525  0.259282  0.806836  1
  Li  Li15  1  0.723632  0.491316  0.929382  1
  Li  Li16  1  0.929379  0.752707  0.696484  1
  Fe  Fe17  1  0.175103  0.284863  0.939412  1
  Fe  Fe18  1  0.349289  0.794354  0.551515  1
  Fe  Fe19  1  0.670754  0.198671  0.449473  1
  Fe  Fe20  1  0.824042  0.715748  0.062065  1
  O  O21  1  0.148317  0.302925  0.120551  1
  O  O22  1  0.115635  0.699736  0.126391  1
  O  O23  1  0.149182  0.947073  0.619782  1
  O  O24  1  0.197450  0.620024  0.581881  1
  O  O25  1  0.393321  0.167477  0.371383  1
  O  O26  1  0.367081  0.818982  0.375957  1
  O  O27  1  0.332798  0.109694  0.874853  1
  O  O28  1  0.402244  0.432824  0.885374  1
  O  O29  1  0.596791  0.568482  0.121526  1
  O  O30  1  0.664154  0.891911  0.121577  1
  O  O31  1  0.576651  0.212518  0.624003  1
  O  O32  1  0.600880  0.805219  0.644020  1
  O  O33  1  0.848189  0.363832  0.420515  1
  O  O34  1  0.878250  0.066450  0.355348  1
  O  O35  1  0.878055  0.296762  0.878683  1
  O  O36  1  0.860853  0.696293  0.880074  1
