# generated using pymatgen
data_Li24Mn5Cr7O36
_symmetry_space_group_name_H-M   'P 1'
_cell_length_a   5.01215032
_cell_length_b   5.02522812
_cell_length_c   29.26447431
_cell_angle_alpha   85.18045450
_cell_angle_beta   94.55337942
_cell_angle_gamma   60.37682497
_symmetry_Int_Tables_number   1
_chemical_formula_structural   Li24Mn5Cr7O36
_chemical_formula_sum   'Li24 Mn5 Cr7 O36'
_cell_volume   632.23200162
_cell_formula_units_Z   1
loop_
 _symmetry_equiv_pos_site_id
 _symmetry_equiv_pos_as_xyz
  1  'x, y, z'
loop_
 _atom_site_type_symbol
 _atom_site_label
 _atom_site_symmetry_multiplicity
 _atom_site_fract_x
 _atom_site_fract_y
 _atom_site_fract_z
 _atom_site_occupancy
  Li  Li0  1  0.001191  0.499877  0.666649  1
  Li  Li1  1  0.252139  0.247474  0.916695  1
  Li  Li2  1  0.158615  0.665895  0.833153  1
  Li  Li3  1  0.000862  0.500330  0.333316  1
  Li  Li4  1  0.252560  0.252303  0.583347  1
  Li  Li5  1  0.499192  0.001207  0.833236  1
  Li  Li6  1  0.161165  0.663300  0.499964  1
  Li  Li7  1  0.997368  0.502846  0.000145  1
  Li  Li8  1  0.254363  0.247925  0.249973  1
  Li  Li9  1  0.502345  0.997485  0.500033  1
  Li  Li10  1  0.334828  0.842459  0.999948  1
  Li  Li11  1  0.157713  0.664279  0.166425  1
  Li  Li12  1  0.497567  0.004770  0.166604  1
  Li  Li13  1  0.660448  0.159558  0.666810  1
  Li  Li14  1  0.337243  0.839296  0.666522  1
  Li  Li15  1  0.661259  0.157870  0.333598  1
  Li  Li16  1  0.337315  0.841743  0.333068  1
  Li  Li17  1  0.842796  0.331838  0.833428  1
  Li  Li18  1  0.666267  0.155624  0.000299  1
  Li  Li19  1  0.750719  0.753153  0.749994  1
  Li  Li20  1  0.836021  0.338666  0.500142  1
  Li  Li21  1  0.746337  0.753494  0.416671  1
  Li  Li22  1  0.843392  0.330634  0.166728  1
  Li  Li23  1  0.753598  0.749977  0.083347  1
  Mn  Mn24  1  0.082621  0.083032  0.749964  1
  Mn  Mn25  1  0.082252  0.084364  0.416705  1
  Mn  Mn26  1  0.083547  0.082289  0.083299  1
  Mn  Mn27  1  0.582786  0.582325  0.583457  1
  Mn  Mn28  1  0.916945  0.916411  0.249909  1
  Cr  Cr29  1  0.418776  0.421751  0.750043  1
  Cr  Cr30  1  0.413144  0.423344  0.416684  1
  Cr  Cr31  1  0.585031  0.575773  0.916557  1
  Cr  Cr32  1  0.422361  0.418693  0.083223  1
  Cr  Cr33  1  0.588301  0.577562  0.249969  1
  Cr  Cr34  1  0.920923  0.915138  0.916487  1
  Cr  Cr35  1  0.919927  0.920141  0.583421  1
  O  O36  1  0.147687  0.352595  0.787832  1
  O  O37  1  0.353224  0.145603  0.712025  1
  O  O38  1  0.150857  0.351513  0.454502  1
  O  O39  1  0.290519  0.573044  0.954132  1
  O  O40  1  0.066213  0.793008  0.712384  1
  O  O41  1  0.353068  0.142378  0.378253  1
  O  O42  1  0.211286  0.931998  0.879164  1
  O  O43  1  0.144165  0.353556  0.121326  1
  O  O44  1  0.293106  0.565530  0.621105  1
  O  O45  1  0.071303  0.787845  0.379469  1
  O  O46  1  0.571051  0.287770  0.879156  1
  O  O47  1  0.426875  0.712315  0.787133  1
  O  O48  1  0.352200  0.149267  0.045479  1
  O  O49  1  0.211958  0.926372  0.546263  1
  O  O50  1  0.285721  0.574462  0.287234  1
  O  O51  1  0.793163  0.065485  0.787772  1
  O  O52  1  0.066230  0.793439  0.045614  1
  O  O53  1  0.565235  0.293608  0.545628  1
  O  O54  1  0.426981  0.718481  0.454030  1
  O  O55  1  0.928295  0.209539  0.954057  1
  O  O56  1  0.212642  0.927949  0.212712  1
  O  O57  1  0.711947  0.424970  0.712905  1
  O  O58  1  0.789990  0.069085  0.454232  1
  O  O59  1  0.642369  0.857550  0.955101  1
  O  O60  1  0.572746  0.279986  0.212306  1
  O  O61  1  0.425392  0.710925  0.120471  1
  O  O62  1  0.925659  0.211515  0.620420  1
  O  O63  1  0.712329  0.424655  0.379442  1
  O  O64  1  0.850044  0.649082  0.878666  1
  O  O65  1  0.791991  0.065902  0.120782  1
  O  O66  1  0.646435  0.852379  0.621250  1
  O  O67  1  0.924640  0.215315  0.287119  1
  O  O68  1  0.713696  0.426640  0.046157  1
  O  O69  1  0.853504  0.646347  0.545468  1
  O  O70  1  0.646656  0.858901  0.288470  1
  O  O71  1  0.848910  0.648167  0.212125  1
