# generated using pymatgen
data_Li7Mn7(P4O17)2
_symmetry_space_group_name_H-M   'P 1'
_cell_length_a   8.18754763
_cell_length_b   20.04278474
_cell_length_c   10.02909553
_cell_angle_alpha   89.99989796
_cell_angle_beta   109.78055039
_cell_angle_gamma   90.00000569
_symmetry_Int_Tables_number   1
_chemical_formula_structural   Li7Mn7(P4O17)2
_chemical_formula_sum   'Li14 Mn14 P16 O68'
_cell_volume   1548.67864543
_cell_formula_units_Z   2
loop_
 _symmetry_equiv_pos_site_id
 _symmetry_equiv_pos_as_xyz
  1  'x, y, z'
loop_
 _atom_site_type_symbol
 _atom_site_label
 _atom_site_symmetry_multiplicity
 _atom_site_fract_x
 _atom_site_fract_y
 _atom_site_fract_z
 _atom_site_occupancy
  Li  Li0  1  0.000000  0.000000  0.500000  1
  Li  Li1  1  0.242637  0.624866  0.891610  1
  Li  Li2  1  0.000000  0.500000  0.000000  1
  Li  Li3  1  0.242637  0.875135  0.391610  1
  Li  Li4  1  0.515176  0.068720  0.824654  1
  Li  Li5  1  0.456885  0.752151  0.692361  1
  Li  Li6  1  0.543115  0.252151  0.807639  1
  Li  Li7  1  0.515176  0.431280  0.324654  1
  Li  Li8  1  0.484824  0.568720  0.675346  1
  Li  Li9  1  0.456885  0.747849  0.192361  1
  Li  Li10  1  0.543115  0.247849  0.307639  1
  Li  Li11  1  0.484824  0.931280  0.175346  1
  Li  Li12  1  0.757363  0.124865  0.608390  1
  Li  Li13  1  0.757363  0.375134  0.108390  1
  Mn  Mn14  1  0.991171  0.334866  0.925561  1
  Mn  Mn15  1  0.113071  0.913819  0.900328  1
  Mn  Mn16  1  0.991170  0.165133  0.425561  1
  Mn  Mn17  1  0.113071  0.586182  0.400326  1
  Mn  Mn18  1  0.278185  0.361696  0.777309  1
  Mn  Mn19  1  0.278186  0.138304  0.277310  1
  Mn  Mn20  1  0.500000  0.000000  0.500000  1
  Mn  Mn21  1  0.721814  0.861696  0.722690  1
  Mn  Mn22  1  0.500000  0.500000  0.000000  1
  Mn  Mn23  1  0.721815  0.638304  0.222691  1
  Mn  Mn24  1  0.886929  0.413818  0.599674  1
  Mn  Mn25  1  0.008830  0.834867  0.574439  1
  Mn  Mn26  1  0.886929  0.086181  0.099672  1
  Mn  Mn27  1  0.008829  0.665134  0.074439  1
  P  P28  1  0.959575  0.267132  0.645756  1
  P  P29  1  0.168038  0.508015  0.688374  1
  P  P30  1  0.959576  0.232868  0.145755  1
  P  P31  1  0.363185  0.920639  0.713260  1
  P  P32  1  0.362036  0.146699  0.572411  1
  P  P33  1  0.168038  0.991985  0.188373  1
  P  P34  1  0.363184  0.579361  0.213259  1
  P  P35  1  0.637964  0.646699  0.927589  1
  P  P36  1  0.362036  0.353301  0.072411  1
  P  P37  1  0.636816  0.420639  0.786741  1
  P  P38  1  0.831962  0.008015  0.811627  1
  P  P39  1  0.637964  0.853301  0.427589  1
  P  P40  1  0.636815  0.079361  0.286740  1
  P  P41  1  0.040424  0.767132  0.854245  1
  P  P42  1  0.831962  0.491985  0.311626  1
  P  P43  1  0.040425  0.732868  0.354244  1
  O  O44  1  0.108400  0.699953  0.934269  1
  O  O45  1  0.156004  0.821918  0.953320  1
  O  O46  1  0.054069  0.385088  0.788332  1
  O  O47  1  0.084958  0.762766  0.714241  1
  O  O48  1  0.967281  0.504777  0.642418  1
  O  O49  1  0.108400  0.800047  0.434269  1
  O  O50  1  0.156003  0.678082  0.453319  1
  O  O51  1  0.330737  0.298816  0.955357  1
  O  O52  1  0.054070  0.114912  0.288333  1
  O  O53  1  0.186078  0.121344  0.579774  1
  O  O54  1  0.084958  0.737235  0.214241  1
  O  O55  1  0.967281  0.995223  0.142417  1
  O  O56  1  0.152279  0.276091  0.665478  1
  O  O57  1  0.188970  0.912102  0.588054  1
  O  O58  1  0.341752  0.930363  0.856965  1
  O  O59  1  0.239911  0.529083  0.844916  1
  O  O60  1  0.234824  0.439082  0.653833  1
  O  O61  1  0.228384  0.561633  0.602128  1
  O  O62  1  0.444188  0.408756  0.002590  1
  O  O63  1  0.330738  0.201184  0.455357  1
  O  O64  1  0.444224  0.986252  0.677740  1
  O  O65  1  0.186079  0.378656  0.079774  1
  O  O66  1  0.152280  0.223909  0.165479  1
  O  O67  1  0.188969  0.587898  0.088053  1
  O  O68  1  0.341752  0.569637  0.356964  1
  O  O69  1  0.239910  0.970917  0.344915  1
  O  O70  1  0.234825  0.060918  0.153833  1
  O  O71  1  0.228384  0.938368  0.102129  1
  O  O72  1  0.444188  0.091244  0.502589  1
  O  O73  1  0.509140  0.663495  0.780965  1
  O  O74  1  0.523119  0.355761  0.782034  1
  O  O75  1  0.476881  0.855761  0.717966  1
  O  O76  1  0.490861  0.163495  0.719035  1
  O  O77  1  0.555776  0.486252  0.822260  1
  O  O78  1  0.444224  0.513748  0.177740  1
  O  O79  1  0.509139  0.836505  0.280965  1
  O  O80  1  0.523119  0.144239  0.282034  1
  O  O81  1  0.476881  0.644239  0.217966  1
  O  O82  1  0.490860  0.336505  0.219035  1
  O  O83  1  0.555812  0.908756  0.497411  1
  O  O84  1  0.771616  0.061632  0.897871  1
  O  O85  1  0.765175  0.939082  0.846167  1
  O  O86  1  0.760090  0.029083  0.655085  1
  O  O87  1  0.658248  0.430363  0.643036  1
  O  O88  1  0.811031  0.412102  0.911947  1
  O  O89  1  0.847720  0.776091  0.834521  1
  O  O90  1  0.813921  0.621344  0.920226  1
  O  O91  1  0.555776  0.013748  0.322260  1
  O  O92  1  0.669262  0.798816  0.544643  1
  O  O93  1  0.555812  0.591244  0.997410  1
  O  O94  1  0.771616  0.438367  0.397872  1
  O  O95  1  0.765176  0.560918  0.346167  1
  O  O96  1  0.760089  0.470917  0.155084  1
  O  O97  1  0.658248  0.069637  0.143035  1
  O  O98  1  0.811030  0.087898  0.411946  1
  O  O99  1  0.847721  0.723909  0.334522  1
  O  O100  1  0.032719  0.004777  0.857583  1
  O  O101  1  0.915042  0.262764  0.785759  1
  O  O102  1  0.813922  0.878656  0.420226  1
  O  O103  1  0.945930  0.885088  0.711667  1
  O  O104  1  0.669263  0.701184  0.044643  1
  O  O105  1  0.843997  0.321918  0.546681  1
  O  O106  1  0.891600  0.199953  0.565731  1
  O  O107  1  0.032719  0.495223  0.357582  1
  O  O108  1  0.915042  0.237234  0.285759  1
  O  O109  1  0.945931  0.614912  0.211668  1
  O  O110  1  0.843996  0.178082  0.046680  1
  O  O111  1  0.891600  0.300047  0.065731  1
