# generated using pymatgen
data_LiMnSiO4
_symmetry_space_group_name_H-M   'P 1'
_cell_length_a   9.27744019
_cell_length_b   5.71167901
_cell_length_c   6.19627914
_cell_angle_alpha   103.50166232
_cell_angle_beta   101.94870227
_cell_angle_gamma   81.18125017
_symmetry_Int_Tables_number   1
_chemical_formula_structural   LiMnSiO4
_chemical_formula_sum   'Li4 Mn4 Si4 O16'
_cell_volume   310.44023678
_cell_formula_units_Z   4
loop_
 _symmetry_equiv_pos_site_id
 _symmetry_equiv_pos_as_xyz
  1  'x, y, z'
loop_
 _atom_site_type_symbol
 _atom_site_label
 _atom_site_symmetry_multiplicity
 _atom_site_fract_x
 _atom_site_fract_y
 _atom_site_fract_z
 _atom_site_occupancy
  Li  Li0  1  0.085539  0.318889  0.362545  1
  Li  Li1  1  0.227619  0.806117  0.441808  1
  Li  Li2  1  0.772381  0.193883  0.558192  1
  Li  Li3  1  0.914461  0.681111  0.637455  1
  Mn  Mn4  1  0.220071  0.694435  0.934098  1
  Mn  Mn5  1  0.411363  0.219042  0.160723  1
  Mn  Mn6  1  0.588637  0.780958  0.839277  1
  Mn  Mn7  1  0.779929  0.305565  0.065902  1
  Si  Si8  1  0.091931  0.185241  0.839577  1
  Si  Si9  1  0.462451  0.320716  0.709968  1
  Si  Si10  1  0.537549  0.679284  0.290032  1
  Si  Si11  1  0.908069  0.814759  0.160423  1
  O  O12  1  0.114894  0.388927  0.704413  1
  O  O13  1  0.122816  0.897111  0.707100  1
  O  O14  1  0.083312  0.775201  0.134625  1
  O  O15  1  0.196980  0.212645  0.093181  1
  O  O16  1  0.427467  0.133514  0.851725  1
  O  O17  1  0.390644  0.610163  0.777603  1
  O  O18  1  0.397778  0.209377  0.452111  1
  O  O19  1  0.359463  0.643456  0.225143  1
  O  O20  1  0.640537  0.356544  0.774857  1
  O  O21  1  0.602222  0.790623  0.547889  1
  O  O22  1  0.609356  0.389837  0.222397  1
  O  O23  1  0.572533  0.866486  0.148275  1
  O  O24  1  0.803020  0.787355  0.906819  1
  O  O25  1  0.916688  0.224799  0.865375  1
  O  O26  1  0.877184  0.102889  0.292900  1
  O  O27  1  0.885106  0.611073  0.295587  1
