# generated using pymatgen
data_V6O5F19
_symmetry_space_group_name_H-M   'P 1'
_cell_length_a   5.51959892
_cell_length_b   5.37477287
_cell_length_c   14.72553974
_cell_angle_alpha   89.63774304
_cell_angle_beta   100.67000751
_cell_angle_gamma   92.34100219
_symmetry_Int_Tables_number   1
_chemical_formula_structural   V6O5F19
_chemical_formula_sum   'V6 O5 F19'
_cell_volume   428.94461341
_cell_formula_units_Z   1
loop_
 _symmetry_equiv_pos_site_id
 _symmetry_equiv_pos_as_xyz
  1  'x, y, z'
loop_
 _atom_site_type_symbol
 _atom_site_label
 _atom_site_symmetry_multiplicity
 _atom_site_fract_x
 _atom_site_fract_y
 _atom_site_fract_z
 _atom_site_occupancy
  V  V0  1  0.014048  0.052802  0.994617  1
  V  V1  1  0.198267  0.456630  0.329372  1
  V  V2  1  0.384984  0.965566  0.670843  1
  V  V3  1  0.473006  0.560713  0.006271  1
  V  V4  1  0.709649  0.965763  0.336819  1
  V  V5  1  0.847210  0.485886  0.664947  1
  O  O6  1  0.210837  0.283675  0.979526  1
  O  O7  1  0.363109  0.227567  0.312199  1
  O  O8  1  0.291365  0.783874  0.023710  1
  O  O9  1  0.630765  0.799408  0.691690  1
  O  O10  1  0.948057  0.797138  0.354074  1
  F  F11  1  0.014252  0.212976  0.640696  1
  F  F12  1  0.150688  0.700776  0.690833  1
  F  F13  1  0.042001  0.054122  0.116193  1
  F  F14  1  0.187991  0.436295  0.448884  1
  F  F15  1  0.359528  0.088731  0.779726  1
  F  F16  1  0.119952  0.593066  0.218314  1
  F  F17  1  0.274210  0.927143  0.551231  1
  F  F18  1  0.451786  0.559071  0.884918  1
  F  F19  1  0.531729  0.282255  0.642434  1
  F  F20  1  0.725091  0.204638  0.973990  1
  F  F21  1  0.464862  0.711250  0.361242  1
  F  F22  1  0.552608  0.406103  0.113962  1
  F  F23  1  0.708058  0.095809  0.447230  1
  F  F24  1  0.868457  0.429585  0.784460  1
  F  F25  1  0.587884  0.925820  0.217388  1
  F  F26  1  0.778797  0.602216  0.550945  1
  F  F27  1  0.955183  0.901434  0.885597  1
  F  F28  1  0.875298  0.276924  0.305192  1
  F  F29  1  0.780332  0.712764  0.022700  1
