# generated using pymatgen
data_Li4Fe3WO8
_symmetry_space_group_name_H-M   'P 1'
_cell_length_a   10.42789443
_cell_length_b   10.42570530
_cell_length_c   14.69502083
_cell_angle_alpha   20.01919467
_cell_angle_beta   20.01840901
_cell_angle_gamma   34.49221977
_symmetry_Int_Tables_number   1
_chemical_formula_structural   Li4Fe3WO8
_chemical_formula_sum   'Li4 Fe3 W1 O8'
_cell_volume   162.12690901
_cell_formula_units_Z   1
loop_
 _symmetry_equiv_pos_site_id
 _symmetry_equiv_pos_as_xyz
  1  'x, y, z'
loop_
 _atom_site_type_symbol
 _atom_site_label
 _atom_site_symmetry_multiplicity
 _atom_site_fract_x
 _atom_site_fract_y
 _atom_site_fract_z
 _atom_site_occupancy
  Li  Li0  1  0.000009  0.000008  0.499987  1
  Li  Li1  1  0.000002  0.500017  0.499988  1
  Li  Li2  1  0.500013  0.000003  0.499992  1
  Li  Li3  1  0.499999  0.499999  0.500001  1
  Fe  Fe4  1  0.000003  0.499993  0.000001  1
  Fe  Fe5  1  0.500001  0.999995  0.000000  1
  Fe  Fe6  1  0.499981  0.499977  0.000025  1
  W  W7  1  0.000002  0.000007  -0.000005  1
  O  O8  1  -0.000056  0.999834  0.264240  1
  O  O9  1  0.000002  0.554400  0.217471  1
  O  O10  1  0.554541  0.999917  0.217445  1
  O  O11  1  0.000042  0.000147  0.735787  1
  O  O12  1  0.445336  0.445253  0.326701  1
  O  O13  1  -0.000000  0.445600  0.782528  1
  O  O14  1  0.445452  0.000091  0.782553  1
  O  O15  1  0.554672  0.554756  0.673285  1
