# generated using pymatgen
data_LiTiSi3O8
_symmetry_space_group_name_H-M   'P 1'
_cell_length_a   8.03997544
_cell_length_b   7.09903189
_cell_length_c   7.18947772
_cell_angle_alpha   81.10929663
_cell_angle_beta   109.29433666
_cell_angle_gamma   60.56081539
_symmetry_Int_Tables_number   1
_chemical_formula_structural   LiTiSi3O8
_chemical_formula_sum   'Li2 Ti2 Si6 O16'
_cell_volume   311.20588711
_cell_formula_units_Z   2
loop_
 _symmetry_equiv_pos_site_id
 _symmetry_equiv_pos_as_xyz
  1  'x, y, z'
loop_
 _atom_site_type_symbol
 _atom_site_label
 _atom_site_symmetry_multiplicity
 _atom_site_fract_x
 _atom_site_fract_y
 _atom_site_fract_z
 _atom_site_occupancy
  Li  Li0  1  0.803901  0.818814  0.801750  1
  Li  Li1  1  0.196099  0.181186  0.198250  1
  Ti  Ti2  1  0.182057  0.771359  0.122720  1
  Ti  Ti3  1  0.817943  0.228641  0.877280  1
  Si  Si4  1  0.213600  0.560958  0.732215  1
  Si  Si5  1  0.461126  0.727970  0.623225  1
  Si  Si6  1  0.185971  0.147711  0.741302  1
  Si  Si7  1  0.814029  0.852289  0.258698  1
  Si  Si8  1  0.538874  0.272030  0.376775  1
  Si  Si9  1  0.786400  0.439042  0.267785  1
  O  O10  1  0.118024  0.700114  0.869861  1
  O  O11  1  0.373767  0.937119  0.713292  1
  O  O12  1  0.034715  0.703782  0.483329  1
  O  O13  1  0.310744  0.838025  0.364512  1
  O  O14  1  0.130563  0.069346  0.927654  1
  O  O15  1  0.436404  0.530159  0.749558  1
  O  O16  1  0.275245  0.299087  0.814572  1
  O  O17  1  0.719709  0.584490  0.715084  1
  O  O18  1  0.280291  0.415510  0.284916  1
  O  O19  1  0.724755  0.700913  0.185428  1
  O  O20  1  0.563596  0.469841  0.250442  1
  O  O21  1  0.869437  0.930654  0.072346  1
  O  O22  1  0.689256  0.161975  0.635488  1
  O  O23  1  0.965285  0.296218  0.516671  1
  O  O24  1  0.626233  0.062881  0.286708  1
  O  O25  1  0.881976  0.299886  0.130139  1
