# generated using pymatgen
data_LiMn2(PO4)2
_symmetry_space_group_name_H-M   'P 1'
_cell_length_a   12.58272442
_cell_length_b   9.11181354
_cell_length_c   8.68211628
_cell_angle_alpha   104.26034824
_cell_angle_beta   80.34333500
_cell_angle_gamma   74.74890108
_symmetry_Int_Tables_number   1
_chemical_formula_structural   LiMn2(PO4)2
_chemical_formula_sum   'Li6 Mn12 P12 O48'
_cell_volume   901.52635134
_cell_formula_units_Z   6
loop_
 _symmetry_equiv_pos_site_id
 _symmetry_equiv_pos_as_xyz
  1  'x, y, z'
loop_
 _atom_site_type_symbol
 _atom_site_label
 _atom_site_symmetry_multiplicity
 _atom_site_fract_x
 _atom_site_fract_y
 _atom_site_fract_z
 _atom_site_occupancy
  Li  Li0  1  0.127282  0.861440  0.012965  1
  Li  Li1  1  0.000021  0.499967  0.499989  1
  Li  Li2  1  0.250573  0.248380  0.498805  1
  Li  Li3  1  0.499973  0.000007  0.500021  1
  Li  Li4  1  0.749383  0.751637  0.501269  1
  Li  Li5  1  0.872739  0.138585  0.987024  1
  Mn  Mn6  1  0.039277  0.896092  0.616613  1
  Mn  Mn7  1  0.244676  0.491112  0.263497  1
  Mn  Mn8  1  0.131855  0.483870  0.933922  1
  Mn  Mn9  1  0.371931  0.009135  0.064014  1
  Mn  Mn10  1  0.461598  0.604647  0.381409  1
  Mn  Mn11  1  0.261310  0.008301  0.729484  1
  Mn  Mn12  1  0.738669  0.991709  0.270573  1
  Mn  Mn13  1  0.538414  0.395234  0.618522  1
  Mn  Mn14  1  0.628222  0.991239  0.935968  1
  Mn  Mn15  1  0.868151  0.516047  0.065960  1
  Mn  Mn16  1  0.755304  0.508865  0.736493  1
  Mn  Mn17  1  0.960692  0.103904  0.383470  1
  P  P18  1  0.108853  0.234100  0.126329  1
  P  P19  1  0.250110  0.880138  0.344847  1
  P  P20  1  0.019940  0.270454  0.709780  1
  P  P21  1  0.249285  0.622966  0.654633  1
  P  P22  1  0.607799  0.738631  0.131844  1
  P  P23  1  0.479308  0.230283  0.290532  1
  P  P24  1  0.520644  0.769689  0.709523  1
  P  P25  1  0.392175  0.261404  0.868160  1
  P  P26  1  0.750706  0.377011  0.345356  1
  P  P27  1  0.980029  0.729623  0.290109  1
  P  P28  1  0.749961  0.119936  0.654940  1
  P  P29  1  0.891131  0.765811  0.873776  1
  O  O30  1  0.047218  0.356186  0.042639  1
  O  O31  1  0.117179  0.926958  0.402922  1
  O  O32  1  0.099282  0.637384  0.168402  1
  O  O33  1  0.029896  0.134901  0.167200  1
  O  O34  1  0.275226  0.903092  0.172848  1
  O  O35  1  0.005298  0.270287  0.535759  1
  O  O36  1  0.138333  0.328337  0.277399  1
  O  O37  1  0.293769  0.986938  0.469527  1
  O  O38  1  0.285865  0.384073  -0.000429  1
  O  O39  1  0.200317  0.804369  0.675386  1
  O  O40  1  0.299934  0.701000  0.330916  1
  O  O41  1  0.205941  0.516946  0.529399  1
  O  O42  1  0.114726  0.350944  0.724937  1
  O  O43  1  0.547250  0.857862  0.045483  1
  O  O44  1  0.065041  0.105165  0.737092  1
  O  O45  1  0.213353  0.611769  0.831460  1
  O  O46  1  0.526414  0.650394  0.186236  1
  O  O47  1  0.431953  0.397103  0.268423  1
  O  O48  1  0.402051  0.865473  0.828810  1
  O  O49  1  0.382927  0.573611  0.594091  1
  O  O50  1  0.385016  0.149293  0.274347  1
  O  O51  1  0.504881  0.769297  0.534243  1
  O  O52  1  0.640499  0.832654  0.280534  1
  O  O53  1  0.784684  0.889616  0.004715  1
  O  O54  1  0.215223  0.110437  0.995347  1
  O  O55  1  0.359530  0.167336  0.719457  1
  O  O56  1  0.495079  0.230670  0.465770  1
  O  O57  1  0.614880  0.850529  0.725373  1
  O  O58  1  0.617006  0.426409  0.405945  1
  O  O59  1  0.597824  0.134712  0.171493  1
  O  O60  1  0.568039  0.602833  0.731584  1
  O  O61  1  0.473544  0.349704  0.813906  1
  O  O62  1  0.786580  0.388187  0.168798  1
  O  O63  1  0.934942  0.894903  0.262945  1
  O  O64  1  0.452749  0.141726  0.954750  1
  O  O65  1  0.885389  0.649051  0.275119  1
  O  O66  1  0.794086  0.482998  0.470516  1
  O  O67  1  0.700064  0.299069  0.669016  1
  O  O68  1  0.799702  0.195580  0.324575  1
  O  O69  1  0.714235  0.615860  0.000504  1
  O  O70  1  0.706232  0.013074  0.530403  1
  O  O71  1  0.861659  0.671676  0.722673  1
  O  O72  1  0.994532  0.729710  0.464351  1
  O  O73  1  0.725089  0.096842  0.826791  1
  O  O74  1  0.970142  0.865005  0.832964  1
  O  O75  1  0.900838  0.362578  0.831445  1
  O  O76  1  0.882923  0.073123  0.596829  1
  O  O77  1  0.952647  0.644118  0.957279  1
