# generated using pymatgen
data_Li5V3P8O29
_symmetry_space_group_name_H-M   'P 1'
_cell_length_a   9.77628284
_cell_length_b   9.74293267
_cell_length_c   14.03992440
_cell_angle_alpha   90.06389000
_cell_angle_beta   90.21956227
_cell_angle_gamma   60.31027500
_symmetry_Int_Tables_number   1
_chemical_formula_structural   Li5V3P8O29
_chemical_formula_sum   'Li10 V6 P16 O58'
_cell_volume   1161.72907687
_cell_formula_units_Z   2
loop_
 _symmetry_equiv_pos_site_id
 _symmetry_equiv_pos_as_xyz
  1  'x, y, z'
loop_
 _atom_site_type_symbol
 _atom_site_label
 _atom_site_symmetry_multiplicity
 _atom_site_fract_x
 _atom_site_fract_y
 _atom_site_fract_z
 _atom_site_occupancy
  Li  Li0  1  0.912066  0.765728  0.055612  1
  Li  Li1  1  0.905477  0.333073  0.563630  1
  Li  Li2  1  0.660839  0.670428  0.885664  1
  Li  Li3  1  0.770212  0.317939  0.058461  1
  Li  Li4  1  0.324166  0.913177  0.059967  1
  Li  Li5  1  0.665140  0.234128  0.444306  1
  Li  Li6  1  0.339714  0.760713  0.563458  1
  Li  Li7  1  0.089668  0.674026  0.442096  1
  Li  Li8  1  0.003587  0.001841  0.981196  1
  Li  Li9  1  0.002733  0.999346  0.508922  1
  V  V10  1  0.564430  0.435123  0.244141  1
  V  V11  1  0.433993  0.562771  0.754823  1
  V  V12  1  0.566882  0.000261  0.745952  1
  V  V13  1  0.434665  0.003720  0.253163  1
  V  V14  1  0.998506  0.564649  0.249956  1
  V  V15  1  0.003523  0.432886  0.747669  1
  P  P16  1  0.907485  0.780507  0.839761  1
  P  P17  1  0.776418  0.918403  0.343121  1
  P  P18  1  0.911140  0.313273  0.345055  1
  P  P19  1  0.665189  0.671010  0.127802  1
  P  P20  1  0.663175  0.665245  0.629701  1
  P  P21  1  0.779906  0.314743  0.842698  1
  P  P22  1  0.687582  0.226135  0.659728  1
  P  P23  1  0.312617  0.912566  0.847178  1
  P  P24  1  0.692208  0.081270  0.155043  1
  P  P25  1  0.315825  0.771489  0.343071  1
  P  P26  1  0.222103  0.692629  0.159111  1
  P  P27  1  0.335260  0.334877  0.369072  1
  P  P28  1  0.336260  0.326130  0.869583  1
  P  P29  1  0.085719  0.692825  0.656721  1
  P  P30  1  0.221532  0.080334  0.660806  1
  P  P31  1  0.085381  0.220283  0.162033  1
  O  O32  1  0.009561  0.779450  0.566400  1
  O  O33  1  0.914715  0.745867  0.341271  1
  O  O34  1  0.787468  0.990614  0.070993  1
  O  O35  1  0.736997  0.922597  0.831288  1
  O  O36  1  0.895600  0.628799  0.829620  1
  O  O37  1  0.811578  0.677400  0.166978  1
  O  O38  1  0.910893  0.470909  0.328521  1
  O  O39  1  0.994905  0.204005  0.080909  1
  O  O40  1  0.921418  0.342894  0.831563  1
  O  O41  1  0.666825  0.808997  0.679605  1
  O  O42  1  0.617100  0.919820  0.329937  1
  O  O43  1  0.812422  0.510951  0.664768  1
  O  O44  1  0.659455  0.678526  0.020432  1
  O  O45  1  0.649958  0.676957  0.524008  1
  O  O46  1  0.674281  0.513733  0.162872  1
  O  O47  1  0.474678  0.904716  0.832657  1
  O  O48  1  0.513419  0.814721  0.170685  1
  O  O49  1  0.740672  0.342055  0.331807  1
  O  O50  1  0.793053  0.205992  0.752680  1
  O  O51  1  0.783229  0.214356  0.572392  1
  O  O52  1  0.792308  0.225953  0.931904  1
  O  O53  1  0.629930  0.479226  0.833377  1
  O  O54  1  0.514013  0.667819  0.673860  1
  O  O55  1  0.660418  0.253778  0.155632  1
  O  O56  1  0.470118  0.617702  0.328486  1
  O  O57  1  0.343928  0.914119  0.332299  1
  O  O58  1  0.797335  0.000654  0.249269  1
  O  O59  1  0.785226  0.008284  0.427204  1
  O  O60  1  0.206314  0.986685  0.580828  1
  O  O61  1  0.657982  0.083574  0.662987  1
  O  O62  1  0.533620  0.381769  0.667307  1
  O  O63  1  0.343842  0.742660  0.839207  1
  O  O64  1  0.487506  0.326906  0.328851  1
  O  O65  1  0.379970  0.534890  0.170456  1
  O  O66  1  0.214501  0.793711  0.077613  1
  O  O67  1  0.230222  0.779354  0.434133  1
  O  O68  1  0.197839  0.789112  0.257482  1
  O  O69  1  0.256233  0.659960  0.662233  1
  O  O70  1  0.477235  0.179403  0.817475  1
  O  O71  1  0.535802  0.080405  0.171438  1
  O  O72  1  0.347215  0.469744  0.824917  1
  O  O73  1  0.350307  0.318155  0.974192  1
  O  O74  1  0.337994  0.324498  0.474556  1
  O  O75  1  0.187420  0.488110  0.330180  1
  O  O76  1  0.382519  0.073652  0.669014  1
  O  O77  1  0.330857  0.188939  0.319210  1
  O  O78  1  0.083522  0.657493  0.159117  1
  O  O79  1  0.997850  0.798641  0.749082  1
  O  O80  1  0.983934  0.794374  0.929153  1
  O  O81  1  0.079201  0.538440  0.670690  1
  O  O82  1  0.188033  0.335840  0.824574  1
  O  O83  1  0.082628  0.378565  0.171032  1
  O  O84  1  0.258915  0.081637  0.162436  1
  O  O85  1  0.227390  0.990668  0.936958  1
  O  O86  1  0.199121  0.011362  0.759911  1
  O  O87  1  0.084778  0.253514  0.657806  1
  O  O88  1  0.975906  0.235940  0.438862  1
  O  O89  1  0.012830  0.196274  0.260906  1
