# generated using pymatgen
data_NaFe8F24
_symmetry_space_group_name_H-M   'P 1'
_cell_length_a   22.03457754
_cell_length_b   14.65916254
_cell_length_c   9.66030216
_cell_angle_alpha   28.82880689
_cell_angle_beta   53.67637866
_cell_angle_gamma   40.08806205
_symmetry_Int_Tables_number   1
_chemical_formula_structural   NaFe8F24
_chemical_formula_sum   'Na2 Fe16 F48'
_cell_volume   937.94089031
_cell_formula_units_Z   2
loop_
 _symmetry_equiv_pos_site_id
 _symmetry_equiv_pos_as_xyz
  1  'x, y, z'
loop_
 _atom_site_type_symbol
 _atom_site_label
 _atom_site_symmetry_multiplicity
 _atom_site_fract_x
 _atom_site_fract_y
 _atom_site_fract_z
 _atom_site_occupancy
  Na  Na0  1  0.314003  0.995299  0.254413  1
  Na  Na1  1  0.810997  0.504701  0.745587  1
  Fe  Fe2  1  0.002031  0.994425  0.002872  1
  Fe  Fe3  1  0.250430  -0.000328  0.997015  1
  Fe  Fe4  1  0.122475  0.001461  0.501270  1
  Fe  Fe5  1  0.122969  0.505575  0.997128  1
  Fe  Fe6  1  0.002525  0.498539  0.498730  1
  Fe  Fe7  1  0.503079  0.000695  0.995512  1
  Fe  Fe8  1  0.376279  -0.002553  0.503120  1
  Fe  Fe9  1  0.375659  0.494636  0.007550  1
  Fe  Fe10  1  0.249960  0.503283  0.495691  1
  Fe  Fe11  1  0.749341  0.005364  0.992450  1
  Fe  Fe12  1  0.621550  0.008519  0.495895  1
  Fe  Fe13  1  0.621921  0.499305  0.004488  1
  Fe  Fe14  1  0.503450  0.491481  0.504105  1
  Fe  Fe15  1  0.875040  0.996717  0.504309  1
  Fe  Fe16  1  0.874570  0.500328  0.002985  1
  Fe  Fe17  1  0.748721  0.502553  0.496880  1
  F  F18  1  0.008759  0.288148  0.174067  1
  F  F19  1  0.043226  0.073132  0.680805  1
  F  F20  1  0.154069  0.215236  0.244523  1
  F  F21  1  0.081774  0.426868  0.319195  1
  F  F22  1  0.116241  0.211852  0.825933  1
  F  F23  1  0.258615  0.279882  0.179985  1
  F  F24  1  0.028836  0.714779  0.246838  1
  F  F25  1  0.292032  0.076106  0.676239  1
  F  F26  1  0.223944  0.281531  0.760305  1
  F  F27  1  0.400405  0.217385  0.247276  1
  F  F28  1  0.134472  0.786579  0.177431  1
  F  F29  1  0.329371  0.430117  0.320467  1
  F  F30  1  0.169664  0.566946  0.684702  1
  F  F31  1  0.359066  0.219823  0.822593  1
  F  F32  1  0.096164  0.785221  0.753162  1
  F  F33  1  0.508086  0.291846  0.168527  1
  F  F34  1  0.276449  0.715615  0.249423  1
  F  F35  1  0.543949  0.080786  0.662163  1
  F  F36  1  0.208049  0.936129  0.311145  1
  F  F37  1  0.469683  0.297934  0.743354  1
  F  F38  1  0.241283  0.717675  0.815440  1
  F  F39  1  0.655317  0.202066  0.256646  1
  F  F40  1  0.380025  0.795952  0.178847  1
  F  F41  1  0.581051  0.419214  0.337837  1
  F  F42  1  0.416430  0.578640  0.674767  1
  F  F43  1  0.616914  0.208154  0.831473  1
  F  F44  1  0.343959  0.793871  0.735705  1
  F  F45  1  0.765934  0.280177  0.177407  1
  F  F46  1  0.522414  0.711917  0.259676  1
  F  F47  1  0.795629  0.069883  0.679533  1
  F  F48  1  0.447074  0.931668  0.326634  1
  F  F49  1  0.724595  0.282615  0.752724  1
  F  F50  1  0.484077  0.720003  0.821436  1
  F  F51  1  0.901056  0.218469  0.239695  1
  F  F52  1  0.640923  0.779997  0.178564  1
  F  F53  1  0.832967  0.423894  0.323761  1
  F  F54  1  0.677926  0.568332  0.673366  1
  F  F55  1  0.866385  0.220118  0.820015  1
  F  F56  1  0.602586  0.788083  0.740324  1
  F  F57  1  0.781041  0.706129  0.264295  1
  F  F58  1  0.708570  0.921360  0.325233  1
  F  F59  1  0.970931  0.284764  0.755477  1
  F  F60  1  0.744975  0.704048  0.821153  1
  F  F61  1  0.883717  0.782325  0.184560  1
  F  F62  1  0.916951  0.563871  0.688855  1
  F  F63  1  0.848551  0.784385  0.750577  1
  F  F64  1  0.955336  0.933054  0.315298  1
  F  F65  1  0.990528  0.713421  0.822569  1
