# generated using pymatgen
data_Ti4SnO10
_symmetry_space_group_name_H-M   'P 1'
_cell_length_a   4.69893246
_cell_length_b   12.98147446
_cell_length_c   5.58382805
_cell_angle_alpha   78.38150817
_cell_angle_beta   89.97332489
_cell_angle_gamma   90.01391126
_symmetry_Int_Tables_number   1
_chemical_formula_structural   Ti4SnO10
_chemical_formula_sum   'Ti8 Sn2 O20'
_cell_volume   333.62930975
_cell_formula_units_Z   2
loop_
 _symmetry_equiv_pos_site_id
 _symmetry_equiv_pos_as_xyz
  1  'x, y, z'
loop_
 _atom_site_type_symbol
 _atom_site_label
 _atom_site_symmetry_multiplicity
 _atom_site_fract_x
 _atom_site_fract_y
 _atom_site_fract_z
 _atom_site_occupancy
  Ti  Ti0  1  0.501685  0.003387  0.509692  1
  Ti  Ti1  1  0.500000  0.600000  0.100000  1
  Ti  Ti2  1  0.498315  0.196613  0.690308  1
  Ti  Ti3  1  0.995239  0.800123  0.800743  1
  Ti  Ti4  1  0.000000  0.600000  0.600000  1
  Ti  Ti5  1  0.004761  0.399877  0.399257  1
  Ti  Ti6  1  0.982422  0.198283  0.196998  1
  Ti  Ti7  1  0.017578  0.001718  0.003002  1
  Sn  Sn8  1  0.498569  0.398608  0.900102  1
  Sn  Sn9  1  0.501431  0.801392  0.299898  1
  O  O10  1  0.817502  0.863170  0.053041  1
  O  O11  1  0.802044  0.663048  0.850211  1
  O  O12  1  0.818113  0.460654  0.656003  1
  O  O13  1  0.801657  0.260233  0.452138  1
  O  O14  1  0.806233  0.061087  0.255657  1
  O  O15  1  0.698894  0.866319  0.566571  1
  O  O16  1  0.699842  0.655205  0.354887  1
  O  O17  1  0.698737  0.253281  0.955075  1
  O  O18  1  0.694236  0.061798  0.753982  1
  O  O19  1  0.699762  0.464494  0.165246  1
  O  O20  1  0.301263  0.946719  0.244925  1
  O  O21  1  0.301106  0.333681  0.633429  1
  O  O22  1  0.300238  0.735506  0.034754  1
  O  O23  1  0.300158  0.544795  0.845113  1
  O  O24  1  0.305764  0.138202  0.446018  1
  O  O25  1  0.197956  0.536952  0.349789  1
  O  O26  1  0.198343  0.939767  0.747862  1
  O  O27  1  0.193767  0.138913  0.944343  1
  O  O28  1  0.181887  0.739346  0.543997  1
  O  O29  1  0.182498  0.336830  0.146959  1
