# generated using pymatgen
data_LiLa3MnO7
_symmetry_space_group_name_H-M   'P 1'
_cell_length_a   5.45762322
_cell_length_b   5.47317295
_cell_length_c   20.27579197
_cell_angle_alpha   89.89266583
_cell_angle_beta   90.00066531
_cell_angle_gamma   90.00121014
_symmetry_Int_Tables_number   1
_chemical_formula_structural   LiLa3MnO7
_chemical_formula_sum   'Li4 La12 Mn4 O28'
_cell_volume   605.64730108
_cell_formula_units_Z   4
loop_
 _symmetry_equiv_pos_site_id
 _symmetry_equiv_pos_as_xyz
  1  'x, y, z'
loop_
 _atom_site_type_symbol
 _atom_site_label
 _atom_site_symmetry_multiplicity
 _atom_site_fract_x
 _atom_site_fract_y
 _atom_site_fract_z
 _atom_site_occupancy
  Li  Li0  1  0.248279  0.752278  0.905076  1
  Li  Li1  1  0.251731  0.252265  0.405076  1
  Li  Li2  1  0.748275  0.747751  0.594923  1
  Li  Li3  1  0.751733  0.247727  0.094921  1
  La  La4  1  0.245861  0.765401  0.321533  1
  La  La5  1  0.239545  0.752414  0.679265  1
  La  La6  1  0.251082  0.748327  0.500055  1
  La  La7  1  0.248915  0.248283  0.000059  1
  La  La8  1  0.260453  0.252384  0.179262  1
  La  La9  1  0.254159  0.265384  0.821528  1
  La  La10  1  0.745862  0.734600  0.178466  1
  La  La11  1  0.739533  0.747616  0.820739  1
  La  La12  1  0.751119  0.751690  0.999947  1
  La  La13  1  0.748938  0.251677  0.499947  1
  La  La14  1  0.760492  0.247625  0.320738  1
  La  La15  1  0.754166  0.234585  0.678466  1
  Mn  Mn16  1  0.247196  0.752895  0.095798  1
  Mn  Mn17  1  0.252826  0.252917  0.595801  1
  Mn  Mn18  1  0.747166  0.747114  0.404205  1
  Mn  Mn19  1  0.752836  0.247116  0.904198  1
  O  O20  1  0.996310  0.007373  0.893183  1
  O  O21  1  0.004392  0.492375  0.597101  1
  O  O22  1  0.003704  0.992648  0.106815  1
  O  O23  1  0.004673  0.507131  0.096903  1
  O  O24  1  0.993951  0.990549  0.412258  1
  O  O25  1  0.995606  0.507616  0.402896  1
  O  O26  1  0.006047  0.009462  0.587743  1
  O  O27  1  0.995330  0.492902  0.903087  1
  O  O28  1  0.219510  0.781397  0.004624  1
  O  O29  1  0.229136  0.229693  0.699542  1
  O  O30  1  0.219210  0.211666  0.291888  1
  O  O31  1  0.270840  0.729678  0.199527  1
  O  O32  1  0.280789  0.711661  0.791892  1
  O  O33  1  0.280535  0.281316  0.504625  1
  O  O34  1  0.503688  0.507364  0.393178  1
  O  O35  1  0.493949  0.509466  0.087736  1
  O  O36  1  0.504666  0.992886  0.403073  1
  O  O37  1  0.495615  0.992387  0.097111  1
  O  O38  1  0.495334  0.007105  0.596927  1
  O  O39  1  0.496308  0.492628  0.606822  1
  O  O40  1  0.504392  0.007613  0.902894  1
  O  O41  1  0.506037  0.490540  0.912264  1
  O  O42  1  0.719461  0.718688  0.495376  1
  O  O43  1  0.729141  0.270330  0.800467  1
  O  O44  1  0.719224  0.288365  0.208106  1
  O  O45  1  0.770849  0.770301  0.300458  1
  O  O46  1  0.780798  0.788352  0.708114  1
  O  O47  1  0.780519  0.218641  0.995384  1
