# generated using pymatgen
data_Fe6O11F
_symmetry_space_group_name_H-M   'P 1'
_cell_length_a   10.28695395
_cell_length_b   6.64653726
_cell_length_c   2.97686386
_cell_angle_alpha   90.00000000
_cell_angle_beta   90.00000000
_cell_angle_gamma   71.18666220
_symmetry_Int_Tables_number   1
_chemical_formula_structural   Fe6O11F
_chemical_formula_sum   'Fe6 O11 F1'
_cell_volume   192.66191952
_cell_formula_units_Z   1
loop_
 _symmetry_equiv_pos_site_id
 _symmetry_equiv_pos_as_xyz
  1  'x, y, z'
loop_
 _atom_site_type_symbol
 _atom_site_label
 _atom_site_symmetry_multiplicity
 _atom_site_fract_x
 _atom_site_fract_y
 _atom_site_fract_z
 _atom_site_occupancy
  Fe  Fe0  1  0.998653  0.001210  0.000000  1
  Fe  Fe1  1  0.999660  0.500565  0.500000  1
  Fe  Fe2  1  0.335011  0.333049  0.000000  1
  Fe  Fe3  1  0.666974  0.150717  0.500000  1
  Fe  Fe4  1  0.334183  0.833397  0.500000  1
  Fe  Fe5  1  0.665580  0.679567  0.000000  1
  O  O6  1  0.999733  0.311789  0.000000  1
  O  O7  1  0.333409  0.022640  0.000000  1
  O  O8  1  0.999514  0.688711  0.000000  1
  O  O9  1  0.208200  0.395984  0.500000  1
  O  O10  1  0.463580  0.269716  0.500000  1
  O  O11  1  0.126159  0.936687  0.500000  1
  O  O12  1  0.333253  0.644464  0.000000  1
  O  O13  1  0.870510  0.066490  0.500000  1
  O  O14  1  0.539570  0.727623  0.500000  1
  O  O15  1  0.793255  0.600090  0.500000  1
  O  O16  1  0.666342  0.974972  0.000000  1
  F  F17  1  0.666414  0.362328  0.000000  1
