# generated using pymatgen
data_LiMnP3HO10
_symmetry_space_group_name_H-M   'P 1'
_cell_length_a   6.25348033
_cell_length_b   6.25348033
_cell_length_c   6.50410513
_cell_angle_alpha   72.68492732
_cell_angle_beta   107.31507268
_cell_angle_gamma   94.14872858
_symmetry_Int_Tables_number   1
_chemical_formula_structural   LiMnP3HO10
_chemical_formula_sum   'Li1 Mn1 P3 H1 O10'
_cell_volume   231.78224745
_cell_formula_units_Z   1
loop_
 _symmetry_equiv_pos_site_id
 _symmetry_equiv_pos_as_xyz
  1  'x, y, z'
loop_
 _atom_site_type_symbol
 _atom_site_label
 _atom_site_symmetry_multiplicity
 _atom_site_fract_x
 _atom_site_fract_y
 _atom_site_fract_z
 _atom_site_occupancy
  Li  Li0  1  0.001199  0.001199  0.500000  1
  Mn  Mn1  1  0.664629  0.664629  0.000000  1
  P  P2  1  0.200410  0.554952  0.105166  1
  P  P3  1  0.571721  0.571721  0.500000  1
  P  P4  1  0.554952  0.200410  0.894834  1
  H  H5  1  0.239977  0.239977  0.000000  1
  O  O6  1  0.342924  0.672059  0.949629  1
  O  O7  1  0.682673  0.980216  0.982475  1
  O  O8  1  0.598209  0.729158  0.640353  1
  O  O9  1  0.311943  0.593618  0.350668  1
  O  O10  1  0.299104  0.190137  0.856556  1
  O  O11  1  0.190137  0.299104  0.143444  1
  O  O12  1  0.593618  0.311943  0.649332  1
  O  O13  1  0.729158  0.598209  0.359647  1
  O  O14  1  0.980216  0.682673  0.017525  1
  O  O15  1  0.672059  0.342924  0.050371  1
