# generated using pymatgen
data_Hf3N2O3
_symmetry_space_group_name_H-M   'P 1'
_cell_length_a   4.04943198
_cell_length_b   5.62843796
_cell_length_c   10.57302350
_cell_angle_alpha   90.29346859
_cell_angle_beta   90.00000000
_cell_angle_gamma   111.08359353
_symmetry_Int_Tables_number   1
_chemical_formula_structural   Hf3N2O3
_chemical_formula_sum   'Hf6 N4 O6'
_cell_volume   224.84468509
_cell_formula_units_Z   2
loop_
 _symmetry_equiv_pos_site_id
 _symmetry_equiv_pos_as_xyz
  1  'x, y, z'
loop_
 _atom_site_type_symbol
 _atom_site_label
 _atom_site_symmetry_multiplicity
 _atom_site_fract_x
 _atom_site_fract_y
 _atom_site_fract_z
 _atom_site_occupancy
  Hf  Hf0  1  0.145462  0.290924  0.565436  1
  Hf  Hf1  1  0.146867  0.293734  0.937276  1
  Hf  Hf2  1  0.193104  0.386208  0.248087  1
  Hf  Hf3  1  0.807540  0.615081  0.756537  1
  Hf  Hf4  1  0.857932  0.715863  0.058531  1
  Hf  Hf5  1  0.861932  0.723862  0.437672  1
  N  N6  1  0.299633  0.599266  0.426629  1
  N  N7  1  0.303122  0.606243  0.080831  1
  N  N8  1  0.237641  0.475283  0.744496  1
  N  N9  1  0.700957  0.401915  0.925635  1
  O  O10  1  0.045406  0.090811  0.117047  1
  O  O11  1  0.043028  0.086056  0.381420  1
  O  O12  1  0.953280  0.906560  0.612621  1
  O  O13  1  0.955954  0.911909  0.884237  1
  O  O14  1  0.693106  0.386211  0.571199  1
  O  O15  1  0.755037  0.510074  0.252347  1
