# generated using pymatgen
data_LiV2P4(HO8)2
_symmetry_space_group_name_H-M   'P 1'
_cell_length_a   9.75632687
_cell_length_b   7.89122695
_cell_length_c   7.75770001
_cell_angle_alpha   90.00000000
_cell_angle_beta   66.78340498
_cell_angle_gamma   90.00000000
_symmetry_Int_Tables_number   1
_chemical_formula_structural   LiV2P4(HO8)2
_chemical_formula_sum   'Li2 V4 P8 H4 O32'
_cell_volume   548.89514258
_cell_formula_units_Z   2
loop_
 _symmetry_equiv_pos_site_id
 _symmetry_equiv_pos_as_xyz
  1  'x, y, z'
loop_
 _atom_site_type_symbol
 _atom_site_label
 _atom_site_symmetry_multiplicity
 _atom_site_fract_x
 _atom_site_fract_y
 _atom_site_fract_z
 _atom_site_occupancy
  Li  Li0  1  0.273854  0.869226  0.848912  1
  Li  Li1  1  0.726146  0.369226  0.651088  1
  V  V2  1  0.247262  0.495063  0.004729  1
  V  V3  1  0.251232  0.006887  0.487409  1
  V  V4  1  0.748768  0.506887  0.012591  1
  V  V5  1  0.752738  0.995063  0.495271  1
  P  P6  1  0.069103  0.845087  0.232634  1
  P  P7  1  0.071668  0.650372  0.733710  1
  P  P8  1  0.429896  0.358950  0.272768  1
  P  P9  1  0.570104  0.858950  0.227232  1
  P  P10  1  0.431246  0.156092  0.762126  1
  P  P11  1  0.568754  0.656092  0.737874  1
  P  P12  1  0.930897  0.345087  0.267366  1
  P  P13  1  0.928332  0.150372  0.766290  1
  H  H14  1  0.012405  0.511528  0.509412  1
  H  H15  1  0.510812  0.506752  0.514490  1
  H  H16  1  0.489188  0.006752  0.985510  1
  H  H17  1  0.987595  0.011528  0.990588  1
  O  O18  1  0.095344  0.943155  0.054199  1
  O  O19  1  0.096414  0.328093  0.135872  1
  O  O20  1  0.142013  0.670237  0.186944  1
  O  O21  1  0.145622  0.944163  0.351810  1
  O  O22  1  0.096345  0.555468  0.551453  1
  O  O23  1  0.098773  0.162975  0.638789  1
  O  O24  1  0.146591  0.827757  0.684805  1
  O  O25  1  0.145529  0.557012  0.849285  1
  O  O26  1  0.352729  0.441828  0.155175  1
  O  O27  1  0.360428  0.174077  0.324534  1
  O  O28  1  0.401144  0.840536  0.361455  1
  O  O29  1  0.408906  0.451561  0.450055  1
  O  O30  1  0.354166  0.052719  0.653296  1
  O  O31  1  0.360739  0.330252  0.816826  1
  O  O32  1  0.591094  0.951561  0.049945  1
  O  O33  1  0.598856  0.340536  0.138545  1
  O  O34  1  0.400482  0.675335  0.860653  1
  O  O35  1  0.402431  0.047609  0.940041  1
  O  O36  1  0.639572  0.674077  0.175466  1
  O  O37  1  0.647271  0.941828  0.344825  1
  O  O38  1  0.597569  0.547609  0.559959  1
  O  O39  1  0.599518  0.175335  0.639347  1
  O  O40  1  0.639261  0.830252  0.683174  1
  O  O41  1  0.645834  0.552719  0.846704  1
  O  O42  1  0.854378  0.444163  0.148190  1
  O  O43  1  0.857987  0.170237  0.313056  1
  O  O44  1  0.903586  0.828093  0.364128  1
  O  O45  1  0.904656  0.443155  0.445801  1
  O  O46  1  0.854471  0.057012  0.650715  1
  O  O47  1  0.853409  0.327757  0.815195  1
  O  O48  1  0.901227  0.662975  0.861211  1
  O  O49  1  0.903655  0.055468  0.948547  1
