# generated using pymatgen
data_Li5V2Ni5O12
_symmetry_space_group_name_H-M   'P 1'
_cell_length_a   5.13140867
_cell_length_b   5.13140821
_cell_length_c   9.78248380
_cell_angle_alpha   84.60836391
_cell_angle_beta   95.39163761
_cell_angle_gamma   58.73572499
_symmetry_Int_Tables_number   1
_chemical_formula_structural   Li5V2Ni5O12
_chemical_formula_sum   'Li5 V2 Ni5 O12'
_cell_volume   216.10084585
_cell_formula_units_Z   1
loop_
 _symmetry_equiv_pos_site_id
 _symmetry_equiv_pos_as_xyz
  1  'x, y, z'
loop_
 _atom_site_type_symbol
 _atom_site_label
 _atom_site_symmetry_multiplicity
 _atom_site_fract_x
 _atom_site_fract_y
 _atom_site_fract_z
 _atom_site_occupancy
  Li  Li0  1  0.167453  0.674571  0.502679  1
  Li  Li1  1  0.325800  0.831370  0.995460  1
  Li  Li2  1  0.674571  0.167453  0.997321  1
  Li  Li3  1  0.831370  0.325800  0.504540  1
  Li  Li4  1  0.920609  0.920609  0.750000  1
  V  V5  1  0.252751  0.252751  0.750000  1
  V  V6  1  0.747869  0.747869  0.250000  1
  Ni  Ni7  1  0.078744  0.078744  0.250000  1
  Ni  Ni8  1  0.996275  0.506689  0.996822  1
  Ni  Ni9  1  0.506689  0.996275  0.503178  1
  Ni  Ni10  1  0.418552  0.418552  0.250000  1
  Ni  Ni11  1  0.581786  0.581786  0.750000  1
  O  O12  1  0.982237  0.219054  0.866328  1
  O  O13  1  0.219054  0.982237  0.633672  1
  O  O14  1  0.104983  0.392579  0.365093  1
  O  O15  1  0.392579  0.104983  0.134907  1
  O  O16  1  0.291894  0.515455  0.865596  1
  O  O17  1  0.515455  0.291894  0.634404  1
  O  O18  1  0.472669  0.710750  0.371877  1
  O  O19  1  0.710750  0.472669  0.128123  1
  O  O20  1  0.599269  0.896771  0.864960  1
  O  O21  1  0.896771  0.599269  0.635040  1
  O  O22  1  0.786879  0.024987  0.371608  1
  O  O23  1  0.024987  0.786879  0.128392  1
