# generated using pymatgen
data_Li8MnFe7(BO3)8
_symmetry_space_group_name_H-M   'P 1'
_cell_length_a   6.01245714
_cell_length_b   10.46062529
_cell_length_c   8.18898606
_cell_angle_alpha   89.90828622
_cell_angle_beta   77.12311591
_cell_angle_gamma   89.24661195
_symmetry_Int_Tables_number   1
_chemical_formula_structural   Li8MnFe7(BO3)8
_chemical_formula_sum   'Li8 Mn1 Fe7 B8 O24'
_cell_volume   502.04210884
_cell_formula_units_Z   1
loop_
 _symmetry_equiv_pos_site_id
 _symmetry_equiv_pos_as_xyz
  1  'x, y, z'
loop_
 _atom_site_type_symbol
 _atom_site_label
 _atom_site_symmetry_multiplicity
 _atom_site_fract_x
 _atom_site_fract_y
 _atom_site_fract_z
 _atom_site_occupancy
  Li  Li0  1  0.043987  0.324729  0.280998  1
  Li  Li1  1  0.043531  0.826995  0.279926  1
  Li  Li2  1  0.455363  0.425237  0.219824  1
  Li  Li3  1  0.455154  0.924221  0.220830  1
  Li  Li4  1  0.543359  0.074873  0.781345  1
  Li  Li5  1  0.544635  0.574633  0.778406  1
  Li  Li6  1  0.955145  0.174248  0.719681  1
  Li  Li7  1  0.956250  0.675152  0.719758  1
  Mn  Mn8  1  0.814650  0.585888  0.419573  1
  Fe  Fe9  1  0.186000  0.410537  0.578150  1
  Fe  Fe10  1  0.183988  0.917802  0.579573  1
  Fe  Fe11  1  0.313126  0.336796  0.923689  1
  Fe  Fe12  1  0.315007  0.833419  0.922914  1
  Fe  Fe13  1  0.684637  0.165639  0.076002  1
  Fe  Fe14  1  0.684545  0.664839  0.074913  1
  Fe  Fe15  1  0.814260  0.087764  0.419792  1
  B  B16  1  0.167546  0.086392  0.092327  1
  B  B17  1  0.167486  0.586273  0.091003  1
  B  B18  1  0.335455  0.164131  0.405973  1
  B  B19  1  0.331314  0.664562  0.406705  1
  B  B20  1  0.668024  0.333254  0.594093  1
  B  B21  1  0.665025  0.836516  0.595170  1
  B  B22  1  0.833803  0.414864  0.907489  1
  B  B23  1  0.833555  0.913977  0.907664  1
  O  O24  1  0.178450  0.455187  0.115294  1
  O  O25  1  0.180485  0.955894  0.114513  1
  O  O26  1  0.013618  0.343661  0.810151  1
  O  O27  1  0.014059  0.842895  0.811235  1
  O  O28  1  0.163574  0.103224  0.521500  1
  O  O29  1  0.161226  0.601684  0.521059  1
  O  O30  1  0.323283  0.295266  0.383286  1
  O  O31  1  0.318519  0.794774  0.384263  1
  O  O32  1  0.514184  0.092799  0.309366  1
  O  O33  1  0.511683  0.593091  0.308303  1
  O  O34  1  0.663353  0.353510  0.023407  1
  O  O35  1  0.338992  0.148802  0.978741  1
  O  O36  1  0.660944  0.853148  0.022415  1
  O  O37  1  0.340177  0.646155  0.975866  1
  O  O38  1  0.487950  0.404627  0.689731  1
  O  O39  1  0.484071  0.908878  0.690300  1
  O  O40  1  0.677952  0.201535  0.616660  1
  O  O41  1  0.676326  0.705869  0.622478  1
  O  O42  1  0.841381  0.393817  0.481009  1
  O  O43  1  0.837359  0.896307  0.479608  1
  O  O44  1  0.986138  0.156875  0.189861  1
  O  O45  1  0.988390  0.658803  0.185597  1
  O  O46  1  0.820740  0.045194  0.885292  1
  O  O47  1  0.821301  0.545259  0.884269  1
