# generated using pymatgen
data_Na4Ti11O24
_symmetry_space_group_name_H-M   'P 1'
_cell_length_a   6.15520899
_cell_length_b   10.50394866
_cell_length_c   8.76497492
_cell_angle_alpha   66.07108832
_cell_angle_beta   92.28588135
_cell_angle_gamma   73.95213228
_symmetry_Int_Tables_number   1
_chemical_formula_structural   Na4Ti11O24
_chemical_formula_sum   'Na4 Ti11 O24'
_cell_volume   490.28794272
_cell_formula_units_Z   1
loop_
 _symmetry_equiv_pos_site_id
 _symmetry_equiv_pos_as_xyz
  1  'x, y, z'
loop_
 _atom_site_type_symbol
 _atom_site_label
 _atom_site_symmetry_multiplicity
 _atom_site_fract_x
 _atom_site_fract_y
 _atom_site_fract_z
 _atom_site_occupancy
  Na  Na0  1  0.511322  0.010236  0.742463  1
  Na  Na1  1  0.188337  0.656514  0.419269  1
  Na  Na2  1  0.583491  0.333333  0.709142  1
  Na  Na3  1  0.820083  0.333431  0.091880  1
  Ti  Ti4  1  0.076570  0.332980  0.707021  1
  Ti  Ti5  1  0.232404  0.497045  0.875649  1
  Ti  Ti6  1  0.083760  0.831525  0.709993  1
  Ti  Ti7  1  0.396119  0.170034  0.039569  1
  Ti  Ti8  1  0.255903  0.994264  0.376723  1
  Ti  Ti9  1  0.410963  0.670761  0.038409  1
  Ti  Ti10  1  0.581958  0.835261  0.207999  1
  Ti  Ti11  1  0.931805  0.172703  0.539029  1
  Ti  Ti12  1  0.771194  0.493923  0.378745  1
  Ti  Ti13  1  0.748082  0.996188  0.375643  1
  Ti  Ti14  1  0.917287  0.671976  0.038101  1
  O  O15  1  0.091159  0.333323  0.940869  1
  O  O16  1  0.077761  0.333197  0.476626  1
  O  O17  1  0.227355  0.485529  0.673301  1
  O  O18  1  0.379652  0.181265  0.825510  1
  O  O19  1  0.099911  0.820291  0.942379  1
  O  O20  1  0.067367  0.847425  0.473956  1
  O  O21  1  0.427159  0.129404  0.306726  1
  O  O22  1  0.223285  0.537426  0.103034  1
  O  O23  1  0.500486  0.333398  0.985923  1
  O  O24  1  0.372054  0.662492  0.817296  1
  O  O25  1  0.228560  0.989417  0.605476  1
  O  O26  1  0.701248  0.004226  0.146468  1
  O  O27  1  0.280642  0.989220  0.154772  1
  O  O28  1  0.795423  0.003145  0.599626  1
  O  O29  1  0.465339  0.663509  0.269434  1
  O  O30  1  0.663678  0.333302  0.427616  1
  O  O31  1  0.581202  0.819460  0.988166  1
  O  O32  1  0.586767  0.846510  0.429378  1
  O  O33  1  0.941280  0.179804  0.745127  1
  O  O34  1  0.787801  0.486696  0.591740  1
  O  O35  1  0.944714  0.128043  0.317070  1
  O  O36  1  0.739322  0.538821  0.111500  1
  O  O37  1  0.884699  0.677075  0.261729  1
  O  O38  1  0.936710  0.677304  0.810734  1
