# generated using pymatgen
data_Li3V5Cr2O12
_symmetry_space_group_name_H-M   'P 1'
_cell_length_a   5.12154728
_cell_length_b   5.23131340
_cell_length_c   9.95373381
_cell_angle_alpha   84.19339124
_cell_angle_beta   101.92778926
_cell_angle_gamma   119.30829240
_symmetry_Int_Tables_number   1
_chemical_formula_structural   Li3V5Cr2O12
_chemical_formula_sum   'Li3 V5 Cr2 O12'
_cell_volume   227.52757026
_cell_formula_units_Z   1
loop_
 _symmetry_equiv_pos_site_id
 _symmetry_equiv_pos_as_xyz
  1  'x, y, z'
loop_
 _atom_site_type_symbol
 _atom_site_label
 _atom_site_symmetry_multiplicity
 _atom_site_fract_x
 _atom_site_fract_y
 _atom_site_fract_z
 _atom_site_occupancy
  Li  Li0  1  0.318576  0.160197  0.987218  1
  Li  Li1  1  0.841621  0.160197  0.512782  1
  Li  Li2  1  0.922143  0.844285  0.750000  1
  V  V3  1  0.999522  0.515410  0.986142  1
  V  V4  1  0.082449  0.164897  0.250000  1
  V  V5  1  0.568230  0.136462  0.750000  1
  V  V6  1  0.515888  0.515410  0.513858  1
  V  V7  1  0.424063  0.848127  0.250000  1
  Cr  Cr8  1  0.248163  0.496327  0.750000  1
  Cr  Cr9  1  0.757195  0.514391  0.250000  1
  O  O10  1  0.224566  0.203838  0.630231  1
  O  O11  1  0.143493  0.502545  0.362928  1
  O  O12  1  0.477914  0.203381  0.362765  1
  O  O13  1  0.612460  0.450041  0.867199  1
  O  O14  1  0.268283  0.808160  0.867063  1
  O  O15  1  0.047916  0.830011  0.136850  1
  O  O16  1  0.979272  0.203838  0.869769  1
  O  O17  1  0.359053  0.502545  0.137072  1
  O  O18  1  0.725467  0.203381  0.137235  1
  O  O19  1  0.837581  0.450041  0.632801  1
  O  O20  1  0.539878  0.808160  0.632937  1
  O  O21  1  0.782095  0.830011  0.363150  1
