# generated using pymatgen
data_Zr2N2O
_symmetry_space_group_name_H-M   'P 1'
_cell_length_a   8.87927359
_cell_length_b   8.87558464
_cell_length_c   8.88080152
_cell_angle_alpha   109.60124919
_cell_angle_beta   109.44376151
_cell_angle_gamma   109.35556817
_symmetry_Int_Tables_number   1
_chemical_formula_structural   Zr2N2O
_chemical_formula_sum   'Zr16 N16 O8'
_cell_volume   538.85664899
_cell_formula_units_Z   8
loop_
 _symmetry_equiv_pos_site_id
 _symmetry_equiv_pos_as_xyz
  1  'x, y, z'
loop_
 _atom_site_type_symbol
 _atom_site_label
 _atom_site_symmetry_multiplicity
 _atom_site_fract_x
 _atom_site_fract_y
 _atom_site_fract_z
 _atom_site_occupancy
  Zr  Zr0  1  0.777211  0.245406  0.033180  1
  Zr  Zr1  1  0.989347  0.990036  0.996655  1
  Zr  Zr2  1  0.535657  0.285858  0.244345  1
  Zr  Zr3  1  0.490959  0.993969  0.502500  1
  Zr  Zr4  1  0.491788  0.486284  0.989794  1
  Zr  Zr5  1  0.961978  0.211626  0.750455  1
  Zr  Zr6  1  0.752164  0.462042  0.721256  1
  Zr  Zr7  1  0.757543  0.975665  0.210795  1
  Zr  Zr8  1  0.713846  0.751696  0.468437  1
  Zr  Zr9  1  0.284905  0.254891  0.541382  1
  Zr  Zr10  1  0.263302  0.542501  0.290407  1
  Zr  Zr11  1  0.246752  0.032979  0.778997  1
  Zr  Zr12  1  0.012580  0.500421  0.509472  1
  Zr  Zr13  1  0.462574  0.712418  0.745606  1
  Zr  Zr14  1  0.041121  0.791147  0.250017  1
  Zr  Zr15  1  0.205630  0.741022  0.958657  1
  N  N16  1  0.761603  0.228553  0.276045  1
  N  N17  1  0.456244  0.488366  0.228721  1
  N  N18  1  0.032189  0.043605  0.270930  1
  N  N19  1  0.728450  0.238943  0.771275  1
  N  N20  1  0.964641  0.953714  0.727262  1
  N  N21  1  0.224610  0.454601  0.484176  1
  N  N22  1  0.533013  0.261182  0.989057  1
  N  N23  1  0.274493  0.762740  0.227719  1
  N  N24  1  0.545751  0.510541  0.773867  1
  N  N25  1  0.957536  0.730039  0.964424  1
  N  N26  1  0.515675  0.777034  0.547466  1
  N  N27  1  0.227070  0.277173  0.763720  1
  N  N28  1  0.011553  0.465122  0.736259  1
  N  N29  1  0.729207  0.968230  0.955221  1
  N  N30  1  0.263870  0.990961  0.533997  1
  N  N31  1  0.238989  0.772765  0.731230  1
  O  O32  1  0.738791  0.007593  0.463916  1
  O  O33  1  0.275316  0.039634  0.051940  1
  O  O34  1  0.984037  0.534203  0.257949  1
  O  O35  1  0.490895  0.227394  0.451672  1
  O  O36  1  0.773647  0.729591  0.242320  1
  O  O37  1  0.045536  0.275402  0.034494  1
  O  O38  1  0.768941  0.543265  0.508487  1
  O  O39  1  0.470588  0.741383  0.015897  1
