# generated using pymatgen
data_Li2Mn3(BO3)3
_symmetry_space_group_name_H-M   'P 1'
_cell_length_a   12.86381966
_cell_length_b   5.25880660
_cell_length_c   6.13532198
_cell_angle_alpha   64.70409921
_cell_angle_beta   85.90151252
_cell_angle_gamma   89.24197248
_symmetry_Int_Tables_number   1
_chemical_formula_structural   Li2Mn3(BO3)3
_chemical_formula_sum   'Li4 Mn6 B6 O18'
_cell_volume   374.21845484
_cell_formula_units_Z   2
loop_
 _symmetry_equiv_pos_site_id
 _symmetry_equiv_pos_as_xyz
  1  'x, y, z'
loop_
 _atom_site_type_symbol
 _atom_site_label
 _atom_site_symmetry_multiplicity
 _atom_site_fract_x
 _atom_site_fract_y
 _atom_site_fract_z
 _atom_site_occupancy
  Li  Li0  1  0.254720  0.131637  0.058808  1
  Li  Li1  1  0.411946  0.201696  0.274525  1
  Li  Li2  1  0.928304  0.454786  0.410150  1
  Li  Li3  1  0.738363  0.878548  0.923184  1
  Mn  Mn4  1  0.131662  0.626859  0.118731  1
  Mn  Mn5  1  0.189501  0.036719  0.560499  1
  Mn  Mn6  1  0.535005  0.706474  0.214602  1
  Mn  Mn7  1  0.477166  0.296614  0.772834  1
  Mn  Mn8  1  0.796074  0.955939  0.444966  1
  Mn  Mn9  1  0.870593  0.377395  0.888367  1
  B  B10  1  0.022698  0.059943  0.229261  1
  B  B11  1  0.310790  0.620131  0.411679  1
  B  B12  1  0.643969  0.273390  0.104073  1
  B  B13  1  0.355877  0.713202  0.921654  1
  B  B14  1  0.694130  0.398804  0.548684  1
  B  B15  1  0.972537  0.934530  0.784649  1
  O  O16  1  0.017275  0.787940  0.252805  1
  O  O17  1  0.118750  0.194034  0.204764  1
  O  O18  1  0.066786  0.782716  0.809024  1
  O  O19  1  0.219170  0.481709  0.406372  1
  O  O20  1  0.311370  0.890231  0.389238  1
  O  O21  1  0.404043  0.471734  0.427697  1
  O  O22  1  0.547916  0.139299  0.128569  1
  O  O23  1  0.262624  0.861600  0.905636  1
  O  O24  1  0.649392  0.545393  0.080528  1
  O  O25  1  0.355297  0.443102  0.944095  1
  O  O26  1  0.735013  0.133585  0.090919  1
  O  O27  1  0.447497  0.851624  0.926962  1
  O  O28  1  0.599881  0.550618  0.524310  1
  O  O29  1  0.687619  0.119929  0.607497  1
  O  O30  1  0.788661  0.532593  0.532523  1
  O  O31  1  0.931654  0.199748  0.242414  1
  O  O32  1  0.878006  0.800741  0.800811  1
  O  O33  1  0.979047  0.213404  0.725837  1
