# generated using pymatgen
data_NaGa5O8
_symmetry_space_group_name_H-M   'P 1'
_cell_length_a   5.99963749
_cell_length_b   11.72757395
_cell_length_c   5.99982793
_cell_angle_alpha   104.81141679
_cell_angle_beta   59.99904088
_cell_angle_gamma   104.81097915
_symmetry_Int_Tables_number   1
_chemical_formula_structural   NaGa5O8
_chemical_formula_sum   'Na2 Ga10 O16'
_cell_volume   349.30321160
_cell_formula_units_Z   2
loop_
 _symmetry_equiv_pos_site_id
 _symmetry_equiv_pos_as_xyz
  1  'x, y, z'
loop_
 _atom_site_type_symbol
 _atom_site_label
 _atom_site_symmetry_multiplicity
 _atom_site_fract_x
 _atom_site_fract_y
 _atom_site_fract_z
 _atom_site_occupancy
  Na  Na0  1  0.345214  0.035682  0.345149  1
  Na  Na1  1  0.825309  0.475926  0.825338  1
  Ga  Ga2  1  0.092700  0.772939  0.092748  1
  Ga  Ga3  1  0.004279  0.013006  0.004223  1
  Ga  Ga4  1  0.092730  0.772963  0.587570  1
  Ga  Ga5  1  0.587574  0.772969  0.092763  1
  Ga  Ga6  1  0.652638  0.957937  0.652603  1
  Ga  Ga7  1  0.431246  0.293404  0.431185  1
  Ga  Ga8  1  0.556784  0.670031  0.556689  1
  Ga  Ga9  1  0.397529  0.228458  0.915495  1
  Ga  Ga10  1  0.915510  0.228450  0.397529  1
  Ga  Ga11  1  0.915535  0.228559  0.915489  1
  O  O12  1  0.283824  0.851578  0.283827  1
  O  O13  1  0.106991  0.320859  0.106984  1
  O  O14  1  0.281098  0.892469  0.805575  1
  O  O15  1  0.190785  0.122966  0.190756  1
  O  O16  1  0.387749  0.676899  0.387762  1
  O  O17  1  0.092505  0.319838  0.613633  1
  O  O18  1  0.613671  0.319841  0.092441  1
  O  O19  1  0.805580  0.892473  0.281079  1
  O  O20  1  0.190846  0.123064  0.741218  1
  O  O21  1  0.387709  0.676900  0.901631  1
  O  O22  1  0.901469  0.676898  0.387797  1
  O  O23  1  0.613774  0.319842  0.613754  1
  O  O24  1  0.741264  0.123071  0.190807  1
  O  O25  1  0.805633  0.892435  0.805614  1
  O  O26  1  0.898639  0.695793  0.898639  1
  O  O27  1  0.708059  0.124220  0.708040  1
