# generated using pymatgen
data_Li2VF6
_symmetry_space_group_name_H-M   'P 1'
_cell_length_a   8.70751178
_cell_length_b   8.56498334
_cell_length_c   10.21038690
_cell_angle_alpha   85.60554758
_cell_angle_beta   93.76841554
_cell_angle_gamma   118.21770978
_symmetry_Int_Tables_number   1
_chemical_formula_structural   Li2VF6
_chemical_formula_sum   'Li12 V6 F36'
_cell_volume   668.64061614
_cell_formula_units_Z   6
loop_
 _symmetry_equiv_pos_site_id
 _symmetry_equiv_pos_as_xyz
  1  'x, y, z'
loop_
 _atom_site_type_symbol
 _atom_site_label
 _atom_site_symmetry_multiplicity
 _atom_site_fract_x
 _atom_site_fract_y
 _atom_site_fract_z
 _atom_site_occupancy
  Li  Li0  1  0.008876  0.301780  0.724529  1
  Li  Li1  1  0.346068  0.947103  0.433473  1
  Li  Li2  1  0.549751  0.891828  0.957158  1
  Li  Li3  1  0.329816  0.358779  0.967878  1
  Li  Li4  1  0.200799  0.197502  0.255906  1
  Li  Li5  1  0.284455  0.006840  0.776192  1
  Li  Li6  1  0.622133  0.665045  0.467213  1
  Li  Li7  1  0.676637  0.635140  0.031055  1
  Li  Li8  1  0.895553  0.543378  0.546178  1
  Li  Li9  1  0.656617  0.056743  0.566346  1
  Li  Li10  1  0.994587  0.699552  0.268501  1
  Li  Li11  1  0.950308  0.355230  0.064946  1
  V  V12  1  0.998703  0.000839  0.502024  1
  V  V13  1  0.337061  0.664678  0.709427  1
  V  V14  1  0.993254  0.990577  0.993751  1
  V  V15  1  0.333869  0.661695  0.207296  1
  V  V16  1  0.664713  0.338303  0.794763  1
  V  V17  1  0.660562  0.334585  0.291032  1
  F  F18  1  0.081685  0.928417  0.652385  1
  F  F19  1  0.066824  0.933677  0.157485  1
  F  F20  1  0.109055  0.571543  0.628476  1
  F  F21  1  0.108959  0.578977  0.121411  1
  F  F22  1  0.270619  0.774230  0.826851  1
  F  F23  1  0.236975  0.750959  0.328800  1
  F  F24  1  0.061622  0.214677  0.576761  1
  F  F25  1  0.417413  0.890866  0.605311  1
  F  F26  1  0.244435  0.443884  0.809192  1
  F  F27  1  0.090612  0.230638  0.065692  1
  F  F28  1  0.414307  0.869977  0.108321  1
  F  F29  1  0.254894  0.441428  0.290242  1
  F  F30  1  0.422347  0.593139  0.583084  1
  F  F31  1  0.220710  0.084324  0.925894  1
  F  F32  1  0.547341  0.752602  0.811023  1
  F  F33  1  0.428435  0.583705  0.071588  1
  F  F34  1  0.222631  0.076686  0.426427  1
  F  F35  1  0.540017  0.738869  0.310835  1
  F  F36  1  0.451180  0.241718  0.702014  1
  F  F37  1  0.763160  0.910343  0.551953  1
  F  F38  1  0.575612  0.422723  0.922526  1
  F  F39  1  0.439459  0.256367  0.206024  1
  F  F40  1  0.761188  0.907093  0.049696  1
  F  F41  1  0.598082  0.434946  0.418487  1
  F  F42  1  0.744211  0.543680  0.689085  1
  F  F43  1  0.578813  0.111598  0.879147  1
  F  F44  1  0.914636  0.763077  0.944600  1
  F  F45  1  0.756178  0.558997  0.191461  1
  F  F46  1  0.580084  0.117073  0.397070  1
  F  F47  1  0.918400  0.761180  0.439306  1
  F  F48  1  0.769074  0.261630  0.664334  1
  F  F49  1  0.743314  0.250138  0.169994  1
  F  F50  1  0.872383  0.395656  0.892543  1
  F  F51  1  0.881886  0.431751  0.383895  1
  F  F52  1  0.932462  0.085491  0.845244  1
  F  F53  1  0.947145  0.076078  0.342810  1
