# generated using pymatgen
data_Ba2YCl7
_symmetry_space_group_name_H-M   'P 1'
_cell_length_a   10.66335994
_cell_length_b   15.75084365
_cell_length_c   6.92948645
_cell_angle_alpha   90.00000000
_cell_angle_beta   90.72569087
_cell_angle_gamma   90.00000000
_symmetry_Int_Tables_number   1
_chemical_formula_structural   Ba2YCl7
_chemical_formula_sum   'Ba8 Y4 Cl28'
_cell_volume   1163.76181645
_cell_formula_units_Z   4
loop_
 _symmetry_equiv_pos_site_id
 _symmetry_equiv_pos_as_xyz
  1  'x, y, z'
loop_
 _atom_site_type_symbol
 _atom_site_label
 _atom_site_symmetry_multiplicity
 _atom_site_fract_x
 _atom_site_fract_y
 _atom_site_fract_z
 _atom_site_occupancy
  Ba  Ba0  1  0.049079  0.220186  0.265389  1
  Ba  Ba1  1  0.176351  0.560796  0.265814  1
  Ba  Ba2  1  0.323649  0.060796  0.734186  1
  Ba  Ba3  1  0.450921  0.720186  0.734611  1
  Ba  Ba4  1  0.549079  0.279814  0.265389  1
  Ba  Ba5  1  0.676351  0.939204  0.265814  1
  Ba  Ba6  1  0.823649  0.439204  0.734186  1
  Ba  Ba7  1  0.950921  0.779814  0.734611  1
  Y  Y8  1  0.217995  0.873115  0.217235  1
  Y  Y9  1  0.282005  0.373115  0.782765  1
  Y  Y10  1  0.717995  0.626885  0.217235  1
  Y  Y11  1  0.782005  0.126885  0.782765  1
  Cl  Cl12  1  0.028121  0.139749  0.708797  1
  Cl  Cl13  1  0.071406  0.395643  0.000080  1
  Cl  Cl14  1  0.086027  0.395164  0.513076  1
  Cl  Cl15  1  0.123896  0.929147  0.871021  1
  Cl  Cl16  1  0.198161  0.742752  0.488522  1
  Cl  Cl17  1  0.205283  0.727774  0.001230  1
  Cl  Cl18  1  0.213032  0.040121  0.294988  1
  Cl  Cl19  1  0.286968  0.540121  0.705012  1
  Cl  Cl20  1  0.294717  0.227774  0.998770  1
  Cl  Cl21  1  0.301839  0.242752  0.511478  1
  Cl  Cl22  1  0.376104  0.429147  0.128979  1
  Cl  Cl23  1  0.413973  0.895164  0.486924  1
  Cl  Cl24  1  0.428594  0.895643  0.999920  1
  Cl  Cl25  1  0.471879  0.639749  0.291203  1
  Cl  Cl26  1  0.528121  0.360251  0.708797  1
  Cl  Cl27  1  0.571406  0.104357  0.000080  1
  Cl  Cl28  1  0.586027  0.104836  0.513076  1
  Cl  Cl29  1  0.623896  0.570853  0.871021  1
  Cl  Cl30  1  0.698161  0.757248  0.488522  1
  Cl  Cl31  1  0.705283  0.772226  0.001230  1
  Cl  Cl32  1  0.713032  0.459879  0.294988  1
  Cl  Cl33  1  0.786968  0.959879  0.705012  1
  Cl  Cl34  1  0.794717  0.272226  0.998770  1
  Cl  Cl35  1  0.801839  0.257248  0.511478  1
  Cl  Cl36  1  0.876104  0.070853  0.128979  1
  Cl  Cl37  1  0.913973  0.604836  0.486924  1
  Cl  Cl38  1  0.928594  0.604357  0.999920  1
  Cl  Cl39  1  0.971879  0.860251  0.291203  1
