# generated using pymatgen
data_Bi3O4F
_symmetry_space_group_name_H-M   'P 1'
_cell_length_a   9.08894947
_cell_length_b   5.85408164
_cell_length_c   5.76543756
_cell_angle_alpha   90.00000000
_cell_angle_beta   80.93159823
_cell_angle_gamma   90.00000000
_symmetry_Int_Tables_number   1
_chemical_formula_structural   Bi3O4F
_chemical_formula_sum   'Bi6 O8 F2'
_cell_volume   302.92996052
_cell_formula_units_Z   2
loop_
 _symmetry_equiv_pos_site_id
 _symmetry_equiv_pos_as_xyz
  1  'x, y, z'
loop_
 _atom_site_type_symbol
 _atom_site_label
 _atom_site_symmetry_multiplicity
 _atom_site_fract_x
 _atom_site_fract_y
 _atom_site_fract_z
 _atom_site_occupancy
  Bi  Bi0  1  0.193060  0.299611  0.861921  1
  Bi  Bi1  1  0.193060  0.700389  0.361921  1
  Bi  Bi2  1  0.500000  0.803037  0.750000  1
  Bi  Bi3  1  0.500000  0.196963  0.250000  1
  Bi  Bi4  1  0.806940  0.299611  0.638079  1
  Bi  Bi5  1  0.806940  0.700389  0.138079  1
  O  O6  1  0.300375  0.437588  0.528454  1
  O  O7  1  0.300375  0.562412  0.028454  1
  O  O8  1  0.362104  0.075838  0.958412  1
  O  O9  1  0.362104  0.924162  0.458412  1
  O  O10  1  0.637896  0.075838  0.541588  1
  O  O11  1  0.637896  0.924162  0.041588  1
  O  O12  1  0.699625  0.437588  0.971546  1
  O  O13  1  0.699625  0.562412  0.471546  1
  F  F14  1  0.000000  0.622604  0.750000  1
  F  F15  1  0.000000  0.377396  0.250000  1
