# generated using pymatgen
data_Li5Fe8(BO3)8
_symmetry_space_group_name_H-M   'P 1'
_cell_length_a   5.22928225
_cell_length_b   9.13762405
_cell_length_c   10.09870077
_cell_angle_alpha   91.23788642
_cell_angle_beta   91.37343386
_cell_angle_gamma   89.26527041
_symmetry_Int_Tables_number   1
_chemical_formula_structural   Li5Fe8(BO3)8
_chemical_formula_sum   'Li5 Fe8 B8 O24'
_cell_volume   482.26062075
_cell_formula_units_Z   1
loop_
 _symmetry_equiv_pos_site_id
 _symmetry_equiv_pos_as_xyz
  1  'x, y, z'
loop_
 _atom_site_type_symbol
 _atom_site_label
 _atom_site_symmetry_multiplicity
 _atom_site_fract_x
 _atom_site_fract_y
 _atom_site_fract_z
 _atom_site_occupancy
  Li  Li0  1  0.849066  0.826966  0.652871  1
  Li  Li1  1  0.669488  0.669880  0.404723  1
  Li  Li2  1  0.673057  0.675420  0.919325  1
  Li  Li3  1  0.174536  0.173691  0.415818  1
  Li  Li4  1  0.169796  0.174306  0.915436  1
  Fe  Fe5  1  0.825776  0.173056  0.632608  1
  Fe  Fe6  1  0.834592  0.495152  0.132973  1
  Fe  Fe7  1  0.676189  0.000893  0.881333  1
  Fe  Fe8  1  0.649310  0.341952  0.376456  1
  Fe  Fe9  1  0.341570  0.651178  0.630496  1
  Fe  Fe10  1  0.333868  0.996087  0.134401  1
  Fe  Fe11  1  0.153883  0.836117  0.377311  1
  Fe  Fe12  1  0.184491  0.494412  0.878748  1
  B  B13  1  0.846813  0.502824  0.624787  1
  B  B14  1  0.831986  0.167050  0.127467  1
  B  B15  1  0.661913  0.002479  0.382905  1
  B  B16  1  0.669765  0.332643  0.879862  1
  B  B17  1  0.326907  0.996610  0.626412  1
  B  B18  1  0.332035  0.667317  0.125859  1
  B  B19  1  0.164084  0.501694  0.373614  1
  B  B20  1  0.175152  0.832142  0.877511  1
  O  O21  1  0.901839  0.516944  0.334225  1
  O  O22  1  0.911095  0.828658  0.858127  1
  O  O23  1  0.822009  0.211621  0.834395  1
  O  O24  1  0.789806  0.130748  0.423417  1
  O  O25  1  0.778772  0.869420  0.387527  1
  O  O26  1  0.796274  0.459564  0.923614  1
  O  O27  1  0.716437  0.634015  0.605851  1
  O  O28  1  0.675323  0.050851  0.090065  1
  O  O29  1  0.732452  0.370685  0.586430  1
  O  O30  1  0.725112  0.298741  0.167760  1
  O  O31  1  0.592700  0.652228  0.118017  1
  O  O32  1  0.590799  0.004494  0.660724  1
  O  O33  1  0.403081  0.016018  0.339244  1
  O  O34  1  0.413311  0.319962  0.881707  1
  O  O35  1  0.325432  0.709947  0.851134  1
  O  O36  1  0.297624  0.627737  0.409008  1
  O  O37  1  0.274613  0.366729  0.377481  1
  O  O38  1  0.292314  0.962636  0.922215  1
  O  O39  1  0.174491  0.552141  0.090147  1
  O  O40  1  0.182653  0.123495  0.620232  1
  O  O41  1  0.216031  0.863901  0.595322  1
  O  O42  1  0.224036  0.800577  0.165214  1
  O  O43  1  0.091474  0.151303  0.116650  1
  O  O44  1  0.090451  0.501808  0.675752  1
