# generated using pymatgen
data_LiNiPO4
_symmetry_space_group_name_H-M   'P 1'
_cell_length_a   8.99687362
_cell_length_b   6.34020192
_cell_length_c   4.90148631
_cell_angle_alpha   90.00011771
_cell_angle_beta   90.00005565
_cell_angle_gamma   90.00008924
_symmetry_Int_Tables_number   1
_chemical_formula_structural   LiNiPO4
_chemical_formula_sum   'Li4 Ni4 P4 O16'
_cell_volume   279.59055955
_cell_formula_units_Z   4
loop_
 _symmetry_equiv_pos_site_id
 _symmetry_equiv_pos_as_xyz
  1  'x, y, z'
loop_
 _atom_site_type_symbol
 _atom_site_label
 _atom_site_symmetry_multiplicity
 _atom_site_fract_x
 _atom_site_fract_y
 _atom_site_fract_z
 _atom_site_occupancy
  Li  Li0  1  0.159865  0.750001  0.459029  1
  Li  Li1  1  0.340136  0.250002  0.959031  1
  Li  Li2  1  0.659864  0.750001  0.040970  1
  Li  Li3  1  0.840136  0.250001  0.540969  1
  Ni  Ni4  1  0.999999  0.999993  0.000008  1
  Ni  Ni5  1  0.999990  0.499998  0.000007  1
  Ni  Ni6  1  0.500000  0.999998  0.500002  1
  Ni  Ni7  1  0.500008  0.499996  0.500000  1
  P  P8  1  0.179017  0.250000  0.472205  1
  P  P9  1  0.320992  0.749999  0.972210  1
  P  P10  1  0.679012  0.249998  0.027790  1
  P  P11  1  0.820989  0.750004  0.527792  1
  O  O12  1  0.133081  0.250000  0.780199  1
  O  O13  1  0.120295  0.048417  0.335785  1
  O  O14  1  0.120293  0.451585  0.335783  1
  O  O15  1  0.146458  0.750001  0.925920  1
  O  O16  1  0.353536  0.249999  0.425919  1
  O  O17  1  0.379705  0.951583  0.835786  1
  O  O18  1  0.379706  0.548418  0.835784  1
  O  O19  1  0.366918  0.750001  0.280195  1
  O  O20  1  0.633082  0.250001  0.719802  1
  O  O21  1  0.620295  0.048416  0.164214  1
  O  O22  1  0.620295  0.451584  0.164214  1
  O  O23  1  0.646461  0.750000  0.574079  1
  O  O24  1  0.853539  0.250001  0.074080  1
  O  O25  1  0.879705  0.548418  0.664213  1
  O  O26  1  0.879704  0.951585  0.664215  1
  O  O27  1  0.866919  0.750001  0.219801  1
