# generated using pymatgen
data_Li4Ti4Cr(Fe2O9)2
_symmetry_space_group_name_H-M   'P 1'
_cell_length_a   9.25280597
_cell_length_b   25.24874194
_cell_length_c   2.94462970
_cell_angle_alpha   90.00000000
_cell_angle_beta   90.00000000
_cell_angle_gamma   90.00000000
_symmetry_Int_Tables_number   1
_chemical_formula_structural   Li4Ti4Cr(Fe2O9)2
_chemical_formula_sum   'Li8 Ti8 Cr2 Fe8 O36'
_cell_volume   687.92942629
_cell_formula_units_Z   2
loop_
 _symmetry_equiv_pos_site_id
 _symmetry_equiv_pos_as_xyz
  1  'x, y, z'
loop_
 _atom_site_type_symbol
 _atom_site_label
 _atom_site_symmetry_multiplicity
 _atom_site_fract_x
 _atom_site_fract_y
 _atom_site_fract_z
 _atom_site_occupancy
  Li  Li0  1  0.196237  0.989916  0.000000  1
  Li  Li1  1  0.198743  0.184441  0.000000  1
  Li  Li2  1  0.301257  0.684441  0.000000  1
  Li  Li3  1  0.303763  0.489916  0.000000  1
  Li  Li4  1  0.696237  0.510084  0.000000  1
  Li  Li5  1  0.698743  0.315559  0.000000  1
  Li  Li6  1  0.801257  0.815559  0.000000  1
  Li  Li7  1  0.803763  0.010084  0.000000  1
  Ti  Ti8  1  -0.001697  0.099555  0.000000  1
  Ti  Ti9  1  0.157576  0.809057  0.500000  1
  Ti  Ti10  1  0.342424  0.309057  0.500000  1
  Ti  Ti11  1  0.501697  0.599555  0.000000  1
  Ti  Ti12  1  0.498303  0.400445  0.000000  1
  Ti  Ti13  1  0.657576  0.690943  0.500000  1
  Ti  Ti14  1  0.842424  0.190943  0.500000  1
  Ti  Ti15  1  0.001697  0.900445  0.000000  1
  Cr  Cr16  1  0.000000  0.500000  0.000000  1
  Cr  Cr17  1  0.500000  0.000000  0.000000  1
  Fe  Fe18  1  -0.000981  0.307672  0.000000  1
  Fe  Fe19  1  0.150714  0.586511  0.500000  1
  Fe  Fe20  1  0.349286  0.086511  0.500000  1
  Fe  Fe21  1  0.500981  0.807672  0.000000  1
  Fe  Fe22  1  0.499019  0.192328  0.000000  1
  Fe  Fe23  1  0.650714  0.913489  0.500000  1
  Fe  Fe24  1  0.849286  0.413489  0.500000  1
  Fe  Fe25  1  0.000981  0.692328  0.000000  1
  O  O26  1  0.992625  0.424194  0.000000  1
  O  O27  1  0.007375  0.575806  0.000000  1
  O  O28  1  0.061381  0.943874  0.500000  1
  O  O29  1  0.042328  0.156623  0.500000  1
  O  O30  1  0.132797  0.665641  0.500000  1
  O  O31  1  0.105660  0.759812  0.000000  1
  O  O32  1  0.143535  0.503172  0.500000  1
  O  O33  1  0.137691  0.293907  0.500000  1
  O  O34  1  0.185558  0.858424  0.000000  1
  O  O35  1  0.199115  0.082235  0.000000  1
  O  O36  1  0.300885  0.582235  0.000000  1
  O  O37  1  0.314442  0.358424  0.000000  1
  O  O38  1  0.362309  0.793907  0.500000  1
  O  O39  1  0.356465  0.003172  0.500000  1
  O  O40  1  0.394340  0.259812  0.000000  1
  O  O41  1  0.367203  0.165641  0.500000  1
  O  O42  1  0.457672  0.656623  0.500000  1
  O  O43  1  0.438619  0.443874  0.500000  1
  O  O44  1  0.492625  0.075806  0.000000  1
  O  O45  1  0.507375  0.924194  0.000000  1
  O  O46  1  0.561381  0.556126  0.500000  1
  O  O47  1  0.542328  0.343377  0.500000  1
  O  O48  1  0.632797  0.834359  0.500000  1
  O  O49  1  0.605660  0.740188  0.000000  1
  O  O50  1  0.643535  0.996828  0.500000  1
  O  O51  1  0.637691  0.206093  0.500000  1
  O  O52  1  0.685558  0.641576  0.000000  1
  O  O53  1  0.699115  0.417764  0.000000  1
  O  O54  1  0.800885  0.917765  0.000000  1
  O  O55  1  0.814442  0.141576  0.000000  1
  O  O56  1  0.862309  0.706093  0.500000  1
  O  O57  1  0.856465  0.496828  0.500000  1
  O  O58  1  0.894340  0.240188  0.000000  1
  O  O59  1  0.867203  0.334359  0.500000  1
  O  O60  1  0.957672  0.843377  0.500000  1
  O  O61  1  0.938619  0.056126  0.500000  1
