# generated using pymatgen
data_Li3Fe2(PO4)3
_symmetry_space_group_name_H-M   'P 1'
_cell_length_a   8.54442012
_cell_length_b   8.60310083
_cell_length_c   8.60310127
_cell_angle_alpha   61.72075867
_cell_angle_beta   61.71496538
_cell_angle_gamma   61.71496369
_symmetry_Int_Tables_number   1
_chemical_formula_structural   Li3Fe2(PO4)3
_chemical_formula_sum   'Li6 Fe4 P6 O24'
_cell_volume   464.38284843
_cell_formula_units_Z   2
loop_
 _symmetry_equiv_pos_site_id
 _symmetry_equiv_pos_as_xyz
  1  'x, y, z'
loop_
 _atom_site_type_symbol
 _atom_site_label
 _atom_site_symmetry_multiplicity
 _atom_site_fract_x
 _atom_site_fract_y
 _atom_site_fract_z
 _atom_site_occupancy
  Li  Li0  1  0.023900  0.005572  0.996281  1
  Li  Li1  1  0.750000  0.149664  0.350336  1
  Li  Li2  1  0.476100  0.503719  0.494428  1
  Li  Li3  1  0.250000  0.847490  0.652510  1
  Li  Li4  1  0.655179  0.251474  0.844859  1
  Li  Li5  1  0.844821  0.655141  0.248526  1
  Fe  Fe6  1  0.147528  0.146198  0.136731  1
  Fe  Fe7  1  0.352472  0.363269  0.353802  1
  Fe  Fe8  1  0.647655  0.647800  0.648802  1
  Fe  Fe9  1  0.852345  0.851198  0.852200  1
  P  P10  1  0.050287  0.751648  0.448725  1
  P  P11  1  0.449713  0.051275  0.748352  1
  P  P12  1  0.750000  0.451301  0.048699  1
  P  P13  1  0.250000  0.544540  0.955460  1
  P  P14  1  0.546856  0.960624  0.251052  1
  P  P15  1  0.953144  0.248948  0.539376  1
  O  O16  1  0.126061  0.295007  0.493168  1
  O  O17  1  0.305929  0.508301  0.117104  1
  O  O18  1  0.046249  0.921119  0.267647  1
  O  O19  1  0.531083  0.118552  0.300860  1
  O  O20  1  0.240444  0.594688  0.429103  1
  O  O21  1  0.015318  0.808516  0.612070  1
  O  O22  1  0.259556  0.070897  0.905312  1
  O  O23  1  0.453751  0.232353  0.578881  1
  O  O24  1  0.594044  0.431308  0.241347  1
  O  O25  1  0.194071  0.382896  0.991699  1
  O  O26  1  0.089949  0.737273  0.934067  1
  O  O27  1  0.373939  0.006832  0.204993  1
  O  O28  1  0.611158  0.011683  0.812238  1
  O  O29  1  0.905956  0.258653  0.068692  1
  O  O30  1  0.811052  0.611340  0.012874  1
  O  O31  1  0.410051  0.565933  0.762727  1
  O  O32  1  0.564427  0.768004  0.410639  1
  O  O33  1  0.736063  0.932401  0.087935  1
  O  O34  1  0.968917  0.199140  0.381448  1
  O  O35  1  0.763937  0.412065  0.567599  1
  O  O36  1  0.484682  0.887930  0.691484  1
  O  O37  1  0.935573  0.089361  0.731996  1
  O  O38  1  0.688948  0.487126  0.888660  1
  O  O39  1  0.888842  0.687762  0.488317  1
