# generated using pymatgen
data_PH6NO4
_symmetry_space_group_name_H-M   'P 1'
_cell_length_a   7.69348800
_cell_length_b   8.00091730
_cell_length_c   7.67952634
_cell_angle_alpha   90.00000000
_cell_angle_beta   90.00000000
_cell_angle_gamma   90.00000000
_symmetry_Int_Tables_number   1
_chemical_formula_structural   PH6NO4
_chemical_formula_sum   'P4 H24 N4 O16'
_cell_volume   472.71294617
_cell_formula_units_Z   4
loop_
 _symmetry_equiv_pos_site_id
 _symmetry_equiv_pos_as_xyz
  1  'x, y, z'
loop_
 _atom_site_type_symbol
 _atom_site_label
 _atom_site_symmetry_multiplicity
 _atom_site_fract_x
 _atom_site_fract_y
 _atom_site_fract_z
 _atom_site_occupancy
  P  P0  1  0.972302  0.019477  0.954867  1
  P  P1  1  0.027698  0.519477  0.545133  1
  P  P2  1  0.527698  0.980523  0.454867  1
  P  P3  1  0.472302  0.480523  0.045132  1
  H  H4  1  0.003068  0.847227  0.467510  1
  H  H5  1  0.977177  0.014991  0.608375  1
  H  H6  1  0.081859  0.530195  0.099302  1
  H  H7  1  0.131528  0.024440  0.447698  1
  H  H8  1  0.127504  0.821980  0.812179  1
  H  H9  1  0.191212  0.400219  0.340303  1
  H  H10  1  0.308788  0.599781  0.840303  1
  H  H11  1  0.372496  0.178020  0.312179  1
  H  H12  1  0.368472  0.975560  0.947698  1
  H  H13  1  0.418141  0.469805  0.599302  1
  H  H14  1  0.522823  0.985009  0.108375  1
  H  H15  1  0.496932  0.152773  0.967510  1
  H  H16  1  0.503068  0.652773  0.532490  1
  H  H17  1  0.477177  0.485009  0.391625  1
  H  H18  1  0.581859  0.969805  0.900698  1
  H  H19  1  0.631528  0.475560  0.552302  1
  H  H20  1  0.627504  0.678020  0.187821  1
  H  H21  1  0.691212  0.099781  0.659697  1
  H  H22  1  0.808788  0.900219  0.159697  1
  H  H23  1  0.872496  0.321980  0.687821  1
  H  H24  1  0.868472  0.524440  0.052302  1
  H  H25  1  0.918141  0.030195  0.400698  1
  H  H26  1  0.022823  0.514991  0.891625  1
  H  H27  1  0.996932  0.347227  0.032490  1
  N  N28  1  0.009925  0.979863  0.481912  1
  N  N29  1  0.490075  0.020137  0.981912  1
  N  N30  1  0.509925  0.520137  0.518088  1
  N  N31  1  0.990075  0.479863  0.018088  1
  O  O32  1  0.034557  0.152638  0.076819  1
  O  O33  1  0.118337  0.368619  0.443149  1
  O  O34  1  0.141396  0.576419  0.698203  1
  O  O35  1  0.142831  0.928742  0.874008  1
  O  O36  1  0.357169  0.071258  0.374008  1
  O  O37  1  0.358604  0.423581  0.198203  1
  O  O38  1  0.381663  0.631381  0.943149  1
  O  O39  1  0.465443  0.847362  0.576819  1
  O  O40  1  0.534557  0.347362  0.923181  1
  O  O41  1  0.618337  0.131381  0.556851  1
  O  O42  1  0.641396  0.923581  0.301797  1
  O  O43  1  0.642831  0.571258  0.125992  1
  O  O44  1  0.857169  0.428742  0.625992  1
  O  O45  1  0.858604  0.076419  0.801797  1
  O  O46  1  0.881663  0.868619  0.056851  1
  O  O47  1  0.965443  0.652638  0.423181  1
