# generated using pymatgen
data_Pu5Rh4
_symmetry_space_group_name_H-M   'P 1'
_cell_length_a   6.90193851
_cell_length_b   7.33397582
_cell_length_c   14.59176438
_cell_angle_alpha   90.00000000
_cell_angle_beta   90.00000000
_cell_angle_gamma   90.00000000
_symmetry_Int_Tables_number   1
_chemical_formula_structural   Pu5Rh4
_chemical_formula_sum   'Pu20 Rh16'
_cell_volume   738.61541613
_cell_formula_units_Z   4
loop_
 _symmetry_equiv_pos_site_id
 _symmetry_equiv_pos_as_xyz
  1  'x, y, z'
loop_
 _atom_site_type_symbol
 _atom_site_label
 _atom_site_symmetry_multiplicity
 _atom_site_fract_x
 _atom_site_fract_y
 _atom_site_fract_z
 _atom_site_occupancy
  Rh  Rh0  1  0.797952  0.455505  0.466796  1
  Rh  Rh1  1  0.297952  0.044495  0.033204  1
  Rh  Rh2  1  0.702048  0.955505  0.533204  1
  Rh  Rh3  1  0.202048  0.544495  0.966796  1
  Rh  Rh4  1  0.202048  0.544495  0.533204  1
  Rh  Rh5  1  0.702048  0.955505  0.966796  1
  Rh  Rh6  1  0.297952  0.044495  0.466796  1
  Rh  Rh7  1  0.797952  0.455505  0.033204  1
  Rh  Rh8  1  0.198878  0.712206  0.250000  1
  Rh  Rh9  1  0.698878  0.787794  0.250000  1
  Rh  Rh10  1  0.301122  0.212206  0.750000  1
  Rh  Rh11  1  0.801122  0.287794  0.750000  1
  Rh  Rh12  1  0.979722  0.051986  0.250000  1
  Rh  Rh13  1  0.479722  0.448014  0.250000  1
  Rh  Rh14  1  0.520278  0.551986  0.750000  1
  Rh  Rh15  1  0.020278  0.948014  0.750000  1
  Pu  Pu16  1  0.993632  0.819595  0.088291  1
  Pu  Pu17  1  0.493632  0.680405  0.411709  1
  Pu  Pu18  1  0.506368  0.319595  0.911709  1
  Pu  Pu19  1  0.006368  0.180405  0.588291  1
  Pu  Pu20  1  0.993632  0.819595  0.411709  1
  Pu  Pu21  1  0.493632  0.680405  0.088291  1
  Pu  Pu22  1  0.506368  0.319595  0.588291  1
  Pu  Pu23  1  0.006368  0.180405  0.911709  1
  Pu  Pu24  1  0.874065  0.653273  0.634627  1
  Pu  Pu25  1  0.374065  0.846727  0.865373  1
  Pu  Pu26  1  0.625935  0.153273  0.365373  1
  Pu  Pu27  1  0.125935  0.346727  0.134627  1
  Pu  Pu28  1  0.125935  0.346727  0.365373  1
  Pu  Pu29  1  0.625935  0.153273  0.134627  1
  Pu  Pu30  1  0.374065  0.846727  0.634627  1
  Pu  Pu31  1  0.874065  0.653273  0.865373  1
  Pu  Pu32  1  0.374581  0.034314  0.250000  1
  Pu  Pu33  1  0.874581  0.465686  0.250000  1
  Pu  Pu34  1  0.125419  0.534314  0.750000  1
  Pu  Pu35  1  0.625419  0.965686  0.750000  1
