# generated using pymatgen
data_LiFePO4
_symmetry_space_group_name_H-M   'P 1'
_cell_length_a   8.74640023
_cell_length_b   7.90014623
_cell_length_c   15.32486626
_cell_angle_alpha   90.00000000
_cell_angle_beta   91.10109891
_cell_angle_gamma   90.00000000
_symmetry_Int_Tables_number   1
_chemical_formula_structural   LiFePO4
_chemical_formula_sum   'Li12 Fe12 P12 O48'
_cell_volume   1058.71963408
_cell_formula_units_Z   12
loop_
 _symmetry_equiv_pos_site_id
 _symmetry_equiv_pos_as_xyz
  1  'x, y, z'
loop_
 _atom_site_type_symbol
 _atom_site_label
 _atom_site_symmetry_multiplicity
 _atom_site_fract_x
 _atom_site_fract_y
 _atom_site_fract_z
 _atom_site_occupancy
  Li  Li0  1  0.209336  0.991447  0.935754  1
  Li  Li1  1  0.228798  0.010631  0.585344  1
  Li  Li2  1  0.249377  0.871312  0.245496  1
  Li  Li3  1  0.250623  0.371312  0.254504  1
  Li  Li4  1  0.271202  0.510631  0.914656  1
  Li  Li5  1  0.290664  0.491447  0.564246  1
  Li  Li6  1  0.709336  0.508553  0.435754  1
  Li  Li7  1  0.728798  0.489369  0.085344  1
  Li  Li8  1  0.749377  0.628688  0.745496  1
  Li  Li9  1  0.750623  0.128688  0.754504  1
  Li  Li10  1  0.771202  0.989369  0.414656  1
  Li  Li11  1  0.790664  0.008553  0.064246  1
  Fe  Fe12  1  0.052009  0.668750  0.403163  1
  Fe  Fe13  1  0.075784  0.823755  0.765730  1
  Fe  Fe14  1  0.101464  0.668350  0.080675  1
  Fe  Fe15  1  0.398536  0.168350  0.419325  1
  Fe  Fe16  1  0.424216  0.323755  0.734270  1
  Fe  Fe17  1  0.447991  0.168750  0.096837  1
  Fe  Fe18  1  0.552009  0.831250  0.903163  1
  Fe  Fe19  1  0.575784  0.676245  0.265730  1
  Fe  Fe20  1  0.601464  0.831650  0.580675  1
  Fe  Fe21  1  0.898536  0.331650  0.919325  1
  Fe  Fe22  1  0.924216  0.176245  0.234270  1
  Fe  Fe23  1  0.947991  0.331250  0.596837  1
  P  P24  1  0.048145  0.260492  0.409505  1
  P  P25  1  0.083723  0.224707  0.775210  1
  P  P26  1  0.113074  0.265949  0.072370  1
  P  P27  1  0.386926  0.765949  0.427630  1
  P  P28  1  0.416277  0.724707  0.724790  1
  P  P29  1  0.451855  0.760492  0.090495  1
  P  P30  1  0.548145  0.239508  0.909505  1
  P  P31  1  0.583723  0.275293  0.275210  1
  P  P32  1  0.613074  0.234051  0.572370  1
  P  P33  1  0.886926  0.734051  0.927630  1
  P  P34  1  0.916277  0.775293  0.224790  1
  P  P35  1  0.951855  0.739508  0.590495  1
  O  O36  1  0.038454  0.568652  0.602342  1
  O  O37  1  0.051086  0.879671  0.634964  1
  O  O38  1  0.049332  0.780808  0.963650  1
  O  O39  1  0.081722  0.054425  0.826522  1
  O  O40  1  0.090420  0.368309  0.844422  1
  O  O41  1  0.068003  0.758993  0.280270  1
  O  O42  1  0.078923  0.218744  0.507666  1
  O  O43  1  0.104168  0.279686  0.173763  1
  O  O44  1  0.168758  0.438112  0.035337  1
  O  O45  1  0.216029  0.230512  0.709539  1
  O  O46  1  0.206347  0.269168  0.364329  1
  O  O47  1  0.229351  0.128272  0.045984  1
  O  O48  1  0.270649  0.628272  0.454016  1
  O  O49  1  0.293653  0.769168  0.135671  1
  O  O50  1  0.283971  0.730512  0.790461  1
  O  O51  1  0.331243  0.938112  0.464663  1
  O  O52  1  0.395832  0.779686  0.326237  1
  O  O53  1  0.421077  0.718744  0.992334  1
  O  O54  1  0.409580  0.868309  0.655578  1
  O  O55  1  0.431997  0.258993  0.219730  1
  O  O56  1  0.418278  0.554425  0.673478  1
  O  O57  1  0.450668  0.280808  0.536350  1
  O  O58  1  0.448914  0.379671  0.865036  1
  O  O59  1  0.461546  0.068652  0.897658  1
  O  O60  1  0.538454  0.931348  0.102342  1
  O  O61  1  0.551086  0.620329  0.134964  1
  O  O62  1  0.549332  0.719192  0.463650  1
  O  O63  1  0.581722  0.445575  0.326522  1
  O  O64  1  0.568003  0.741007  0.780270  1
  O  O65  1  0.590420  0.131691  0.344422  1
  O  O66  1  0.578923  0.281256  0.007666  1
  O  O67  1  0.604168  0.220314  0.673763  1
  O  O68  1  0.668757  0.061888  0.535337  1
  O  O69  1  0.716029  0.269488  0.209539  1
  O  O70  1  0.706347  0.230832  0.864329  1
  O  O71  1  0.729351  0.371728  0.545984  1
  O  O72  1  0.770649  0.871728  0.954016  1
  O  O73  1  0.793653  0.730832  0.635671  1
  O  O74  1  0.783971  0.769488  0.290461  1
  O  O75  1  0.831243  0.561888  0.964663  1
  O  O76  1  0.895832  0.720314  0.826237  1
  O  O77  1  0.921077  0.781256  0.492334  1
  O  O78  1  0.931997  0.241007  0.719730  1
  O  O79  1  0.909580  0.631691  0.155578  1
  O  O80  1  0.918278  0.945575  0.173478  1
  O  O81  1  0.950668  0.219192  0.036350  1
  O  O82  1  0.948914  0.120329  0.365036  1
  O  O83  1  0.961546  0.431348  0.397658  1
