# generated using pymatgen
data_LiFe(PO3)4
_symmetry_space_group_name_H-M   'P 1'
_cell_length_a   7.21119688
_cell_length_b   7.21294439
_cell_length_c   9.77562602
_cell_angle_alpha   70.81375254
_cell_angle_beta   80.74180812
_cell_angle_gamma   109.76421509
_symmetry_Int_Tables_number   1
_chemical_formula_structural   LiFe(PO3)4
_chemical_formula_sum   'Li2 Fe2 P8 O24'
_cell_volume   430.25277524
_cell_formula_units_Z   2
loop_
 _symmetry_equiv_pos_site_id
 _symmetry_equiv_pos_as_xyz
  1  'x, y, z'
loop_
 _atom_site_type_symbol
 _atom_site_label
 _atom_site_symmetry_multiplicity
 _atom_site_fract_x
 _atom_site_fract_y
 _atom_site_fract_z
 _atom_site_occupancy
  Li  Li0  1  0.998906  0.996797  0.999753  1
  Li  Li1  1  0.500304  0.003531  0.501313  1
  Fe  Fe2  1  0.051939  0.801510  0.750716  1
  Fe  Fe3  1  0.946739  0.196160  0.250428  1
  P  P4  1  0.270447  0.727389  0.022616  1
  P  P5  1  0.691084  0.986767  0.801412  1
  P  P6  1  0.286906  0.491225  0.698097  1
  P  P7  1  0.249686  0.289405  0.480085  1
  P  P8  1  0.748706  0.709242  0.520574  1
  P  P9  1  0.710665  0.509984  0.300436  1
  P  P10  1  0.308225  0.011334  0.198594  1
  P  P11  1  0.728741  0.270015  0.978254  1
  O  O12  1  0.189401  0.858739  0.912924  1
  O  O13  1  0.351820  0.967372  0.345066  1
  O  O14  1  0.267957  0.701370  0.680013  1
  O  O15  1  0.298472  0.811715  0.153426  1
  O  O16  1  0.501783  0.776017  0.938812  1
  O  O17  1  0.153247  0.486555  0.097533  1
  O  O18  1  0.210162  0.437440  0.562078  1
  O  O19  1  0.185459  0.303097  0.845325  1
  O  O20  1  0.727105  0.899862  0.410680  1
  O  O21  1  0.085947  0.242308  0.404170  1
  O  O22  1  0.880570  0.945505  0.821184  1
  O  O23  1  0.531522  0.547140  0.648758  1
  O  O24  1  0.465577  0.450906  0.350956  1
  O  O25  1  0.115895  0.047741  0.181273  1
  O  O26  1  0.912850  0.753024  0.596667  1
  O  O27  1  0.272705  0.100019  0.590435  1
  O  O28  1  0.807225  0.697453  0.152818  1
  O  O29  1  0.785459  0.561488  0.437472  1
  O  O30  1  0.848089  0.510545  0.901583  1
  O  O31  1  0.496182  0.222074  0.059292  1
  O  O32  1  0.699783  0.183758  0.848564  1
  O  O33  1  0.734000  0.302334  0.317306  1
  O  O34  1  0.652731  0.035006  0.653175  1
  O  O35  1  0.809807  0.140520  0.088778  1
