# generated using pymatgen
data_K2SnO2
_symmetry_space_group_name_H-M   'P 1'
_cell_length_a   10.95148260
_cell_length_b   7.59921914
_cell_length_c   7.30872890
_cell_angle_alpha   118.93518553
_cell_angle_beta   88.30159400
_cell_angle_gamma   117.83462317
_symmetry_Int_Tables_number   1
_chemical_formula_structural   K2SnO2
_chemical_formula_sum   'K8 Sn4 O8'
_cell_volume   455.34316045
_cell_formula_units_Z   4
loop_
 _symmetry_equiv_pos_site_id
 _symmetry_equiv_pos_as_xyz
  1  'x, y, z'
loop_
 _atom_site_type_symbol
 _atom_site_label
 _atom_site_symmetry_multiplicity
 _atom_site_fract_x
 _atom_site_fract_y
 _atom_site_fract_z
 _atom_site_occupancy
  K  K0  1  0.140751  0.713086  0.966832  1
  K  K1  1  0.172637  0.719232  0.483683  1
  K  K2  1  0.183430  0.250821  0.994774  1
  K  K3  1  0.507709  0.768135  0.501969  1
  K  K4  1  0.492291  0.231865  0.498031  1
  K  K5  1  0.816570  0.749179  0.005226  1
  K  K6  1  0.827363  0.280768  0.516317  1
  K  K7  1  0.859249  0.286914  0.033168  1
  Sn  Sn8  1  0.125173  0.181238  0.454363  1
  Sn  Sn9  1  0.474430  0.769919  0.990481  1
  Sn  Sn10  1  0.525570  0.230081  0.009519  1
  Sn  Sn11  1  0.874827  0.818762  0.545637  1
  O  O12  1  0.020456  0.235050  0.282183  1
  O  O13  1  0.007284  0.197578  0.694156  1
  O  O14  1  0.374763  0.859964  0.827488  1
  O  O15  1  0.352191  0.750857  0.203231  1
  O  O16  1  0.647809  0.249143  0.796769  1
  O  O17  1  0.625237  0.140036  0.172512  1
  O  O18  1  0.992716  0.802422  0.305844  1
  O  O19  1  0.979544  0.764950  0.717817  1
