# generated using pymatgen
data_Li5Cu(PO4)2
_symmetry_space_group_name_H-M   'P 1'
_cell_length_a   6.21696355
_cell_length_b   5.30782570
_cell_length_c   4.97488564
_cell_angle_alpha   90.35058291
_cell_angle_beta   90.00000000
_cell_angle_gamma   90.00000000
_symmetry_Int_Tables_number   1
_chemical_formula_structural   Li5Cu(PO4)2
_chemical_formula_sum   'Li5 Cu1 P2 O8'
_cell_volume   164.16098366
_cell_formula_units_Z   1
loop_
 _symmetry_equiv_pos_site_id
 _symmetry_equiv_pos_as_xyz
  1  'x, y, z'
loop_
 _atom_site_type_symbol
 _atom_site_label
 _atom_site_symmetry_multiplicity
 _atom_site_fract_x
 _atom_site_fract_y
 _atom_site_fract_z
 _atom_site_occupancy
  Li  Li0  1  0.000000  0.155595  0.490672  1
  Li  Li1  1  0.249012  0.326568  0.992041  1
  Li  Li2  1  0.253864  0.673441  0.490573  1
  Li  Li3  1  0.746136  0.673441  0.490573  1
  Li  Li4  1  0.750988  0.326568  0.992041  1
  Cu  Cu5  1  0.500000  0.827893  0.993573  1
  P  P6  1  0.000000  0.825763  0.999752  1
  P  P7  1  0.500000  0.181417  0.498629  1
  O  O8  1  0.000000  0.103139  0.898878  1
  O  O9  1  0.000000  0.819478  0.312207  1
  O  O10  1  0.201593  0.681991  0.889290  1
  O  O11  1  0.293005  0.313048  0.390303  1
  O  O12  1  0.500000  0.199222  0.811033  1
  O  O13  1  0.500000  0.897398  0.413436  1
  O  O14  1  0.706995  0.313048  0.390303  1
  O  O15  1  0.798407  0.681991  0.889290  1
