# generated using pymatgen
data_Rb5CeCo2(NO2)12
_symmetry_space_group_name_H-M   'P 1'
_cell_length_a   10.80662125
_cell_length_b   10.80662125
_cell_length_c   10.80662125
_cell_angle_alpha   90.00000000
_cell_angle_beta   90.00000000
_cell_angle_gamma   90.00000000
_symmetry_Int_Tables_number   1
_chemical_formula_structural   Rb5CeCo2(NO2)12
_chemical_formula_sum   'Rb10 Ce2 Co4 N24 O48'
_cell_volume   1262.03032854
_cell_formula_units_Z   2
loop_
 _symmetry_equiv_pos_site_id
 _symmetry_equiv_pos_as_xyz
  1  'x, y, z'
loop_
 _atom_site_type_symbol
 _atom_site_label
 _atom_site_symmetry_multiplicity
 _atom_site_fract_x
 _atom_site_fract_y
 _atom_site_fract_z
 _atom_site_occupancy
  Rb  Rb0  1  0.500000  0.500000  0.000000  1
  Rb  Rb1  1  0.500000  0.000000  0.500000  1
  Rb  Rb2  1  0.250000  0.750000  0.750000  1
  Rb  Rb3  1  0.750000  0.250000  0.250000  1
  Rb  Rb4  1  0.750000  0.250000  0.750000  1
  Rb  Rb5  1  0.000000  0.000000  0.000000  1
  Rb  Rb6  1  0.750000  0.750000  0.250000  1
  Rb  Rb7  1  0.250000  0.750000  0.250000  1
  Rb  Rb8  1  0.000000  0.500000  0.500000  1
  Rb  Rb9  1  0.250000  0.250000  0.750000  1
  Ce  Ce10  1  0.250000  0.250000  0.250000  1
  Ce  Ce11  1  0.750000  0.750000  0.750000  1
  Co  Co12  1  0.000000  0.000000  0.500000  1
  Co  Co13  1  0.500000  0.000000  0.000000  1
  Co  Co14  1  0.000000  0.500000  0.000000  1
  Co  Co15  1  0.500000  0.500000  0.500000  1
  N  N16  1  0.504664  0.504691  0.686165  1
  N  N17  1  0.813835  0.995336  0.504691  1
  N  N18  1  0.686165  0.995336  0.995309  1
  N  N19  1  0.504691  0.813835  0.995336  1
  N  N20  1  0.995336  0.995309  0.686165  1
  N  N21  1  0.004691  0.313835  0.004664  1
  N  N22  1  0.313835  0.004664  0.004691  1
  N  N23  1  0.813835  0.504664  0.995309  1
  N  N24  1  0.504691  0.686165  0.504664  1
  N  N25  1  0.004664  0.495309  0.186165  1
  N  N26  1  0.995309  0.813835  0.504664  1
  N  N27  1  0.495336  0.495309  0.313835  1
  N  N28  1  0.504664  0.995309  0.813835  1
  N  N29  1  0.004691  0.186165  0.495336  1
  N  N30  1  0.686165  0.504664  0.504691  1
  N  N31  1  0.495309  0.186165  0.004664  1
  N  N32  1  0.495309  0.313835  0.495336  1
  N  N33  1  0.186165  0.004664  0.495309  1
  N  N34  1  0.995309  0.686165  0.995336  1
  N  N35  1  0.995336  0.504691  0.813835  1
  N  N36  1  0.495336  0.004691  0.186165  1
  N  N37  1  0.004664  0.004691  0.313835  1
  N  N38  1  0.186165  0.495336  0.004691  1
  N  N39  1  0.313835  0.495336  0.495309  1
  O  O40  1  0.512622  0.245211  0.906400  1
  O  O41  1  0.012622  0.745211  0.093600  1
  O  O42  1  0.406400  0.012622  0.754789  1
  O  O43  1  0.254789  0.593600  0.512622  1
  O  O44  1  0.906400  0.512622  0.245211  1
  O  O45  1  0.247175  0.100943  0.465133  1
  O  O46  1  0.399057  0.465133  0.252825  1
  O  O47  1  0.965133  0.752825  0.600943  1
  O  O48  1  0.593600  0.987378  0.245211  1
  O  O49  1  0.034867  0.247175  0.399057  1
  O  O50  1  0.093600  0.012622  0.745211  1
  O  O51  1  0.399057  0.034867  0.247175  1
  O  O52  1  0.754789  0.406400  0.012622  1
  O  O53  1  0.899057  0.965133  0.747175  1
  O  O54  1  0.034867  0.252825  0.100943  1
  O  O55  1  0.906400  0.987378  0.254789  1
  O  O56  1  0.899057  0.534867  0.752825  1
  O  O57  1  0.245211  0.906400  0.512622  1
  O  O58  1  0.093600  0.487378  0.754789  1
  O  O59  1  0.100943  0.034867  0.252825  1
  O  O60  1  0.534867  0.752825  0.899057  1
  O  O61  1  0.245211  0.593600  0.987378  1
  O  O62  1  0.247175  0.399057  0.034867  1
  O  O63  1  0.754789  0.093600  0.487378  1
  O  O64  1  0.012622  0.754789  0.406400  1
  O  O65  1  0.252825  0.399057  0.465133  1
  O  O66  1  0.406400  0.487378  0.745211  1
  O  O67  1  0.987378  0.245211  0.593600  1
  O  O68  1  0.593600  0.512622  0.254789  1
  O  O69  1  0.534867  0.747175  0.600943  1
  O  O70  1  0.752825  0.600943  0.965133  1
  O  O71  1  0.600943  0.965133  0.752825  1
  O  O72  1  0.254789  0.906400  0.987378  1
  O  O73  1  0.747175  0.899057  0.965133  1
  O  O74  1  0.745211  0.093600  0.012622  1
  O  O75  1  0.512622  0.254789  0.593600  1
  O  O76  1  0.752825  0.899057  0.534867  1
  O  O77  1  0.745211  0.406400  0.487378  1
  O  O78  1  0.987378  0.254789  0.906400  1
  O  O79  1  0.487378  0.754789  0.093600  1
  O  O80  1  0.100943  0.465133  0.247175  1
  O  O81  1  0.252825  0.100943  0.034867  1
  O  O82  1  0.465133  0.252825  0.399057  1
  O  O83  1  0.600943  0.534867  0.747175  1
  O  O84  1  0.487378  0.745211  0.406400  1
  O  O85  1  0.965133  0.747175  0.899057  1
  O  O86  1  0.747175  0.600943  0.534867  1
  O  O87  1  0.465133  0.247175  0.100943  1
