# generated using pymatgen
data_Rb3DyO3
_symmetry_space_group_name_H-M   'P 1'
_cell_length_a   11.76353643
_cell_length_b   7.39395730
_cell_length_c   8.01509896
_cell_angle_alpha   90.00000000
_cell_angle_beta   94.01732297
_cell_angle_gamma   90.00000000
_symmetry_Int_Tables_number   1
_chemical_formula_structural   Rb3DyO3
_chemical_formula_sum   'Rb12 Dy4 O12'
_cell_volume   695.43303498
_cell_formula_units_Z   4
loop_
 _symmetry_equiv_pos_site_id
 _symmetry_equiv_pos_as_xyz
  1  'x, y, z'
loop_
 _atom_site_type_symbol
 _atom_site_label
 _atom_site_symmetry_multiplicity
 _atom_site_fract_x
 _atom_site_fract_y
 _atom_site_fract_z
 _atom_site_occupancy
  Rb  Rb0  1  0.079320  0.331916  0.641810  1
  Rb  Rb1  1  0.155254  0.621595  0.069446  1
  Rb  Rb2  1  0.192328  0.803843  0.624343  1
  Rb  Rb3  1  0.307672  0.303843  0.375657  1
  Rb  Rb4  1  0.344746  0.121595  0.930554  1
  Rb  Rb5  1  0.420680  0.831916  0.358190  1
  Rb  Rb6  1  0.579320  0.168084  0.641810  1
  Rb  Rb7  1  0.655254  0.878405  0.069446  1
  Rb  Rb8  1  0.692328  0.696157  0.624343  1
  Rb  Rb9  1  0.807672  0.196157  0.375657  1
  Rb  Rb10  1  0.844746  0.378405  0.930554  1
  Rb  Rb11  1  0.920680  0.668084  0.358190  1
  Dy  Dy12  1  0.067479  0.089444  0.162178  1
  Dy  Dy13  1  0.432521  0.589444  0.837822  1
  Dy  Dy14  1  0.567479  0.410556  0.162178  1
  Dy  Dy15  1  0.932521  0.910556  0.837822  1
  O  O16  1  0.043492  0.356121  0.253755  1
  O  O17  1  0.096423  0.050755  0.892986  1
  O  O18  1  0.189173  0.941133  0.311375  1
  O  O19  1  0.310827  0.441133  0.688625  1
  O  O20  1  0.403577  0.550755  0.107014  1
  O  O21  1  0.456508  0.856121  0.746245  1
  O  O22  1  0.543492  0.143879  0.253755  1
  O  O23  1  0.596423  0.449245  0.892986  1
  O  O24  1  0.689173  0.558867  0.311375  1
  O  O25  1  0.810827  0.058867  0.688625  1
  O  O26  1  0.903577  0.949245  0.107014  1
  O  O27  1  0.956508  0.643879  0.746245  1
