# generated using pymatgen
data_CaP3H16(NO4)3
_symmetry_space_group_name_H-M   'P 1'
_cell_length_a   7.03305522
_cell_length_b   20.59021261
_cell_length_c   10.63681233
_cell_angle_alpha   90.00000000
_cell_angle_beta   98.94245444
_cell_angle_gamma   90.00000000
_symmetry_Int_Tables_number   1
_chemical_formula_structural   CaP3H16(NO4)3
_chemical_formula_sum   'Ca4 P12 H64 N12 O48'
_cell_volume   1521.61626969
_cell_formula_units_Z   4
loop_
 _symmetry_equiv_pos_site_id
 _symmetry_equiv_pos_as_xyz
  1  'x, y, z'
loop_
 _atom_site_type_symbol
 _atom_site_label
 _atom_site_symmetry_multiplicity
 _atom_site_fract_x
 _atom_site_fract_y
 _atom_site_fract_z
 _atom_site_occupancy
  Ca  Ca0  1  0.370910  0.833527  0.965478  1
  Ca  Ca1  1  0.870910  0.666473  0.465478  1
  Ca  Ca2  1  0.629090  0.166473  0.034522  1
  Ca  Ca3  1  0.129090  0.333527  0.534522  1
  P  P4  1  0.369261  0.707740  0.408554  1
  P  P5  1  0.869261  0.792260  0.908554  1
  P  P6  1  0.630739  0.292260  0.591446  1
  P  P7  1  0.130739  0.207740  0.091446  1
  P  P8  1  0.550316  0.690546  0.172626  1
  P  P9  1  0.050316  0.809454  0.672626  1
  P  P10  1  0.449684  0.309454  0.827374  1
  P  P11  1  0.949684  0.190546  0.327374  1
  P  P12  1  0.785543  0.522932  0.297309  1
  P  P13  1  0.285543  0.977068  0.797309  1
  P  P14  1  0.214457  0.477068  0.702691  1
  P  P15  1  0.714457  0.022932  0.202691  1
  H  H16  1  0.916711  0.669979  0.752059  1
  H  H17  1  0.416711  0.830021  0.252059  1
  H  H18  1  0.083289  0.330021  0.247941  1
  H  H19  1  0.583289  0.169979  0.747941  1
  H  H20  1  0.011124  0.603394  0.704840  1
  H  H21  1  0.511124  0.896606  0.204840  1
  H  H22  1  0.988876  0.396606  0.295160  1
  H  H23  1  0.488876  0.103394  0.795160  1
  H  H24  1  0.716010  0.540301  0.918302  1
  H  H25  1  0.216010  0.959699  0.418302  1
  H  H26  1  0.283990  0.459699  0.081698  1
  H  H27  1  0.783990  0.040301  0.581698  1
  H  H28  1  0.451504  0.430329  0.831560  1
  H  H29  1  0.951504  0.069671  0.331560  1
  H  H30  1  0.548496  0.569671  0.168440  1
  H  H31  1  0.048496  0.930329  0.668440  1
  H  H32  1  0.887483  0.395668  0.984540  1
  H  H33  1  0.387483  0.104332  0.484540  1
  H  H34  1  0.112517  0.604332  0.015460  1
  H  H35  1  0.612517  0.895668  0.515460  1
  H  H36  1  0.043311  0.330898  0.007503  1
  H  H37  1  0.543311  0.169102  0.507503  1
  H  H38  1  0.956689  0.669102  0.992497  1
  H  H39  1  0.456689  0.830898  0.492497  1
  H  H40  1  0.011801  0.377708  0.868046  1
  H  H41  1  0.511801  0.122292  0.368046  1
  H  H42  1  0.988199  0.622292  0.131954  1
  H  H43  1  0.488199  0.877708  0.631954  1
  H  H44  1  0.834090  0.327011  0.904321  1
  H  H45  1  0.334090  0.172989  0.404321  1
  H  H46  1  0.165910  0.672989  0.095679  1
  H  H47  1  0.665910  0.827011  0.595679  1
  H  H48  1  0.972417  0.879943  0.276149  1
  H  H49  1  0.472417  0.620057  0.776149  1
  H  H50  1  0.027583  0.120057  0.723851  1
  H  H51  1  0.527583  0.379943  0.223851  1
  H  H52  1  0.117433  0.813285  0.310649  1
  H  H53  1  0.617433  0.686715  0.810649  1
  H  H54  1  0.882567  0.186715  0.689351  1
  H  H55  1  0.382567  0.313285  0.189351  1
  H  H56  1  0.013693  0.828221  0.157114  1
  H  H57  1  0.513693  0.671779  0.657114  1
  H  H58  1  0.986307  0.171779  0.842886  1
  H  H59  1  0.486307  0.328221  0.342886  1
  H  H60  1  0.875773  0.804558  0.264639  1
  H  H61  1  0.375773  0.695442  0.764639  1
  H  H62  1  0.124227  0.195442  0.735361  1
  H  H63  1  0.624227  0.304558  0.235361  1
  H  H64  1  0.288562  0.580562  0.432763  1
  H  H65  1  0.788562  0.919438  0.932763  1
  H  H66  1  0.711438  0.419438  0.567237  1
  H  H67  1  0.211438  0.080562  0.067237  1
  H  H68  1  0.387738  0.526140  0.341133  1
  H  H69  1  0.887738  0.973860  0.841133  1
  H  H70  1  0.612262  0.473860  0.658867  1
  H  H71  1  0.112262  0.026140  0.158867  1
  H  H72  1  0.248127  0.499116  0.453834  1
  H  H73  1  0.748127  0.000884  0.953834  1
  H  H74  1  0.751873  0.500884  0.546166  1
  H  H75  1  0.251873  0.999116  0.046166  1
  H  H76  1  0.147675  0.540983  0.320569  1
  H  H77  1  0.647675  0.959017  0.820569  1
  H  H78  1  0.852325  0.459017  0.679431  1
  H  H79  1  0.352325  0.040983  0.179431  1
  N  N80  1  0.055043  0.642472  0.058930  1
  N  N81  1  0.555043  0.857528  0.558930  1
  N  N82  1  0.944957  0.357528  0.941070  1
  N  N83  1  0.444957  0.142472  0.441070  1
  N  N84  1  0.494103  0.667733  0.753239  1
  N  N85  1  0.994103  0.832267  0.253239  1
  N  N86  1  0.505897  0.332267  0.246761  1
  N  N87  1  0.005897  0.167733  0.746761  1
  N  N88  1  0.271721  0.535641  0.388029  1
  N  N89  1  0.771721  0.964359  0.888029  1
  N  N90  1  0.728279  0.464359  0.611971  1
  N  N91  1  0.228279  0.035641  0.111971  1
  O  O92  1  0.552354  0.626507  0.098932  1
  O  O93  1  0.052354  0.873493  0.598932  1
  O  O94  1  0.447646  0.373493  0.901068  1
  O  O95  1  0.947646  0.126507  0.401068  1
  O  O96  1  0.740456  0.710874  0.254530  1
  O  O97  1  0.240456  0.789126  0.754530  1
  O  O98  1  0.259544  0.289126  0.745470  1
  O  O99  1  0.759544  0.210874  0.245470  1
  O  O100  1  0.830049  0.450122  0.293737  1
  O  O101  1  0.330049  0.049878  0.793737  1
  O  O102  1  0.169951  0.549878  0.706263  1
  O  O103  1  0.669951  0.950122  0.206263  1
  O  O104  1  0.795432  0.551993  0.432654  1
  O  O105  1  0.295432  0.948007  0.932654  1
  O  O106  1  0.204568  0.448007  0.567346  1
  O  O107  1  0.704568  0.051993  0.067346  1
  O  O108  1  0.196473  0.670341  0.441438  1
  O  O109  1  0.696473  0.829659  0.941438  1
  O  O110  1  0.803527  0.329659  0.558562  1
  O  O111  1  0.303527  0.170341  0.058562  1
  O  O112  1  0.397563  0.675191  0.271049  1
  O  O113  1  0.897563  0.824809  0.771049  1
  O  O114  1  0.602437  0.324809  0.728951  1
  O  O115  1  0.102437  0.175191  0.228951  1
  O  O116  1  0.553196  0.694459  0.501870  1
  O  O117  1  0.053196  0.805541  0.001870  1
  O  O118  1  0.446804  0.305541  0.498130  1
  O  O119  1  0.946804  0.194459  0.998130  1
  O  O120  1  0.455416  0.740229  0.078311  1
  O  O121  1  0.955416  0.759771  0.578311  1
  O  O122  1  0.544584  0.259771  0.921689  1
  O  O123  1  0.044584  0.240229  0.421689  1
  O  O124  1  0.334070  0.781272  0.383631  1
  O  O125  1  0.834070  0.718728  0.883631  1
  O  O126  1  0.665930  0.218728  0.616369  1
  O  O127  1  0.165930  0.281272  0.116369  1
  O  O128  1  0.567018  0.527890  0.228441  1
  O  O129  1  0.067018  0.972110  0.728441  1
  O  O130  1  0.432982  0.472110  0.771559  1
  O  O131  1  0.932982  0.027890  0.271559  1
  O  O132  1  0.407354  0.862893  0.184313  1
  O  O133  1  0.907354  0.637107  0.684313  1
  O  O134  1  0.592646  0.137107  0.815687  1
  O  O135  1  0.092646  0.362893  0.315687  1
  O  O136  1  0.922187  0.564137  0.229796  1
  O  O137  1  0.422187  0.935863  0.729796  1
  O  O138  1  0.077813  0.435863  0.770204  1
  O  O139  1  0.577813  0.064137  0.270204  1
