# generated using pymatgen
data_LiP4WO12
_symmetry_space_group_name_H-M   'P 1'
_cell_length_a   9.60194054
_cell_length_b   13.21291190
_cell_length_c   7.60250753
_cell_angle_alpha   90.00000000
_cell_angle_beta   92.47925973
_cell_angle_gamma   90.00000000
_symmetry_Int_Tables_number   1
_chemical_formula_structural   LiP4WO12
_chemical_formula_sum   'Li4 P16 W4 O48'
_cell_volume   963.62419759
_cell_formula_units_Z   4
loop_
 _symmetry_equiv_pos_site_id
 _symmetry_equiv_pos_as_xyz
  1  'x, y, z'
loop_
 _atom_site_type_symbol
 _atom_site_label
 _atom_site_symmetry_multiplicity
 _atom_site_fract_x
 _atom_site_fract_y
 _atom_site_fract_z
 _atom_site_occupancy
  Li  Li0  1  0.994303  0.795610  0.602040  1
  Li  Li1  1  0.505697  0.295610  0.897960  1
  Li  Li2  1  0.494303  0.704390  0.102040  1
  Li  Li3  1  0.005697  0.204390  0.397960  1
  P  P4  1  0.218289  0.394581  0.397710  1
  P  P5  1  0.225705  0.614246  0.303650  1
  P  P6  1  0.260796  0.135634  0.585746  1
  P  P7  1  0.252951  0.919235  0.702685  1
  P  P8  1  0.247049  0.419235  0.797315  1
  P  P9  1  0.239204  0.635634  0.914254  1
  P  P10  1  0.274295  0.114246  0.196350  1
  P  P11  1  0.281711  0.894581  0.102290  1
  P  P12  1  0.718289  0.105419  0.897710  1
  P  P13  1  0.725705  0.885754  0.803650  1
  P  P14  1  0.760796  0.364366  0.085746  1
  P  P15  1  0.752951  0.580765  0.202685  1
  P  P16  1  0.747049  0.080765  0.297315  1
  P  P17  1  0.739204  0.864366  0.414254  1
  P  P18  1  0.774295  0.385754  0.696350  1
  P  P19  1  0.781711  0.605419  0.602290  1
  W  W20  1  0.022518  0.228696  0.894576  1
  W  W21  1  0.477482  0.728696  0.605424  1
  W  W22  1  0.522518  0.271304  0.394576  1
  W  W23  1  0.977482  0.771304  0.105424  1
  O  O24  1  0.104020  0.686004  0.295760  1
  O  O25  1  0.098532  0.913910  0.685582  1
  O  O26  1  0.130509  0.173612  0.667488  1
  O  O27  1  0.126543  0.313442  0.323832  1
  O  O28  1  0.162139  0.503376  0.325063  1
  O  O29  1  0.116768  0.706504  0.914011  1
  O  O30  1  0.126495  0.892885  0.126844  1
  O  O31  1  0.183051  0.403108  0.602305  1
  O  O32  1  0.166743  0.352183  0.917321  1
  O  O33  1  0.185735  0.533325  0.827622  1
  O  O34  1  0.205736  0.106017  0.388018  1
  O  O35  1  0.160308  0.134128  0.061115  1
  O  O36  1  0.339692  0.634128  0.438885  1
  O  O37  1  0.314265  0.033325  0.672378  1
  O  O38  1  0.294264  0.606017  0.111982  1
  O  O39  1  0.333257  0.852183  0.582679  1
  O  O40  1  0.316949  0.903108  0.897695  1
  O  O41  1  0.373505  0.392885  0.373156  1
  O  O42  1  0.383232  0.206504  0.585989  1
  O  O43  1  0.337861  0.003376  0.174937  1
  O  O44  1  0.369491  0.673612  0.832512  1
  O  O45  1  0.373457  0.813442  0.176168  1
  O  O46  1  0.401468  0.413910  0.814418  1
  O  O47  1  0.395980  0.186004  0.204240  1
  O  O48  1  0.604020  0.813996  0.795760  1
  O  O49  1  0.598532  0.586090  0.185582  1
  O  O50  1  0.626543  0.186558  0.823832  1
  O  O51  1  0.630509  0.326388  0.167488  1
  O  O52  1  0.662139  0.996624  0.825063  1
  O  O53  1  0.616768  0.793496  0.414011  1
  O  O54  1  0.626495  0.607115  0.626844  1
  O  O55  1  0.683051  0.096892  0.102305  1
  O  O56  1  0.666743  0.147817  0.417321  1
  O  O57  1  0.705736  0.393983  0.888018  1
  O  O58  1  0.685735  0.966675  0.327622  1
  O  O59  1  0.660308  0.365872  0.561115  1
  O  O60  1  0.839692  0.865872  0.938885  1
  O  O61  1  0.794264  0.893983  0.611982  1
  O  O62  1  0.814265  0.466675  0.172378  1
  O  O63  1  0.833257  0.647817  0.082679  1
  O  O64  1  0.816949  0.596892  0.397695  1
  O  O65  1  0.873505  0.107115  0.873156  1
  O  O66  1  0.883232  0.293496  0.085989  1
  O  O67  1  0.837861  0.496624  0.674937  1
  O  O68  1  0.873457  0.686558  0.676168  1
  O  O69  1  0.869491  0.826388  0.332512  1
  O  O70  1  0.901468  0.086090  0.314418  1
  O  O71  1  0.895980  0.313996  0.704240  1
