# generated using pymatgen
data_Li24Ti7Cr5O36
_symmetry_space_group_name_H-M   'P 1'
_cell_length_a   5.05812983
_cell_length_b   13.47155766
_cell_length_c   9.81175310
_cell_angle_alpha   97.47881778
_cell_angle_beta   94.48824815
_cell_angle_gamma   100.95919767
_symmetry_Int_Tables_number   1
_chemical_formula_structural   Li24Ti7Cr5O36
_chemical_formula_sum   'Li24 Ti7 Cr5 O36'
_cell_volume   647.15108965
_cell_formula_units_Z   1
loop_
 _symmetry_equiv_pos_site_id
 _symmetry_equiv_pos_as_xyz
  1  'x, y, z'
loop_
 _atom_site_type_symbol
 _atom_site_label
 _atom_site_symmetry_multiplicity
 _atom_site_fract_x
 _atom_site_fract_y
 _atom_site_fract_z
 _atom_site_occupancy
  Li  Li0  1  0.833281  0.166915  0.999616  1
  Li  Li1  1  0.957689  0.388721  0.999890  1
  Li  Li2  1  0.000487  0.748967  0.249929  1
  Li  Li3  1  0.665393  0.083949  0.250631  1
  Li  Li4  1  0.953276  0.887085  0.499720  1
  Li  Li5  1  0.612052  0.219065  0.499386  1
  Li  Li6  1  0.837541  0.666589  0.497991  1
  Li  Li7  1  0.499188  0.000514  0.501389  1
  Li  Li8  1  0.715135  0.446409  0.498827  1
  Li  Li9  1  0.666680  0.583019  0.750029  1
  Li  Li10  1  0.501965  0.498200  0.000996  1
  Li  Li11  1  0.712253  0.946634  0.000022  1
  Li  Li12  1  0.375431  0.278379  0.999700  1
  Li  Li13  1  0.617195  0.721058  0.999661  1
  Li  Li14  1  0.287865  0.054464  0.998794  1
  Li  Li15  1  0.333216  0.415774  0.249685  1
  Li  Li16  1  0.283945  0.554004  0.501265  1
  Li  Li17  1  0.166729  0.332548  0.501420  1
  Li  Li18  1  0.378460  0.779919  0.502062  1
  Li  Li19  1  0.054726  0.114079  0.500366  1
  Li  Li20  1  0.332343  0.916438  0.750017  1
  Li  Li21  1  0.168136  0.833121  0.998857  1
  Li  Li22  1  0.003503  0.251467  0.749921  1
  Li  Li23  1  0.046320  0.612243  0.000058  1
  Ti  Ti24  1  0.892504  0.027784  0.753482  1
  Ti  Ti25  1  0.770889  0.306115  0.244138  1
  Ti  Ti26  1  0.772489  0.805148  0.746488  1
  Ti  Ti27  1  0.555195  0.360222  0.749376  1
  Ti  Ti28  1  0.558195  0.860187  0.248319  1
  Ti  Ti29  1  0.446292  0.638858  0.253122  1
  Ti  Ti30  1  0.116131  0.973993  0.253752  1
  Cr  Cr31  1  0.894271  0.526624  0.249955  1
  Cr  Cr32  1  0.449146  0.140148  0.749653  1
  Cr  Cr33  1  0.216025  0.194069  0.250412  1
  Cr  Cr34  1  0.214130  0.692285  0.748847  1
  Cr  Cr35  1  0.117243  0.474107  0.752260  1
  O  O36  1  0.001766  0.075107  0.138470  1
  O  O37  1  0.937987  0.215284  0.364461  1
  O  O38  1  0.000181  0.574833  0.639464  1
  O  O39  1  0.860990  0.358958  0.637592  1
  O  O40  1  0.729628  0.119613  0.636093  1
  O  O41  1  0.663088  0.403668  0.135761  1
  O  O42  1  0.935836  0.713773  0.864762  1
  O  O43  1  0.814720  0.477324  0.861397  1
  O  O44  1  0.597969  0.047768  0.866123  1
  O  O45  1  0.856288  0.856808  0.135896  1
  O  O46  1  0.739389  0.616310  0.136064  1
  O  O47  1  0.519113  0.189694  0.138170  1
  O  O48  1  0.665335  0.259458  0.862127  1
  O  O49  1  0.809644  0.977396  0.363630  1
  O  O50  1  0.598247  0.546881  0.364377  1
  O  O51  1  0.473042  0.309029  0.362505  1
  O  O52  1  0.667517  0.762294  0.363932  1
  O  O53  1  0.338695  0.095232  0.362987  1
  O  O54  1  0.666915  0.904375  0.635765  1
  O  O55  1  0.331188  0.238998  0.636566  1
  O  O56  1  0.518649  0.688261  0.638212  1
  O  O57  1  0.396603  0.452352  0.634792  1
  O  O58  1  0.194112  0.024872  0.638174  1
  O  O59  1  0.332811  0.736407  0.136463  1
  O  O60  1  0.471748  0.807363  0.861574  1
  O  O61  1  0.266125  0.381350  0.866813  1
  O  O62  1  0.148006  0.144498  0.861529  1
  O  O63  1  0.404221  0.951490  0.133900  1
  O  O64  1  0.183174  0.521986  0.137622  1
  O  O65  1  0.068424  0.286041  0.133911  1
  O  O66  1  0.333248  0.591445  0.861185  1
  O  O67  1  0.261512  0.882230  0.365728  1
  O  O68  1  0.144052  0.643641  0.363406  1
  O  O69  1  0.998566  0.431807  0.362342  1
  O  O70  1  0.067664  0.785297  0.633886  1
  O  O71  1  0.998226  0.929055  0.864288  1
