# generated using pymatgen
data_CaV5H19O23
_symmetry_space_group_name_H-M   'P 1'
_cell_length_a   9.77925938
_cell_length_b   10.12117773
_cell_length_c   10.86447711
_cell_angle_alpha   89.47408764
_cell_angle_beta   103.65924475
_cell_angle_gamma   110.65320101
_symmetry_Int_Tables_number   1
_chemical_formula_structural   CaV5H19O23
_chemical_formula_sum   'Ca2 V10 H38 O46'
_cell_volume   974.51837102
_cell_formula_units_Z   2
loop_
 _symmetry_equiv_pos_site_id
 _symmetry_equiv_pos_as_xyz
  1  'x, y, z'
loop_
 _atom_site_type_symbol
 _atom_site_label
 _atom_site_symmetry_multiplicity
 _atom_site_fract_x
 _atom_site_fract_y
 _atom_site_fract_z
 _atom_site_occupancy
  Ca  Ca0  1  0.335258  0.732000  0.093016  1
  Ca  Ca1  1  0.664742  0.268000  0.906984  1
  V  V2  1  0.020177  0.958572  0.256182  1
  V  V3  1  0.151113  0.962045  0.554197  1
  V  V4  1  0.027450  0.268897  0.293620  1
  V  V5  1  0.157428  0.280430  0.593040  1
  V  V6  1  0.324978  0.203417  0.402243  1
  V  V7  1  0.675022  0.796583  0.597757  1
  V  V8  1  0.842572  0.719570  0.406960  1
  V  V9  1  0.972550  0.731103  0.706380  1
  V  V10  1  0.848887  0.037955  0.445803  1
  V  V11  1  0.979823  0.041428  0.743818  1
  H  H12  1  0.160176  0.914639  0.964395  1
  H  H13  1  0.025510  0.697283  0.121685  1
  H  H14  1  0.153878  0.701614  0.433726  1
  H  H15  1  0.034452  0.543999  0.137929  1
  H  H16  1  0.320808  0.813207  0.798386  1
  H  H17  1  0.149445  0.522327  0.459292  1
  H  H18  1  0.243944  0.984425  0.104931  1
  H  H19  1  0.248579  0.486894  0.877549  1
  H  H20  1  0.400700  0.708502  0.853370  1
  H  H21  1  0.312589  0.678041  0.513115  1
  H  H22  1  0.346901  0.941935  0.303730  1
  H  H23  1  0.340776  0.243733  0.003872  1
  H  H24  1  0.491061  0.904271  0.362296  1
  H  H25  1  0.317371  0.127397  0.809084  1
  H  H26  1  0.350747  0.490169  0.266523  1
  H  H27  1  0.310364  0.443491  0.012630  1
  H  H28  1  0.369777  0.064940  0.939756  1
  H  H29  1  0.267071  0.254017  0.117549  1
  H  H30  1  0.497103  0.620744  0.328341  1
  H  H31  1  0.502897  0.379256  0.671659  1
  H  H32  1  0.732929  0.745983  0.882451  1
  H  H33  1  0.630223  0.935060  0.060244  1
  H  H34  1  0.689636  0.556509  0.987370  1
  H  H35  1  0.649253  0.509831  0.733477  1
  H  H36  1  0.682629  0.872603  0.190916  1
  H  H37  1  0.508939  0.095729  0.637704  1
  H  H38  1  0.659224  0.756267  0.996128  1
  H  H39  1  0.653099  0.058065  0.696270  1
  H  H40  1  0.687411  0.321959  0.486885  1
  H  H41  1  0.599300  0.291498  0.146630  1
  H  H42  1  0.751421  0.513106  0.122451  1
  H  H43  1  0.756056  0.015575  0.895069  1
  H  H44  1  0.850555  0.477673  0.540708  1
  H  H45  1  0.679192  0.186793  0.201614  1
  H  H46  1  0.965548  0.456001  0.862071  1
  H  H47  1  0.846122  0.298386  0.566274  1
  H  H48  1  0.974490  0.302717  0.878315  1
  H  H49  1  0.839824  0.085361  0.035605  1
  O  O50  1  0.028674  0.894801  0.816436  1
  O  O51  1  0.022608  0.623029  0.802012  1
  O  O52  1  0.059639  0.832311  0.403179  1
  O  O53  1  0.169756  0.836055  0.659385  1
  O  O54  1  0.031843  0.156511  0.866149  1
  O  O55  1  0.090742  0.641960  0.122949  1
  O  O56  1  0.087245  0.374487  0.456937  1
  O  O57  1  0.285511  0.522195  0.967530  1
  O  O58  1  0.209783  0.635045  0.453737  1
  O  O59  1  0.208506  0.396902  0.713222  1
  O  O60  1  0.377976  0.789977  0.876948  1
  O  O61  1  0.255337  0.936086  0.031972  1
  O  O62  1  0.072807  0.099490  0.434814  1
  O  O63  1  0.170923  0.107454  0.681446  1
  O  O64  1  0.396697  0.874469  0.295205  1
  O  O65  1  0.230117  0.308903  0.299204  1
  O  O66  1  0.334010  0.306302  0.548267  1
  O  O67  1  0.498044  0.738479  0.605152  1
  O  O68  1  0.410367  0.587535  0.253216  1
  O  O69  1  0.399073  0.147173  0.888783  1
  O  O70  1  0.225158  0.046840  0.275551  1
  O  O71  1  0.655366  0.693561  0.925336  1
  O  O72  1  0.324840  0.047166  0.521075  1
  O  O73  1  0.675160  0.952834  0.478925  1
  O  O74  1  0.344634  0.306439  0.074664  1
  O  O75  1  0.774842  0.953160  0.724449  1
  O  O76  1  0.600927  0.852827  0.111217  1
  O  O77  1  0.589633  0.412465  0.746784  1
  O  O78  1  0.501956  0.261521  0.394848  1
  O  O79  1  0.665990  0.693698  0.451733  1
  O  O80  1  0.769883  0.691097  0.700796  1
  O  O81  1  0.603303  0.125531  0.704795  1
  O  O82  1  0.829077  0.892546  0.318554  1
  O  O83  1  0.927193  0.900510  0.565186  1
  O  O84  1  0.744663  0.063914  0.968028  1
  O  O85  1  0.622024  0.210023  0.123052  1
  O  O86  1  0.791494  0.603098  0.286778  1
  O  O87  1  0.790217  0.364955  0.546263  1
  O  O88  1  0.714489  0.477805  0.032470  1
  O  O89  1  0.912755  0.625513  0.543063  1
  O  O90  1  0.909258  0.358040  0.877051  1
  O  O91  1  0.968157  0.843489  0.133851  1
  O  O92  1  0.830244  0.163945  0.340614  1
  O  O93  1  0.940361  0.167689  0.596821  1
  O  O94  1  0.977392  0.376971  0.197988  1
  O  O95  1  0.971326  0.105199  0.183564  1
