# generated using pymatgen
data_LiFe2(BO3)2
_symmetry_space_group_name_H-M   'P 1'
_cell_length_a   5.25018474
_cell_length_b   9.10989211
_cell_length_c   11.41870611
_cell_angle_alpha   66.83512700
_cell_angle_beta   77.04659002
_cell_angle_gamma   89.43100042
_symmetry_Int_Tables_number   1
_chemical_formula_structural   LiFe2(BO3)2
_chemical_formula_sum   'Li4 Fe8 B8 O24'
_cell_volume   487.46224383
_cell_formula_units_Z   4
loop_
 _symmetry_equiv_pos_site_id
 _symmetry_equiv_pos_as_xyz
  1  'x, y, z'
loop_
 _atom_site_type_symbol
 _atom_site_label
 _atom_site_symmetry_multiplicity
 _atom_site_fract_x
 _atom_site_fract_y
 _atom_site_fract_z
 _atom_site_occupancy
  Li  Li0  1  0.972263  0.963008  0.414977  1
  Li  Li1  1  0.511840  0.487864  0.666409  1
  Li  Li2  1  0.738947  0.758863  0.153155  1
  Li  Li3  1  0.229763  0.252881  0.161392  1
  Fe  Fe4  1  0.988611  0.639057  0.381577  1
  Fe  Fe5  1  0.731120  0.065624  0.874593  1
  Fe  Fe6  1  0.519855  0.851182  0.633319  1
  Fe  Fe7  1  0.761051  0.432681  0.126888  1
  Fe  Fe8  1  0.226686  0.573980  0.872466  1
  Fe  Fe9  1  0.471744  0.157200  0.388349  1
  Fe  Fe10  1  0.038922  0.334362  0.627446  1
  Fe  Fe11  1  0.249160  0.942689  0.125666  1
  B  B12  1  0.974999  0.316759  0.367174  1
  B  B13  1  0.735804  0.396377  0.879313  1
  B  B14  1  0.528900  0.186175  0.632203  1
  B  B15  1  0.757402  0.107086  0.128229  1
  B  B16  1  0.492224  0.819703  0.373545  1
  B  B17  1  0.224756  0.894866  0.883771  1
  B  B18  1  0.016942  0.680733  0.623019  1
  B  B19  1  0.267059  0.599195  0.130264  1
  O  O20  1  0.963219  0.904557  0.893132  1
  O  O21  1  0.861378  0.279724  0.847254  1
  O  O22  1  0.864011  0.480952  0.933079  1
  O  O23  1  0.899302  0.818108  0.608376  1
  O  O24  1  0.919107  0.569532  0.581430  1
  O  O25  1  0.753149  0.153137  0.683059  1
  O  O26  1  0.753342  0.346910  0.315564  1
  O  O27  1  0.495417  0.437351  0.856088  1
  O  O28  1  0.355340  0.783987  0.840820  1
  O  O29  1  0.575979  0.928418  0.415955  1
  O  O30  1  0.655489  0.708953  0.350795  1
  O  O31  1  0.364351  0.986934  0.924665  1
  O  O32  1  0.651583  0.996687  0.091176  1
  O  O33  1  0.408810  0.321708  0.626912  1
  O  O34  1  0.438599  0.083091  0.586195  1
  O  O35  1  0.597889  0.222180  0.154026  1
  O  O36  1  0.526582  0.594761  0.130790  1
  O  O37  1  0.240457  0.645319  0.675737  1
  O  O38  1  0.238132  0.821980  0.349473  1
  O  O39  1  0.055429  0.417755  0.418379  1
  O  O40  1  0.110739  0.189398  0.360919  1
  O  O41  1  0.152622  0.497914  0.084609  1
  O  O42  1  0.110741  0.699925  0.175136  1
  O  O43  1  0.009904  0.105107  0.141551  1
