# generated using pymatgen
data_AgBrO4
_symmetry_space_group_name_H-M   'P 1'
_cell_length_a   5.84442236
_cell_length_b   8.66993505
_cell_length_c   7.41683437
_cell_angle_alpha   90.00000000
_cell_angle_beta   92.89244248
_cell_angle_gamma   90.00000000
_symmetry_Int_Tables_number   1
_chemical_formula_structural   AgBrO4
_chemical_formula_sum   'Ag4 Br4 O16'
_cell_volume   375.33786928
_cell_formula_units_Z   4
loop_
 _symmetry_equiv_pos_site_id
 _symmetry_equiv_pos_as_xyz
  1  'x, y, z'
loop_
 _atom_site_type_symbol
 _atom_site_label
 _atom_site_symmetry_multiplicity
 _atom_site_fract_x
 _atom_site_fract_y
 _atom_site_fract_z
 _atom_site_occupancy
  Ag  Ag0  1  0.249710  0.533438  0.335222  1
  Ag  Ag1  1  0.250290  0.033438  0.164778  1
  Ag  Ag2  1  0.749710  0.966562  0.835222  1
  Ag  Ag3  1  0.750290  0.466562  0.664778  1
  Br  Br4  1  0.244556  0.686245  0.840339  1
  Br  Br5  1  0.255444  0.186245  0.659661  1
  Br  Br6  1  0.744556  0.813755  0.340339  1
  Br  Br7  1  0.755444  0.313755  0.159661  1
  O  O8  1  0.010398  0.776233  0.282766  1
  O  O9  1  0.093317  0.621807  0.657012  1
  O  O10  1  0.116726  0.849374  0.905409  1
  O  O11  1  0.253495  0.055195  0.497613  1
  O  O12  1  0.246505  0.555195  0.002387  1
  O  O13  1  0.383274  0.349374  0.594591  1
  O  O14  1  0.406683  0.121807  0.842988  1
  O  O15  1  0.510398  0.723767  0.782766  1
  O  O16  1  0.489602  0.276233  0.217234  1
  O  O17  1  0.593317  0.878193  0.157012  1
  O  O18  1  0.616726  0.650626  0.405409  1
  O  O19  1  0.753495  0.444805  0.997614  1
  O  O20  1  0.746505  0.944805  0.502386  1
  O  O21  1  0.883274  0.150626  0.094591  1
  O  O22  1  0.906683  0.378193  0.342988  1
  O  O23  1  0.989602  0.223767  0.717234  1
