# generated using pymatgen
data_Li2MnOF3
_symmetry_space_group_name_H-M   'P 1'
_cell_length_a   3.01327282
_cell_length_b   5.24268432
_cell_length_c   9.56186594
_cell_angle_alpha   90.00000000
_cell_angle_beta   92.67694886
_cell_angle_gamma   90.00000000
_symmetry_Int_Tables_number   1
_chemical_formula_structural   Li2MnOF3
_chemical_formula_sum   'Li4 Mn2 O2 F6'
_cell_volume   150.89005905
_cell_formula_units_Z   2
loop_
 _symmetry_equiv_pos_site_id
 _symmetry_equiv_pos_as_xyz
  1  'x, y, z'
loop_
 _atom_site_type_symbol
 _atom_site_label
 _atom_site_symmetry_multiplicity
 _atom_site_fract_x
 _atom_site_fract_y
 _atom_site_fract_z
 _atom_site_occupancy
  Li  Li0  1  0.485113  0.473948  0.820766  1
  Li  Li1  1  0.485113  0.026052  0.320766  1
  Li  Li2  1  0.520958  0.029271  0.688896  1
  Li  Li3  1  0.520958  0.470729  0.188896  1
  Mn  Mn4  1  0.995324  0.517648  0.512828  1
  Mn  Mn5  1  0.995324  0.982352  0.012828  1
  O  O6  1  0.475602  0.388780  0.617335  1
  O  O7  1  0.475602  0.111220  0.117335  1
  F  F8  1  0.013188  0.860837  0.615881  1
  F  F9  1  0.013188  0.639163  0.115881  1
  F  F10  1  0.990672  0.267548  0.860959  1
  F  F11  1  0.519141  0.827828  0.883335  1
  F  F12  1  0.990672  0.232452  0.360959  1
  F  F13  1  0.519141  0.672172  0.383335  1
