# generated using pymatgen
data_NaSb3O8
_symmetry_space_group_name_H-M   'P 1'
_cell_length_a   15.07201730
_cell_length_b   5.26309191
_cell_length_c   7.57499349
_cell_angle_alpha   90.00000000
_cell_angle_beta   78.47194501
_cell_angle_gamma   90.00000000
_symmetry_Int_Tables_number   1
_chemical_formula_structural   NaSb3O8
_chemical_formula_sum   'Na4 Sb12 O32'
_cell_volume   588.76771840
_cell_formula_units_Z   4
loop_
 _symmetry_equiv_pos_site_id
 _symmetry_equiv_pos_as_xyz
  1  'x, y, z'
loop_
 _atom_site_type_symbol
 _atom_site_label
 _atom_site_symmetry_multiplicity
 _atom_site_fract_x
 _atom_site_fract_y
 _atom_site_fract_z
 _atom_site_occupancy
  Na  Na0  1  0.078496  0.760391  0.653242  1
  Na  Na1  1  0.421504  0.260391  0.846758  1
  Na  Na2  1  0.578496  0.739609  0.153242  1
  Na  Na3  1  0.921504  0.239609  0.346758  1
  Sb  Sb4  1  0.165252  0.264657  0.812345  1
  Sb  Sb5  1  0.083966  0.760307  0.155819  1
  Sb  Sb6  1  0.161954  0.261207  0.324844  1
  Sb  Sb7  1  0.334748  0.764657  0.687655  1
  Sb  Sb8  1  0.338046  0.761207  0.175156  1
  Sb  Sb9  1  0.416034  0.260307  0.344181  1
  Sb  Sb10  1  0.583966  0.739693  0.655819  1
  Sb  Sb11  1  0.661954  0.238793  0.824844  1
  Sb  Sb12  1  0.665252  0.235343  0.312345  1
  Sb  Sb13  1  0.838046  0.738793  0.675156  1
  Sb  Sb14  1  0.916034  0.239693  0.844181  1
  Sb  Sb15  1  0.834748  0.735343  0.187655  1
  O  O16  1  0.039853  0.112677  0.830017  1
  O  O17  1  0.100838  0.580617  0.925457  1
  O  O18  1  0.052170  0.452547  0.302651  1
  O  O19  1  0.092837  0.946424  0.382564  1
  O  O20  1  0.157117  0.394720  0.567465  1
  O  O21  1  0.216557  0.938601  0.697792  1
  O  O22  1  0.158298  0.091540  0.063776  1
  O  O23  1  0.283443  0.438601  0.802208  1
  O  O24  1  0.216491  0.589711  0.193390  1
  O  O25  1  0.342883  0.894720  0.932535  1
  O  O26  1  0.283510  0.089711  0.306610  1
  O  O27  1  0.341702  0.591540  0.436224  1
  O  O28  1  0.399162  0.080617  0.574543  1
  O  O29  1  0.460147  0.612677  0.669983  1
  O  O30  1  0.407163  0.446424  0.117436  1
  O  O31  1  0.552170  0.047453  0.802651  1
  O  O32  1  0.447830  0.952547  0.197349  1
  O  O33  1  0.592837  0.553576  0.882564  1
  O  O34  1  0.539853  0.387323  0.330017  1
  O  O35  1  0.600838  0.919383  0.425457  1
  O  O36  1  0.658298  0.408460  0.563776  1
  O  O37  1  0.716491  0.910289  0.693390  1
  O  O38  1  0.657117  0.105280  0.067465  1
  O  O39  1  0.783509  0.410289  0.806610  1
  O  O40  1  0.716557  0.561399  0.197792  1
  O  O41  1  0.841702  0.908460  0.936224  1
  O  O42  1  0.783443  0.061399  0.302208  1
  O  O43  1  0.842883  0.605280  0.432535  1
  O  O44  1  0.907163  0.053576  0.617436  1
  O  O45  1  0.947830  0.547453  0.697349  1
  O  O46  1  0.899162  0.419383  0.074543  1
  O  O47  1  0.960147  0.887323  0.169983  1
