# generated using pymatgen
data_Li2Cu2Si4O11
_symmetry_space_group_name_H-M   'P 1'
_cell_length_a   8.56061521
_cell_length_b   7.67723188
_cell_length_c   7.10131132
_cell_angle_alpha   109.85187591
_cell_angle_beta   102.84718530
_cell_angle_gamma   96.96163324
_symmetry_Int_Tables_number   1
_chemical_formula_structural   Li2Cu2Si4O11
_chemical_formula_sum   'Li4 Cu4 Si8 O22'
_cell_volume   418.02425071
_cell_formula_units_Z   2
loop_
 _symmetry_equiv_pos_site_id
 _symmetry_equiv_pos_as_xyz
  1  'x, y, z'
loop_
 _atom_site_type_symbol
 _atom_site_label
 _atom_site_symmetry_multiplicity
 _atom_site_fract_x
 _atom_site_fract_y
 _atom_site_fract_z
 _atom_site_occupancy
  Li  Li0  1  0.200158  0.802530  0.611923  1
  Li  Li1  1  0.160938  0.742078  0.148494  1
  Li  Li2  1  0.839062  0.257922  0.851506  1
  Li  Li3  1  0.799842  0.197470  0.388077  1
  Cu  Cu4  1  0.390440  0.614204  0.877287  1
  Cu  Cu5  1  0.399861  0.611211  0.367548  1
  Cu  Cu6  1  0.600139  0.388789  0.632452  1
  Cu  Cu7  1  0.609560  0.385796  0.122713  1
  Si  Si8  1  0.031840  0.390477  0.242025  1
  Si  Si9  1  0.233127  0.215678  0.956218  1
  Si  Si10  1  0.221408  0.216820  0.521437  1
  Si  Si11  1  0.595826  0.979488  0.777000  1
  Si  Si12  1  0.404174  0.020512  0.223000  1
  Si  Si13  1  0.778592  0.783180  0.478563  1
  Si  Si14  1  0.766873  0.784322  0.043782  1
  Si  Si15  1  0.968160  0.609523  0.757975  1
  O  O16  1  0.156723  0.602653  0.820970  1
  O  O17  1  0.055492  0.265972  0.396500  1
  O  O18  1  0.161220  0.593574  0.328900  1
  O  O19  1  0.062580  0.251819  0.019417  1
  O  O20  1  0.178331  0.144651  0.700185  1
  O  O21  1  0.267919  0.030840  0.363325  1
  O  O22  1  0.435190  0.810081  0.651300  1
  O  O23  1  0.369511  0.401411  0.603789  1
  O  O24  1  0.425127  0.803624  0.159771  1
  O  O25  1  0.294185  0.038521  0.006520  1
  O  O26  1  0.375507  0.406596  0.083328  1
  O  O27  1  0.624493  0.593404  0.916672  1
  O  O28  1  0.705815  0.961479  0.993480  1
  O  O29  1  0.574873  0.196376  0.840229  1
  O  O30  1  0.630489  0.598589  0.396211  1
  O  O31  1  0.564810  0.189919  0.348700  1
  O  O32  1  0.732081  0.969160  0.636675  1
  O  O33  1  0.821669  0.855349  0.299815  1
  O  O34  1  0.937420  0.748181  0.980583  1
  O  O35  1  0.838780  0.406426  0.671100  1
  O  O36  1  0.944508  0.734028  0.603500  1
  O  O37  1  0.843276  0.397347  0.179030  1
