# generated using pymatgen
data_Na2CrPCO7
_symmetry_space_group_name_H-M   'P 1'
_cell_length_a   8.97013336
_cell_length_b   6.53939033
_cell_length_c   5.21149774
_cell_angle_alpha   90.00000000
_cell_angle_beta   89.23872435
_cell_angle_gamma   90.00000000
_symmetry_Int_Tables_number   1
_chemical_formula_structural   Na2CrPCO7
_chemical_formula_sum   'Na4 Cr2 P2 C2 O14'
_cell_volume   305.67532218
_cell_formula_units_Z   2
loop_
 _symmetry_equiv_pos_site_id
 _symmetry_equiv_pos_as_xyz
  1  'x, y, z'
loop_
 _atom_site_type_symbol
 _atom_site_label
 _atom_site_symmetry_multiplicity
 _atom_site_fract_x
 _atom_site_fract_y
 _atom_site_fract_z
 _atom_site_occupancy
  Na  Na0  1  0.235045  0.493579  0.235313  1
  Na  Na1  1  0.235045  0.006421  0.235313  1
  Na  Na2  1  0.764955  0.506421  0.764687  1
  Na  Na3  1  0.764955  0.993579  0.764687  1
  Cr  Cr4  1  0.349147  0.750000  0.782705  1
  Cr  Cr5  1  0.650853  0.250000  0.217295  1
  P  P6  1  0.424138  0.250000  0.711637  1
  P  P7  1  0.575862  0.750000  0.288363  1
  C  C8  1  0.076300  0.750000  0.727315  1
  C  C9  1  0.923700  0.250000  0.272685  1
  O  O10  1  0.061889  0.250000  0.297190  1
  O  O11  1  0.143661  0.750000  0.950393  1
  O  O12  1  0.172835  0.750000  0.532827  1
  O  O13  1  0.332201  0.059382  0.789962  1
  O  O14  1  0.332201  0.440618  0.789962  1
  O  O15  1  0.422808  0.750000  0.151597  1
  O  O16  1  0.452426  0.250000  0.414120  1
  O  O17  1  0.547574  0.750000  0.585880  1
  O  O18  1  0.577192  0.250000  0.848403  1
  O  O19  1  0.667799  0.559382  0.210038  1
  O  O20  1  0.667799  0.940618  0.210038  1
  O  O21  1  0.827165  0.250000  0.467173  1
  O  O22  1  0.856339  0.250000  0.049607  1
  O  O23  1  0.938111  0.750000  0.702810  1
