# generated using pymatgen
data_Li6V3P8O29
_symmetry_space_group_name_H-M   'P 1'
_cell_length_a   9.81361517
_cell_length_b   9.83846533
_cell_length_c   13.98139659
_cell_angle_alpha   90.65440564
_cell_angle_beta   90.39672645
_cell_angle_gamma   59.97793327
_symmetry_Int_Tables_number   1
_chemical_formula_structural   Li6V3P8O29
_chemical_formula_sum   'Li12 V6 P16 O58'
_cell_volume   1168.72465372
_cell_formula_units_Z   2
loop_
 _symmetry_equiv_pos_site_id
 _symmetry_equiv_pos_as_xyz
  1  'x, y, z'
loop_
 _atom_site_type_symbol
 _atom_site_label
 _atom_site_symmetry_multiplicity
 _atom_site_fract_x
 _atom_site_fract_y
 _atom_site_fract_z
 _atom_site_occupancy
  Li  Li0  1  0.770820  0.905012  0.562274  1
  Li  Li1  1  0.907779  0.323982  0.564613  1
  Li  Li2  1  0.677964  0.664188  0.885494  1
  Li  Li3  1  0.764113  0.328267  0.059931  1
  Li  Li4  1  0.319791  0.907625  0.059349  1
  Li  Li5  1  0.681262  0.227100  0.440826  1
  Li  Li6  1  0.323203  0.768960  0.561677  1
  Li  Li7  1  0.230832  0.671680  0.938315  1
  Li  Li8  1  0.330018  0.329324  0.111808  1
  Li  Li9  1  0.092276  0.678315  0.436948  1
  Li  Li10  1  0.228271  0.090169  0.442154  1
  Li  Li11  1  0.946482  0.011844  0.990711  1
  V  V12  1  0.570493  0.431461  0.252246  1
  V  V13  1  0.431555  0.567994  0.748120  1
  V  V14  1  0.568985  0.002474  0.753385  1
  V  V15  1  0.436888  0.998985  0.246688  1
  V  V16  1  0.995807  0.570223  0.245126  1
  V  V17  1  0.006621  0.431588  0.754817  1
  P  P18  1  0.912951  0.779299  0.839665  1
  P  P19  1  0.768237  0.914039  0.342220  1
  P  P20  1  0.917189  0.320376  0.344802  1
  P  P21  1  0.665872  0.664516  0.125968  1
  P  P22  1  0.669490  0.665393  0.629207  1
  P  P23  1  0.775042  0.318117  0.844616  1
  P  P24  1  0.681900  0.230945  0.660824  1
  P  P25  1  0.317919  0.909120  0.843809  1
  P  P26  1  0.691695  0.086716  0.157815  1
  P  P27  1  0.319142  0.769497  0.341207  1
  P  P28  1  0.228088  0.679147  0.157942  1
  P  P29  1  0.332937  0.334203  0.370212  1
  P  P30  1  0.334732  0.338116  0.872906  1
  P  P31  1  0.085730  0.678878  0.654443  1
  P  P32  1  0.232168  0.084246  0.660277  1
  P  P33  1  0.085413  0.222621  0.158257  1
  O  O34  1  0.999528  0.755346  0.563264  1
  O  O35  1  0.918029  0.750370  0.338472  1
  O  O36  1  0.790010  0.003791  0.074170  1
  O  O37  1  0.742062  0.919959  0.837589  1
  O  O38  1  0.900337  0.628485  0.834634  1
  O  O39  1  0.808076  0.671049  0.168760  1
  O  O40  1  0.906510  0.478509  0.322728  1
  O  O41  1  0.986042  0.217647  0.078587  1
  O  O42  1  0.916838  0.341923  0.838987  1
  O  O43  1  0.673338  0.814438  0.667869  1
  O  O44  1  0.621417  0.900268  0.322551  1
  O  O45  1  0.817006  0.516616  0.673688  1
  O  O46  1  0.659717  0.665812  0.018439  1
  O  O47  1  0.671022  0.657843  0.522432  1
  O  O48  1  0.669793  0.513719  0.163810  1
  O  O49  1  0.482795  0.890690  0.830938  1
  O  O50  1  0.511306  0.816201  0.165289  1
  O  O51  1  0.751883  0.335766  0.342792  1
  O  O52  1  0.790234  0.209951  0.751656  1
  O  O53  1  0.756663  0.245654  0.570757  1
  O  O54  1  0.777350  0.232382  0.933162  1
  O  O55  1  0.624445  0.480573  0.830424  1
  O  O56  1  0.514455  0.672236  0.668359  1
  O  O57  1  0.660472  0.259847  0.163049  1
  O  O58  1  0.479353  0.619583  0.320132  1
  O  O59  1  0.335726  0.916280  0.341453  1
  O  O60  1  0.786623  0.011279  0.256144  1
  O  O61  1  0.755765  -0.000010  0.434612  1
  O  O62  1  0.245543  0.994413  0.569363  1
  O  O63  1  0.663768  0.084160  0.659156  1
  O  O64  1  0.520615  0.380701  0.679370  1
  O  O65  1  0.338335  0.740938  0.837361  1
  O  O66  1  0.488882  0.326811  0.333387  1
  O  O67  1  0.375185  0.515741  0.171190  1
  O  O68  1  0.232493  0.763399  0.069535  1
  O  O69  1  0.246095  0.752556  0.431131  1
  O  O70  1  0.209021  0.787851  0.250158  1
  O  O71  1  0.250078  0.666413  0.657432  1
  O  O72  1  0.479709  0.193020  0.830551  1
  O  O73  1  0.526446  0.100434  0.166092  1
  O  O74  1  0.325751  0.491864  0.835892  1
  O  O75  1  0.325411  0.344037  0.979957  1
  O  O76  1  0.331081  0.330326  0.476870  1
  O  O77  1  0.187370  0.484015  0.328334  1
  O  O78  1  0.383662  0.090787  0.680305  1
  O  O79  1  0.333084  0.183365  0.325289  1
  O  O80  1  0.082457  0.658227  0.160425  1
  O  O81  1  0.988930  0.796063  0.741594  1
  O  O82  1  0.005289  0.793133  0.921232  1
  O  O83  1  0.099410  0.520346  0.672743  1
  O  O84  1  0.184679  0.338998  0.828422  1
  O  O85  1  0.101615  0.371238  0.168016  1
  O  O86  1  0.253663  0.078982  0.155873  1
  O  O87  1  0.232606  0.986803  0.933714  1
  O  O88  1  0.211828  0.995790  0.751072  1
  O  O89  1  0.086164  0.248314  0.659943  1
  O  O90  1  0.001902  0.248290  0.437088  1
  O  O91  1  0.013989  0.203223  0.259009  1
