# generated using pymatgen
data_KV5Zn(H8O11)2
_symmetry_space_group_name_H-M   'P 1'
_cell_length_a   12.79216406
_cell_length_b   11.09596961
_cell_length_c   8.46377437
_cell_angle_alpha   101.26220827
_cell_angle_beta   104.00830634
_cell_angle_gamma   66.14268959
_symmetry_Int_Tables_number   1
_chemical_formula_structural   KV5Zn(H8O11)2
_chemical_formula_sum   'K2 V10 Zn2 H32 O44'
_cell_volume   1059.59535741
_cell_formula_units_Z   2
loop_
 _symmetry_equiv_pos_site_id
 _symmetry_equiv_pos_as_xyz
  1  'x, y, z'
loop_
 _atom_site_type_symbol
 _atom_site_label
 _atom_site_symmetry_multiplicity
 _atom_site_fract_x
 _atom_site_fract_y
 _atom_site_fract_z
 _atom_site_occupancy
  K  K0  1  0.478110  0.819466  0.816225  1
  K  K1  1  0.521890  0.180534  0.183775  1
  V  V2  1  0.993090  0.529889  0.326450  1
  V  V3  1  0.006910  0.470111  0.673550  1
  V  V4  1  0.756222  0.523630  0.376363  1
  V  V5  1  0.243778  0.476370  0.623637  1
  V  V6  1  0.035392  0.740432  0.639462  1
  V  V7  1  0.964608  0.259568  0.360538  1
  V  V8  1  0.781209  0.724288  0.685887  1
  V  V9  1  0.218791  0.275712  0.314113  1
  V  V10  1  0.796902  0.812145  0.344595  1
  V  V11  1  0.203098  0.187855  0.655405  1
  Zn  Zn12  1  0.178299  0.796301  0.168536  1
  Zn  Zn13  1  0.821701  0.203699  0.831464  1
  H  H14  1  0.493265  0.146566  0.615083  1
  H  H15  1  0.506735  0.853434  0.384917  1
  H  H16  1  0.032235  0.257439  0.114396  1
  H  H17  1  0.967765  0.742561  0.885604  1
  H  H18  1  0.691224  0.962930  0.596104  1
  H  H19  1  0.308776  0.037070  0.403896  1
  H  H20  1  0.861333  0.358943  0.632288  1
  H  H21  1  0.138667  0.641057  0.367712  1
  H  H22  1  0.909629  0.002469  0.583291  1
  H  H23  1  0.090371  0.997531  0.416709  1
  H  H24  1  0.326302  0.693440  0.910995  1
  H  H25  1  0.673698  0.306560  0.089005  1
  H  H26  1  0.961759  0.114843  0.607341  1
  H  H27  1  0.038241  0.885157  0.392659  1
  H  H28  1  0.963872  0.309990  0.854352  1
  H  H29  1  0.036128  0.690010  0.145648  1
  H  H30  1  0.890790  0.952813  0.890605  1
  H  H31  1  0.109210  0.047187  0.109395  1
  H  H32  1  0.805692  0.065560  0.006704  1
  H  H33  1  0.194308  0.934440  0.993296  1
  H  H34  1  0.463569  0.832564  0.317954  1
  H  H35  1  0.536431  0.167436  0.682046  1
  H  H36  1  0.865868  0.514557  0.854140  1
  H  H37  1  0.134132  0.485443  0.145860  1
  H  H38  1  0.729717  0.821153  0.957476  1
  H  H39  1  0.270283  0.178847  0.042524  1
  H  H40  1  0.382251  0.447317  0.034077  1
  H  H41  1  0.617749  0.552683  0.965923  1
  H  H42  1  0.587495  0.512339  0.905514  1
  H  H43  1  0.412505  0.487661  0.094486  1
  H  H44  1  0.375667  0.255532  0.712987  1
  H  H45  1  0.624333  0.744468  0.287013  1
  O  O46  1  0.718855  0.872334  0.543469  1
  O  O47  1  0.281145  0.127666  0.456531  1
  O  O48  1  0.905710  0.615195  0.520391  1
  O  O49  1  0.094290  0.384805  0.479609  1
  O  O50  1  0.120146  0.611907  0.460496  1
  O  O51  1  0.879854  0.388093  0.539504  1
  O  O52  1  0.911154  0.669159  0.223534  1
  O  O53  1  0.088846  0.330841  0.776466  1
  O  O54  1  0.106065  0.573356  0.734804  1
  O  O55  1  0.893935  0.426644  0.265196  1
  O  O56  1  0.696627  0.638673  0.571168  1
  O  O57  1  0.303373  0.361327  0.428832  1
  O  O58  1  0.667141  0.451069  0.274175  1
  O  O59  1  0.332859  0.548931  0.725825  1
  O  O60  1  0.703809  0.691912  0.268684  1
  O  O61  1  0.296191  0.308088  0.731316  1
  O  O62  1  0.932043  0.848530  0.491773  1
  O  O63  1  0.067957  0.151470  0.508227  1
  O  O64  1  0.123888  0.814424  0.726107  1
  O  O65  1  0.876112  0.185576  0.273893  1
  O  O66  1  0.924005  0.795651  0.793820  1
  O  O67  1  0.075995  0.204349  0.206180  1
  O  O68  1  0.277243  0.067012  0.772577  1
  O  O69  1  0.722757  0.932988  0.227423  1
  O  O70  1  0.894142  0.577092  0.823054  1
  O  O71  1  0.105858  0.422908  0.176946  1
  O  O72  1  0.692633  0.836549  0.843787  1
  O  O73  1  0.307367  0.163451  0.156213  1
  O  O74  1  0.676970  0.329949  0.599671  1
  O  O75  1  0.323030  0.670051  0.400329  1
  O  O76  1  0.340865  0.751730  0.146066  1
  O  O77  1  0.659135  0.248270  0.853934  1
  O  O78  1  0.897840  0.096194  0.629009  1
  O  O79  1  0.102160  0.903806  0.370991  1
  O  O80  1  0.628062  0.265559  0.493913  1
  O  O81  1  0.371938  0.734441  0.506087  1
  O  O82  1  0.879296  0.341374  0.842531  1
  O  O83  1  0.120704  0.658626  0.157469  1
  O  O84  1  0.874291  0.041592  0.956357  1
  O  O85  1  0.125709  0.958408  0.043643  1
  O  O86  1  0.527398  0.526378  0.555392  1
  O  O87  1  0.472602  0.473622  0.444608  1
  O  O88  1  0.663926  0.226459  0.022088  1
  O  O89  1  0.336074  0.773541  0.977912  1
