# generated using pymatgen
data_Li2MnFe(BO3)2
_symmetry_space_group_name_H-M   'P 1'
_cell_length_a   5.24291010
_cell_length_b   5.23562557
_cell_length_c   20.84927905
_cell_angle_alpha   89.12477002
_cell_angle_beta   91.18976384
_cell_angle_gamma   59.98708107
_symmetry_Int_Tables_number   1
_chemical_formula_structural   Li2MnFe(BO3)2
_chemical_formula_sum   'Li8 Mn4 Fe4 B8 O24'
_cell_volume   495.24671762
_cell_formula_units_Z   4
loop_
 _symmetry_equiv_pos_site_id
 _symmetry_equiv_pos_as_xyz
  1  'x, y, z'
loop_
 _atom_site_type_symbol
 _atom_site_label
 _atom_site_symmetry_multiplicity
 _atom_site_fract_x
 _atom_site_fract_y
 _atom_site_fract_z
 _atom_site_occupancy
  Li  Li0  1  0.325996  0.660182  0.665867  1
  Li  Li1  1  0.347553  0.675830  0.915565  1
  Li  Li2  1  0.319418  0.655459  0.167836  1
  Li  Li3  1  0.351833  0.670082  0.415527  1
  Li  Li4  1  0.652139  0.327397  0.792299  1
  Li  Li5  1  0.665012  0.346451  0.541881  1
  Li  Li6  1  0.637123  0.348375  0.291981  1
  Li  Li7  1  0.663964  0.347309  0.041140  1
  Mn  Mn8  1  0.330933  0.008113  0.558273  1
  Mn  Mn9  1  0.331919  0.003517  0.058476  1
  Mn  Mn10  1  0.678570  0.998077  0.931341  1
  Mn  Mn11  1  0.995241  0.328769  0.184266  1
  Fe  Fe12  1  0.686196  0.997293  0.434492  1
  Fe  Fe13  1  0.993413  0.327546  0.683594  1
  Fe  Fe14  1  0.004043  0.661675  0.807067  1
  Fe  Fe15  1  0.983620  0.672670  0.310092  1
  B  B16  1  0.004603  0.337808  0.935322  1
  B  B17  1  0.008646  0.331355  0.436057  1
  B  B18  1  0.329313  0.998804  0.810085  1
  B  B19  1  0.325355  0.011560  0.313887  1
  B  B20  1  0.665288  0.002243  0.687763  1
  B  B21  1  0.658444  0.000481  0.188771  1
  B  B22  1  0.997620  0.667147  0.562299  1
  B  B23  1  0.996928  0.666113  0.061986  1
  O  O24  1  0.063334  0.248888  0.791396  1
  O  O25  1  0.060526  0.261884  0.293413  1
  O  O26  1  0.255719  0.065685  0.951206  1
  O  O27  1  0.035204  0.575018  0.914408  1
  O  O28  1  0.263522  0.062115  0.451125  1
  O  O29  1  0.026793  0.578325  0.417527  1
  O  O30  1  0.580134  0.019624  0.824111  1
  O  O31  1  0.272425  0.642454  0.569497  1
  O  O32  1  0.575350  0.036552  0.327959  1
  O  O33  1  0.271707  0.640341  0.069731  1
  O  O34  1  0.348150  0.725869  0.817483  1
  O  O35  1  0.338636  0.742788  0.320615  1
  O  O36  1  0.641011  0.277956  0.694077  1
  O  O37  1  0.627851  0.277041  0.195375  1
  O  O38  1  0.728532  0.368310  0.942538  1
  O  O39  1  0.418970  0.984109  0.668374  1
  O  O40  1  0.734342  0.353456  0.442350  1
  O  O41  1  0.420729  0.969419  0.167649  1
  O  O42  1  0.963511  0.424488  0.577883  1
  O  O43  1  0.962660  0.423526  0.077811  1
  O  O44  1  0.754305  0.931619  0.540577  1
  O  O45  1  0.754278  0.930736  0.039841  1
  O  O46  1  0.936701  0.746601  0.701266  1
  O  O47  1  0.931240  0.750140  0.204122  1
