# generated using pymatgen
data_V3O7F
_symmetry_space_group_name_H-M   'P 1'
_cell_length_a   15.06636499
_cell_length_b   9.96265057
_cell_length_c   3.61397503
_cell_angle_alpha   90.00000000
_cell_angle_beta   90.00021686
_cell_angle_gamma   90.00000000
_symmetry_Int_Tables_number   1
_chemical_formula_structural   V3O7F
_chemical_formula_sum   'V12 O28 F4'
_cell_volume   542.46101211
_cell_formula_units_Z   4
loop_
 _symmetry_equiv_pos_site_id
 _symmetry_equiv_pos_as_xyz
  1  'x, y, z'
loop_
 _atom_site_type_symbol
 _atom_site_label
 _atom_site_symmetry_multiplicity
 _atom_site_fract_x
 _atom_site_fract_y
 _atom_site_fract_z
 _atom_site_occupancy
  V  V0  1  0.047854  0.250000  0.445983  1
  V  V1  1  0.164833  0.557553  0.495410  1
  V  V2  1  0.164833  0.942447  0.495410  1
  V  V3  1  0.335161  0.057557  0.995409  1
  V  V4  1  0.335161  0.442443  0.995409  1
  V  V5  1  0.452137  0.750000  0.945967  1
  V  V6  1  0.547863  0.250000  0.054033  1
  V  V7  1  0.664839  0.557557  0.004591  1
  V  V8  1  0.664839  0.942443  0.004591  1
  V  V9  1  0.835167  0.057553  0.504590  1
  V  V10  1  0.835167  0.442447  0.504590  1
  V  V11  1  0.952146  0.750000  0.554017  1
  O  O12  1  0.027543  0.250000  0.987795  1
  O  O13  1  0.064326  0.624086  0.501294  1
  O  O14  1  0.064326  0.875914  0.501294  1
  O  O15  1  0.122715  0.114906  0.490217  1
  O  O16  1  0.122715  0.385094  0.490217  1
  O  O17  1  0.199603  0.951445  0.995207  1
  O  O18  1  0.199603  0.548555  0.995207  1
  O  O19  1  0.300395  0.048554  0.495208  1
  O  O20  1  0.300395  0.451445  0.495208  1
  O  O21  1  0.377284  0.614905  0.990217  1
  O  O22  1  0.377284  0.885095  0.990217  1
  O  O23  1  0.435674  0.124086  0.001294  1
  O  O24  1  0.435674  0.375914  0.001294  1
  O  O25  1  0.472456  0.750000  0.487786  1
  O  O26  1  0.527544  0.250000  0.512214  1
  O  O27  1  0.564326  0.624086  0.998706  1
  O  O28  1  0.564326  0.875914  0.998706  1
  O  O29  1  0.622716  0.114905  0.009783  1
  O  O30  1  0.622716  0.385095  0.009783  1
  O  O31  1  0.699605  0.548554  0.504792  1
  O  O32  1  0.699605  0.951446  0.504792  1
  O  O33  1  0.800397  0.048555  0.004793  1
  O  O34  1  0.800397  0.451444  0.004793  1
  O  O35  1  0.877285  0.614906  0.509783  1
  O  O36  1  0.877285  0.885094  0.509783  1
  O  O37  1  0.935674  0.124086  0.498706  1
  O  O38  1  0.935674  0.375914  0.498706  1
  O  O39  1  0.972457  0.750000  0.012205  1
  F  F40  1  0.217312  0.750000  0.494715  1
  F  F41  1  0.282687  0.250000  0.994716  1
  F  F42  1  0.717313  0.750000  0.005284  1
  F  F43  1  0.782688  0.250000  0.505285  1
