# generated using pymatgen
data_Li2MnF4
_symmetry_space_group_name_H-M   'P 1'
_cell_length_a   6.00991711
_cell_length_b   5.48273720
_cell_length_c   10.58527590
_cell_angle_alpha   90.00000000
_cell_angle_beta   74.14893047
_cell_angle_gamma   90.00000000
_symmetry_Int_Tables_number   1
_chemical_formula_structural   Li2MnF4
_chemical_formula_sum   'Li8 Mn4 F16'
_cell_volume   335.53037591
_cell_formula_units_Z   4
loop_
 _symmetry_equiv_pos_site_id
 _symmetry_equiv_pos_as_xyz
  1  'x, y, z'
loop_
 _atom_site_type_symbol
 _atom_site_label
 _atom_site_symmetry_multiplicity
 _atom_site_fract_x
 _atom_site_fract_y
 _atom_site_fract_z
 _atom_site_occupancy
  Li  Li0  1  0.818553  0.746178  0.295482  1
  Li  Li1  1  0.100151  0.146340  0.073065  1
  Li  Li2  1  0.399849  0.646340  0.426935  1
  Li  Li3  1  0.681447  0.246178  0.204518  1
  Li  Li4  1  0.318553  0.753822  0.795482  1
  Li  Li5  1  0.600151  0.353660  0.573065  1
  Li  Li6  1  0.899849  0.853660  0.926935  1
  Li  Li7  1  0.181447  0.253822  0.704518  1
  Mn  Mn8  1  0.207182  0.140029  0.382609  1
  Mn  Mn9  1  0.292818  0.640029  0.117391  1
  Mn  Mn10  1  0.707182  0.359971  0.882609  1
  Mn  Mn11  1  0.792818  0.859971  0.617391  1
  F  F12  1  0.139068  0.818837  0.504219  1
  F  F13  1  0.961628  0.452939  0.204220  1
  F  F14  1  0.184308  0.840432  0.971766  1
  F  F15  1  0.091990  0.945627  0.231307  1
  F  F16  1  0.408010  0.445627  0.268693  1
  F  F17  1  0.315692  0.340432  0.528234  1
  F  F18  1  0.538372  0.952939  0.295780  1
  F  F19  1  0.360932  0.318837  0.995781  1
  F  F20  1  0.639068  0.681163  0.004219  1
  F  F21  1  0.461628  0.047061  0.704220  1
  F  F22  1  0.684308  0.659568  0.471766  1
  F  F23  1  0.591990  0.554373  0.731307  1
  F  F24  1  0.908010  0.054373  0.768693  1
  F  F25  1  0.815692  0.159568  0.028234  1
  F  F26  1  0.038372  0.547061  0.795780  1
  F  F27  1  0.860932  0.181163  0.495781  1
