# generated using pymatgen
data_LiVSO4F3
_symmetry_space_group_name_H-M   'P 1'
_cell_length_a   7.07148625
_cell_length_b   10.33798383
_cell_length_c   8.05703513
_cell_angle_alpha   90.00000000
_cell_angle_beta   89.44041028
_cell_angle_gamma   90.00000000
_symmetry_Int_Tables_number   1
_chemical_formula_structural   LiVSO4F3
_chemical_formula_sum   'Li4 V4 S4 O16 F12'
_cell_volume   588.98074016
_cell_formula_units_Z   4
loop_
 _symmetry_equiv_pos_site_id
 _symmetry_equiv_pos_as_xyz
  1  'x, y, z'
loop_
 _atom_site_type_symbol
 _atom_site_label
 _atom_site_symmetry_multiplicity
 _atom_site_fract_x
 _atom_site_fract_y
 _atom_site_fract_z
 _atom_site_occupancy
  Li  Li0  1  0.675956  0.227180  0.578860  1
  Li  Li1  1  0.675956  0.272820  0.078860  1
  Li  Li2  1  0.808632  0.771293  0.572458  1
  Li  Li3  1  0.808632  0.728707  0.072458  1
  V  V4  1  0.000657  0.493527  0.506906  1
  V  V5  1  0.000657  0.006473  0.006906  1
  V  V6  1  0.500158  0.506909  0.507230  1
  V  V7  1  0.500158  0.993091  0.007230  1
  S  S8  1  0.255502  0.001265  0.680519  1
  S  S9  1  0.255502  0.498735  0.180519  1
  S  S10  1  0.747295  0.498996  0.838376  1
  S  S11  1  0.747295  0.001004  0.338376  1
  O  O12  1  0.103561  0.062357  0.798309  1
  O  O13  1  0.103561  0.437643  0.298309  1
  O  O14  1  0.164527  0.901506  0.586473  1
  O  O15  1  0.164527  0.598494  0.086473  1
  O  O16  1  0.353969  0.104197  0.594302  1
  O  O17  1  0.353969  0.395803  0.094302  1
  O  O18  1  0.401001  0.937137  0.799965  1
  O  O19  1  0.401001  0.562863  0.299965  1
  O  O20  1  0.598706  0.439886  0.723467  1
  O  O21  1  0.598706  0.060114  0.223467  1
  O  O22  1  0.670167  0.606435  0.934190  1
  O  O23  1  0.670167  0.893565  0.434190  1
  O  O24  1  0.820043  0.392970  0.937921  1
  O  O25  1  0.820043  0.107030  0.437921  1
  O  O26  1  0.901127  0.556835  0.725657  1
  O  O27  1  0.901127  0.943165  0.225657  1
  F  F28  1  0.998853  0.833425  0.951984  1
  F  F29  1  0.998853  0.666575  0.451984  1
  F  F30  1  0.249636  0.498660  0.605807  1
  F  F31  1  0.249636  0.001340  0.105807  1
  F  F32  1  0.505842  0.164755  0.946766  1
  F  F33  1  0.505842  0.335245  0.446766  1
  F  F34  1  0.555057  0.668008  0.582149  1
  F  F35  1  0.555057  0.831992  0.082149  1
  F  F36  1  0.751680  0.997437  0.899177  1
  F  F37  1  0.751680  0.502563  0.399177  1
  F  F38  1  0.943682  0.331735  0.577268  1
  F  F39  1  0.943682  0.168265  0.077268  1
