# generated using pymatgen
data_Li10Co3Ni7O20
_symmetry_space_group_name_H-M   'P 1'
_cell_length_a   2.81507437
_cell_length_b   11.49959933
_cell_length_c   11.50002831
_cell_angle_alpha   112.66122873
_cell_angle_beta   82.98008893
_cell_angle_gamma   89.89520522
_symmetry_Int_Tables_number   1
_chemical_formula_structural   Li10Co3Ni7O20
_chemical_formula_sum   'Li10 Co3 Ni7 O20'
_cell_volume   340.47911204
_cell_formula_units_Z   1
loop_
 _symmetry_equiv_pos_site_id
 _symmetry_equiv_pos_as_xyz
  1  'x, y, z'
loop_
 _atom_site_type_symbol
 _atom_site_label
 _atom_site_symmetry_multiplicity
 _atom_site_fract_x
 _atom_site_fract_y
 _atom_site_fract_z
 _atom_site_occupancy
  Li  Li0  1  0.598547  0.550639  0.798293  1
  Li  Li1  1  0.599661  0.053735  0.803023  1
  Li  Li2  1  0.799444  0.153786  0.402786  1
  Li  Li3  1  0.795956  0.646107  0.397687  1
  Li  Li4  1  0.405806  0.945683  0.196967  1
  Li  Li5  1  0.400052  0.457777  0.205052  1
  Li  Li6  1  0.202298  0.849574  0.600599  1
  Li  Li7  1  0.197977  0.348435  0.595933  1
  Li  Li8  1  0.003460  0.249895  0.998152  1
  Li  Li9  1  0.001143  0.754815  0.003042  1
  Co  Co10  1  0.797365  0.399487  0.398458  1
  Co  Co11  1  0.402296  0.701175  0.200421  1
  Co  Co12  1  0.004081  0.001867  0.000518  1
  Ni  Ni13  1  0.805332  0.899462  0.393244  1
  Ni  Ni14  1  0.598887  0.302900  0.800516  1
  Ni  Ni15  1  0.597942  0.800741  0.804932  1
  Ni  Ni16  1  0.200856  0.600316  0.595440  1
  Ni  Ni17  1  0.400412  0.200824  0.199363  1
  Ni  Ni18  1  0.200739  0.098723  0.599227  1
  Ni  Ni19  1  0.996843  0.502617  0.007330  1
  O  O20  1  0.705064  0.718670  0.603578  1
  O  O21  1  0.880552  0.321671  0.217338  1
  O  O22  1  0.504864  0.116270  0.001547  1
  O  O23  1  0.699801  0.479183  0.580705  1
  O  O24  1  0.701844  0.985953  0.599438  1
  O  O25  1  0.901427  0.589072  0.202852  1
  O  O26  1  0.903682  0.813306  0.197935  1
  O  O27  1  0.493002  0.618959  0.017823  1
  O  O28  1  0.699262  0.210723  0.599921  1
  O  O29  1  0.920213  0.080084  0.181610  1
  O  O30  1  0.301449  0.013452  0.398911  1
  O  O31  1  0.104749  0.921149  0.818112  1
  O  O32  1  0.293763  0.513001  0.399694  1
  O  O33  1  0.311664  0.783040  0.383100  1
  O  O34  1  0.498674  0.388685  0.000796  1
  O  O35  1  0.088503  0.682785  0.797860  1
  O  O36  1  0.099739  0.191051  0.800245  1
  O  O37  1  0.098272  0.415395  0.800195  1
  O  O38  1  0.507998  0.888544  0.999643  1
  O  O39  1  0.296916  0.284914  0.397199  1
