# generated using pymatgen
data_MgP2H12O11
_symmetry_space_group_name_H-M   'P 1'
_cell_length_a   7.89613101
_cell_length_b   9.29768143
_cell_length_c   7.79348014
_cell_angle_alpha   95.10736419
_cell_angle_beta   107.06341801
_cell_angle_gamma   67.48828409
_symmetry_Int_Tables_number   1
_chemical_formula_structural   MgP2H12O11
_chemical_formula_sum   'Mg2 P4 H24 O22'
_cell_volume   505.12229374
_cell_formula_units_Z   2
loop_
 _symmetry_equiv_pos_site_id
 _symmetry_equiv_pos_as_xyz
  1  'x, y, z'
loop_
 _atom_site_type_symbol
 _atom_site_label
 _atom_site_symmetry_multiplicity
 _atom_site_fract_x
 _atom_site_fract_y
 _atom_site_fract_z
 _atom_site_occupancy
  Mg  Mg0  1  0.768056  0.711122  0.642075  1
  Mg  Mg1  1  0.231944  0.288878  0.357925  1
  P  P2  1  0.902263  0.319997  0.584286  1
  P  P3  1  0.097737  0.680002  0.415714  1
  P  P4  1  0.564674  0.085995  0.730157  1
  P  P5  1  0.435326  0.914005  0.269843  1
  H  H6  1  0.986529  0.168039  0.813763  1
  H  H7  1  0.013471  0.831961  0.186237  1
  H  H8  1  0.679018  0.214632  0.509350  1
  H  H9  1  0.320982  0.785368  0.490650  1
  H  H10  1  0.263241  0.138452  0.677314  1
  H  H11  1  0.736759  0.861548  0.322686  1
  H  H12  1  0.732609  0.127636  0.999958  1
  H  H13  1  0.267391  0.872364  0.000042  1
  H  H14  1  0.559975  0.616608  0.815115  1
  H  H15  1  0.440025  0.383392  0.184885  1
  H  H16  1  0.585904  0.767957  0.904116  1
  H  H17  1  0.414096  0.232043  0.095884  1
  H  H18  1  0.038521  0.627614  0.968796  1
  H  H19  1  0.961479  0.372386  0.031204  1
  H  H20  1  0.166168  0.581355  0.835624  1
  H  H21  1  0.833832  0.418645  0.164376  1
  H  H22  1  0.499949  0.407639  0.859048  1
  H  H23  1  0.500051  0.592361  0.140952  1
  H  H24  1  0.368363  0.493940  0.675455  1
  H  H25  1  0.631637  0.506060  0.324545  1
  H  H26  1  0.104277  0.926566  0.757463  1
  H  H27  1  0.895723  0.073434  0.242537  1
  H  H28  1  0.022342  0.936620  0.795379  1
  H  H29  1  0.977658  0.063380  0.204621  1
  O  O30  1  0.777776  0.490396  0.550257  1
  O  O31  1  0.222224  0.509604  0.449743  1
  O  O32  1  0.093198  0.266646  0.541966  1
  O  O33  1  0.906802  0.733354  0.458034  1
  O  O34  1  0.942605  0.280610  0.794485  1
  O  O35  1  0.057395  0.719390  0.205515  1
  O  O36  1  0.796089  0.211501  0.478542  1
  O  O37  1  0.203911  0.788499  0.521458  1
  O  O38  1  0.728306  0.931796  0.745019  1
  O  O39  1  0.271694  0.068204  0.254981  1
  O  O40  1  0.500573  0.191744  0.565739  1
  O  O41  1  0.499427  0.808256  0.434261  1
  O  O42  1  0.386223  0.063183  0.759397  1
  O  O43  1  0.613777  0.936817  0.240603  1
  O  O44  1  0.627747  0.188714  0.900007  1
  O  O45  1  0.372253  0.811286  0.099993  1
  O  O46  1  0.638172  0.681990  0.829929  1
  O  O47  1  0.361828  0.318010  0.170071  1
  O  O48  1  0.033125  0.615760  0.841272  1
  O  O49  1  0.966875  0.384240  0.158728  1
  O  O50  1  0.417945  0.511866  0.805022  1
  O  O51  1  0.582055  0.488134  0.194978  1
