# generated using pymatgen
data_LiFeSiO4
_symmetry_space_group_name_H-M   'P 1'
_cell_length_a   4.96479452
_cell_length_b   4.96479452
_cell_length_c   6.23548751
_cell_angle_alpha   90.00000000
_cell_angle_beta   90.00000000
_cell_angle_gamma   67.27973567
_symmetry_Int_Tables_number   1
_chemical_formula_structural   LiFeSiO4
_chemical_formula_sum   'Li2 Fe2 Si2 O8'
_cell_volume   141.77282502
_cell_formula_units_Z   2
loop_
 _symmetry_equiv_pos_site_id
 _symmetry_equiv_pos_as_xyz
  1  'x, y, z'
loop_
 _atom_site_type_symbol
 _atom_site_label
 _atom_site_symmetry_multiplicity
 _atom_site_fract_x
 _atom_site_fract_y
 _atom_site_fract_z
 _atom_site_occupancy
  Li  Li0  1  0.170150  0.170150  0.250000  1
  Li  Li1  1  0.829850  0.829850  0.750000  1
  Fe  Fe2  1  0.500000  0.500000  0.000000  1
  Fe  Fe3  1  0.500000  0.500000  0.500000  1
  Si  Si4  1  0.153110  0.153110  0.750000  1
  Si  Si5  1  0.846890  0.846890  0.250000  1
  O  O6  1  0.266206  0.786809  0.750000  1
  O  O7  1  0.213191  0.733794  0.250000  1
  O  O8  1  0.265195  0.265195  0.535787  1
  O  O9  1  0.734805  0.734805  0.035787  1
  O  O10  1  0.265195  0.265195  0.964213  1
  O  O11  1  0.734805  0.734805  0.464213  1
  O  O12  1  0.786809  0.266206  0.750000  1
  O  O13  1  0.733794  0.213191  0.250000  1
