# generated using pymatgen
data_Na2MgB12(H4O7)4
_symmetry_space_group_name_H-M   'P 1'
_cell_length_a   11.43240001
_cell_length_b   10.16183723
_cell_length_c   9.73879865
_cell_angle_alpha   93.37424068
_cell_angle_beta   90.00000000
_cell_angle_gamma   90.00000000
_symmetry_Int_Tables_number   1
_chemical_formula_structural   Na2MgB12(H4O7)4
_chemical_formula_sum   'Na4 Mg2 B24 H32 O56'
_cell_volume   1129.43562491
_cell_formula_units_Z   2
loop_
 _symmetry_equiv_pos_site_id
 _symmetry_equiv_pos_as_xyz
  1  'x, y, z'
loop_
 _atom_site_type_symbol
 _atom_site_label
 _atom_site_symmetry_multiplicity
 _atom_site_fract_x
 _atom_site_fract_y
 _atom_site_fract_z
 _atom_site_occupancy
  Na  Na0  1  0.397208  0.272182  0.556165  1
  Na  Na1  1  0.102792  0.272182  0.056165  1
  Na  Na2  1  0.897208  0.727818  0.943835  1
  Na  Na3  1  0.602792  0.727818  0.443835  1
  Mg  Mg4  1  0.000000  0.000000  0.000000  1
  Mg  Mg5  1  0.500000  0.000000  0.500000  1
  B  B6  1  0.985680  0.275455  0.351174  1
  B  B7  1  0.976926  0.094061  0.525489  1
  B  B8  1  0.681444  0.210145  0.411268  1
  B  B9  1  0.197088  0.526526  0.022460  1
  B  B10  1  0.822118  0.819545  0.209004  1
  B  B11  1  0.166174  0.467038  0.776437  1
  B  B12  1  0.333826  0.467038  0.276437  1
  B  B13  1  0.677882  0.819545  0.709004  1
  B  B14  1  0.302912  0.526526  0.522460  1
  B  B15  1  0.818556  0.210145  0.911268  1
  B  B16  1  0.523074  0.094061  0.025489  1
  B  B17  1  0.514320  0.275455  0.851174  1
  B  B18  1  0.485680  0.724545  0.148826  1
  B  B19  1  0.476926  0.905939  0.974511  1
  B  B20  1  0.181444  0.789855  0.088732  1
  B  B21  1  0.697088  0.473474  0.477540  1
  B  B22  1  0.322118  0.180455  0.290996  1
  B  B23  1  0.666174  0.532962  0.723563  1
  B  B24  1  0.833826  0.532962  0.223563  1
  B  B25  1  0.177882  0.180455  0.790996  1
  B  B26  1  0.802912  0.473474  0.977540  1
  B  B27  1  0.318556  0.789855  0.588732  1
  B  B28  1  0.023074  0.905939  0.474511  1
  B  B29  1  0.014320  0.724545  0.648826  1
  H  H30  1  0.862300  0.519866  0.424184  1
  H  H31  1  0.100613  0.484435  0.043868  1
  H  H32  1  0.083780  0.962161  0.779953  1
  H  H33  1  0.130694  0.675525  0.346882  1
  H  H34  1  0.957054  0.690749  0.234244  1
  H  H35  1  0.204922  0.088068  0.614042  1
  H  H36  1  0.310439  0.648962  0.565967  1
  H  H37  1  0.223942  0.813273  0.632480  1
  H  H38  1  0.276058  0.813273  0.132480  1
  H  H39  1  0.189561  0.648962  0.065967  1
  H  H40  1  0.295078  0.088068  0.114042  1
  H  H41  1  0.542946  0.690749  0.734244  1
  H  H42  1  0.369306  0.675525  0.846882  1
  H  H43  1  0.416220  0.962161  0.279953  1
  H  H44  1  0.399387  0.484435  0.543868  1
  H  H45  1  0.637700  0.519866  0.924184  1
  H  H46  1  0.362300  0.480134  0.075816  1
  H  H47  1  0.600613  0.515565  0.456132  1
  H  H48  1  0.583780  0.037839  0.720047  1
  H  H49  1  0.630694  0.324475  0.153117  1
  H  H50  1  0.457054  0.309251  0.265756  1
  H  H51  1  0.704922  0.911932  0.885958  1
  H  H52  1  0.810439  0.351038  0.934033  1
  H  H53  1  0.723943  0.186727  0.867520  1
  H  H54  1  0.776057  0.186727  0.367520  1
  H  H55  1  0.689561  0.351038  0.434033  1
  H  H56  1  0.795078  0.911932  0.385958  1
  H  H57  1  0.042946  0.309251  0.765756  1
  H  H58  1  0.869306  0.324475  0.653118  1
  H  H59  1  0.916220  0.037839  0.220047  1
  H  H60  1  0.899387  0.515565  0.956132  1
  H  H61  1  0.137700  0.480134  0.575816  1
  O  O62  1  0.712661  0.532744  0.874864  1
  O  O63  1  0.005359  0.919806  0.792439  1
  O  O64  1  0.917765  0.986970  0.444401  1
  O  O65  1  0.892650  0.131587  0.639689  1
  O  O66  1  0.626488  0.675588  0.698796  1
  O  O67  1  0.012169  0.218505  0.464585  1
  O  O68  1  0.086003  0.735705  0.290913  1
  O  O69  1  0.022244  0.585047  0.640251  1
  O  O70  1  0.639654  0.893702  0.614053  1
  O  O71  1  0.257014  0.512129  0.384598  1
  O  O72  1  0.032526  0.778872  0.782778  1
  O  O73  1  0.593980  0.155574  0.462933  1
  O  O74  1  0.552316  0.461251  0.722628  1
  O  O75  1  0.244894  0.159742  0.674557  1
  O  O76  1  0.255106  0.159742  0.174557  1
  O  O77  1  0.947684  0.461251  0.222628  1
  O  O78  1  0.906020  0.155574  0.962933  1
  O  O79  1  0.467474  0.778872  0.282778  1
  O  O80  1  0.242986  0.512129  0.884598  1
  O  O81  1  0.860346  0.893702  0.114053  1
  O  O82  1  0.477756  0.585047  0.140251  1
  O  O83  1  0.413997  0.735705  0.790913  1
  O  O84  1  0.487831  0.218505  0.964585  1
  O  O85  1  0.873512  0.675588  0.198796  1
  O  O86  1  0.607350  0.131587  0.139689  1
  O  O87  1  0.582235  0.986970  0.944401  1
  O  O88  1  0.494641  0.919806  0.292439  1
  O  O89  1  0.787339  0.532744  0.374864  1
  O  O90  1  0.212661  0.467256  0.625136  1
  O  O91  1  0.505359  0.080194  0.707561  1
  O  O92  1  0.417765  0.013030  0.055599  1
  O  O93  1  0.392650  0.868413  0.860311  1
  O  O94  1  0.126488  0.324412  0.801204  1
  O  O95  1  0.512169  0.781495  0.035415  1
  O  O96  1  0.586003  0.264295  0.209087  1
  O  O97  1  0.522244  0.414953  0.859749  1
  O  O98  1  0.139654  0.106298  0.885947  1
  O  O99  1  0.757014  0.487871  0.115402  1
  O  O100  1  0.532526  0.221128  0.717222  1
  O  O101  1  0.093980  0.844426  0.037067  1
  O  O102  1  0.052316  0.538749  0.777372  1
  O  O103  1  0.744894  0.840258  0.825443  1
  O  O104  1  0.755106  0.840258  0.325443  1
  O  O105  1  0.447684  0.538749  0.277372  1
  O  O106  1  0.406020  0.844426  0.537067  1
  O  O107  1  0.967474  0.221128  0.217222  1
  O  O108  1  0.742986  0.487871  0.615402  1
  O  O109  1  0.360346  0.106298  0.385947  1
  O  O110  1  0.977756  0.414953  0.359749  1
  O  O111  1  0.913997  0.264295  0.709087  1
  O  O112  1  0.987831  0.781495  0.535415  1
  O  O113  1  0.373512  0.324412  0.301204  1
  O  O114  1  0.107350  0.868413  0.360311  1
  O  O115  1  0.082235  0.013030  0.555599  1
  O  O116  1  0.994641  0.080194  0.207561  1
  O  O117  1  0.287339  0.467256  0.125136  1
