# generated using pymatgen
data_HClO4
_symmetry_space_group_name_H-M   'P 1'
_cell_length_a   9.15874405
_cell_length_b   16.18914023
_cell_length_c   8.85812922
_cell_angle_alpha   90.00000000
_cell_angle_beta   90.00000000
_cell_angle_gamma   90.00000000
_symmetry_Int_Tables_number   1
_chemical_formula_structural   HClO4
_chemical_formula_sum   'H16 Cl16 O64'
_cell_volume   1313.41423431
_cell_formula_units_Z   16
loop_
 _symmetry_equiv_pos_site_id
 _symmetry_equiv_pos_as_xyz
  1  'x, y, z'
loop_
 _atom_site_type_symbol
 _atom_site_label
 _atom_site_symmetry_multiplicity
 _atom_site_fract_x
 _atom_site_fract_y
 _atom_site_fract_z
 _atom_site_occupancy
  H  H0  1  0.239086  0.987310  0.869722  1
  H  H1  1  0.760914  0.012690  0.369722  1
  H  H2  1  0.260914  0.987310  0.369722  1
  H  H3  1  0.739086  0.012690  0.869722  1
  H  H4  1  0.517990  0.235279  0.668057  1
  H  H5  1  0.482010  0.764721  0.168057  1
  H  H6  1  0.982010  0.235279  0.168057  1
  H  H7  1  0.017990  0.764721  0.668057  1
  H  H8  1  0.480266  0.268094  0.174439  1
  H  H9  1  0.519734  0.731906  0.674439  1
  H  H10  1  0.019734  0.268094  0.674439  1
  H  H11  1  0.980266  0.731906  0.174439  1
  H  H12  1  0.265549  0.499588  0.109331  1
  H  H13  1  0.734451  0.500412  0.609331  1
  H  H14  1  0.234451  0.499588  0.609331  1
  H  H15  1  0.765549  0.500412  0.109331  1
  Cl  Cl16  1  0.040359  0.009814  0.747220  1
  Cl  Cl17  1  0.959641  0.990186  0.247220  1
  Cl  Cl18  1  0.459641  0.009814  0.247220  1
  Cl  Cl19  1  0.540359  0.990186  0.747220  1
  Cl  Cl20  1  0.715740  0.249597  0.538503  1
  Cl  Cl21  1  0.284260  0.750403  0.038503  1
  Cl  Cl22  1  0.784260  0.249597  0.038503  1
  Cl  Cl23  1  0.215740  0.750403  0.538503  1
  Cl  Cl24  1  0.295861  0.250793  0.026931  1
  Cl  Cl25  1  0.704139  0.749207  0.526931  1
  Cl  Cl26  1  0.204139  0.250793  0.526931  1
  Cl  Cl27  1  0.795861  0.749207  0.026931  1
  Cl  Cl28  1  0.458222  0.510244  0.248417  1
  Cl  Cl29  1  0.541778  0.489756  0.748417  1
  Cl  Cl30  1  0.041778  0.510244  0.748417  1
  Cl  Cl31  1  0.958222  0.489756  0.248417  1
  O  O32  1  0.147361  0.017323  0.896507  1
  O  O33  1  0.852639  0.982677  0.396507  1
  O  O34  1  0.352639  0.017323  0.396507  1
  O  O35  1  0.647361  0.982677  0.896507  1
  O  O36  1  0.005988  0.924058  0.731523  1
  O  O37  1  0.994012  0.075942  0.231523  1
  O  O38  1  0.494012  0.924058  0.231523  1
  O  O39  1  0.505988  0.075942  0.731523  1
  O  O40  1  0.120134  0.044397  0.624092  1
  O  O41  1  0.879866  0.955603  0.124092  1
  O  O42  1  0.379866  0.044397  0.124092  1
  O  O43  1  0.620134  0.955603  0.624092  1
  O  O44  1  0.918178  0.059599  0.793733  1
  O  O45  1  0.081822  0.940401  0.293733  1
  O  O46  1  0.581822  0.059599  0.293733  1
  O  O47  1  0.418178  0.940401  0.793733  1
  O  O48  1  0.614305  0.260341  0.692086  1
  O  O49  1  0.385695  0.739659  0.192086  1
  O  O50  1  0.885695  0.260341  0.192086  1
  O  O51  1  0.114305  0.739659  0.692086  1
  O  O52  1  0.755454  0.164141  0.530294  1
  O  O53  1  0.244546  0.835859  0.030294  1
  O  O54  1  0.744546  0.164141  0.030294  1
  O  O55  1  0.255454  0.835859  0.530294  1
  O  O56  1  0.835559  0.303163  0.574067  1
  O  O57  1  0.164441  0.696837  0.074067  1
  O  O58  1  0.664441  0.303163  0.074067  1
  O  O59  1  0.335559  0.696837  0.574067  1
  O  O60  1  0.627603  0.277868  0.416069  1
  O  O61  1  0.372397  0.722132  0.916069  1
  O  O62  1  0.872397  0.277868  0.916069  1
  O  O63  1  0.127603  0.722132  0.416069  1
  O  O64  1  0.382478  0.242949  0.190558  1
  O  O65  1  0.617522  0.757051  0.690558  1
  O  O66  1  0.117522  0.242949  0.690558  1
  O  O67  1  0.882478  0.757051  0.190558  1
  O  O68  1  0.164282  0.206666  0.060088  1
  O  O69  1  0.835718  0.793334  0.560088  1
  O  O70  1  0.335718  0.206666  0.560088  1
  O  O71  1  0.664282  0.793334  0.060088  1
  O  O72  1  0.275734  0.337224  0.999834  1
  O  O73  1  0.724266  0.662776  0.499834  1
  O  O74  1  0.224266  0.337224  0.499834  1
  O  O75  1  0.775734  0.662776  0.999834  1
  O  O76  1  0.386223  0.210349  0.918028  1
  O  O77  1  0.613777  0.789651  0.418028  1
  O  O78  1  0.113777  0.210349  0.418028  1
  O  O79  1  0.886223  0.789651  0.918028  1
  O  O80  1  0.362110  0.526095  0.092613  1
  O  O81  1  0.637890  0.473905  0.592613  1
  O  O82  1  0.137890  0.526095  0.592613  1
  O  O83  1  0.862110  0.473905  0.092613  1
  O  O84  1  0.472423  0.422760  0.264978  1
  O  O85  1  0.527577  0.577240  0.764978  1
  O  O86  1  0.027577  0.422760  0.764978  1
  O  O87  1  0.972423  0.577240  0.264978  1
  O  O88  1  0.380022  0.549437  0.368335  1
  O  O89  1  0.619978  0.450563  0.868335  1
  O  O90  1  0.119978  0.549437  0.868335  1
  O  O91  1  0.880022  0.450563  0.368335  1
  O  O92  1  0.591351  0.551806  0.208966  1
  O  O93  1  0.408649  0.448194  0.708966  1
  O  O94  1  0.908649  0.551806  0.708966  1
  O  O95  1  0.091351  0.448194  0.208966  1
