# generated using pymatgen
data_LiFe2OF5
_symmetry_space_group_name_H-M   'P 1'
_cell_length_a   5.43191760
_cell_length_b   5.43179149
_cell_length_c   9.05684186
_cell_angle_alpha   99.36850455
_cell_angle_beta   80.62681021
_cell_angle_gamma   62.82480075
_symmetry_Int_Tables_number   1
_chemical_formula_structural   LiFe2OF5
_chemical_formula_sum   'Li2 Fe4 O2 F10'
_cell_volume   225.82652563
_cell_formula_units_Z   2
loop_
 _symmetry_equiv_pos_site_id
 _symmetry_equiv_pos_as_xyz
  1  'x, y, z'
loop_
 _atom_site_type_symbol
 _atom_site_label
 _atom_site_symmetry_multiplicity
 _atom_site_fract_x
 _atom_site_fract_y
 _atom_site_fract_z
 _atom_site_occupancy
  Li  Li0  1  0.545005  0.705398  0.910490  1
  Li  Li1  1  0.776982  0.972838  0.444576  1
  Fe  Fe2  1  0.037495  0.212182  0.924964  1
  Fe  Fe3  1  0.378113  0.872004  0.244130  1
  Fe  Fe4  1  0.711959  0.538469  0.577022  1
  Fe  Fe5  1  0.959108  0.790769  0.082593  1
  O  O6  1  0.189071  0.991708  0.075975  1
  O  O7  1  0.735276  0.583864  0.076004  1
  F  F8  1  0.035645  0.184181  0.413348  1
  F  F9  1  0.142343  0.672522  0.253526  1
  F  F10  1  0.257055  0.428533  0.927531  1
  F  F11  1  0.605011  0.080479  0.253442  1
  F  F12  1  0.513424  0.337546  0.578056  1
  F  F13  1  0.377721  0.875306  0.759976  1
  F  F14  1  0.551450  0.729415  0.413368  1
  F  F15  1  0.862268  0.384276  0.759988  1
  F  F16  1  0.908219  0.741726  0.578253  1
  F  F17  1  0.815487  0.998345  0.927644  1
