# generated using pymatgen
data_K2H6PtC4N4O3
_symmetry_space_group_name_H-M   'P 1'
_cell_length_a   13.48519761
_cell_length_b   11.88421319
_cell_length_c   6.98029472
_cell_angle_alpha   90.00000000
_cell_angle_beta   90.00000000
_cell_angle_gamma   90.00000000
_symmetry_Int_Tables_number   1
_chemical_formula_structural   K2H6PtC4N4O3
_chemical_formula_sum   'K8 H24 Pt4 C16 N16 O12'
_cell_volume   1118.66875599
_cell_formula_units_Z   4
loop_
 _symmetry_equiv_pos_site_id
 _symmetry_equiv_pos_as_xyz
  1  'x, y, z'
loop_
 _atom_site_type_symbol
 _atom_site_label
 _atom_site_symmetry_multiplicity
 _atom_site_fract_x
 _atom_site_fract_y
 _atom_site_fract_z
 _atom_site_occupancy
  K  K0  1  0.343840  0.859795  0.795822  1
  K  K1  1  0.156160  0.640205  0.295822  1
  K  K2  1  0.843840  0.640205  0.204178  1
  K  K3  1  0.656160  0.859795  0.704178  1
  K  K4  1  0.656160  0.140206  0.204178  1
  K  K5  1  0.843840  0.359795  0.704178  1
  K  K6  1  0.156160  0.359795  0.795822  1
  K  K7  1  0.343840  0.140206  0.295822  1
  H  H8  1  0.011938  0.581131  0.854601  1
  H  H9  1  0.488062  0.918869  0.354601  1
  H  H10  1  0.511938  0.918869  0.145399  1
  H  H11  1  0.988062  0.581131  0.645399  1
  H  H12  1  0.988062  0.418869  0.145399  1
  H  H13  1  0.511938  0.081131  0.645399  1
  H  H14  1  0.488062  0.081131  0.854601  1
  H  H15  1  0.011938  0.418869  0.354601  1
  H  H16  1  0.219470  0.640529  0.760861  1
  H  H17  1  0.280531  0.859471  0.260861  1
  H  H18  1  0.719469  0.859471  0.239139  1
  H  H19  1  0.780531  0.640529  0.739139  1
  H  H20  1  0.780531  0.359471  0.239139  1
  H  H21  1  0.719469  0.140529  0.739139  1
  H  H22  1  0.280531  0.140529  0.760861  1
  H  H23  1  0.219470  0.359471  0.260861  1
  H  H24  1  0.140099  0.732103  0.740457  1
  H  H25  1  0.359901  0.767897  0.240457  1
  H  H26  1  0.640099  0.767897  0.259543  1
  H  H27  1  0.859901  0.732103  0.759543  1
  H  H28  1  0.859901  0.267897  0.259543  1
  H  H29  1  0.640099  0.232103  0.759543  1
  H  H30  1  0.359901  0.232103  0.740457  1
  H  H31  1  0.140099  0.267897  0.240457  1
  Pt  Pt32  1  0.000000  0.000000  0.500000  1
  Pt  Pt33  1  0.500000  0.500000  0.000000  1
  Pt  Pt34  1  0.500000  0.500000  0.500000  1
  Pt  Pt35  1  0.000000  0.000000  0.000000  1
  C  C36  1  0.979804  0.833987  0.500296  1
  C  C37  1  0.520196  0.666013  0.000296  1
  C  C38  1  0.479804  0.666013  0.499704  1
  C  C39  1  0.020196  0.833987  0.999704  1
  C  C40  1  0.020196  0.166013  0.499704  1
  C  C41  1  0.479804  0.333987  0.999704  1
  C  C42  1  0.520196  0.333987  0.500296  1
  C  C43  1  0.979804  0.166013  0.000296  1
  C  C44  1  0.145789  0.975712  0.484054  1
  C  C45  1  0.354211  0.524288  0.984054  1
  C  C46  1  0.645789  0.524288  0.515946  1
  C  C47  1  0.854211  0.975712  0.015946  1
  C  C48  1  0.854211  0.024288  0.515946  1
  C  C49  1  0.645789  0.475712  0.015946  1
  C  C50  1  0.354211  0.475712  0.484054  1
  C  C51  1  0.145789  0.024288  0.984054  1
  N  N52  1  0.970007  0.735664  0.501014  1
  N  N53  1  0.529993  0.764336  0.001014  1
  N  N54  1  0.470007  0.764336  0.498986  1
  N  N55  1  0.029993  0.735664  0.998986  1
  N  N56  1  0.029993  0.264336  0.498986  1
  N  N57  1  0.470007  0.235664  0.998986  1
  N  N58  1  0.529993  0.235664  0.501014  1
  N  N59  1  0.970007  0.264336  0.001014  1
  N  N60  1  0.231962  0.961313  0.473306  1
  N  N61  1  0.268038  0.538687  0.973306  1
  N  N62  1  0.731962  0.538687  0.526694  1
  N  N63  1  0.768038  0.961313  0.026694  1
  N  N64  1  0.768038  0.038687  0.526694  1
  N  N65  1  0.731962  0.461313  0.026694  1
  N  N66  1  0.268038  0.461313  0.473306  1
  N  N67  1  0.231962  0.038687  0.973306  1
  O  O68  1  0.000000  0.527592  0.750000  1
  O  O69  1  0.500000  0.972408  0.250000  1
  O  O70  1  0.000000  0.472408  0.250000  1
  O  O71  1  0.500000  0.027592  0.750000  1
  O  O72  1  0.199913  0.704265  0.678428  1
  O  O73  1  0.300087  0.795735  0.178428  1
  O  O74  1  0.699913  0.795735  0.321572  1
  O  O75  1  0.800087  0.704265  0.821572  1
  O  O76  1  0.800087  0.295735  0.321572  1
  O  O77  1  0.699913  0.204265  0.821572  1
  O  O78  1  0.300087  0.204265  0.678428  1
  O  O79  1  0.199913  0.295735  0.178428  1
