# generated using pymatgen
data_LiCrPO4
_symmetry_space_group_name_H-M   'P 1'
_cell_length_a   9.41634308
_cell_length_b   9.41633430
_cell_length_c   6.58279814
_cell_angle_alpha   89.99936174
_cell_angle_beta   90.00073282
_cell_angle_gamma   119.99872976
_symmetry_Int_Tables_number   1
_chemical_formula_structural   LiCrPO4
_chemical_formula_sum   'Li6 Cr6 P6 O24'
_cell_volume   505.48802337
_cell_formula_units_Z   6
loop_
 _symmetry_equiv_pos_site_id
 _symmetry_equiv_pos_as_xyz
  1  'x, y, z'
loop_
 _atom_site_type_symbol
 _atom_site_label
 _atom_site_symmetry_multiplicity
 _atom_site_fract_x
 _atom_site_fract_y
 _atom_site_fract_z
 _atom_site_occupancy
  Li  Li0  1  0.333345  0.666692  0.218620  1
  Li  Li1  1  0.333345  0.666687  0.760320  1
  Li  Li2  1  0.000014  0.000009  0.113713  1
  Li  Li3  1  0.999982  0.999988  0.613700  1
  Li  Li4  1  0.666650  0.333314  0.718611  1
  Li  Li5  1  0.666646  0.333321  0.260327  1
  Cr  Cr6  1  0.108250  0.718363  0.490571  1
  Cr  Cr7  1  0.281630  0.389913  0.490554  1
  Cr  Cr8  1  0.610049  0.891687  0.490554  1
  Cr  Cr9  1  0.390057  0.108440  0.990570  1
  Cr  Cr10  1  0.718355  0.610022  0.990581  1
  Cr  Cr11  1  0.891680  0.281651  0.990575  1
  P  P12  1  0.053318  0.690766  0.991277  1
  P  P13  1  0.309219  0.362558  0.991275  1
  P  P14  1  0.637451  0.946685  0.991247  1
  P  P15  1  0.362543  0.053291  0.491234  1
  P  P16  1  0.690746  0.637438  0.491265  1
  P  P17  1  0.946673  0.309234  0.491237  1
  O  O18  1  0.170975  0.963313  0.492517  1
  O  O19  1  0.165861  0.732814  0.179815  1
  O  O20  1  0.164828  0.732427  0.802002  1
  O  O21  1  0.084178  0.492295  0.491130  1
  O  O22  1  0.408112  0.915802  0.491142  1
  O  O23  1  0.036645  0.207648  0.492524  1
  O  O24  1  0.267537  0.432413  0.801976  1
  O  O25  1  0.267155  0.433072  0.179794  1
  O  O26  1  0.207670  0.171029  0.992514  1
  O  O27  1  0.566971  0.834144  0.179769  1
  O  O28  1  0.567625  0.835168  0.801972  1
  O  O29  1  0.507687  0.591862  0.491137  1
  O  O30  1  0.492303  0.408147  0.991113  1
  O  O31  1  0.432372  0.164816  0.301991  1
  O  O32  1  0.433022  0.165879  0.679774  1
  O  O33  1  0.792337  0.828970  0.492513  1
  O  O34  1  0.732838  0.566932  0.679805  1
  O  O35  1  0.732432  0.567579  0.301981  1
  O  O36  1  0.963337  0.792344  0.992518  1
  O  O37  1  0.591901  0.084201  0.991083  1
  O  O38  1  0.915791  0.507691  0.991129  1
  O  O39  1  0.835141  0.267548  0.301996  1
  O  O40  1  0.834106  0.267169  0.679813  1
  O  O41  1  0.829020  0.036679  0.992500  1
