# generated using pymatgen
data_Mo2AsH18C6NO12
_symmetry_space_group_name_H-M   'P 1'
_cell_length_a   14.38905624
_cell_length_b   10.53878530
_cell_length_c   12.89559747
_cell_angle_alpha   90.00000000
_cell_angle_beta   113.37231473
_cell_angle_gamma   90.00000000
_symmetry_Int_Tables_number   1
_chemical_formula_structural   Mo2AsH18C6NO12
_chemical_formula_sum   'Mo8 As4 H72 C24 N4 O48'
_cell_volume   1795.07115302
_cell_formula_units_Z   4
loop_
 _symmetry_equiv_pos_site_id
 _symmetry_equiv_pos_as_xyz
  1  'x, y, z'
loop_
 _atom_site_type_symbol
 _atom_site_label
 _atom_site_symmetry_multiplicity
 _atom_site_fract_x
 _atom_site_fract_y
 _atom_site_fract_z
 _atom_site_occupancy
  Mo  Mo0  1  0.109714  0.466550  0.791430  1
  Mo  Mo1  1  0.890286  0.966550  0.708570  1
  Mo  Mo2  1  0.890286  0.533450  0.208570  1
  Mo  Mo3  1  0.109714  0.033450  0.291430  1
  Mo  Mo4  1  0.342675  0.633551  0.967586  1
  Mo  Mo5  1  0.657325  0.133551  0.532414  1
  Mo  Mo6  1  0.657325  0.366449  0.032414  1
  Mo  Mo7  1  0.342675  0.866449  0.467586  1
  As  As8  1  0.134073  0.633313  0.032008  1
  As  As9  1  0.865927  0.133313  0.467992  1
  As  As10  1  0.865927  0.366687  0.967992  1
  As  As11  1  0.134073  0.866687  0.532008  1
  H  H12  1  0.969385  0.712636  0.025840  1
  H  H13  1  0.030615  0.212636  0.474160  1
  H  H14  1  0.030615  0.287364  0.974160  1
  H  H15  1  0.969385  0.787364  0.525840  1
  H  H16  1  0.065710  0.833256  0.077273  1
  H  H17  1  0.934290  0.333256  0.422727  1
  H  H18  1  0.934290  0.166744  0.922727  1
  H  H19  1  0.065710  0.666744  0.577273  1
  H  H20  1  0.007719  0.797694  0.928003  1
  H  H21  1  0.992281  0.297694  0.571997  1
  H  H22  1  0.992281  0.202306  0.071997  1
  H  H23  1  0.007719  0.702306  0.428003  1
  H  H24  1  0.120603  0.499845  0.186133  1
  H  H25  1  0.879397  0.999845  0.313867  1
  H  H26  1  0.879397  0.500155  0.813867  1
  H  H27  1  0.120603  0.000155  0.686133  1
  H  H28  1  0.240664  0.477083  0.175662  1
  H  H29  1  0.759336  0.977083  0.324338  1
  H  H30  1  0.759336  0.522917  0.824338  1
  H  H31  1  0.240664  0.022917  0.675662  1
  H  H32  1  0.219122  0.617836  0.242515  1
  H  H33  1  0.780878  0.117836  0.257485  1
  H  H34  1  0.780878  0.382164  0.757485  1
  H  H35  1  0.219122  0.882164  0.742515  1
  H  H36  1  0.812132  0.615959  0.556626  1
  H  H37  1  0.187868  0.115959  0.943374  1
  H  H38  1  0.187868  0.384041  0.443374  1
  H  H39  1  0.812132  0.884041  0.056626  1
  H  H40  1  0.757566  0.460766  0.547126  1
  H  H41  1  0.242434  0.960766  0.952874  1
  H  H42  1  0.242434  0.539234  0.452875  1
  H  H43  1  0.757566  0.039234  0.047126  1
  H  H44  1  0.796161  0.513458  0.438907  1
  H  H45  1  0.203839  0.013458  0.061093  1
  H  H46  1  0.203839  0.486542  0.561093  1
  H  H47  1  0.796161  0.986542  0.938907  1
  H  H48  1  0.670129  0.711149  0.575706  1
  H  H49  1  0.329871  0.211149  0.924294  1
  H  H50  1  0.329871  0.288851  0.424294  1
  H  H51  1  0.670129  0.788851  0.075706  1
  H  H52  1  0.543169  0.677803  0.478638  1
  H  H53  1  0.456831  0.177803  0.021362  1
  H  H54  1  0.456831  0.322197  0.521362  1
  H  H55  1  0.543169  0.822197  0.978638  1
  H  H56  1  0.618461  0.555125  0.572002  1
  H  H57  1  0.381539  0.055125  0.927998  1
  H  H58  1  0.381539  0.444875  0.427998  1
  H  H59  1  0.618461  0.944875  0.072002  1
  H  H60  1  0.588928  0.416841  0.407366  1
  H  H61  1  0.411072  0.916841  0.092634  1
  H  H62  1  0.411072  0.583159  0.592634  1
  H  H63  1  0.588928  0.083159  0.907366  1
  H  H64  1  0.518489  0.539432  0.309820  1
  H  H65  1  0.481511  0.039432  0.190180  1
  H  H66  1  0.481511  0.460568  0.690180  1
  H  H67  1  0.518489  0.960568  0.809820  1
  H  H68  1  0.627830  0.470149  0.298523  1
  H  H69  1  0.372170  0.970149  0.201477  1
  H  H70  1  0.372170  0.529851  0.701477  1
  H  H71  1  0.627830  0.029851  0.798523  1
  H  H72  1  0.713246  0.783702  0.423955  1
  H  H73  1  0.286754  0.283702  0.076045  1
  H  H74  1  0.286754  0.216298  0.576045  1
  H  H75  1  0.713246  0.716298  0.923955  1
  H  H76  1  0.699150  0.679487  0.307368  1
  H  H77  1  0.300850  0.179487  0.192632  1
  H  H78  1  0.300850  0.320513  0.692632  1
  H  H79  1  0.699150  0.820513  0.807368  1
  H  H80  1  0.589622  0.747267  0.319818  1
  H  H81  1  0.410378  0.247267  0.180182  1
  H  H82  1  0.410378  0.252733  0.680182  1
  H  H83  1  0.589622  0.752733  0.819818  1
  C  C84  1  0.032241  0.759239  0.013643  1
  C  C85  1  0.967759  0.259239  0.486357  1
  C  C86  1  0.967759  0.240761  0.986357  1
  C  C87  1  0.032241  0.740761  0.513643  1
  C  C88  1  0.184402  0.546896  0.175954  1
  C  C89  1  0.815598  0.046896  0.324046  1
  C  C90  1  0.815598  0.453104  0.824046  1
  C  C91  1  0.184402  0.953104  0.675954  1
  C  C92  1  0.764491  0.543403  0.499258  1
  C  C93  1  0.235509  0.043403  0.000742  1
  C  C94  1  0.235509  0.456597  0.500742  1
  C  C95  1  0.764491  0.956597  0.999258  1
  C  C96  1  0.619455  0.638462  0.521643  1
  C  C97  1  0.380545  0.138462  0.978357  1
  C  C98  1  0.380545  0.361538  0.478357  1
  C  C99  1  0.619455  0.861538  0.021643  1
  C  C100  1  0.593595  0.498579  0.357178  1
  C  C101  1  0.406405  0.998579  0.142822  1
  C  C102  1  0.406405  0.501421  0.642822  1
  C  C103  1  0.593595  0.001421  0.857178  1
  C  C104  1  0.666343  0.710487  0.366602  1
  C  C105  1  0.333657  0.210487  0.133398  1
  C  C106  1  0.333657  0.289513  0.633398  1
  C  C107  1  0.666343  0.789513  0.866602  1
  N  N108  1  0.660288  0.597910  0.435756  1
  N  N109  1  0.339712  0.097910  0.064244  1
  N  N110  1  0.339712  0.402090  0.564244  1
  N  N111  1  0.660288  0.902090  0.935756  1
  O  O112  1  0.108274  0.290997  0.841833  1
  O  O113  1  0.891726  0.790997  0.658167  1
  O  O114  1  0.891726  0.709003  0.158167  1
  O  O115  1  0.108274  0.209003  0.341833  1
  O  O116  1  0.147873  0.299794  0.753127  1
  O  O117  1  0.852127  0.799794  0.746873  1
  O  O118  1  0.852127  0.700206  0.246873  1
  O  O119  1  0.147873  0.200206  0.253127  1
  O  O120  1  0.190023  0.542505  0.714779  1
  O  O121  1  0.809977  0.042505  0.785221  1
  O  O122  1  0.809977  0.457495  0.285221  1
  O  O123  1  0.190023  0.957495  0.214779  1
  O  O124  1  0.182153  0.634892  0.795992  1
  O  O125  1  0.817847  0.134892  0.704008  1
  O  O126  1  0.817847  0.365108  0.204008  1
  O  O127  1  0.182153  0.865108  0.295992  1
  O  O128  1  0.352086  0.803631  0.907630  1
  O  O129  1  0.647914  0.303631  0.592370  1
  O  O130  1  0.647914  0.196369  0.092370  1
  O  O131  1  0.352086  0.696369  0.407630  1
  O  O132  1  0.403632  0.705002  0.868946  1
  O  O133  1  0.596368  0.205002  0.631054  1
  O  O134  1  0.596368  0.294998  0.131054  1
  O  O135  1  0.403632  0.794998  0.368946  1
  O  O136  1  0.359157  0.464891  0.912990  1
  O  O137  1  0.640843  0.964891  0.587010  1
  O  O138  1  0.640843  0.535109  0.087010  1
  O  O139  1  0.359157  0.035109  0.412990  1
  O  O140  1  0.276766  0.459194  0.952776  1
  O  O141  1  0.723234  0.959194  0.547224  1
  O  O142  1  0.723234  0.540806  0.047224  1
  O  O143  1  0.276766  0.040806  0.452776  1
  O  O144  1  0.080979  0.518303  0.928564  1
  O  O145  1  0.919021  0.018303  0.571436  1
  O  O146  1  0.919021  0.481697  0.071436  1
  O  O147  1  0.080979  0.981697  0.428564  1
  O  O148  1  0.232502  0.709580  0.012318  1
  O  O149  1  0.767498  0.209580  0.487682  1
  O  O150  1  0.767498  0.290420  0.987682  1
  O  O151  1  0.232502  0.790420  0.512318  1
  O  O152  1  0.989439  0.491077  0.691831  1
  O  O153  1  0.010561  0.991077  0.808169  1
  O  O154  1  0.010561  0.508923  0.308169  1
  O  O155  1  0.989439  0.008923  0.191831  1
  O  O156  1  0.437376  0.633801  0.100574  1
  O  O157  1  0.562624  0.133801  0.399426  1
  O  O158  1  0.562624  0.366199  0.899426  1
  O  O159  1  0.437376  0.866199  0.600574  1
