# generated using pymatgen
data_Sr3(AsO4)2
_symmetry_space_group_name_H-M   'P 1'
_cell_length_a   9.96206493
_cell_length_b   12.35355353
_cell_length_c   7.15942360
_cell_angle_alpha   90.00000000
_cell_angle_beta   97.09400463
_cell_angle_gamma   90.00000000
_symmetry_Int_Tables_number   1
_chemical_formula_structural   Sr3(AsO4)2
_chemical_formula_sum   'Sr12 As8 O32'
_cell_volume   874.34323760
_cell_formula_units_Z   4
loop_
 _symmetry_equiv_pos_site_id
 _symmetry_equiv_pos_as_xyz
  1  'x, y, z'
loop_
 _atom_site_type_symbol
 _atom_site_label
 _atom_site_symmetry_multiplicity
 _atom_site_fract_x
 _atom_site_fract_y
 _atom_site_fract_z
 _atom_site_occupancy
  Sr  Sr0  1  0.052860  0.621493  0.679586  1
  Sr  Sr1  1  0.052860  0.878507  0.179586  1
  Sr  Sr2  1  0.297394  0.899102  0.665299  1
  Sr  Sr3  1  0.331403  0.328450  0.628103  1
  Sr  Sr4  1  0.297394  0.600898  0.165299  1
  Sr  Sr5  1  0.331403  0.171550  0.128103  1
  Sr  Sr6  1  0.668597  0.828450  0.871897  1
  Sr  Sr7  1  0.702606  0.399102  0.834701  1
  Sr  Sr8  1  0.668597  0.671550  0.371897  1
  Sr  Sr9  1  0.702606  0.100898  0.334701  1
  Sr  Sr10  1  0.947140  0.121493  0.820414  1
  Sr  Sr11  1  0.947140  0.378507  0.320414  1
  As  As12  1  0.078762  0.362969  0.894279  1
  As  As13  1  0.078762  0.137031  0.394279  1
  As  As14  1  0.399243  0.602843  0.686010  1
  As  As15  1  0.399243  0.897157  0.186011  1
  As  As16  1  0.600757  0.102843  0.813990  1
  As  As17  1  0.600757  0.397157  0.313989  1
  As  As18  1  0.921238  0.862969  0.605721  1
  As  As19  1  0.921238  0.637031  0.105721  1
  O  O20  1  0.072403  0.810977  0.551161  1
  O  O21  1  0.068807  0.422201  0.674372  1
  O  O22  1  0.072403  0.689023  0.051162  1
  O  O23  1  0.142711  0.054968  0.575173  1
  O  O24  1  0.068807  0.077799  0.174372  1
  O  O25  1  0.179988  0.251332  0.868421  1
  O  O26  1  0.142711  0.445032  0.075173  1
  O  O27  1  0.283388  0.937865  0.999563  1
  O  O28  1  0.179988  0.248668  0.368421  1
  O  O29  1  0.300128  0.666308  0.834511  1
  O  O30  1  0.283388  0.562135  0.499563  1
  O  O31  1  0.300128  0.833692  0.334511  1
  O  O32  1  0.471328  0.484151  0.776958  1
  O  O33  1  0.480808  0.196269  0.864302  1
  O  O34  1  0.471328  0.015849  0.276958  1
  O  O35  1  0.480808  0.303731  0.364302  1
  O  O36  1  0.519192  0.696269  0.635698  1
  O  O37  1  0.528672  0.984151  0.723042  1
  O  O38  1  0.519192  0.803731  0.135698  1
  O  O39  1  0.528672  0.515849  0.223042  1
  O  O40  1  0.699872  0.166308  0.665489  1
  O  O41  1  0.716612  0.437865  0.500437  1
  O  O42  1  0.699872  0.333692  0.165489  1
  O  O43  1  0.820012  0.751332  0.631579  1
  O  O44  1  0.716612  0.062135  0.000437  1
  O  O45  1  0.857289  0.554968  0.924827  1
  O  O46  1  0.820012  0.748668  0.131579  1
  O  O47  1  0.931193  0.922201  0.825628  1
  O  O48  1  0.857289  0.945032  0.424827  1
  O  O49  1  0.927597  0.310977  0.948839  1
  O  O50  1  0.931193  0.577799  0.325628  1
  O  O51  1  0.927597  0.189023  0.448838  1
