# generated using pymatgen
data_Y2GeO5
_symmetry_space_group_name_H-M   'P 1'
_cell_length_a   9.37370326
_cell_length_b   7.03111003
_cell_length_c   6.81152219
_cell_angle_alpha   90.00000000
_cell_angle_beta   103.02877357
_cell_angle_gamma   90.00000000
_symmetry_Int_Tables_number   1
_chemical_formula_structural   Y2GeO5
_chemical_formula_sum   'Y8 Ge4 O20'
_cell_volume   437.37382997
_cell_formula_units_Z   4
loop_
 _symmetry_equiv_pos_site_id
 _symmetry_equiv_pos_as_xyz
  1  'x, y, z'
loop_
 _atom_site_type_symbol
 _atom_site_label
 _atom_site_symmetry_multiplicity
 _atom_site_fract_x
 _atom_site_fract_y
 _atom_site_fract_z
 _atom_site_occupancy
  Y  Y0  1  0.142289  0.361048  0.975546  1
  Y  Y1  1  0.142289  0.138952  0.475546  1
  Y  Y2  1  0.472020  0.375638  0.769927  1
  Y  Y3  1  0.527980  0.875638  0.730073  1
  Y  Y4  1  0.472020  0.124362  0.269927  1
  Y  Y5  1  0.527980  0.624362  0.230073  1
  Y  Y6  1  0.857711  0.861048  0.524454  1
  Y  Y7  1  0.857711  0.638952  0.024454  1
  Ge  Ge8  1  0.199141  0.904323  0.985057  1
  Ge  Ge9  1  0.199141  0.595677  0.485057  1
  Ge  Ge10  1  0.800859  0.404323  0.514943  1
  Ge  Ge11  1  0.800859  0.095677  0.014943  1
  O  O12  1  0.103951  0.696644  0.007455  1
  O  O13  1  0.119167  0.068860  0.796447  1
  O  O14  1  0.103951  0.803356  0.507455  1
  O  O15  1  0.218567  0.422350  0.686924  1
  O  O16  1  0.119167  0.431140  0.296447  1
  O  O17  1  0.218567  0.077650  0.186924  1
  O  O18  1  0.391928  0.117396  0.574473  1
  O  O19  1  0.391052  0.640326  0.511602  1
  O  O20  1  0.391928  0.382604  0.074473  1
  O  O21  1  0.391052  0.859674  0.011602  1
  O  O22  1  0.608948  0.140326  0.988398  1
  O  O23  1  0.608072  0.617396  0.925527  1
  O  O24  1  0.608948  0.359674  0.488398  1
  O  O25  1  0.608072  0.882604  0.425527  1
  O  O26  1  0.781433  0.922350  0.813076  1
  O  O27  1  0.880833  0.568860  0.703553  1
  O  O28  1  0.781433  0.577650  0.313076  1
  O  O29  1  0.896049  0.196644  0.492545  1
  O  O30  1  0.880833  0.931140  0.203553  1
  O  O31  1  0.896049  0.303356  0.992545  1
