# generated using pymatgen
data_Li4Nb3Cr5O16
_symmetry_space_group_name_H-M   'P 1'
_cell_length_a   6.02065593
_cell_length_b   5.97489144
_cell_length_c   9.76293155
_cell_angle_alpha   89.99985444
_cell_angle_beta   89.69064637
_cell_angle_gamma   119.74895402
_symmetry_Int_Tables_number   1
_chemical_formula_structural   Li4Nb3Cr5O16
_chemical_formula_sum   'Li4 Nb3 Cr5 O16'
_cell_volume   304.90840087
_cell_formula_units_Z   1
loop_
 _symmetry_equiv_pos_site_id
 _symmetry_equiv_pos_as_xyz
  1  'x, y, z'
loop_
 _atom_site_type_symbol
 _atom_site_label
 _atom_site_symmetry_multiplicity
 _atom_site_fract_x
 _atom_site_fract_y
 _atom_site_fract_z
 _atom_site_occupancy
  Li  Li0  1  0.334780  0.667404  0.897011  1
  Li  Li1  1  0.022210  0.011111  0.995431  1
  Li  Li2  1  0.010725  0.005368  0.494906  1
  Li  Li3  1  0.667988  0.334005  0.386455  1
  Nb  Nb4  1  0.663491  0.831759  0.211542  1
  Nb  Nb5  1  0.831796  0.644511  0.711294  1
  Nb  Nb6  1  0.831798  0.187309  0.711292  1
  Cr  Cr7  1  0.171557  0.831744  0.214514  1
  Cr  Cr8  1  0.332340  0.666173  0.480717  1
  Cr  Cr9  1  0.171563  0.339847  0.214509  1
  Cr  Cr10  1  0.333712  0.166869  0.713969  1
  Cr  Cr11  1  0.657407  0.328713  0.989634  1
  O  O12  1  0.158720  0.829496  0.601338  1
  O  O13  1  0.042232  0.521124  0.338422  1
  O  O14  1  0.339751  0.669892  0.103202  1
  O  O15  1  0.000305  0.000168  0.312102  1
  O  O16  1  0.007178  0.003601  0.812974  1
  O  O17  1  0.158720  0.329239  0.601333  1
  O  O18  1  0.482153  0.960331  0.340125  1
  O  O19  1  0.482151  0.521843  0.340122  1
  O  O20  1  0.325694  0.162859  0.101716  1
  O  O21  1  0.665971  0.832995  0.599318  1
  O  O22  1  0.522001  0.480134  0.840699  1
  O  O23  1  0.522010  0.041894  0.840700  1
  O  O24  1  0.640161  0.320091  0.588490  1
  O  O25  1  0.828455  0.669251  0.103526  1
  O  O26  1  0.966670  0.483344  0.858975  1
  O  O27  1  0.828458  0.159226  0.103524  1
