# generated using pymatgen
data_NbTlO3
_symmetry_space_group_name_H-M   'P 1'
_cell_length_a   7.66028551
_cell_length_b   7.65826883
_cell_length_c   13.25764730
_cell_angle_alpha   106.70011594
_cell_angle_beta   89.96921915
_cell_angle_gamma   59.95402689
_symmetry_Int_Tables_number   1
_chemical_formula_structural   NbTlO3
_chemical_formula_sum   'Nb8 Tl8 O24'
_cell_volume   634.98840689
_cell_formula_units_Z   8
loop_
 _symmetry_equiv_pos_site_id
 _symmetry_equiv_pos_as_xyz
  1  'x, y, z'
loop_
 _atom_site_type_symbol
 _atom_site_label
 _atom_site_symmetry_multiplicity
 _atom_site_fract_x
 _atom_site_fract_y
 _atom_site_fract_z
 _atom_site_occupancy
  Nb  Nb0  1  0.997454  0.507175  0.002460  1
  Nb  Nb1  1  0.995162  0.004201  0.997093  1
  Nb  Nb2  1  0.494595  0.001804  0.000989  1
  Nb  Nb3  1  0.751266  0.008354  0.250182  1
  Nb  Nb4  1  0.498257  0.504740  0.503049  1
  Nb  Nb5  1  0.500819  0.999738  0.496907  1
  Nb  Nb6  1  0.999406  -0.000324  0.500626  1
  Nb  Nb7  1  0.252118  0.004868  0.750528  1
  Tl  Tl8  1  0.275810  0.956321  0.243720  1
  Tl  Tl9  1  0.270118  0.504867  0.241906  1
  Tl  Tl10  1  0.787848  0.485649  0.255482  1
  Tl  Tl11  1  0.014332  0.485466  0.480920  1
  Tl  Tl12  1  0.766171  0.514289  0.744839  1
  Tl  Tl13  1  0.223013  0.512746  0.744829  1
  Tl  Tl14  1  0.502034  0.493871  0.984337  1
  Tl  Tl15  1  0.735931  0.034251  0.751054  1
  O  O16  1  0.284753  0.937609  0.029450  1
  O  O17  1  0.905621  0.689020  0.155808  1
  O  O18  1  0.962073  0.943466  0.345426  1
  O  O19  1  0.908722  0.311757  0.033081  1
  O  O20  1  0.594866  0.938949  0.344760  1
  O  O21  1  0.282915  0.309932  0.028127  1
  O  O22  1  0.781822  0.934135  0.530134  1
  O  O23  1  0.531335  0.066233  0.156137  1
  O  O24  1  0.909729  0.057417  0.155816  1
  O  O25  1  0.220741  0.686618  0.467642  1
  O  O26  1  0.587248  0.691094  0.472195  1
  O  O27  1  0.597186  0.311586  0.343900  1
  O  O28  1  0.405358  0.685587  0.656719  1
  O  O29  1  0.407468  0.310264  0.530176  1
  O  O30  1  0.096057  0.937770  0.845442  1
  O  O31  1  0.468293  0.941297  0.843704  1
  O  O32  1  0.780058  0.308285  0.529702  1
  O  O33  1  0.220900  0.056668  0.467283  1
  O  O34  1  0.722379  0.690541  0.968582  1
  O  O35  1  0.033407  0.060089  0.654798  1
  O  O36  1  0.401434  0.061738  0.654932  1
  O  O37  1  0.093604  0.687905  0.970461  1
  O  O38  1  0.093386  0.307725  0.845863  1
  O  O39  1  0.723572  0.059642  0.970593  1
