# generated using pymatgen
data_Mo3H8C4SN2Cl6O7
_symmetry_space_group_name_H-M   'P 1'
_cell_length_a   11.03536964
_cell_length_b   15.30936928
_cell_length_c   12.61107002
_cell_angle_alpha   90.00000000
_cell_angle_beta   90.36081338
_cell_angle_gamma   90.00000000
_symmetry_Int_Tables_number   1
_chemical_formula_structural   Mo3H8C4SN2Cl6O7
_chemical_formula_sum   'Mo12 H32 C16 S4 N8 Cl24 O28'
_cell_volume   2130.52928939
_cell_formula_units_Z   4
loop_
 _symmetry_equiv_pos_site_id
 _symmetry_equiv_pos_as_xyz
  1  'x, y, z'
loop_
 _atom_site_type_symbol
 _atom_site_label
 _atom_site_symmetry_multiplicity
 _atom_site_fract_x
 _atom_site_fract_y
 _atom_site_fract_z
 _atom_site_occupancy
  Mo  Mo0  1  0.350871  0.689309  0.572105  1
  Mo  Mo1  1  0.649129  0.189309  0.927895  1
  Mo  Mo2  1  0.649129  0.310691  0.427895  1
  Mo  Mo3  1  0.350871  0.810691  0.072105  1
  Mo  Mo4  1  0.241689  0.892271  0.571086  1
  Mo  Mo5  1  0.758311  0.392271  0.928914  1
  Mo  Mo6  1  0.758311  0.107729  0.428914  1
  Mo  Mo7  1  0.241689  0.607729  0.071086  1
  Mo  Mo8  1  0.052151  0.718331  0.551078  1
  Mo  Mo9  1  0.947849  0.218331  0.948922  1
  Mo  Mo10  1  0.947849  0.281669  0.448922  1
  Mo  Mo11  1  0.052151  0.781669  0.051078  1
  H  H12  1  0.789308  0.755945  0.753865  1
  H  H13  1  0.210692  0.255945  0.746135  1
  H  H14  1  0.210692  0.244055  0.246135  1
  H  H15  1  0.789308  0.744055  0.253865  1
  H  H16  1  0.776128  0.763161  0.892156  1
  H  H17  1  0.223872  0.263161  0.607844  1
  H  H18  1  0.223872  0.236839  0.107844  1
  H  H19  1  0.776128  0.736839  0.392156  1
  H  H20  1  0.606147  0.963392  0.878197  1
  H  H21  1  0.393853  0.463392  0.621803  1
  H  H22  1  0.393853  0.036608  0.121803  1
  H  H23  1  0.606147  0.536608  0.378197  1
  H  H24  1  0.638336  0.874802  0.961766  1
  H  H25  1  0.361664  0.374802  0.538234  1
  H  H26  1  0.361664  0.125198  0.038234  1
  H  H27  1  0.638336  0.625198  0.461766  1
  H  H28  1  0.548345  0.859235  0.392025  1
  H  H29  1  0.451655  0.359235  0.107975  1
  H  H30  1  0.451655  0.140765  0.607975  1
  H  H31  1  0.548345  0.640765  0.892025  1
  H  H32  1  0.968832  0.922150  0.351256  1
  H  H33  1  0.031168  0.422150  0.148744  1
  H  H34  1  0.031168  0.077850  0.648744  1
  H  H35  1  0.968832  0.577850  0.851256  1
  H  H36  1  0.193306  0.519488  0.366873  1
  H  H37  1  0.806694  0.019488  0.133127  1
  H  H38  1  0.806694  0.480512  0.633127  1
  H  H39  1  0.193306  0.980512  0.866873  1
  H  H40  1  0.805871  0.906936  0.660171  1
  H  H41  1  0.194129  0.406936  0.839829  1
  H  H42  1  0.194129  0.093064  0.339829  1
  H  H43  1  0.805871  0.593064  0.160171  1
  C  C44  1  0.473865  0.839124  0.445065  1
  C  C45  1  0.526135  0.339124  0.054935  1
  C  C46  1  0.526135  0.160876  0.554935  1
  C  C47  1  0.473865  0.660876  0.945065  1
  C  C48  1  0.023327  0.886982  0.411346  1
  C  C49  1  0.976673  0.386982  0.088654  1
  C  C50  1  0.976673  0.113018  0.588654  1
  C  C51  1  0.023327  0.613018  0.911346  1
  C  C52  1  0.193677  0.574835  0.422746  1
  C  C53  1  0.806323  0.074835  0.077254  1
  C  C54  1  0.806323  0.425165  0.577254  1
  C  C55  1  0.193677  0.925165  0.922746  1
  C  C56  1  0.699542  0.864121  0.808361  1
  C  C57  1  0.300458  0.364121  0.691639  1
  C  C58  1  0.300458  0.135879  0.191639  1
  C  C59  1  0.699542  0.635879  0.308361  1
  S  S60  1  0.686844  0.915721  0.683813  1
  S  S61  1  0.313156  0.415721  0.816187  1
  S  S62  1  0.313156  0.084279  0.316187  1
  S  S63  1  0.686844  0.584279  0.183813  1
  N  N64  1  0.759078  0.789422  0.819077  1
  N  N65  1  0.240922  0.289422  0.680923  1
  N  N66  1  0.240922  0.210578  0.180923  1
  N  N67  1  0.759078  0.710578  0.319077  1
  N  N68  1  0.644010  0.902894  0.888458  1
  N  N69  1  0.355990  0.402894  0.611542  1
  N  N70  1  0.355990  0.097106  0.111542  1
  N  N71  1  0.644010  0.597106  0.388458  1
  Cl  Cl72  1  0.054893  0.847488  0.678026  1
  Cl  Cl73  1  0.945107  0.347488  0.821974  1
  Cl  Cl74  1  0.945107  0.152512  0.321974  1
  Cl  Cl75  1  0.054893  0.652512  0.178026  1
  Cl  Cl76  1  0.181973  0.628498  0.683518  1
  Cl  Cl77  1  0.818027  0.128498  0.816482  1
  Cl  Cl78  1  0.818027  0.371502  0.316482  1
  Cl  Cl79  1  0.181973  0.871502  0.183518  1
  Cl  Cl80  1  0.382001  0.809257  0.703259  1
  Cl  Cl81  1  0.617999  0.309257  0.796741  1
  Cl  Cl82  1  0.617999  0.190743  0.296741  1
  Cl  Cl83  1  0.382001  0.690743  0.203259  1
  Cl  Cl84  1  0.505009  0.597208  0.645060  1
  Cl  Cl85  1  0.494991  0.097208  0.854940  1
  Cl  Cl86  1  0.494991  0.402792  0.354940  1
  Cl  Cl87  1  0.505009  0.902792  0.145060  1
  Cl  Cl88  1  0.265270  0.035421  0.650046  1
  Cl  Cl89  1  0.734730  0.535421  0.849954  1
  Cl  Cl90  1  0.734730  0.964579  0.349954  1
  Cl  Cl91  1  0.265270  0.464579  0.150046  1
  Cl  Cl92  1  0.848415  0.670894  0.604053  1
  Cl  Cl93  1  0.151585  0.170894  0.895947  1
  Cl  Cl94  1  0.151585  0.329106  0.395947  1
  Cl  Cl95  1  0.848415  0.829106  0.104053  1
  O  O96  1  0.224922  0.764433  0.516136  1
  O  O97  1  0.775078  0.264433  0.983864  1
  O  O98  1  0.775078  0.235567  0.483864  1
  O  O99  1  0.224922  0.735567  0.016136  1
  O  O100  1  0.474551  0.758409  0.473519  1
  O  O101  1  0.525449  0.258409  0.026481  1
  O  O102  1  0.525449  0.241591  0.526481  1
  O  O103  1  0.474551  0.741591  0.973519  1
  O  O104  1  0.399769  0.898411  0.470670  1
  O  O105  1  0.600231  0.398411  0.029330  1
  O  O106  1  0.600231  0.101589  0.529330  1
  O  O107  1  0.399769  0.601589  0.970670  1
  O  O108  1  0.114675  0.927875  0.448988  1
  O  O109  1  0.885325  0.427875  0.051012  1
  O  O110  1  0.885325  0.072125  0.551012  1
  O  O111  1  0.114675  0.572125  0.948988  1
  O  O112  1  0.984721  0.810952  0.435445  1
  O  O113  1  0.015279  0.310952  0.064555  1
  O  O114  1  0.015279  0.189048  0.564555  1
  O  O115  1  0.984721  0.689048  0.935445  1
  O  O116  1  0.093234  0.610379  0.444079  1
  O  O117  1  0.906766  0.110379  0.055921  1
  O  O118  1  0.906766  0.389621  0.555921  1
  O  O119  1  0.093234  0.889621  0.944079  1
  O  O120  1  0.299671  0.595608  0.459106  1
  O  O121  1  0.700329  0.095608  0.040894  1
  O  O122  1  0.700329  0.404392  0.540894  1
  O  O123  1  0.299671  0.904392  0.959106  1
