# generated using pymatgen
data_Rb2Ni2O3
_symmetry_space_group_name_H-M   'P 1'
_cell_length_a   11.71083648
_cell_length_b   6.15385500
_cell_length_c   7.96898725
_cell_angle_alpha   90.00001337
_cell_angle_beta   90.04055097
_cell_angle_gamma   90.00005733
_symmetry_Int_Tables_number   1
_chemical_formula_structural   Rb2Ni2O3
_chemical_formula_sum   'Rb8 Ni8 O12'
_cell_volume   574.29918372
_cell_formula_units_Z   4
loop_
 _symmetry_equiv_pos_site_id
 _symmetry_equiv_pos_as_xyz
  1  'x, y, z'
loop_
 _atom_site_type_symbol
 _atom_site_label
 _atom_site_symmetry_multiplicity
 _atom_site_fract_x
 _atom_site_fract_y
 _atom_site_fract_z
 _atom_site_occupancy
  Rb  Rb0  1  0.062664  0.250001  0.871369  1
  Rb  Rb1  1  0.124588  0.750000  0.505983  1
  Rb  Rb2  1  0.375421  0.249999  0.005594  1
  Rb  Rb3  1  0.437284  0.750000  0.371671  1
  Rb  Rb4  1  0.562593  0.250000  0.628498  1
  Rb  Rb5  1  0.624602  0.749999  0.993947  1
  Rb  Rb6  1  0.875420  0.250001  0.494446  1
  Rb  Rb7  1  0.937367  0.750000  0.128373  1
  Ni  Ni8  1  0.147497  0.249999  0.284091  1
  Ni  Ni9  1  0.225902  0.750000  0.089972  1
  Ni  Ni10  1  0.274052  0.250000  0.589657  1
  Ni  Ni11  1  0.352750  0.750000  0.783767  1
  Ni  Ni12  1  0.647420  0.250000  0.215806  1
  Ni  Ni13  1  0.725983  0.750000  0.409922  1
  Ni  Ni14  1  0.774077  0.250001  0.910321  1
  Ni  Ni15  1  0.852815  0.750000  0.716282  1
  O  O16  1  0.122855  0.250000  0.515028  1
  O  O17  1  0.148708  -0.000483  0.156415  1
  O  O18  1  0.148708  0.500482  0.156415  1
  O  O19  1  0.351310  0.000520  0.656479  1
  O  O20  1  0.351311  0.499481  0.656479  1
  O  O21  1  0.376951  0.750000  0.015246  1
  O  O22  1  0.622960  0.250000  0.985011  1
  O  O23  1  0.648626  -0.000524  0.343645  1
  O  O24  1  0.648626  0.500524  0.343645  1
  O  O25  1  0.851236  0.499490  0.843565  1
  O  O26  1  0.851237  0.000511  0.843565  1
  O  O27  1  0.877036  0.750000  0.484808  1
