# generated using pymatgen
data_NaH5S2O9
_symmetry_space_group_name_H-M   'P 1'
_cell_length_a   7.35008673
_cell_length_b   13.93593855
_cell_length_c   9.15034214
_cell_angle_alpha   90.00000000
_cell_angle_beta   102.11290199
_cell_angle_gamma   90.00000000
_symmetry_Int_Tables_number   1
_chemical_formula_structural   NaH5S2O9
_chemical_formula_sum   'Na4 H20 S8 O36'
_cell_volume   916.40537997
_cell_formula_units_Z   4
loop_
 _symmetry_equiv_pos_site_id
 _symmetry_equiv_pos_as_xyz
  1  'x, y, z'
loop_
 _atom_site_type_symbol
 _atom_site_label
 _atom_site_symmetry_multiplicity
 _atom_site_fract_x
 _atom_site_fract_y
 _atom_site_fract_z
 _atom_site_occupancy
  Na  Na0  1  0.793107  0.930124  0.696424  1
  Na  Na1  1  0.206893  0.430124  0.803576  1
  Na  Na2  1  0.206893  0.069876  0.303576  1
  Na  Na3  1  0.793107  0.569876  0.196424  1
  H  H4  1  0.189656  0.607714  0.215796  1
  H  H5  1  0.810344  0.107714  0.284204  1
  H  H6  1  0.810344  0.392286  0.784204  1
  H  H7  1  0.189656  0.892286  0.715796  1
  H  H8  1  0.878104  0.141912  0.729540  1
  H  H9  1  0.121896  0.641912  0.770460  1
  H  H10  1  0.121896  0.858088  0.270460  1
  H  H11  1  0.878104  0.358088  0.229540  1
  H  H12  1  0.553803  0.337872  0.952143  1
  H  H13  1  0.446197  0.837872  0.547857  1
  H  H14  1  0.446197  0.662128  0.047857  1
  H  H15  1  0.553803  0.162128  0.452143  1
  H  H16  1  0.443786  0.110712  0.769524  1
  H  H17  1  0.556214  0.610712  0.730476  1
  H  H18  1  0.556214  0.889288  0.230476  1
  H  H19  1  0.443786  0.389288  0.269524  1
  H  H20  1  0.306063  0.244916  0.496120  1
  H  H21  1  0.693937  0.744916  0.003880  1
  H  H22  1  0.693937  0.755084  0.503880  1
  H  H23  1  0.306063  0.255084  0.996120  1
  S  S24  1  0.303001  0.966093  0.677659  1
  S  S25  1  0.696999  0.466093  0.822341  1
  S  S26  1  0.696999  0.033907  0.322341  1
  S  S27  1  0.303001  0.533907  0.177659  1
  S  S28  1  0.010442  0.297617  0.441785  1
  S  S29  1  0.989558  0.797617  0.058215  1
  S  S30  1  0.989558  0.702383  0.558215  1
  S  S31  1  0.010442  0.202383  0.941785  1
  O  O32  1  0.204330  0.991582  0.522071  1
  O  O33  1  0.795670  0.491582  0.977929  1
  O  O34  1  0.795670  0.008418  0.477929  1
  O  O35  1  0.204330  0.508418  0.022071  1
  O  O36  1  0.551691  0.155785  0.785988  1
  O  O37  1  0.448309  0.655785  0.714012  1
  O  O38  1  0.448309  0.844215  0.214012  1
  O  O39  1  0.551691  0.344215  0.285988  1
  O  O40  1  0.479532  0.906796  0.679821  1
  O  O41  1  0.520468  0.406796  0.820179  1
  O  O42  1  0.520468  0.093204  0.320179  1
  O  O43  1  0.479532  0.593204  0.179821  1
  O  O44  1  0.576799  0.979310  0.007077  1
  O  O45  1  0.423201  0.479310  0.492923  1
  O  O46  1  0.423201  0.020690  0.992923  1
  O  O47  1  0.576799  0.520690  0.507077  1
  O  O48  1  0.007245  0.363463  0.293020  1
  O  O49  1  0.992755  0.863463  0.206980  1
  O  O50  1  0.992755  0.636537  0.706980  1
  O  O51  1  0.007245  0.136537  0.793020  1
  O  O52  1  0.077315  0.361004  0.569279  1
  O  O53  1  0.922685  0.861004  0.930721  1
  O  O54  1  0.922685  0.638996  0.430721  1
  O  O55  1  0.077315  0.138996  0.069279  1
  O  O56  1  0.185715  0.227590  0.427842  1
  O  O57  1  0.814285  0.727590  0.072158  1
  O  O58  1  0.814285  0.772410  0.572158  1
  O  O59  1  0.185715  0.272410  0.927842  1
  O  O60  1  0.576796  0.292705  0.045484  1
  O  O61  1  0.423204  0.792705  0.454516  1
  O  O62  1  0.423204  0.707295  0.954516  1
  O  O63  1  0.576796  0.207295  0.545484  1
  O  O64  1  0.363782  0.865747  0.337367  1
  O  O65  1  0.636218  0.365747  0.162633  1
  O  O66  1  0.636218  0.134253  0.662633  1
  O  O67  1  0.363782  0.634253  0.837367  1
