# generated using pymatgen
data_Sr2La3Ti2Cr3O15
_symmetry_space_group_name_H-M   'P 1'
_cell_length_a   5.55669187
_cell_length_b   5.59772891
_cell_length_c   39.27609684
_cell_angle_alpha   90.03645230
_cell_angle_beta   90.03781163
_cell_angle_gamma   90.04679856
_symmetry_Int_Tables_number   1
_chemical_formula_structural   Sr2La3Ti2Cr3O15
_chemical_formula_sum   'Sr8 La12 Ti8 Cr12 O60'
_cell_volume   1221.67636374
_cell_formula_units_Z   4
loop_
 _symmetry_equiv_pos_site_id
 _symmetry_equiv_pos_as_xyz
  1  'x, y, z'
loop_
 _atom_site_type_symbol
 _atom_site_label
 _atom_site_symmetry_multiplicity
 _atom_site_fract_x
 _atom_site_fract_y
 _atom_site_fract_z
 _atom_site_occupancy
  Sr  Sr0  1  0.009295  0.996240  0.049827  1
  Sr  Sr1  1  0.008853  0.997551  0.250434  1
  Sr  Sr2  1  0.009843  0.998810  0.450517  1
  Sr  Sr3  1  0.010240  0.994339  0.650330  1
  Sr  Sr4  1  0.011140  0.993703  0.850103  1
  Sr  Sr5  1  0.491089  0.498356  0.350326  1
  Sr  Sr6  1  0.491244  0.497727  0.150436  1
  Sr  Sr7  1  0.492006  0.499175  0.550395  1
  La  La8  1  0.489709  0.499935  0.748305  1
  La  La9  1  0.488642  0.500017  0.948332  1
  La  La10  1  0.510493  0.504592  0.050775  1
  La  La11  1  0.510572  0.505482  0.250871  1
  La  La12  1  0.510662  0.506507  0.650436  1
  La  La13  1  0.508973  0.502146  0.450680  1
  La  La14  1  0.511724  0.505746  0.850574  1
  La  La15  1  0.989519  0.006292  0.150653  1
  La  La16  1  0.989009  0.007546  0.350871  1
  La  La17  1  0.985070  0.004398  0.550630  1
  La  La18  1  0.986617  0.006119  0.748261  1
  La  La19  1  0.985530  0.006246  0.947980  1
  Ti  Ti20  1  0.999855  0.501759  0.000322  1
  Ti  Ti21  1  0.999812  0.501786  0.399993  1
  Ti  Ti22  1  0.000259  0.500205  0.500526  1
  Ti  Ti23  1  0.000759  0.497178  0.601247  1
  Ti  Ti24  1  0.000363  0.500865  0.800620  1
  Ti  Ti25  1  0.499824  0.000107  0.100353  1
  Ti  Ti26  1  0.499614  0.999815  0.300688  1
  Ti  Ti27  1  0.000255  0.499974  0.200637  1
  Cr  Cr28  1  0.000355  0.500067  0.099999  1
  Cr  Cr29  1  0.999979  0.500528  0.699993  1
  Cr  Cr30  1  0.999923  0.500007  0.899733  1
  Cr  Cr31  1  0.499103  0.000143  0.999678  1
  Cr  Cr32  1  0.499726  0.999977  0.200254  1
  Cr  Cr33  1  0.499369  0.999793  0.500053  1
  Cr  Cr34  1  0.499511  0.000273  0.599946  1
  Cr  Cr35  1  0.498895  0.000148  0.899603  1
  Cr  Cr36  1  0.499759  0.999959  0.400283  1
  Cr  Cr37  1  0.498926  0.000184  0.699705  1
  Cr  Cr38  1  0.499632  0.000146  0.800083  1
  Cr  Cr39  1  0.000275  0.500140  0.300108  1
  O  O40  1  0.995534  0.442539  0.049008  1
  O  O41  1  0.995874  0.444402  0.249332  1
  O  O42  1  0.996511  0.447181  0.449697  1
  O  O43  1  0.995959  0.442251  0.649665  1
  O  O44  1  0.995212  0.440193  0.849144  1
  O  O45  1  0.231913  0.236823  0.192927  1
  O  O46  1  0.236837  0.231826  0.106512  1
  O  O47  1  0.236114  0.231382  0.306819  1
  O  O48  1  0.231615  0.238170  0.393053  1
  O  O49  1  0.230520  0.237729  0.592954  1
  O  O50  1  0.231282  0.239184  0.506523  1
  O  O51  1  0.236167  0.237623  0.709066  1
  O  O52  1  0.235632  0.241961  0.791812  1
  O  O53  1  0.235199  0.236430  0.908992  1
  O  O54  1  0.235172  0.240981  0.991684  1
  O  O55  1  0.268244  0.736817  0.293022  1
  O  O56  1  0.265652  0.728214  0.006443  1
  O  O57  1  0.267682  0.737382  0.092632  1
  O  O58  1  0.263605  0.731091  0.206834  1
  O  O59  1  0.262844  0.731741  0.406551  1
  O  O60  1  0.262113  0.730390  0.493121  1
  O  O61  1  0.270939  0.727491  0.693499  1
  O  O62  1  0.262143  0.730566  0.606754  1
  O  O63  1  0.264770  0.729330  0.806653  1
  O  O64  1  0.272249  0.726248  0.893333  1
  O  O65  1  0.504534  0.946157  0.349430  1
  O  O66  1  0.504224  0.944798  0.149229  1
  O  O67  1  0.508521  0.939641  0.550032  1
  O  O68  1  0.503997  0.926056  0.750144  1
  O  O69  1  0.504744  0.925909  0.950001  1
  O  O70  1  0.497489  0.072505  0.050138  1
  O  O71  1  0.497321  0.072502  0.250430  1
  O  O72  1  0.497099  0.081095  0.650079  1
  O  O73  1  0.496931  0.078357  0.449993  1
  O  O74  1  0.496942  0.081054  0.849814  1
  O  O75  1  0.740820  0.253765  0.106205  1
  O  O76  1  0.746628  0.257908  0.193238  1
  O  O77  1  0.741102  0.253510  0.306444  1
  O  O78  1  0.746628  0.259476  0.393377  1
  O  O79  1  0.747714  0.259184  0.593280  1
  O  O80  1  0.746516  0.260686  0.506095  1
  O  O81  1  0.740790  0.264071  0.791938  1
  O  O82  1  0.736981  0.263012  0.708837  1
  O  O83  1  0.740226  0.263466  0.991856  1
  O  O84  1  0.735171  0.264559  0.908718  1
  O  O85  1  0.758329  0.751498  0.006153  1
  O  O86  1  0.754042  0.758512  0.092976  1
  O  O87  1  0.758887  0.752801  0.206412  1
  O  O88  1  0.753540  0.758171  0.293333  1
  O  O89  1  0.759945  0.751698  0.493448  1
  O  O90  1  0.757807  0.756458  0.693799  1
  O  O91  1  0.760014  0.753919  0.406184  1
  O  O92  1  0.760530  0.752203  0.606388  1
  O  O93  1  0.759562  0.752390  0.806386  1
  O  O94  1  0.759414  0.758112  0.893516  1
  O  O95  1  0.002910  0.572449  0.150300  1
  O  O96  1  0.002496  0.571808  0.350318  1
  O  O97  1  0.002908  0.568959  0.549819  1
  O  O98  1  0.004405  0.570490  0.750630  1
  O  O99  1  0.004632  0.570897  0.950471  1
