# generated using pymatgen
data_Tl(WO3)3
_symmetry_space_group_name_H-M   'P 1'
_cell_length_a   7.52745662
_cell_length_b   7.52915781
_cell_length_c   3.87397579
_cell_angle_alpha   89.99673918
_cell_angle_beta   90.00652311
_cell_angle_gamma   119.99252599
_symmetry_Int_Tables_number   1
_chemical_formula_structural   Tl(WO3)3
_chemical_formula_sum   'Tl1 W3 O9'
_cell_volume   190.15812885
_cell_formula_units_Z   1
loop_
 _symmetry_equiv_pos_site_id
 _symmetry_equiv_pos_as_xyz
  1  'x, y, z'
loop_
 _atom_site_type_symbol
 _atom_site_label
 _atom_site_symmetry_multiplicity
 _atom_site_fract_x
 _atom_site_fract_y
 _atom_site_fract_z
 _atom_site_occupancy
  Tl  Tl0  1  0.998969  0.000000  0.933537  1
  W  W1  1  0.998151  0.500772  0.498701  1
  W  W2  1  0.497380  0.499228  0.498701  1
  W  W3  1  0.499310  0.000000  0.498717  1
  O  O4  1  0.998172  0.501013  0.999131  1
  O  O5  1  0.208930  0.789632  0.499861  1
  O  O6  1  0.208023  0.421022  0.499909  1
  O  O7  1  0.577162  0.789307  0.499906  1
  O  O8  1  0.497159  0.498987  0.999131  1
  O  O9  1  0.419298  0.210368  0.499861  1
  O  O10  1  0.499052  0.000000  0.999088  1
  O  O11  1  0.787001  0.578978  0.499909  1
  O  O12  1  0.787855  0.210693  0.499906  1
