# generated using pymatgen
data_Mn12O17F7
_symmetry_space_group_name_H-M   'P 1'
_cell_length_a   4.54354535
_cell_length_b   5.57343055
_cell_length_c   15.09533387
_cell_angle_alpha   89.84793520
_cell_angle_beta   89.17586418
_cell_angle_gamma   90.23346739
_symmetry_Int_Tables_number   1
_chemical_formula_structural   Mn12O17F7
_chemical_formula_sum   'Mn12 O17 F7'
_cell_volume   382.21704623
_cell_formula_units_Z   1
loop_
 _symmetry_equiv_pos_site_id
 _symmetry_equiv_pos_as_xyz
  1  'x, y, z'
loop_
 _atom_site_type_symbol
 _atom_site_label
 _atom_site_symmetry_multiplicity
 _atom_site_fract_x
 _atom_site_fract_y
 _atom_site_fract_z
 _atom_site_occupancy
  Mn  Mn0  1  0.020268  0.164682  0.412944  1
  Mn  Mn1  1  0.026027  0.837354  0.246324  1
  Mn  Mn2  1  0.014102  0.163301  0.079028  1
  Mn  Mn3  1  0.026416  0.162222  0.741507  1
  Mn  Mn4  1  0.022130  0.832836  0.577897  1
  Mn  Mn5  1  0.003453  0.844144  0.908159  1
  Mn  Mn6  1  0.496355  0.350352  0.919079  1
  Mn  Mn7  1  0.497518  0.365618  0.587831  1
  Mn  Mn8  1  0.493047  0.361153  0.256508  1
  Mn  Mn9  1  0.501526  0.635325  0.093061  1
  Mn  Mn10  1  0.495077  0.635454  0.421438  1
  Mn  Mn11  1  0.494919  0.634922  0.754081  1
  O  O12  1  0.231857  0.111535  0.301950  1
  O  O13  1  0.233276  0.111475  0.632974  1
  O  O14  1  0.213046  0.110691  0.967091  1
  O  O15  1  0.229341  0.888351  0.136264  1
  O  O16  1  0.229829  0.888925  0.467117  1
  O  O17  1  0.235309  0.889029  0.799410  1
  O  O18  1  0.276070  0.401094  0.481141  1
  O  O19  1  0.277233  0.398862  0.149158  1
  O  O20  1  0.276720  0.598160  0.314878  1
  O  O21  1  0.278145  0.598918  0.646609  1
  O  O22  1  0.271926  0.400378  0.812363  1
  O  O23  1  0.721631  0.386570  0.028972  1
  O  O24  1  0.728862  0.612870  0.195862  1
  O  O25  1  0.727929  0.385156  0.361802  1
  O  O26  1  0.729040  0.614417  0.527041  1
  O  O27  1  0.717629  0.621309  0.861553  1
  O  O28  1  0.730495  0.386747  0.693078  1
  F  F29  1  0.251525  0.619149  0.988281  1
  F  F30  1  0.757767  0.127719  0.192335  1
  F  F31  1  0.757280  0.127776  0.525003  1
  F  F32  1  0.759146  0.871671  0.357894  1
  F  F33  1  0.745134  0.872265  0.024823  1
  F  F34  1  0.769832  0.119730  0.847172  1
  F  F35  1  0.760143  0.869841  0.689370  1
