# generated using pymatgen
data_LiCuF3
_symmetry_space_group_name_H-M   'P 1'
_cell_length_a   5.26451409
_cell_length_b   4.99932634
_cell_length_c   8.60058769
_cell_angle_alpha   89.73426800
_cell_angle_beta   89.96622637
_cell_angle_gamma   89.97557620
_symmetry_Int_Tables_number   1
_chemical_formula_structural   LiCuF3
_chemical_formula_sum   'Li4 Cu4 F12'
_cell_volume   226.35657941
_cell_formula_units_Z   4
loop_
 _symmetry_equiv_pos_site_id
 _symmetry_equiv_pos_as_xyz
  1  'x, y, z'
loop_
 _atom_site_type_symbol
 _atom_site_label
 _atom_site_symmetry_multiplicity
 _atom_site_fract_x
 _atom_site_fract_y
 _atom_site_fract_z
 _atom_site_occupancy
  Li  Li0  1  0.001989  0.501476  0.687849  1
  Li  Li1  1  0.997164  0.000081  0.669185  1
  Li  Li2  1  0.483724  0.508393  0.167833  1
  Li  Li3  1  0.502694  0.003759  0.198260  1
  Cu  Cu4  1  0.001145  0.998694  0.348538  1
  Cu  Cu5  1  0.000459  0.998301  0.995248  1
  Cu  Cu6  1  0.501445  0.499018  0.495961  1
  Cu  Cu7  1  0.501914  0.498509  0.848690  1
  F  F8  1  0.139673  0.777575  0.832970  1
  F  F9  1  0.144810  0.778117  0.509551  1
  F  F10  1  0.179422  0.817749  0.172838  1
  F  F11  1  0.325871  0.318106  0.671817  1
  F  F12  1  0.351039  0.280348  0.008548  1
  F  F13  1  0.359267  0.277692  0.334383  1
  F  F14  1  0.641432  0.721764  0.333749  1
  F  F15  1  0.648493  0.717505  0.008232  1
  F  F16  1  0.675729  0.681457  0.671548  1
  F  F17  1  0.827892  0.177795  0.172222  1
  F  F18  1  0.855312  0.220410  0.507803  1
  F  F19  1  0.860323  0.223305  0.832632  1
