# generated using pymatgen
data_Li3Sb3(PO4)4
_symmetry_space_group_name_H-M   'P 1'
_cell_length_a   13.37540637
_cell_length_b   9.10816293
_cell_length_c   8.97708606
_cell_angle_alpha   91.37783857
_cell_angle_beta   90.29600094
_cell_angle_gamma   89.14518071
_symmetry_Int_Tables_number   1
_chemical_formula_structural   Li3Sb3(PO4)4
_chemical_formula_sum   'Li9 Sb9 P12 O48'
_cell_volume   1093.18639549
_cell_formula_units_Z   3
loop_
 _symmetry_equiv_pos_site_id
 _symmetry_equiv_pos_as_xyz
  1  'x, y, z'
loop_
 _atom_site_type_symbol
 _atom_site_label
 _atom_site_symmetry_multiplicity
 _atom_site_fract_x
 _atom_site_fract_y
 _atom_site_fract_z
 _atom_site_occupancy
  Li  Li0  1  0.164390  0.468592  0.352117  1
  Li  Li1  1  0.506993  0.530180  0.986796  1
  Li  Li2  1  0.173503  0.160333  0.439880  1
  Li  Li3  1  0.825386  0.669422  0.061443  1
  Li  Li4  1  0.165286  0.002907  0.814659  1
  Li  Li5  1  0.503515  0.993049  0.525769  1
  Li  Li6  1  0.833963  0.967990  0.157783  1
  Li  Li7  1  0.493227  0.829323  0.894426  1
  Li  Li8  1  0.831098  0.505951  0.694596  1
  Sb  Sb9  1  0.135036  0.843146  0.209885  1
  Sb  Sb10  1  0.529785  0.145944  0.127561  1
  Sb  Sb11  1  0.137362  0.660369  0.700900  1
  Sb  Sb12  1  0.471808  0.669878  0.365352  1
  Sb  Sb13  1  0.198903  0.336106  0.959167  1
  Sb  Sb14  1  0.525904  0.341800  0.628368  1
  Sb  Sb15  1  0.864242  0.352978  0.283741  1
  Sb  Sb16  1  0.797824  0.829408  0.536884  1
  Sb  Sb17  1  0.867345  0.161511  0.797101  1
  P  P18  1  0.056967  0.202457  0.146877  1
  P  P19  1  0.280923  0.723309  0.005774  1
  P  P20  1  0.059909  0.294854  0.646942  1
  P  P21  1  0.384019  0.276236  0.321890  1
  P  P22  1  0.277921  0.803841  0.510106  1
  P  P23  1  0.615269  0.798455  0.181793  1
  P  P24  1  0.389755  0.195595  0.822066  1
  P  P25  1  0.723088  0.213506  0.491101  1
  P  P26  1  0.605288  0.701987  0.683729  1
  P  P27  1  0.948406  0.694896  0.348015  1
  P  P28  1  0.719377  0.303162  0.985716  1
  P  P29  1  0.936387  0.794334  0.849981  1
  O  O30  1  0.239726  0.882766  0.999474  1
  O  O31  1  0.089319  0.364873  0.166472  1
  O  O32  1  0.097854  0.099814  0.265359  1
  O  O33  1  0.064073  0.674204  0.358172  1
  O  O34  1  0.241515  0.668789  0.161291  1
  O  O35  1  0.089891  0.368743  0.504952  1
  O  O36  1  0.422225  0.330997  0.167708  1
  O  O37  1  0.273143  0.293714  0.347388  1
  O  O38  1  0.223165  0.900798  0.389551  1
  O  O39  1  0.607025  0.337325  0.982268  1
  O  O40  1  0.560534  0.901920  0.071559  1
  O  O41  1  0.261456  0.638100  0.491403  1
  O  O42  1  0.091127  0.134413  0.653464  1
  O  O43  1  0.575286  0.637588  0.167469  1
  O  O44  1  0.426518  0.115149  0.324381  1
  O  O45  1  0.110193  0.388742  0.784245  1
  O  O46  1  0.052744  0.815758  0.823957  1
  O  O47  1  0.442351  0.377043  0.443553  1
  O  O48  1  0.390276  0.841367  0.507974  1
  O  O49  1  0.770096  0.400589  0.113811  1
  O  O50  1  0.227289  0.848280  0.663870  1
  O  O51  1  0.727999  0.807207  0.173754  1
  O  O52  1  0.571406  0.843745  0.344290  1
  O  O53  1  0.906980  0.870912  0.994983  1
  O  O54  1  0.101856  0.156390  0.988830  1
  O  O55  1  0.437994  0.149349  0.667990  1
  O  O56  1  0.276146  0.162836  0.826092  1
  O  O57  1  0.765210  0.162621  0.336115  1
  O  O58  1  0.222965  0.620350  0.884944  1
  O  O59  1  0.609748  0.174539  0.502013  1
  O  O60  1  0.555378  0.609222  0.545706  1
  O  O61  1  0.939479  0.195987  0.138895  1
  O  O62  1  0.904265  0.592508  0.224613  1
  O  O63  1  0.577469  0.863494  0.676497  1
  O  O64  1  0.406906  0.361950  0.837153  1
  O  O65  1  0.920026  0.858222  0.329860  1
  O  O66  1  0.739746  0.377678  0.514560  1
  O  O67  1  0.442707  0.099327  0.943278  1
  O  O68  1  0.391984  0.700528  0.985799  1
  O  O69  1  0.778678  0.117720  0.613477  1
  O  O70  1  0.722162  0.676011  0.662328  1
  O  O71  1  0.571894  0.629619  0.824593  1
  O  O72  1  0.897495  0.651707  0.501192  1
  O  O73  1  0.773648  0.348706  0.837402  1
  O  O74  1  0.943380  0.318694  0.672057  1
  O  O75  1  0.885064  0.885735  0.715753  1
  O  O76  1  0.906731  0.634263  0.840978  1
  O  O77  1  0.743999  0.138188  0.998110  1
