# generated using pymatgen
data_Li32Mn3Cr13O48
_symmetry_space_group_name_H-M   'P 1'
_cell_length_a   5.03853061
_cell_length_b   8.69274333
_cell_length_c   19.49329775
_cell_angle_alpha   98.08294050
_cell_angle_beta   95.04290636
_cell_angle_gamma   89.69788832
_symmetry_Int_Tables_number   1
_chemical_formula_structural   Li32Mn3Cr13O48
_chemical_formula_sum   'Li32 Mn3 Cr13 O48'
_cell_volume   842.00460868
_cell_formula_units_Z   1
loop_
 _symmetry_equiv_pos_site_id
 _symmetry_equiv_pos_as_xyz
  1  'x, y, z'
loop_
 _atom_site_type_symbol
 _atom_site_label
 _atom_site_symmetry_multiplicity
 _atom_site_fract_x
 _atom_site_fract_y
 _atom_site_fract_z
 _atom_site_occupancy
  Li  Li0  1  0.989340  0.169163  0.250001  1
  Li  Li1  1  0.874895  0.375478  0.375144  1
  Li  Li2  1  0.751081  0.250588  0.000092  1
  Li  Li3  1  0.743333  0.920126  0.999667  1
  Li  Li4  1  0.993474  0.169434  0.748911  1
  Li  Li5  1  0.757593  0.580443  0.499995  1
  Li  Li6  1  0.873793  0.376360  0.875228  1
  Li  Li7  1  0.751673  0.249515  0.500180  1
  Li  Li8  1  0.742390  0.920696  0.499215  1
  Li  Li9  1  0.626617  0.125503  0.124676  1
  Li  Li10  1  0.757881  0.578870  0.999371  1
  Li  Li11  1  0.511325  0.331513  0.250424  1
  Li  Li12  1  0.624739  0.126652  0.625195  1
  Li  Li13  1  0.501875  0.000578  0.250597  1
  Li  Li14  1  0.489867  0.668695  0.249545  1
  Li  Li15  1  0.506920  0.330567  0.749349  1
  Li  Li16  1  0.373583  0.874338  0.374987  1
  Li  Li17  1  0.500160  0.000161  0.750013  1
  Li  Li18  1  0.248409  0.750124  0.999295  1
  Li  Li19  1  0.493353  0.669232  0.750523  1
  Li  Li20  1  0.240893  0.418928  0.999752  1
  Li  Li21  1  0.375768  0.874356  0.874742  1
  Li  Li22  1  0.254679  0.080113  0.500254  1
  Li  Li23  1  0.252201  0.748440  0.499972  1
  Li  Li24  1  0.122794  0.623926  0.125198  1
  Li  Li25  1  0.243668  0.421819  0.500953  1
  Li  Li26  1  0.007851  0.830913  0.250604  1
  Li  Li27  1  0.258141  0.079342  0.000378  1
  Li  Li28  1  0.127112  0.623132  0.624759  1
  Li  Li29  1  0.999129  0.500884  0.249743  1
  Li  Li30  1  0.006113  0.830760  0.751132  1
  Li  Li31  1  0.000135  0.499292  0.749955  1
  Mn  Mn32  1  0.874753  0.041711  0.374729  1
  Mn  Mn33  1  0.871823  0.708966  0.873937  1
  Mn  Mn34  1  0.128381  0.290714  0.625962  1
  Cr  Cr35  1  0.873388  0.711952  0.375493  1
  Cr  Cr36  1  0.880351  0.045596  0.875346  1
  Cr  Cr37  1  0.628023  0.796869  0.125997  1
  Cr  Cr38  1  0.620047  0.461112  0.125468  1
  Cr  Cr39  1  0.621635  0.796124  0.623878  1
  Cr  Cr40  1  0.629982  0.458901  0.625255  1
  Cr  Cr41  1  0.381255  0.539330  0.375468  1
  Cr  Cr42  1  0.367360  0.206320  0.374629  1
  Cr  Cr43  1  0.370389  0.541631  0.874603  1
  Cr  Cr44  1  0.379364  0.205079  0.876092  1
  Cr  Cr45  1  0.122446  0.952628  0.124083  1
  Cr  Cr46  1  0.129733  0.288529  0.124559  1
  Cr  Cr47  1  0.120759  0.953960  0.624638  1
  O  O48  1  0.963655  0.101922  0.068522  1
  O  O49  1  0.936182  0.786983  0.068815  1
  O  O50  1  0.926233  0.427028  0.068178  1
  O  O51  1  0.966015  0.107867  0.569614  1
  O  O52  1  0.813737  0.962883  0.181216  1
  O  O53  1  0.823971  0.323351  0.181937  1
  O  O54  1  0.934546  0.788789  0.568378  1
  O  O55  1  0.926578  0.426511  0.568293  1
  O  O56  1  0.786214  0.647920  0.181634  1
  O  O57  1  0.713570  0.858003  0.319208  1
  O  O58  1  0.814967  0.959491  0.681406  1
  O  O59  1  0.827319  0.320052  0.682518  1
  O  O60  1  0.669248  0.535935  0.318940  1
  O  O61  1  0.679916  0.178073  0.317912  1
  O  O62  1  0.779159  0.640623  0.680194  1
  O  O63  1  0.711319  0.856035  0.819066  1
  O  O64  1  0.468732  0.605800  0.069600  1
  O  O65  1  0.582559  0.715659  0.431281  1
  O  O66  1  0.574356  0.073928  0.431526  1
  O  O67  1  0.680799  0.535380  0.818995  1
  O  O68  1  0.682261  0.173043  0.817833  1
  O  O69  1  0.433445  0.922837  0.067297  1
  O  O70  1  0.418279  0.283875  0.068879  1
  O  O71  1  0.532918  0.395248  0.431368  1
  O  O72  1  0.465003  0.609614  0.568423  1
  O  O73  1  0.572680  0.712370  0.930522  1
  O  O74  1  0.568140  0.073667  0.932798  1
  O  O75  1  0.316669  0.826740  0.182758  1
  O  O76  1  0.331168  0.466241  0.181292  1
  O  O77  1  0.432996  0.925865  0.566976  1
  O  O78  1  0.427138  0.287290  0.569353  1
  O  O79  1  0.534034  0.391002  0.931720  1
  O  O80  1  0.281225  0.143836  0.180396  1
  O  O81  1  0.218661  0.352145  0.318545  1
  O  O82  1  0.316232  0.826930  0.682382  1
  O  O83  1  0.320271  0.464396  0.681052  1
  O  O84  1  0.172541  0.676576  0.318132  1
  O  O85  1  0.174005  0.033322  0.318682  1
  O  O86  1  0.288445  0.143296  0.680886  1
  O  O87  1  0.220166  0.359723  0.819684  1
  O  O88  1  0.076265  0.573041  0.432074  1
  O  O89  1  0.070256  0.213857  0.430408  1
  O  O90  1  0.172763  0.679433  0.817595  1
  O  O91  1  0.183459  0.040313  0.818716  1
  O  O92  1  0.038513  0.896842  0.431317  1
  O  O93  1  0.072518  0.573147  0.931743  1
  O  O94  1  0.067172  0.211899  0.931474  1
  O  O95  1  0.033224  0.891852  0.930477  1
