# generated using pymatgen
data_LiNiPO4
_symmetry_space_group_name_H-M   'P 1'
_cell_length_a   9.90099397
_cell_length_b   9.90099346
_cell_length_c   22.58012939
_cell_angle_alpha   90.00000000
_cell_angle_beta   90.00000000
_cell_angle_gamma   119.99999710
_symmetry_Int_Tables_number   1
_chemical_formula_structural   LiNiPO4
_chemical_formula_sum   'Li24 Ni24 P24 O96'
_cell_volume   1916.96701581
_cell_formula_units_Z   24
loop_
 _symmetry_equiv_pos_site_id
 _symmetry_equiv_pos_as_xyz
  1  'x, y, z'
loop_
 _atom_site_type_symbol
 _atom_site_label
 _atom_site_symmetry_multiplicity
 _atom_site_fract_x
 _atom_site_fract_y
 _atom_site_fract_z
 _atom_site_occupancy
  Li  Li0  1  0.041063  0.941935  0.413259  1
  Li  Li1  1  0.074200  0.581863  0.913332  1
  Li  Li2  1  0.063825  0.518381  0.254563  1
  Li  Li3  1  0.005038  0.466579  0.587816  1
  Li  Li4  1  0.461541  0.994962  0.921149  1
  Li  Li5  1  0.454557  0.936175  0.587896  1
  Li  Li6  1  0.058065  0.099127  0.079926  1
  Li  Li7  1  0.507663  0.925800  0.246666  1
  Li  Li8  1  0.099127  0.041063  0.246593  1
  Li  Li9  1  0.418137  0.492337  0.579999  1
  Li  Li10  1  0.481619  0.545443  0.921229  1
  Li  Li11  1  0.533421  0.538459  0.254483  1
  Li  Li12  1  0.466579  0.461541  0.754483  1
  Li  Li13  1  0.518381  0.454557  0.421229  1
  Li  Li14  1  0.581863  0.507663  0.079999  1
  Li  Li15  1  0.900872  0.958937  0.746593  1
  Li  Li16  1  0.492337  0.074200  0.746666  1
  Li  Li17  1  0.941935  0.900872  0.579926  1
  Li  Li18  1  0.545443  0.063825  0.087896  1
  Li  Li19  1  0.538459  0.005038  0.421149  1
  Li  Li20  1  0.994962  0.533421  0.087816  1
  Li  Li21  1  0.936175  0.481619  0.754563  1
  Li  Li22  1  0.925800  0.418137  0.413332  1
  Li  Li23  1  0.958937  0.058065  0.913259  1
  Ni  Ni24  1  0.145492  0.830749  0.678991  1
  Ni  Ni25  1  0.192035  0.896455  0.013496  1
  Ni  Ni26  1  0.180373  0.778154  0.378444  1
  Ni  Ni27  1  0.103545  0.295581  0.680163  1
  Ni  Ni28  1  0.345939  0.699880  0.816585  1
  Ni  Ni29  1  0.300120  0.646059  0.483251  1
  Ni  Ni30  1  0.353941  0.654061  0.149918  1
  Ni  Ni31  1  0.169251  0.314743  0.345657  1
  Ni  Ni32  1  0.221846  0.402219  0.045111  1
  Ni  Ni33  1  0.597781  0.819627  0.711778  1
  Ni  Ni34  1  0.295581  0.192035  0.846829  1
  Ni  Ni35  1  0.314743  0.145492  0.512324  1
  Ni  Ni36  1  0.685257  0.854508  0.012324  1
  Ni  Ni37  1  0.704419  0.807965  0.346829  1
  Ni  Ni38  1  0.402219  0.180373  0.211778  1
  Ni  Ni39  1  0.778154  0.597781  0.545111  1
  Ni  Ni40  1  0.830749  0.685257  0.845657  1
  Ni  Ni41  1  0.646059  0.345939  0.649918  1
  Ni  Ni42  1  0.699880  0.353941  0.983252  1
  Ni  Ni43  1  0.654061  0.300120  0.316585  1
  Ni  Ni44  1  0.896455  0.704419  0.180163  1
  Ni  Ni45  1  0.819627  0.221846  0.878444  1
  Ni  Ni46  1  0.807965  0.103545  0.513496  1
  Ni  Ni47  1  0.854508  0.169251  0.178991  1
  P  P48  1  0.171715  0.855116  0.813209  1
  P  P49  1  0.125816  0.779929  0.512216  1
  P  P50  1  0.232878  0.875790  0.146695  1
  P  P51  1  0.124210  0.357088  0.813361  1
  P  P52  1  0.322215  0.686754  0.007245  1
  P  P53  1  0.144884  0.316598  0.479875  1
  P  P54  1  0.313246  0.635460  0.673912  1
  P  P55  1  0.364540  0.677785  0.340579  1
  P  P56  1  0.220071  0.345887  0.178883  1
  P  P57  1  0.654113  0.874184  0.845549  1
  P  P58  1  0.357088  0.232878  0.980028  1
  P  P59  1  0.316598  0.171715  0.646542  1
  P  P60  1  0.683402  0.828285  0.146542  1
  P  P61  1  0.642912  0.767122  0.480028  1
  P  P62  1  0.345887  0.125816  0.345549  1
  P  P63  1  0.779929  0.654113  0.678883  1
  P  P64  1  0.635460  0.322215  0.840579  1
  P  P65  1  0.686754  0.364540  0.173912  1
  P  P66  1  0.855116  0.683402  0.979875  1
  P  P67  1  0.677785  0.313246  0.507245  1
  P  P68  1  0.875790  0.642912  0.313361  1
  P  P69  1  0.767122  0.124210  0.646695  1
  P  P70  1  0.874184  0.220071  0.012216  1
  P  P71  1  0.828285  0.144884  0.313209  1
  O  O72  1  0.012833  0.703955  0.801026  1
  O  O73  1  0.135434  0.978984  0.837574  1
  O  O74  1  0.006911  0.687722  0.561953  1
  O  O75  1  0.122507  0.933057  0.499864  1
  O  O76  1  0.205264  0.991821  0.184015  1
  O  O77  1  0.073458  0.727860  0.134006  1
  O  O78  1  0.081185  0.676753  0.455307  1
  O  O79  1  0.262597  0.906049  0.753524  1
  O  O80  1  0.310421  0.951243  0.086806  1
  O  O81  1  0.162219  0.643234  0.672971  1
  O  O82  1  0.199855  0.717437  0.977662  1
  O  O83  1  0.276770  0.830593  0.858107  1
  O  O84  1  0.219699  0.669760  0.310933  1
  O  O85  1  0.290595  0.812895  0.529844  1
  O  O86  1  0.048757  0.359178  0.753473  1
  O  O87  1  0.344450  0.836698  0.180948  1
  O  O88  1  0.163302  0.507751  0.847615  1
  O  O89  1  0.008179  0.213443  0.850682  1
  O  O90  1  0.093951  0.356547  0.420191  1
  O  O91  1  0.021016  0.156450  0.504241  1
  O  O92  1  0.254787  0.620233  0.070848  1
  O  O93  1  0.066943  0.189450  0.166531  1
  O  O94  1  0.169407  0.446176  0.524774  1
  O  O95  1  0.187105  0.477699  0.196511  1
  O  O96  1  0.365447  0.745213  0.404181  1
  O  O97  1  0.282563  0.482419  0.644329  1
  O  O98  1  0.379767  0.634553  0.737514  1
  O  O99  1  0.330240  0.549938  0.977600  1
  O  O100  1  0.450062  0.780301  0.644266  1
  O  O101  1  0.481014  0.837781  0.006304  1
  O  O102  1  0.356766  0.518986  0.339638  1
  O  O103  1  0.156450  0.135434  0.670908  1
  O  O104  1  0.213443  0.205264  0.017348  1
  O  O105  1  0.272140  0.345598  0.800673  1
  O  O106  1  0.323247  0.404431  0.121973  1
  O  O107  1  0.517581  0.800145  0.310995  1
  O  O108  1  0.189450  0.122507  0.333197  1
  O  O109  1  0.296045  0.308878  0.467693  1
  O  O110  1  0.312278  0.319189  0.228620  1
  O  O111  1  0.522301  0.709405  0.863178  1
  O  O112  1  0.595569  0.918815  0.788640  1
  O  O113  1  0.553824  0.723230  0.191440  1
  O  O114  1  0.359178  0.310421  0.920140  1
  O  O115  1  0.680811  0.993089  0.895287  1
  O  O116  1  0.492249  0.655550  0.514282  1
  O  O117  1  0.356547  0.262597  0.586857  1
  O  O118  1  0.654402  0.926542  0.467339  1
  O  O119  1  0.691122  0.987167  0.134359  1
  O  O120  1  0.308878  0.012833  0.634359  1
  O  O121  1  0.345598  0.073458  0.967339  1
  O  O122  1  0.643453  0.737403  0.086857  1
  O  O123  1  0.507751  0.344450  0.014282  1
  O  O124  1  0.319189  0.006911  0.395287  1
  O  O125  1  0.640822  0.689579  0.420140  1
  O  O126  1  0.446176  0.276770  0.691440  1
  O  O127  1  0.404431  0.081185  0.288640  1
  O  O128  1  0.477699  0.290595  0.363178  1
  O  O129  1  0.687722  0.680811  0.728620  1
  O  O130  1  0.703955  0.691122  0.967693  1
  O  O131  1  0.810550  0.877493  0.833197  1
  O  O132  1  0.482419  0.199855  0.810995  1
  O  O133  1  0.676753  0.595569  0.621973  1
  O  O134  1  0.727860  0.654402  0.300673  1
  O  O135  1  0.786557  0.794736  0.517348  1
  O  O136  1  0.843550  0.864566  0.170908  1
  O  O137  1  0.643234  0.481014  0.839638  1
  O  O138  1  0.518986  0.162219  0.506304  1
  O  O139  1  0.549938  0.219699  0.144266  1
  O  O140  1  0.669760  0.450062  0.477600  1
  O  O141  1  0.620233  0.365447  0.237514  1
  O  O142  1  0.717437  0.517581  0.144329  1
  O  O143  1  0.634553  0.254787  0.904181  1
  O  O144  1  0.812895  0.522301  0.696511  1
  O  O145  1  0.830593  0.553824  0.024774  1
  O  O146  1  0.933057  0.810550  0.666531  1
  O  O147  1  0.745213  0.379767  0.570848  1
  O  O148  1  0.978984  0.843550  0.004241  1
  O  O149  1  0.906049  0.643453  0.920191  1
  O  O150  1  0.991821  0.786557  0.350682  1
  O  O151  1  0.836698  0.492249  0.347615  1
  O  O152  1  0.655550  0.163302  0.680948  1
  O  O153  1  0.951243  0.640822  0.253473  1
  O  O154  1  0.709405  0.187105  0.029844  1
  O  O155  1  0.780301  0.330240  0.810933  1
  O  O156  1  0.723230  0.169407  0.358107  1
  O  O157  1  0.800145  0.282563  0.477662  1
  O  O158  1  0.837781  0.356766  0.172971  1
  O  O159  1  0.689579  0.048757  0.586806  1
  O  O160  1  0.737403  0.093951  0.253524  1
  O  O161  1  0.918815  0.323247  0.955307  1
  O  O162  1  0.926542  0.272140  0.634006  1
  O  O163  1  0.794736  0.008179  0.684015  1
  O  O164  1  0.877493  0.066943  0.999864  1
  O  O165  1  0.993089  0.312278  0.061953  1
  O  O166  1  0.864566  0.021016  0.337574  1
  O  O167  1  0.987167  0.296045  0.301026  1
