# generated using pymatgen
data_Li3Fe8(BO3)8
_symmetry_space_group_name_H-M   'P 1'
_cell_length_a   5.26550863
_cell_length_b   9.16345856
_cell_length_c   11.38833065
_cell_angle_alpha   66.83762250
_cell_angle_beta   76.25024965
_cell_angle_gamma   89.75864467
_symmetry_Int_Tables_number   1
_chemical_formula_structural   Li3Fe8(BO3)8
_chemical_formula_sum   'Li3 Fe8 B8 O24'
_cell_volume   488.26210765
_cell_formula_units_Z   1
loop_
 _symmetry_equiv_pos_site_id
 _symmetry_equiv_pos_as_xyz
  1  'x, y, z'
loop_
 _atom_site_type_symbol
 _atom_site_label
 _atom_site_symmetry_multiplicity
 _atom_site_fract_x
 _atom_site_fract_y
 _atom_site_fract_z
 _atom_site_occupancy
  Li  Li0  1  0.520396  0.493203  0.657064  1
  Li  Li1  1  0.010972  0.989197  0.665697  1
  Li  Li2  1  0.230942  0.244961  0.165690  1
  Fe  Fe3  1  0.976273  0.646811  0.376194  1
  Fe  Fe4  1  0.728447  0.067742  0.884177  1
  Fe  Fe5  1  0.540134  0.846045  0.623322  1
  Fe  Fe6  1  0.760948  0.440984  0.129943  1
  Fe  Fe7  1  0.228233  0.569581  0.875387  1
  Fe  Fe8  1  0.482996  0.146389  0.383048  1
  Fe  Fe9  1  0.037358  0.345602  0.626262  1
  Fe  Fe10  1  0.246296  0.931237  0.129508  1
  B  B11  1  0.982583  0.319723  0.372562  1
  B  B12  1  0.735471  0.398074  0.876122  1
  B  B13  1  0.527490  0.183476  0.629859  1
  B  B14  1  0.766473  0.114214  0.125803  1
  B  B15  1  0.471720  0.810708  0.378185  1
  B  B16  1  0.235451  0.899688  0.873969  1
  B  B17  1  0.024462  0.682402  0.628057  1
  B  B18  1  0.263371  0.597448  0.131138  1
  O  O19  1  0.992880  0.934895  0.853415  1
  O  O20  1  0.863252  0.288726  0.834452  1
  O  O21  1  0.861013  0.477520  0.933510  1
  O  O22  1  0.909446  0.815239  0.628741  1
  O  O23  1  0.920681  0.578281  0.584510  1
  O  O24  1  0.756623  0.145308  0.673064  1
  O  O25  1  0.751212  0.327849  0.329155  1
  O  O26  1  0.491730  0.433080  0.857895  1
  O  O27  1  0.356979  0.783042  0.836431  1
  O  O28  1  0.539131  0.928273  0.419171  1
  O  O29  1  0.624339  0.689460  0.385356  1
  O  O30  1  0.365526  0.981417  0.924777  1
  O  O31  1  0.644818  0.026516  0.075948  1
  O  O32  1  0.407121  0.312908  0.632488  1
  O  O33  1  0.421861  0.081808  0.581268  1
  O  O34  1  0.603712  0.219305  0.170774  1
  O  O35  1  0.522229  0.589473  0.129521  1
  O  O36  1  0.252993  0.644552  0.675437  1
  O  O37  1  0.241722  0.818587  0.337336  1
  O  O38  1  0.039565  0.422340  0.425034  1
  O  O39  1  0.147967  0.209056  0.356777  1
  O  O40  1  0.148946  0.496632  0.083553  1
  O  O41  1  0.106879  0.693140  0.177589  1
  O  O42  1  0.017668  0.107108  0.133601  1
