# generated using pymatgen
data_Li4Ti5Nb3O16
_symmetry_space_group_name_H-M   'P 1'
_cell_length_a   5.98225959
_cell_length_b   5.96353166
_cell_length_c   9.87279911
_cell_angle_alpha   90.00310139
_cell_angle_beta   90.07527363
_cell_angle_gamma   119.91991639
_symmetry_Int_Tables_number   1
_chemical_formula_structural   Li4Ti5Nb3O16
_chemical_formula_sum   'Li4 Ti5 Nb3 O16'
_cell_volume   305.27349239
_cell_formula_units_Z   1
loop_
 _symmetry_equiv_pos_site_id
 _symmetry_equiv_pos_as_xyz
  1  'x, y, z'
loop_
 _atom_site_type_symbol
 _atom_site_label
 _atom_site_symmetry_multiplicity
 _atom_site_fract_x
 _atom_site_fract_y
 _atom_site_fract_z
 _atom_site_occupancy
  Li  Li0  1  0.336251  0.668149  0.900780  1
  Li  Li1  1  0.013190  0.006577  0.990773  1
  Li  Li2  1  0.012335  0.006192  0.494957  1
  Li  Li3  1  0.666322  0.333171  0.389712  1
  Ti  Ti4  1  0.172063  0.829502  0.216694  1
  Ti  Ti5  1  0.339327  0.669695  0.494363  1
  Ti  Ti6  1  0.171965  0.342536  0.216695  1
  Ti  Ti7  1  0.351922  0.175957  0.719540  1
  Ti  Ti8  1  0.663362  0.331710  0.992580  1
  Nb  Nb9  1  0.656482  0.828273  0.213412  1
  Nb  Nb10  1  0.827598  0.633705  0.713039  1
  Nb  Nb11  1  0.827579  0.193895  0.713027  1
  O  O12  1  0.169896  0.831753  0.595065  1
  O  O13  1  0.041491  0.520760  0.335452  1
  O  O14  1  0.319942  0.659928  0.101695  1
  O  O15  1  0.009348  0.004706  0.313010  1
  O  O16  1  0.008433  0.004218  0.808972  1
  O  O17  1  0.169840  0.338161  0.595041  1
  O  O18  1  0.475075  0.959319  0.342996  1
  O  O19  1  0.475082  0.515784  0.342959  1
  O  O20  1  0.333780  0.166880  0.100970  1
  O  O21  1  0.662668  0.831391  0.590141  1
  O  O22  1  0.515587  0.480683  0.846051  1
  O  O23  1  0.515635  0.034952  0.846059  1
  O  O24  1  0.631672  0.315856  0.579522  1
  O  O25  1  0.831629  0.666150  0.097332  1
  O  O26  1  0.969881  0.484921  0.859626  1
  O  O27  1  0.831646  0.165475  0.097375  1
