# generated using pymatgen
data_Ti3Cu2Te(PO4)6
_symmetry_space_group_name_H-M   'P 1'
_cell_length_a   8.76566793
_cell_length_b   8.76566834
_cell_length_c   8.76566754
_cell_angle_alpha   59.83031104
_cell_angle_beta   59.83030919
_cell_angle_gamma   59.83031180
_symmetry_Int_Tables_number   1
_chemical_formula_structural   Ti3Cu2Te(PO4)6
_chemical_formula_sum   'Ti3 Cu2 Te1 P6 O24'
_cell_volume   474.42131076
_cell_formula_units_Z   1
loop_
 _symmetry_equiv_pos_site_id
 _symmetry_equiv_pos_as_xyz
  1  'x, y, z'
loop_
 _atom_site_type_symbol
 _atom_site_label
 _atom_site_symmetry_multiplicity
 _atom_site_fract_x
 _atom_site_fract_y
 _atom_site_fract_z
 _atom_site_occupancy
  Ti  Ti0  1  0.141908  0.141908  0.141908  1
  Ti  Ti1  1  0.357292  0.357292  0.357292  1
  Ti  Ti2  1  0.642061  0.642061  0.642061  1
  Cu  Cu3  1  0.004316  0.004316  0.004316  1
  Cu  Cu4  1  0.500246  0.500246  0.500246  1
  Te  Te5  1  0.857243  0.857243  0.857243  1
  P  P6  1  0.258948  0.531889  0.961593  1
  P  P7  1  0.531889  0.961593  0.258948  1
  P  P8  1  0.961593  0.258948  0.531889  1
  P  P9  1  0.043766  0.748991  0.450086  1
  P  P10  1  0.450086  0.043766  0.748991  1
  P  P11  1  0.748991  0.450086  0.043766  1
  O  O12  1  0.120646  0.319051  0.485837  1
  O  O13  1  0.319051  0.485837  0.120646  1
  O  O14  1  0.060377  0.916528  0.263787  1
  O  O15  1  0.485837  0.120646  0.319051  1
  O  O16  1  0.022366  0.800296  0.605493  1
  O  O17  1  0.230575  0.584315  0.427134  1
  O  O18  1  0.263787  0.060377  0.916528  1
  O  O19  1  0.427134  0.230575  0.584315  1
  O  O20  1  0.197486  0.374359  0.000692  1
  O  O21  1  0.584315  0.427134  0.230575  1
  O  O22  1  0.096954  0.723551  0.951211  1
  O  O23  1  0.374359  0.000692  0.197486  1
  O  O24  1  0.605493  0.022366  0.800296  1
  O  O25  1  0.916528  0.263787  0.060377  1
  O  O26  1  0.423060  0.551082  0.772042  1
  O  O27  1  0.800296  0.605493  0.022366  1
  O  O28  1  0.551082  0.772042  0.423060  1
  O  O29  1  0.723551  0.951211  0.096954  1
  O  O30  1  0.772042  0.423060  0.551082  1
  O  O31  1  0.000692  0.197486  0.374359  1
  O  O32  1  0.501126  0.873518  0.700177  1
  O  O33  1  0.951211  0.096954  0.723551  1
  O  O34  1  0.700177  0.501126  0.873518  1
  O  O35  1  0.873518  0.700177  0.501126  1
