# generated using pymatgen
data_Li24Mn5Cr7O36
_symmetry_space_group_name_H-M   'P 1'
_cell_length_a   5.01628000
_cell_length_b   13.26678554
_cell_length_c   9.74095998
_cell_angle_alpha   97.02865720
_cell_angle_beta   94.80966154
_cell_angle_gamma   100.52481518
_symmetry_Int_Tables_number   1
_chemical_formula_structural   Li24Mn5Cr7O36
_chemical_formula_sum   'Li24 Mn5 Cr7 O36'
_cell_volume   628.80658910
_cell_formula_units_Z   1
loop_
 _symmetry_equiv_pos_site_id
 _symmetry_equiv_pos_as_xyz
  1  'x, y, z'
loop_
 _atom_site_type_symbol
 _atom_site_label
 _atom_site_symmetry_multiplicity
 _atom_site_fract_x
 _atom_site_fract_y
 _atom_site_fract_z
 _atom_site_occupancy
  Li  Li0  1  0.832132  0.166267  0.000168  1
  Li  Li1  1  0.948453  0.386060  0.999063  1
  Li  Li2  1  0.998149  0.749171  0.250065  1
  Li  Li3  1  0.667091  0.084600  0.250339  1
  Li  Li4  1  0.953964  0.887998  0.501252  1
  Li  Li5  1  0.621402  0.220992  0.499924  1
  Li  Li6  1  0.834031  0.667277  0.499361  1
  Li  Li7  1  0.500960  0.001180  0.500677  1
  Li  Li8  1  0.712886  0.444614  0.500159  1
  Li  Li9  1  0.663365  0.583872  0.749919  1
  Li  Li10  1  0.501320  0.499792  0.000188  1
  Li  Li11  1  0.718184  0.948135  0.999504  1
  Li  Li12  1  0.386224  0.280276  0.000666  1
  Li  Li13  1  0.615849  0.718533  0.999222  1
  Li  Li14  1  0.282794  0.053067  0.000593  1
  Li  Li15  1  0.333952  0.416409  0.249685  1
  Li  Li16  1  0.286127  0.555006  0.500856  1
  Li  Li17  1  0.166603  0.332683  0.500033  1
  Li  Li18  1  0.380061  0.777804  0.499572  1
  Li  Li19  1  0.046774  0.111419  0.498523  1
  Li  Li20  1  0.330036  0.917576  0.750032  1
  Li  Li21  1  0.166356  0.833206  0.999237  1
  Li  Li22  1  0.996289  0.250678  0.750008  1
  Li  Li23  1  0.052253  0.614239  0.000510  1
  Mn  Mn24  1  0.889766  0.027506  0.749938  1
  Mn  Mn25  1  0.888388  0.527684  0.248631  1
  Mn  Mn26  1  0.556814  0.360758  0.749953  1
  Mn  Mn27  1  0.222969  0.193589  0.250701  1
  Mn  Mn28  1  0.223678  0.694339  0.749964  1
  Cr  Cr29  1  0.780096  0.307415  0.249900  1
  Cr  Cr30  1  0.772086  0.806814  0.749994  1
  Cr  Cr31  1  0.437920  0.140111  0.750288  1
  Cr  Cr32  1  0.560145  0.864487  0.251391  1
  Cr  Cr33  1  0.438591  0.638943  0.249503  1
  Cr  Cr34  1  0.105513  0.473562  0.750051  1
  Cr  Cr35  1  0.109013  0.968844  0.249646  1
  O  O36  1  0.001579  0.071712  0.139216  1
  O  O37  1  0.933609  0.213765  0.365178  1
  O  O38  1  0.003243  0.570693  0.638658  1
  O  O39  1  0.851456  0.355167  0.636736  1
  O  O40  1  0.736120  0.117821  0.636603  1
  O  O41  1  0.666420  0.406097  0.137595  1
  O  O42  1  0.931912  0.715505  0.863649  1
  O  O43  1  0.813038  0.475486  0.860986  1
  O  O44  1  0.598485  0.048759  0.863607  1
  O  O45  1  0.865004  0.859312  0.136825  1
  O  O46  1  0.740377  0.618655  0.135646  1
  O  O47  1  0.521004  0.189757  0.137535  1
  O  O48  1  0.670425  0.264560  0.863669  1
  O  O49  1  0.801529  0.974173  0.362907  1
  O  O50  1  0.598132  0.548966  0.363653  1
  O  O51  1  0.479110  0.308478  0.361392  1
  O  O52  1  0.664842  0.763251  0.362680  1
  O  O53  1  0.334575  0.095368  0.361649  1
  O  O54  1  0.669705  0.903938  0.638701  1
  O  O55  1  0.337313  0.237270  0.638925  1
  O  O56  1  0.517882  0.688508  0.636849  1
  O  O57  1  0.402432  0.451001  0.636045  1
  O  O58  1  0.184418  0.021819  0.636679  1
  O  O59  1  0.337169  0.736938  0.138377  1
  O  O60  1  0.479620  0.808766  0.861386  1
  O  O61  1  0.265023  0.382086  0.863652  1
  O  O62  1  0.145819  0.142003  0.861152  1
  O  O63  1  0.407828  0.948715  0.134091  1
  O  O64  1  0.186988  0.522934  0.137783  1
  O  O65  1  0.065710  0.283791  0.136634  1
  O  O66  1  0.337019  0.597753  0.863323  1
  O  O67  1  0.258696  0.884610  0.365340  1
  O  O68  1  0.141362  0.642732  0.361664  1
  O  O69  1  0.999152  0.429118  0.362010  1
  O  O70  1  0.069416  0.784581  0.636275  1
  O  O71  1  0.003353  0.931012  0.863417  1
