# generated using pymatgen
data_Li2Fe2(PO4)3
_symmetry_space_group_name_H-M   'P 1'
_cell_length_a   8.54628005
_cell_length_b   8.53604359
_cell_length_c   8.96037424
_cell_angle_alpha   89.98707379
_cell_angle_beta   60.19377283
_cell_angle_gamma   119.50497231
_symmetry_Int_Tables_number   1
_chemical_formula_structural   Li2Fe2(PO4)3
_chemical_formula_sum   'Li4 Fe4 P6 O24'
_cell_volume   466.93292026
_cell_formula_units_Z   2
loop_
 _symmetry_equiv_pos_site_id
 _symmetry_equiv_pos_as_xyz
  1  'x, y, z'
loop_
 _atom_site_type_symbol
 _atom_site_label
 _atom_site_symmetry_multiplicity
 _atom_site_fract_x
 _atom_site_fract_y
 _atom_site_fract_z
 _atom_site_occupancy
  Li  Li0  1  0.475324  0.221435  0.127934  1
  Li  Li1  1  0.341613  0.348822  0.452467  1
  Li  Li2  1  0.658387  0.651178  0.547533  1
  Li  Li3  1  0.524676  0.778565  0.872066  1
  Fe  Fe4  1  0.207849  0.849761  0.440042  1
  Fe  Fe5  1  0.209810  0.355888  0.926889  1
  Fe  Fe6  1  0.790190  0.644112  0.073111  1
  Fe  Fe7  1  0.792151  0.150239  0.559958  1
  P  P8  1  0.283099  0.533336  0.250905  1
  P  P9  1  0.294251  0.754408  0.748985  1
  P  P10  1  0.006068  0.039069  0.745024  1
  P  P11  1  0.993932  0.960931  0.254976  1
  P  P12  1  0.705749  0.245592  0.251015  1
  P  P13  1  0.716901  0.466664  0.749095  1
  O  O14  1  0.182907  0.987824  0.263031  1
  O  O15  1  0.213793  0.669097  0.306381  1
  O  O16  1  0.320994  0.529170  0.062876  1
  O  O17  1  0.094149  0.120074  0.092044  1
  O  O18  1  0.118033  0.328919  0.391856  1
  O  O19  1  0.269531  0.759827  0.592152  1
  O  O20  1  0.078920  0.682346  0.934830  1
  O  O21  1  0.494569  0.598677  0.240181  1
  O  O22  1  0.469383  0.947637  0.739558  1
  O  O23  1  0.140149  0.242398  0.749697  1
  O  O24  1  0.370454  0.620218  0.747942  1
  O  O25  1  0.182403  0.046572  0.561195  1
  O  O26  1  0.817597  0.953428  0.438805  1
  O  O27  1  0.629546  0.379782  0.252058  1
  O  O28  1  0.859851  0.757602  0.250303  1
  O  O29  1  0.530617  0.052363  0.260442  1
  O  O30  1  0.505431  0.401323  0.759818  1
  O  O31  1  0.921080  0.317654  0.065170  1
  O  O32  1  0.730469  0.240173  0.407848  1
  O  O33  1  0.881967  0.671081  0.608144  1
  O  O34  1  0.905851  0.879926  0.907956  1
  O  O35  1  0.679006  0.470830  0.937124  1
  O  O36  1  0.786207  0.330903  0.693619  1
  O  O37  1  0.817093  0.012176  0.736969  1
