# generated using pymatgen
data_NdO
_symmetry_space_group_name_H-M   'P 1'
_cell_length_a   6.16272516
_cell_length_b   3.55730833
_cell_length_c   5.97491211
_cell_angle_alpha   89.99350069
_cell_angle_beta   89.99309566
_cell_angle_gamma   30.01871759
_symmetry_Int_Tables_number   1
_chemical_formula_structural   NdO
_chemical_formula_sum   'Nd2 O2'
_cell_volume   65.53019744
_cell_formula_units_Z   2
loop_
 _symmetry_equiv_pos_site_id
 _symmetry_equiv_pos_as_xyz
  1  'x, y, z'
loop_
 _atom_site_type_symbol
 _atom_site_label
 _atom_site_symmetry_multiplicity
 _atom_site_fract_x
 _atom_site_fract_y
 _atom_site_fract_z
 _atom_site_occupancy
  Nd  Nd0  1  0.669299  0.998187  0.500823  1
  Nd  Nd1  1  0.334365  0.000294  0.000801  1
  O  O2  1  0.002308  0.998812  0.750722  1
  O  O3  1  0.001175  0.999570  0.251295  1
