# generated using pymatgen
data_Be2PH5O7
_symmetry_space_group_name_H-M   'P 1'
_cell_length_a   6.71473332
_cell_length_b   11.74673697
_cell_length_c   8.14489289
_cell_angle_alpha   90.00000000
_cell_angle_beta   109.89052550
_cell_angle_gamma   90.00000000
_symmetry_Int_Tables_number   1
_chemical_formula_structural   Be2PH5O7
_chemical_formula_sum   'Be8 P4 H20 O28'
_cell_volume   604.11321053
_cell_formula_units_Z   4
loop_
 _symmetry_equiv_pos_site_id
 _symmetry_equiv_pos_as_xyz
  1  'x, y, z'
loop_
 _atom_site_type_symbol
 _atom_site_label
 _atom_site_symmetry_multiplicity
 _atom_site_fract_x
 _atom_site_fract_y
 _atom_site_fract_z
 _atom_site_occupancy
  Be  Be0  1  0.452905  0.316464  0.018941  1
  Be  Be1  1  0.952905  0.183536  0.518941  1
  Be  Be2  1  0.547095  0.683536  0.981059  1
  Be  Be3  1  0.047095  0.816464  0.481059  1
  Be  Be4  1  0.238463  0.070029  0.116575  1
  Be  Be5  1  0.738463  0.429971  0.616575  1
  Be  Be6  1  0.761537  0.929971  0.883425  1
  Be  Be7  1  0.261537  0.570029  0.383425  1
  P  P8  1  0.213132  0.164738  0.777941  1
  P  P9  1  0.713132  0.335262  0.277941  1
  P  P10  1  0.786868  0.835262  0.222059  1
  P  P11  1  0.286868  0.664738  0.722059  1
  H  H12  1  0.619614  0.119683  0.371222  1
  H  H13  1  0.119614  0.380317  0.871222  1
  H  H14  1  0.380386  0.880317  0.628778  1
  H  H15  1  0.880386  0.619683  0.128778  1
  H  H16  1  0.270207  0.486159  0.943563  1
  H  H17  1  0.770207  0.013841  0.443563  1
  H  H18  1  0.729793  0.513841  0.056437  1
  H  H19  1  0.229793  0.986159  0.556437  1
  H  H20  1  0.135066  0.464878  0.159696  1
  H  H21  1  0.635066  0.035122  0.659696  1
  H  H22  1  0.864934  0.535122  0.840304  1
  H  H23  1  0.364934  0.964878  0.340304  1
  H  H24  1  0.002295  0.181736  0.221577  1
  H  H25  1  0.502295  0.318264  0.721576  1
  H  H26  1  0.997705  0.818264  0.778424  1
  H  H27  1  0.497705  0.681736  0.278423  1
  H  H28  1  0.921294  0.056708  0.140129  1
  H  H29  1  0.421294  0.443292  0.640129  1
  H  H30  1  0.078706  0.943292  0.859871  1
  H  H31  1  0.578706  0.556708  0.359871  1
  O  O32  1  0.420303  0.234683  0.853161  1
  O  O33  1  0.920303  0.265317  0.353161  1
  O  O34  1  0.579697  0.765317  0.146839  1
  O  O35  1  0.079697  0.734683  0.646839  1
  O  O36  1  0.210019  0.074993  0.915453  1
  O  O37  1  0.710019  0.425007  0.415453  1
  O  O38  1  0.789981  0.925007  0.084547  1
  O  O39  1  0.289981  0.574993  0.584547  1
  O  O40  1  0.603274  0.002338  0.758121  1
  O  O41  1  0.103274  0.497662  0.258121  1
  O  O42  1  0.396726  0.997662  0.241879  1
  O  O43  1  0.896726  0.502338  0.741879  1
  O  O44  1  0.180194  0.109935  0.595821  1
  O  O45  1  0.680194  0.390065  0.095821  1
  O  O46  1  0.819806  0.890065  0.404179  1
  O  O47  1  0.319806  0.609935  0.904179  1
  O  O48  1  0.513225  0.256550  0.218050  1
  O  O49  1  0.013225  0.243450  0.718050  1
  O  O50  1  0.486775  0.743450  0.781950  1
  O  O51  1  0.986775  0.756550  0.281950  1
  O  O52  1  0.251861  0.902798  0.529956  1
  O  O53  1  0.751861  0.597202  0.029956  1
  O  O54  1  0.748139  0.097202  0.470044  1
  O  O55  1  0.248139  0.402798  0.970044  1
  O  O56  1  0.473107  0.617712  0.350453  1
  O  O57  1  0.973107  0.882288  0.850453  1
  O  O58  1  0.526893  0.382288  0.649547  1
  O  O59  1  0.026893  0.117712  0.149547  1
