# generated using pymatgen
data_LiFePO4
_symmetry_space_group_name_H-M   'P 1'
_cell_length_a   9.35505393
_cell_length_b   5.60837128
_cell_length_c   6.34858393
_cell_angle_alpha   102.56147601
_cell_angle_beta   105.38854048
_cell_angle_gamma   80.79063657
_symmetry_Int_Tables_number   1
_chemical_formula_structural   LiFePO4
_chemical_formula_sum   'Li4 Fe4 P4 O16'
_cell_volume   311.60110185
_cell_formula_units_Z   4
loop_
 _symmetry_equiv_pos_site_id
 _symmetry_equiv_pos_as_xyz
  1  'x, y, z'
loop_
 _atom_site_type_symbol
 _atom_site_label
 _atom_site_symmetry_multiplicity
 _atom_site_fract_x
 _atom_site_fract_y
 _atom_site_fract_z
 _atom_site_occupancy
  Li  Li0  1  0.107716  0.328929  0.364933  1
  Li  Li1  1  0.251425  0.830198  0.486196  1
  Li  Li2  1  0.748575  0.169802  0.513804  1
  Li  Li3  1  0.892284  0.671071  0.635067  1
  Fe  Fe4  1  0.213169  0.678170  0.949922  1
  Fe  Fe5  1  0.412271  0.220001  0.162021  1
  Fe  Fe6  1  0.587729  0.779999  0.837979  1
  Fe  Fe7  1  0.786831  0.321830  0.050078  1
  P  P8  1  0.077174  0.189560  0.821968  1
  P  P9  1  0.451566  0.312048  0.697652  1
  P  P10  1  0.548434  0.687952  0.302348  1
  P  P11  1  0.922826  0.810440  0.178032  1
  O  O12  1  0.097621  0.388436  0.696060  1
  O  O13  1  0.128962  0.923033  0.715226  1
  O  O14  1  0.090660  0.796935  0.185397  1
  O  O15  1  0.173401  0.249078  0.064879  1
  O  O16  1  0.435943  0.125808  0.837583  1
  O  O17  1  0.387303  0.582406  0.779793  1
  O  O18  1  0.365711  0.221320  0.458692  1
  O  O19  1  0.379446  0.668035  0.273589  1
  O  O20  1  0.620554  0.331965  0.726411  1
  O  O21  1  0.634289  0.778680  0.541308  1
  O  O22  1  0.612697  0.417594  0.220207  1
  O  O23  1  0.564057  0.874192  0.162417  1
  O  O24  1  0.826599  0.750922  0.935121  1
  O  O25  1  0.909340  0.203065  0.814603  1
  O  O26  1  0.871038  0.076967  0.284774  1
  O  O27  1  0.902379  0.611564  0.303940  1
