# generated using pymatgen
data_Li3Cr(NiO2)4
_symmetry_space_group_name_H-M   'P 1'
_cell_length_a   5.87133968
_cell_length_b   5.87133930
_cell_length_c   5.87346898
_cell_angle_alpha   90.34472520
_cell_angle_beta   60.33176041
_cell_angle_gamma   60.07773056
_symmetry_Int_Tables_number   1
_chemical_formula_structural   Li3Cr(NiO2)4
_chemical_formula_sum   'Li3 Cr1 Ni4 O8'
_cell_volume   143.62300822
_cell_formula_units_Z   1
loop_
 _symmetry_equiv_pos_site_id
 _symmetry_equiv_pos_as_xyz
  1  'x, y, z'
loop_
 _atom_site_type_symbol
 _atom_site_label
 _atom_site_symmetry_multiplicity
 _atom_site_fract_x
 _atom_site_fract_y
 _atom_site_fract_z
 _atom_site_occupancy
  Li  Li0  1  0.000000  0.000000  0.500000  1
  Li  Li1  1  0.500000  0.000000  0.500000  1
  Li  Li2  1  0.500000  0.500000  0.500000  1
  Cr  Cr3  1  0.500000  0.500000  0.000000  1
  Ni  Ni4  1  0.000000  0.500000  0.500000  1
  Ni  Ni5  1  0.000000  0.000000  0.000000  1
  Ni  Ni6  1  0.500000  0.000000  0.000000  1
  Ni  Ni7  1  0.000000  0.500000  0.000000  1
  O  O8  1  0.490528  0.269049  0.778521  1
  O  O9  1  0.976189  0.261517  0.761455  1
  O  O10  1  0.500062  0.737644  0.761455  1
  O  O11  1  0.972878  0.750223  0.777345  1
  O  O12  1  0.027122  0.249777  0.222655  1
  O  O13  1  0.499938  0.262356  0.238545  1
  O  O14  1  0.023811  0.738483  0.238545  1
  O  O15  1  0.509472  0.730951  0.221479  1
