# generated using pymatgen
data_MoO2
_symmetry_space_group_name_H-M   'P 1'
_cell_length_a   4.82812995
_cell_length_b   5.72568165
_cell_length_c   6.34220797
_cell_angle_alpha   123.29217294
_cell_angle_beta   90.00000000
_cell_angle_gamma   90.00000000
_symmetry_Int_Tables_number   1
_chemical_formula_structural   MoO2
_chemical_formula_sum   'Mo4 O8'
_cell_volume   146.55201169
_cell_formula_units_Z   4
loop_
 _symmetry_equiv_pos_site_id
 _symmetry_equiv_pos_as_xyz
  1  'x, y, z'
loop_
 _atom_site_type_symbol
 _atom_site_label
 _atom_site_symmetry_multiplicity
 _atom_site_fract_x
 _atom_site_fract_y
 _atom_site_fract_z
 _atom_site_occupancy
  Mo  Mo0  1  0.999851  0.999566  0.249299  1
  Mo  Mo1  1  0.500149  0.499566  0.749299  1
  Mo  Mo2  1  0.000152  0.000436  0.750705  1
  Mo  Mo3  1  0.499848  0.500436  0.250705  1
  O  O4  1  0.305118  0.288690  0.392353  1
  O  O5  1  0.194882  0.788690  0.892353  1
  O  O6  1  0.805066  0.211360  0.107688  1
  O  O7  1  0.694934  0.711360  0.607688  1
  O  O8  1  0.804133  0.209355  0.605654  1
  O  O9  1  0.695867  0.709355  0.105654  1
  O  O10  1  0.304084  0.290593  0.894300  1
  O  O11  1  0.195916  0.790593  0.394300  1
