# generated using pymatgen
data_LiFe2(BO3)2
_symmetry_space_group_name_H-M   'P 1'
_cell_length_a   5.25419327
_cell_length_b   9.13929601
_cell_length_c   10.10471996
_cell_angle_alpha   91.11798927
_cell_angle_beta   89.97258742
_cell_angle_gamma   89.95390602
_symmetry_Int_Tables_number   1
_chemical_formula_structural   LiFe2(BO3)2
_chemical_formula_sum   'Li4 Fe8 B8 O24'
_cell_volume   485.13230299
_cell_formula_units_Z   4
loop_
 _symmetry_equiv_pos_site_id
 _symmetry_equiv_pos_as_xyz
  1  'x, y, z'
loop_
 _atom_site_type_symbol
 _atom_site_label
 _atom_site_symmetry_multiplicity
 _atom_site_fract_x
 _atom_site_fract_y
 _atom_site_fract_z
 _atom_site_occupancy
  Li  Li0  1  0.846944  0.827955  0.644982  1
  Li  Li1  1  0.664248  0.680615  0.910542  1
  Li  Li2  1  0.344927  0.318953  0.662003  1
  Li  Li3  1  0.311351  0.326284  0.165926  1
  Fe  Fe4  1  0.852124  0.160084  0.624478  1
  Fe  Fe5  1  0.818395  0.511679  0.140065  1
  Fe  Fe6  1  0.672249  0.013766  0.880823  1
  Fe  Fe7  1  0.677075  0.337228  0.380074  1
  Fe  Fe8  1  0.349228  0.658514  0.624024  1
  Fe  Fe9  1  0.313536  0.994466  0.128709  1
  Fe  Fe10  1  0.165888  0.835100  0.370975  1
  Fe  Fe11  1  0.165435  0.500018  0.880273  1
  B  B12  1  0.837228  0.497550  0.632116  1
  B  B13  1  0.828187  0.172203  0.126472  1
  B  B14  1  0.663458  0.000487  0.380532  1
  B  B15  1  0.671467  0.341194  0.872076  1
  B  B16  1  0.339441  0.996827  0.632475  1
  B  B17  1  0.329365  0.661668  0.123126  1
  B  B18  1  0.171948  0.506696  0.377233  1
  B  B19  1  0.171019  0.832739  0.876153  1
  O  O20  1  0.915139  0.494141  0.346955  1
  O  O21  1  0.911149  0.846826  0.861726  1
  O  O22  1  0.791296  0.210840  0.838368  1
  O  O23  1  0.752313  0.137844  0.421340  1
  O  O24  1  0.820085  0.882600  0.389751  1
  O  O25  1  0.809385  0.464068  0.913870  1
  O  O26  1  0.720068  0.629898  0.643625  1
  O  O27  1  0.685823  0.056881  0.072579  1
  O  O28  1  0.704159  0.373166  0.585031  1
  O  O29  1  0.688717  0.294895  0.175478  1
  O  O30  1  0.583803  0.670163  0.102629  1
  O  O31  1  0.594125  0.986880  0.678162  1
  O  O32  1  0.412604  0.987389  0.338159  1
  O  O33  1  0.413577  0.352984  0.858340  1
  O  O34  1  0.290088  0.697701  0.846209  1
  O  O35  1  0.266750  0.639378  0.422229  1
  O  O36  1  0.328630  0.388338  0.359246  1
  O  O37  1  0.324388  0.945872  0.918539  1
  O  O38  1  0.198547  0.530898  0.083838  1
  O  O39  1  0.221757  0.128780  0.629994  1
  O  O40  1  0.213665  0.868919  0.590355  1
  O  O41  1  0.188982  0.778452  0.175341  1
  O  O42  1  0.085490  0.168915  0.131566  1
  O  O43  1  0.092582  0.481728  0.672487  1
