# generated using pymatgen
data_CrFe(PO4)2
_symmetry_space_group_name_H-M   'P 1'
_cell_length_a   8.39419807
_cell_length_b   8.60572970
_cell_length_c   8.60572995
_cell_angle_alpha   59.99999982
_cell_angle_beta   59.16283682
_cell_angle_gamma   59.16283906
_symmetry_Int_Tables_number   1
_chemical_formula_structural   CrFe(PO4)2
_chemical_formula_sum   'Cr3 Fe3 P6 O24'
_cell_volume   433.93701957
_cell_formula_units_Z   3
loop_
 _symmetry_equiv_pos_site_id
 _symmetry_equiv_pos_as_xyz
  1  'x, y, z'
loop_
 _atom_site_type_symbol
 _atom_site_label
 _atom_site_symmetry_multiplicity
 _atom_site_fract_x
 _atom_site_fract_y
 _atom_site_fract_z
 _atom_site_occupancy
  Cr  Cr0  1  0.003327  0.998891  0.998891  1
  Cr  Cr1  1  0.573480  0.142174  0.142174  1
  Cr  Cr2  1  0.498287  0.500571  0.500571  1
  Fe  Fe3  1  0.059062  0.646980  0.646980  1
  Fe  Fe4  1  0.439294  0.853569  0.853569  1
  Fe  Fe5  1  0.941079  0.352974  0.352974  1
  P  P6  1  0.251509  0.250260  0.546021  1
  P  P7  1  0.251509  0.952210  0.250260  1
  P  P8  1  0.251509  0.546021  0.952210  1
  P  P9  1  0.748155  0.451665  0.049977  1
  P  P10  1  0.748155  0.049977  0.750203  1
  P  P11  1  0.748155  0.750203  0.451665  1
  O  O12  1  0.063716  0.105606  0.324686  1
  O  O13  1  0.063716  0.505992  0.105606  1
  O  O14  1  0.063716  0.324686  0.505992  1
  O  O15  1  0.216724  0.093928  0.749888  1
  O  O16  1  0.436919  0.179912  0.390259  1
  O  O17  1  0.283492  0.405409  0.563192  1
  O  O18  1  0.216724  0.939461  0.093928  1
  O  O19  1  0.283492  0.747906  0.405409  1
  O  O20  1  0.562978  0.605963  0.006316  1
  O  O21  1  0.283492  0.563192  0.747906  1
  O  O22  1  0.782347  0.247928  0.062734  1
  O  O23  1  0.562978  0.006316  0.824742  1
  O  O24  1  0.436919  0.992910  0.179912  1
  O  O25  1  0.216724  0.749888  0.939461  1
  O  O26  1  0.714535  0.437838  0.252685  1
  O  O27  1  0.436919  0.390259  0.992910  1
  O  O28  1  0.714535  0.252685  0.594943  1
  O  O29  1  0.782347  0.062734  0.906993  1
  O  O30  1  0.714535  0.594943  0.437838  1
  O  O31  1  0.562978  0.824742  0.605963  1
  O  O32  1  0.782347  0.906993  0.247928  1
  O  O33  1  0.934782  0.678183  0.492387  1
  O  O34  1  0.934782  0.492387  0.894647  1
  O  O35  1  0.934782  0.894647  0.678183  1
