# generated using pymatgen
data_Li2Cr(PO4)2
_symmetry_space_group_name_H-M   'P 1'
_cell_length_a   4.86715503
_cell_length_b   4.86687525
_cell_length_c   7.41708396
_cell_angle_alpha   90.00024022
_cell_angle_beta   90.00795277
_cell_angle_gamma   120.00319687
_symmetry_Int_Tables_number   1
_chemical_formula_structural   Li2Cr(PO4)2
_chemical_formula_sum   'Li2 Cr1 P2 O8'
_cell_volume   152.15114452
_cell_formula_units_Z   1
loop_
 _symmetry_equiv_pos_site_id
 _symmetry_equiv_pos_as_xyz
  1  'x, y, z'
loop_
 _atom_site_type_symbol
 _atom_site_label
 _atom_site_symmetry_multiplicity
 _atom_site_fract_x
 _atom_site_fract_y
 _atom_site_fract_z
 _atom_site_occupancy
  Li  Li0  1  0.333282  0.666695  0.681597  1
  Li  Li1  1  0.666658  0.333259  0.318411  1
  Cr  Cr2  1  0.999970  0.000019  -0.000034  1
  P  P3  1  0.333330  0.666662  0.222800  1
  P  P4  1  0.666614  0.333337  0.777153  1
  O  O5  1  0.041656  0.689399  0.155085  1
  O  O6  1  0.333323  0.666626  0.426113  1
  O  O7  1  0.310635  0.352238  0.155081  1
  O  O8  1  0.647788  0.958381  0.155112  1
  O  O9  1  0.352180  0.041630  0.844910  1
  O  O10  1  0.689317  0.647775  0.844891  1
  O  O11  1  0.666634  0.333294  0.573948  1
  O  O12  1  0.958314  0.310685  0.844933  1
