# generated using pymatgen
data_K2CePCO7
_symmetry_space_group_name_H-M   'P 1'
_cell_length_a   10.09522180
_cell_length_b   7.39265863
_cell_length_c   5.81201540
_cell_angle_alpha   90.00000000
_cell_angle_beta   92.45187279
_cell_angle_gamma   90.00000000
_symmetry_Int_Tables_number   1
_chemical_formula_structural   K2CePCO7
_chemical_formula_sum   'K4 Ce2 P2 C2 O14'
_cell_volume   433.35668368
_cell_formula_units_Z   2
loop_
 _symmetry_equiv_pos_site_id
 _symmetry_equiv_pos_as_xyz
  1  'x, y, z'
loop_
 _atom_site_type_symbol
 _atom_site_label
 _atom_site_symmetry_multiplicity
 _atom_site_fract_x
 _atom_site_fract_y
 _atom_site_fract_z
 _atom_site_occupancy
  K  K0  1  0.216382  0.009513  0.242819  1
  K  K1  1  0.216382  0.490487  0.242819  1
  K  K2  1  0.783617  0.509513  0.757181  1
  K  K3  1  0.783617  0.990487  0.757181  1
  Ce  Ce4  1  0.373740  0.750000  0.777409  1
  Ce  Ce5  1  0.626260  0.250000  0.222591  1
  P  P6  1  0.425714  0.250000  0.708395  1
  P  P7  1  0.574286  0.750000  0.291605  1
  C  C8  1  0.088282  0.750000  0.728525  1
  C  C9  1  0.911718  0.250000  0.271475  1
  O  O10  1  0.035935  0.250000  0.298800  1
  O  O11  1  0.150236  0.750000  0.932899  1
  O  O12  1  0.167941  0.750000  0.552329  1
  O  O13  1  0.353297  0.076230  0.784808  1
  O  O14  1  0.353297  0.423770  0.784808  1
  O  O15  1  0.428813  0.750000  0.183235  1
  O  O16  1  0.433407  0.250000  0.439314  1
  O  O17  1  0.566593  0.750000  0.560686  1
  O  O18  1  0.571187  0.250000  0.816765  1
  O  O19  1  0.646703  0.576230  0.215192  1
  O  O20  1  0.646703  0.923770  0.215192  1
  O  O21  1  0.832059  0.250000  0.447671  1
  O  O22  1  0.849764  0.250000  0.067101  1
  O  O23  1  0.964065  0.750000  0.701200  1
