# generated using pymatgen
data_BaZn3P4(H7O9)2
_symmetry_space_group_name_H-M   'P 1'
_cell_length_a   11.76363894
_cell_length_b   11.76363894
_cell_length_c   15.37475991
_cell_angle_alpha   75.15382101
_cell_angle_beta   104.84617899
_cell_angle_gamma   153.76305175
_symmetry_Int_Tables_number   1
_chemical_formula_structural   BaZn3P4(H7O9)2
_chemical_formula_sum   'Ba2 Zn6 P8 H28 O36'
_cell_volume   907.44675459
_cell_formula_units_Z   2
loop_
 _symmetry_equiv_pos_site_id
 _symmetry_equiv_pos_as_xyz
  1  'x, y, z'
loop_
 _atom_site_type_symbol
 _atom_site_label
 _atom_site_symmetry_multiplicity
 _atom_site_fract_x
 _atom_site_fract_y
 _atom_site_fract_z
 _atom_site_occupancy
  Ba  Ba0  1  0.490350  0.490350  0.250000  1
  Ba  Ba1  1  0.509650  0.509650  0.750000  1
  Zn  Zn2  1  0.500000  0.500000  0.000000  1
  Zn  Zn3  1  0.500000  0.500000  0.500000  1
  Zn  Zn4  1  0.248309  0.866075  0.042165  1
  Zn  Zn5  1  0.866075  0.248309  0.457835  1
  Zn  Zn6  1  0.751691  0.133925  0.957835  1
  Zn  Zn7  1  0.133925  0.751691  0.542165  1
  P  P8  1  0.067488  0.923655  0.101679  1
  P  P9  1  0.923655  0.067488  0.398321  1
  P  P10  1  0.932512  0.076345  0.898321  1
  P  P11  1  0.076345  0.932512  0.601679  1
  P  P12  1  0.202289  0.715185  0.872797  1
  P  P13  1  0.715185  0.202289  0.627203  1
  P  P14  1  0.797711  0.284815  0.127203  1
  P  P15  1  0.284815  0.797711  0.372797  1
  H  H16  1  0.099097  0.865050  0.184315  1
  H  H17  1  0.865050  0.099097  0.315685  1
  H  H18  1  0.900903  0.134950  0.815685  1
  H  H19  1  0.134950  0.900903  0.684315  1
  H  H20  1  0.241579  0.795365  0.780097  1
  H  H21  1  0.795365  0.241579  0.719903  1
  H  H22  1  0.758421  0.204635  0.219903  1
  H  H23  1  0.204635  0.758421  0.280097  1
  H  H24  1  0.257422  0.466041  0.026496  1
  H  H25  1  0.466041  0.257422  0.473504  1
  H  H26  1  0.742578  0.533959  0.973504  1
  H  H27  1  0.533959  0.742578  0.526496  1
  H  H28  1  0.062776  0.857753  0.342593  1
  H  H29  1  0.857753  0.062776  0.157407  1
  H  H30  1  0.937224  0.142247  0.657407  1
  H  H31  1  0.142247  0.937224  0.842593  1
  H  H32  1  0.020040  0.937863  0.368013  1
  H  H33  1  0.937863  0.020040  0.131987  1
  H  H34  1  0.979960  0.062137  0.631987  1
  H  H35  1  0.062137  0.979960  0.868013  1
  H  H36  1  0.654428  0.330171  0.313775  1
  H  H37  1  0.330171  0.654428  0.186225  1
  H  H38  1  0.345572  0.669829  0.686225  1
  H  H39  1  0.669829  0.345572  0.813775  1
  H  H40  1  0.560675  0.288206  0.211642  1
  H  H41  1  0.288206  0.560675  0.288358  1
  H  H42  1  0.439325  0.711794  0.788358  1
  H  H43  1  0.711794  0.439325  0.711642  1
  O  O44  1  0.410455  0.557039  0.057183  1
  O  O45  1  0.557039  0.410455  0.442817  1
  O  O46  1  0.589545  0.442961  0.942817  1
  O  O47  1  0.442961  0.589545  0.557183  1
  O  O48  1  0.801177  0.742587  0.098192  1
  O  O49  1  0.742587  0.801177  0.401808  1
  O  O50  1  0.198823  0.257413  0.901808  1
  O  O51  1  0.257413  0.198823  0.598192  1
  O  O52  1  0.283181  0.206065  0.104372  1
  O  O53  1  0.206065  0.283181  0.395628  1
  O  O54  1  0.716819  0.793935  0.895628  1
  O  O55  1  0.793935  0.716819  0.604372  1
  O  O56  1  0.042383  0.924496  0.316466  1
  O  O57  1  0.924496  0.042383  0.183534  1
  O  O58  1  0.957617  0.075504  0.683534  1
  O  O59  1  0.075504  0.957617  0.816466  1
  O  O60  1  0.637951  0.384256  0.262409  1
  O  O61  1  0.384256  0.637951  0.237591  1
  O  O62  1  0.362049  0.615744  0.737591  1
  O  O63  1  0.615744  0.362049  0.762409  1
  O  O64  1  0.085375  0.876601  0.025333  1
  O  O65  1  0.876601  0.085375  0.474667  1
  O  O66  1  0.914625  0.123399  0.974667  1
  O  O67  1  0.123399  0.914625  0.525333  1
  O  O68  1  0.242789  0.856911  0.914571  1
  O  O69  1  0.856911  0.242789  0.585429  1
  O  O70  1  0.757211  0.143089  0.085429  1
  O  O71  1  0.143089  0.757211  0.414571  1
  O  O72  1  0.076589  0.579976  0.122118  1
  O  O73  1  0.579976  0.076589  0.377882  1
  O  O74  1  0.923411  0.420024  0.877882  1
  O  O75  1  0.420024  0.923411  0.622118  1
  O  O76  1  0.596877  0.204486  0.090258  1
  O  O77  1  0.204486  0.596877  0.409742  1
  O  O78  1  0.403123  0.795514  0.909742  1
  O  O79  1  0.795514  0.403123  0.590258  1
