# generated using pymatgen
data_Bi7(O2F3)3
_symmetry_space_group_name_H-M   'P 1'
_cell_length_a   5.83657009
_cell_length_b   21.02876242
_cell_length_c   5.85302996
_cell_angle_alpha   82.00033869
_cell_angle_beta   90.00000000
_cell_angle_gamma   90.00000000
_symmetry_Int_Tables_number   1
_chemical_formula_structural   Bi7(O2F3)3
_chemical_formula_sum   'Bi14 O12 F18'
_cell_volume   711.38598195
_cell_formula_units_Z   2
loop_
 _symmetry_equiv_pos_site_id
 _symmetry_equiv_pos_as_xyz
  1  'x, y, z'
loop_
 _atom_site_type_symbol
 _atom_site_label
 _atom_site_symmetry_multiplicity
 _atom_site_fract_x
 _atom_site_fract_y
 _atom_site_fract_z
 _atom_site_occupancy
  Bi  Bi0  1  0.293446  0.653900  0.386488  1
  Bi  Bi1  1  0.293446  0.346100  0.540389  1
  Bi  Bi2  1  0.252459  0.058010  0.716718  1
  Bi  Bi3  1  0.252459  0.941990  0.274729  1
  Bi  Bi4  1  0.258426  0.500000  0.057829  1
  Bi  Bi5  1  0.307153  0.203582  0.185398  1
  Bi  Bi6  1  0.307153  0.796418  0.888980  1
  Bi  Bi7  1  0.692847  0.796418  0.388980  1
  Bi  Bi8  1  0.692847  0.203582  0.685398  1
  Bi  Bi9  1  0.741574  0.500000  0.557829  1
  Bi  Bi10  1  0.747541  0.058010  0.216718  1
  Bi  Bi11  1  0.747541  0.941990  0.774729  1
  Bi  Bi12  1  0.706554  0.346100  0.040389  1
  Bi  Bi13  1  0.706554  0.653900  0.886488  1
  O  O14  1  0.000000  0.000000  0.016975  1
  O  O15  1  0.000000  0.000000  0.516975  1
  O  O16  1  0.477771  0.292315  0.839830  1
  O  O17  1  0.477771  0.707685  0.632146  1
  O  O18  1  0.492645  0.147075  0.957477  1
  O  O19  1  0.492645  0.852925  0.604552  1
  O  O20  1  0.500000  0.000000  0.494675  1
  O  O21  1  0.500000  0.000000  0.994675  1
  O  O22  1  0.507355  0.852925  0.104552  1
  O  O23  1  0.507355  0.147075  0.457477  1
  O  O24  1  0.522229  0.292315  0.339830  1
  O  O25  1  0.522229  0.707685  0.132145  1
  F  F26  1  0.048277  0.128716  0.339093  1
  F  F27  1  0.048277  0.871284  0.967809  1
  F  F28  1  0.081985  0.262536  0.511648  1
  F  F29  1  0.081985  0.737464  0.274184  1
  F  F30  1  0.107938  0.500000  0.413492  1
  F  F31  1  0.126516  0.606658  0.049886  1
  F  F32  1  0.126516  0.393342  0.156544  1
  F  F33  1  0.460955  0.435597  0.800546  1
  F  F34  1  0.460955  0.564403  0.736143  1
  F  F35  1  0.539045  0.435597  0.300546  1
  F  F36  1  0.539045  0.564403  0.236143  1
  F  F37  1  0.873484  0.393342  0.656544  1
  F  F38  1  0.873484  0.606658  0.549886  1
  F  F39  1  0.892062  0.500000  0.913492  1
  F  F40  1  0.918015  0.262536  0.011648  1
  F  F41  1  0.918015  0.737464  0.774184  1
  F  F42  1  0.951723  0.128716  0.839093  1
  F  F43  1  0.951723  0.871284  0.467809  1
