# generated using pymatgen
data_Hf2N2O
_symmetry_space_group_name_H-M   'P 1'
_cell_length_a   6.42228471
_cell_length_b   14.39928109
_cell_length_c   6.42228471
_cell_angle_alpha   77.11428214
_cell_angle_beta   90.00000000
_cell_angle_gamma   102.88571786
_symmetry_Int_Tables_number   1
_chemical_formula_structural   Hf2N2O
_chemical_formula_sum   'Hf16 N16 O8'
_cell_volume   563.59920477
_cell_formula_units_Z   8
loop_
 _symmetry_equiv_pos_site_id
 _symmetry_equiv_pos_as_xyz
  1  'x, y, z'
loop_
 _atom_site_type_symbol
 _atom_site_label
 _atom_site_symmetry_multiplicity
 _atom_site_fract_x
 _atom_site_fract_y
 _atom_site_fract_z
 _atom_site_occupancy
  Hf  Hf0  1  0.000000  0.000000  0.000000  1
  Hf  Hf1  1  0.500000  0.000000  0.000000  1
  Hf  Hf2  1  0.000000  0.500000  0.000000  1
  Hf  Hf3  1  0.332561  0.165121  0.168408  1
  Hf  Hf4  1  0.666470  0.334879  0.332561  1
  Hf  Hf5  1  0.543323  0.586645  0.206677  1
  Hf  Hf6  1  0.168408  0.334879  0.332561  1
  Hf  Hf7  1  0.793323  0.086645  0.456677  1
  Hf  Hf8  1  0.332561  0.165121  0.666470  1
  Hf  Hf9  1  0.000000  0.500000  0.500000  1
  Hf  Hf10  1  0.667439  0.834879  0.333530  1
  Hf  Hf11  1  0.206677  0.913355  0.543323  1
  Hf  Hf12  1  0.456677  0.413355  0.793323  1
  Hf  Hf13  1  0.333530  0.665121  0.667439  1
  Hf  Hf14  1  0.831592  0.665121  0.667439  1
  Hf  Hf15  1  0.667439  0.834879  0.831592  1
  N  N16  1  0.251036  0.002073  0.235469  1
  N  N17  1  0.412781  0.325562  0.103041  1
  N  N18  1  0.103041  0.174438  0.412781  1
  N  N19  1  0.571397  0.174438  0.412781  1
  N  N20  1  0.235469  0.497927  0.251036  1
  N  N21  1  0.762458  0.497927  0.251036  1
  N  N22  1  0.412781  0.325562  0.571397  1
  N  N23  1  0.748964  0.997927  0.237542  1
  N  N24  1  0.251036  0.002073  0.762458  1
  N  N25  1  0.587219  0.674438  0.428603  1
  N  N26  1  0.237542  0.502073  0.748964  1
  N  N27  1  0.428603  0.825562  0.587219  1
  N  N28  1  0.896959  0.825562  0.587219  1
  N  N29  1  0.764531  0.502073  0.748964  1
  N  N30  1  0.587219  0.674438  0.896959  1
  N  N31  1  0.748964  0.997927  0.764531  1
  O  O32  1  0.924480  0.348961  0.117767  1
  O  O33  1  0.466729  0.848961  0.075520  1
  O  O34  1  0.882233  0.848961  0.075520  1
  O  O35  1  0.924480  0.348961  0.533271  1
  O  O36  1  0.075520  0.651039  0.466729  1
  O  O37  1  0.117767  0.151039  0.924480  1
  O  O38  1  0.533271  0.151039  0.924480  1
  O  O39  1  0.075520  0.651039  0.882233  1
