# generated using pymatgen
data_Sb(PO3)4
_symmetry_space_group_name_H-M   'P 1'
_cell_length_a   7.48643514
_cell_length_b   7.48387329
_cell_length_c   10.14510812
_cell_angle_alpha   82.25091092
_cell_angle_beta   69.65759811
_cell_angle_gamma   110.23451585
_symmetry_Int_Tables_number   1
_chemical_formula_structural   Sb(PO3)4
_chemical_formula_sum   'Sb2 P8 O24'
_cell_volume   478.58531560
_cell_formula_units_Z   2
loop_
 _symmetry_equiv_pos_site_id
 _symmetry_equiv_pos_as_xyz
  1  'x, y, z'
loop_
 _atom_site_type_symbol
 _atom_site_label
 _atom_site_symmetry_multiplicity
 _atom_site_fract_x
 _atom_site_fract_y
 _atom_site_fract_z
 _atom_site_occupancy
  Sb  Sb0  1  0.000000  0.500000  0.000000  1
  Sb  Sb1  1  0.000000  0.000000  0.500000  1
  P  P2  1  0.998055  0.323472  0.689728  1
  P  P3  1  0.272340  0.728246  0.472482  1
  P  P4  1  0.700759  0.745028  0.027572  1
  P  P5  1  0.487174  0.312285  0.189509  1
  P  P6  1  0.512826  0.687715  0.810491  1
  P  P7  1  0.299241  0.254972  0.972428  1
  P  P8  1  0.727660  0.271754  0.527518  1
  P  P9  1  0.001945  0.676528  0.310272  1
  O  O10  1  0.044206  0.662288  0.155885  1
  O  O11  1  0.133422  0.318088  0.069204  1
  O  O12  1  0.192028  0.670496  0.344307  1
  O  O13  1  0.113142  0.797267  0.569223  1
  O  O14  1  0.206534  0.505355  0.570898  1
  O  O15  1  0.027876  0.135685  0.668361  1
  O  O16  1  0.499982  0.841842  0.409343  1
  O  O17  1  0.318706  0.200375  0.343706  1
  O  O18  1  0.423982  0.222646  0.070768  1
  O  O19  1  0.303385  0.696082  0.832086  1
  O  O20  1  0.514771  0.536309  0.155548  1
  O  O21  1  0.751143  0.909108  0.090536  1
  O  O22  1  0.248857  0.090892  0.909464  1
  O  O23  1  0.485229  0.463691  0.844452  1
  O  O24  1  0.696615  0.303918  0.167914  1
  O  O25  1  0.576018  0.777354  0.929232  1
  O  O26  1  0.681294  0.799625  0.656294  1
  O  O27  1  0.500018  0.158158  0.590657  1
  O  O28  1  0.972124  0.864315  0.331639  1
  O  O29  1  0.793466  0.494645  0.429102  1
  O  O30  1  0.886858  0.202733  0.430777  1
  O  O31  1  0.807972  0.329504  0.655693  1
  O  O32  1  0.866578  0.681912  0.930796  1
  O  O33  1  0.955794  0.337711  0.844115  1
