# generated using pymatgen
data_MnH8C2S2(NO2)2
_symmetry_space_group_name_H-M   'P 1'
_cell_length_a   8.06828519
_cell_length_b   9.20956682
_cell_length_c   7.65600599
_cell_angle_alpha   90.00000000
_cell_angle_beta   114.10966264
_cell_angle_gamma   90.00000000
_symmetry_Int_Tables_number   1
_chemical_formula_structural   MnH8C2S2(NO2)2
_chemical_formula_sum   'Mn2 H16 C4 S4 N4 O8'
_cell_volume   519.25636784
_cell_formula_units_Z   2
loop_
 _symmetry_equiv_pos_site_id
 _symmetry_equiv_pos_as_xyz
  1  'x, y, z'
loop_
 _atom_site_type_symbol
 _atom_site_label
 _atom_site_symmetry_multiplicity
 _atom_site_fract_x
 _atom_site_fract_y
 _atom_site_fract_z
 _atom_site_occupancy
  Mn  Mn0  1  0.500000  0.500000  0.500000  1
  Mn  Mn1  1  0.500000  0.000000  0.000000  1
  H  H2  1  0.171262  0.121494  0.955408  1
  H  H3  1  0.171262  0.378506  0.455408  1
  H  H4  1  0.250795  0.442984  0.661163  1
  H  H5  1  0.298271  0.038903  0.606561  1
  H  H6  1  0.373263  0.196499  0.673464  1
  H  H7  1  0.250795  0.057016  0.161163  1
  H  H8  1  0.298271  0.461097  0.106561  1
  H  H9  1  0.373263  0.303501  0.173464  1
  H  H10  1  0.626737  0.696499  0.826536  1
  H  H11  1  0.701729  0.538903  0.893439  1
  H  H12  1  0.749205  0.942984  0.838837  1
  H  H13  1  0.626737  0.803501  0.326536  1
  H  H14  1  0.701729  0.961097  0.393439  1
  H  H15  1  0.749205  0.557016  0.338837  1
  H  H16  1  0.828738  0.621494  0.544592  1
  H  H17  1  0.828738  0.878506  0.044592  1
  C  C18  1  0.224464  0.715113  0.860741  1
  C  C19  1  0.224464  0.784887  0.360741  1
  C  C20  1  0.775536  0.215113  0.639259  1
  C  C21  1  0.775536  0.284887  0.139259  1
  S  S22  1  0.095848  0.570881  0.817759  1
  S  S23  1  0.095848  0.929119  0.317759  1
  S  S24  1  0.904152  0.070881  0.682241  1
  S  S25  1  0.904152  0.429119  0.182241  1
  N  N26  1  0.318878  0.818616  0.894547  1
  N  N27  1  0.318878  0.681384  0.394547  1
  N  N28  1  0.681122  0.318616  0.605453  1
  N  N29  1  0.681122  0.181384  0.105453  1
  O  O30  1  0.284765  0.382615  0.573543  1
  O  O31  1  0.393838  0.093080  0.709628  1
  O  O32  1  0.284765  0.117385  0.073543  1
  O  O33  1  0.393838  0.406920  0.209628  1
  O  O34  1  0.606162  0.593080  0.790372  1
  O  O35  1  0.715235  0.882615  0.926457  1
  O  O36  1  0.606162  0.906920  0.290372  1
  O  O37  1  0.715235  0.617385  0.426457  1
