# generated using pymatgen
data_CoP3H16N4O11
_symmetry_space_group_name_H-M   'P 1'
_cell_length_a   7.39224678
_cell_length_b   14.28005594
_cell_length_c   12.55508833
_cell_angle_alpha   90.00000000
_cell_angle_beta   93.87446990
_cell_angle_gamma   90.00000000
_symmetry_Int_Tables_number   1
_chemical_formula_structural   CoP3H16N4O11
_chemical_formula_sum   'Co4 P12 H64 N16 O44'
_cell_volume   1322.30736161
_cell_formula_units_Z   4
loop_
 _symmetry_equiv_pos_site_id
 _symmetry_equiv_pos_as_xyz
  1  'x, y, z'
loop_
 _atom_site_type_symbol
 _atom_site_label
 _atom_site_symmetry_multiplicity
 _atom_site_fract_x
 _atom_site_fract_y
 _atom_site_fract_z
 _atom_site_occupancy
  Co  Co0  1  0.245192  0.103773  0.712166  1
  Co  Co1  1  0.745192  0.396227  0.212166  1
  Co  Co2  1  0.754808  0.896227  0.287834  1
  Co  Co3  1  0.254808  0.603773  0.787834  1
  P  P4  1  0.110191  0.175364  0.460147  1
  P  P5  1  0.610191  0.324636  0.960147  1
  P  P6  1  0.889809  0.824636  0.539853  1
  P  P7  1  0.389809  0.675364  0.039853  1
  P  P8  1  0.341420  0.341360  0.525808  1
  P  P9  1  0.841420  0.158640  0.025808  1
  P  P10  1  0.658580  0.658640  0.474192  1
  P  P11  1  0.158580  0.841360  0.974192  1
  P  P12  1  0.607170  0.209157  0.628108  1
  P  P13  1  0.107170  0.290843  0.128108  1
  P  P14  1  0.392830  0.790843  0.371892  1
  P  P15  1  0.892830  0.709157  0.871892  1
  H  H16  1  0.389426  0.137540  0.903915  1
  H  H17  1  0.889426  0.362460  0.403915  1
  H  H18  1  0.610574  0.862460  0.096085  1
  H  H19  1  0.110574  0.637540  0.596085  1
  H  H20  1  0.395734  0.023006  0.885490  1
  H  H21  1  0.895734  0.476994  0.385490  1
  H  H22  1  0.604266  0.976994  0.114510  1
  H  H23  1  0.104266  0.523006  0.614510  1
  H  H24  1  0.203968  0.073554  0.916618  1
  H  H25  1  0.703968  0.426446  0.416618  1
  H  H26  1  0.796032  0.926446  0.083382  1
  H  H27  1  0.296032  0.573554  0.583382  1
  H  H28  1  0.120206  0.228285  0.831860  1
  H  H29  1  0.620206  0.271715  0.331860  1
  H  H30  1  0.879794  0.771715  0.168140  1
  H  H31  1  0.379794  0.728285  0.668140  1
  H  H32  1  0.000932  0.233814  0.715825  1
  H  H33  1  0.500932  0.266186  0.215825  1
  H  H34  1  0.999068  0.766186  0.284175  1
  H  H35  1  0.499068  0.733814  0.784175  1
  H  H36  1  0.212846  0.275946  0.727069  1
  H  H37  1  0.712846  0.224054  0.227069  1
  H  H38  1  0.787154  0.724054  0.272931  1
  H  H39  1  0.287154  0.775946  0.772931  1
  H  H40  1  0.936020  0.024763  0.660612  1
  H  H41  1  0.436020  0.475237  0.160612  1
  H  H42  1  0.063980  0.975237  0.339388  1
  H  H43  1  0.563980  0.524763  0.839388  1
  H  H44  1  0.935543  0.061436  0.786648  1
  H  H45  1  0.435543  0.438564  0.286648  1
  H  H46  1  0.064457  0.938564  0.213352  1
  H  H47  1  0.564457  0.561436  0.713352  1
  H  H48  1  0.044421  0.964537  0.760712  1
  H  H49  1  0.544421  0.535463  0.260712  1
  H  H50  1  0.955579  0.035463  0.239288  1
  H  H51  1  0.455579  0.464537  0.739288  1
  H  H52  1  0.281356  0.933119  0.661480  1
  H  H53  1  0.781356  0.566881  0.161480  1
  H  H54  1  0.718644  0.066881  0.338520  1
  H  H55  1  0.218644  0.433119  0.838520  1
  H  H56  1  0.471298  0.970715  0.730566  1
  H  H57  1  0.971298  0.529285  0.230566  1
  H  H58  1  0.528702  0.029285  0.269434  1
  H  H59  1  0.028702  0.470715  0.769434  1
  H  H60  1  0.426747  0.000271  0.602370  1
  H  H61  1  0.926747  0.499729  0.102370  1
  H  H62  1  0.573253  0.999729  0.397630  1
  H  H63  1  0.073253  0.500271  0.897630  1
  H  H64  1  0.276995  0.000882  0.108927  1
  H  H65  1  0.776995  0.499118  0.608927  1
  H  H66  1  0.723005  0.999118  0.891073  1
  H  H67  1  0.223005  0.500882  0.391073  1
  H  H68  1  0.316625  0.107298  0.140939  1
  H  H69  1  0.816625  0.392702  0.640939  1
  H  H70  1  0.683375  0.892702  0.859061  1
  H  H71  1  0.183375  0.607298  0.359061  1
  H  H72  1  0.217907  0.182897  0.295008  1
  H  H73  1  0.717907  0.317103  0.795008  1
  H  H74  1  0.782093  0.817103  0.704992  1
  H  H75  1  0.282093  0.682897  0.204992  1
  H  H76  1  0.784538  0.142429  0.514951  1
  H  H77  1  0.284538  0.357571  0.014951  1
  H  H78  1  0.215462  0.857571  0.485049  1
  H  H79  1  0.715462  0.642429  0.985049  1
  N  N80  1  0.316011  0.081678  0.873857  1
  N  N81  1  0.816011  0.418322  0.373857  1
  N  N82  1  0.683989  0.918322  0.126143  1
  N  N83  1  0.183989  0.581678  0.626143  1
  N  N84  1  0.129594  0.222741  0.751106  1
  N  N85  1  0.629594  0.277259  0.251106  1
  N  N86  1  0.870406  0.777259  0.248894  1
  N  N87  1  0.370406  0.722741  0.748894  1
  N  N88  1  0.012144  0.030218  0.731238  1
  N  N89  1  0.512144  0.469782  0.231238  1
  N  N90  1  0.987856  0.969782  0.268762  1
  N  N91  1  0.487856  0.530218  0.768762  1
  N  N92  1  0.369742  0.988133  0.673065  1
  N  N93  1  0.869742  0.511867  0.173065  1
  N  N94  1  0.630258  0.011867  0.326935  1
  N  N95  1  0.130258  0.488133  0.826935  1
  O  O96  1  0.176829  0.114885  0.553971  1
  O  O97  1  0.676829  0.385115  0.053971  1
  O  O98  1  0.823171  0.885115  0.446029  1
  O  O99  1  0.323171  0.614885  0.946029  1
  O  O100  1  0.227993  0.147151  0.365173  1
  O  O101  1  0.727993  0.352849  0.865173  1
  O  O102  1  0.772007  0.852849  0.634827  1
  O  O103  1  0.272007  0.647151  0.134827  1
  O  O104  1  0.908187  0.171377  0.430147  1
  O  O105  1  0.408187  0.328623  0.930147  1
  O  O106  1  0.091813  0.828623  0.569853  1
  O  O107  1  0.591813  0.671377  0.069853  1
  O  O108  1  0.156390  0.284290  0.486810  1
  O  O109  1  0.656390  0.215710  0.986810  1
  O  O110  1  0.843610  0.715710  0.513190  1
  O  O111  1  0.343610  0.784290  0.013190  1
  O  O112  1  0.380980  0.407003  0.436670  1
  O  O113  1  0.880980  0.092997  0.936670  1
  O  O114  1  0.619020  0.592997  0.563330  1
  O  O115  1  0.119020  0.907003  0.063330  1
  O  O116  1  0.320945  0.375537  0.636904  1
  O  O117  1  0.820945  0.124463  0.136904  1
  O  O118  1  0.679055  0.624463  0.363096  1
  O  O119  1  0.179055  0.875537  0.863096  1
  O  O120  1  0.498367  0.260285  0.527036  1
  O  O121  1  0.998367  0.239715  0.027036  1
  O  O122  1  0.501633  0.739715  0.472964  1
  O  O123  1  0.001633  0.760285  0.972964  1
  O  O124  1  0.693470  0.123296  0.571179  1
  O  O125  1  0.193470  0.376704  0.071179  1
  O  O126  1  0.306530  0.876704  0.428821  1
  O  O127  1  0.806530  0.623296  0.928821  1
  O  O128  1  0.750754  0.275240  0.677484  1
  O  O129  1  0.250754  0.224760  0.177484  1
  O  O130  1  0.249246  0.724760  0.322516  1
  O  O131  1  0.749246  0.775240  0.822516  1
  O  O132  1  0.477123  0.173938  0.707003  1
  O  O133  1  0.977123  0.326062  0.207003  1
  O  O134  1  0.522877  0.826062  0.292997  1
  O  O135  1  0.022877  0.673938  0.792997  1
  O  O136  1  0.372565  0.044778  0.136338  1
  O  O137  1  0.872565  0.455222  0.636338  1
  O  O138  1  0.627435  0.955222  0.863662  1
  O  O139  1  0.127435  0.544778  0.363662  1
