# generated using pymatgen
data_Rb5FeO4
_symmetry_space_group_name_H-M   'P 1'
_cell_length_a   7.62264770
_cell_length_b   10.97063219
_cell_length_c   11.65331040
_cell_angle_alpha   90.00000000
_cell_angle_beta   92.33768150
_cell_angle_gamma   90.00000000
_symmetry_Int_Tables_number   1
_chemical_formula_structural   Rb5FeO4
_chemical_formula_sum   'Rb20 Fe4 O16'
_cell_volume   973.70015939
_cell_formula_units_Z   4
loop_
 _symmetry_equiv_pos_site_id
 _symmetry_equiv_pos_as_xyz
  1  'x, y, z'
loop_
 _atom_site_type_symbol
 _atom_site_label
 _atom_site_symmetry_multiplicity
 _atom_site_fract_x
 _atom_site_fract_y
 _atom_site_fract_z
 _atom_site_occupancy
  Rb  Rb0  1  0.101468  0.336269  0.737742  1
  Rb  Rb1  1  0.213150  0.353173  0.113970  1
  Rb  Rb2  1  0.302685  0.601157  0.555400  1
  Rb  Rb3  1  0.199644  0.092031  0.554227  1
  Rb  Rb4  1  0.239829  0.338190  0.393400  1
  Rb  Rb5  1  0.300356  0.592031  0.945773  1
  Rb  Rb6  1  0.197315  0.101157  0.944600  1
  Rb  Rb7  1  0.260171  0.838190  0.106600  1
  Rb  Rb8  1  0.286850  0.853173  0.386030  1
  Rb  Rb9  1  0.398532  0.836269  0.762258  1
  Rb  Rb10  1  0.601468  0.163731  0.237742  1
  Rb  Rb11  1  0.713150  0.146827  0.613970  1
  Rb  Rb12  1  0.739829  0.161810  0.893400  1
  Rb  Rb13  1  0.802685  0.898843  0.055400  1
  Rb  Rb14  1  0.699644  0.407969  0.054227  1
  Rb  Rb15  1  0.760171  0.661810  0.606600  1
  Rb  Rb16  1  0.800356  0.907969  0.445773  1
  Rb  Rb17  1  0.697315  0.398843  0.444600  1
  Rb  Rb18  1  0.786850  0.646827  0.886030  1
  Rb  Rb19  1  0.898532  0.663731  0.262258  1
  Fe  Fe20  1  0.021621  0.089106  0.260143  1
  Fe  Fe21  1  0.521621  0.410894  0.760143  1
  Fe  Fe22  1  0.478379  0.589106  0.239857  1
  Fe  Fe23  1  0.978379  0.910894  0.739857  1
  O  O24  1  0.015012  0.085709  0.747645  1
  O  O25  1  0.931001  0.157257  0.113006  1
  O  O26  1  0.104642  0.844079  0.607763  1
  O  O27  1  0.266426  0.110803  0.292999  1
  O  O28  1  0.395358  0.344079  0.892237  1
  O  O29  1  0.233574  0.610803  0.207001  1
  O  O30  1  0.484988  0.585709  0.752355  1
  O  O31  1  0.568999  0.657257  0.386994  1
  O  O32  1  0.431001  0.342743  0.613006  1
  O  O33  1  0.515012  0.414291  0.247645  1
  O  O34  1  0.766426  0.389197  0.792999  1
  O  O35  1  0.604642  0.655921  0.107763  1
  O  O36  1  0.733574  0.889197  0.707001  1
  O  O37  1  0.895358  0.155921  0.392237  1
  O  O38  1  0.068999  0.842743  0.886994  1
  O  O39  1  0.984988  0.914291  0.252355  1
