# generated using pymatgen
data_Li4Fe(TeO4)3
_symmetry_space_group_name_H-M   'P 1'
_cell_length_a   5.48990362
_cell_length_b   10.94882015
_cell_length_c   9.64212240
_cell_angle_alpha   28.43430851
_cell_angle_beta   51.41996203
_cell_angle_gamma   56.74676949
_symmetry_Int_Tables_number   1
_chemical_formula_structural   Li4Fe(TeO4)3
_chemical_formula_sum   'Li4 Fe1 Te3 O12'
_cell_volume   215.72990543
_cell_formula_units_Z   1
loop_
 _symmetry_equiv_pos_site_id
 _symmetry_equiv_pos_as_xyz
  1  'x, y, z'
loop_
 _atom_site_type_symbol
 _atom_site_label
 _atom_site_symmetry_multiplicity
 _atom_site_fract_x
 _atom_site_fract_y
 _atom_site_fract_z
 _atom_site_occupancy
  Li  Li0  1  0.320603  0.003599  0.258997  1
  Li  Li1  1  0.247605  0.494915  0.311617  1
  Li  Li2  1  0.782452  0.993880  0.816137  1
  Li  Li3  1  0.776406  0.505428  0.741585  1
  Fe  Fe4  1  0.015245  0.998327  0.003353  1
  Te  Te5  1  0.995338  0.500640  0.003664  1
  Te  Te6  1  0.501993  -0.000026  0.501788  1
  Te  Te7  1  0.500150  0.500177  0.500773  1
  O  O8  1  0.384412  0.305384  0.117548  1
  O  O9  1  0.246710  0.125339  0.615043  1
  O  O10  1  0.140100  0.326376  0.721325  1
  O  O11  1  0.884882  0.186583  0.236426  1
  O  O12  1  0.381462  0.791799  0.137204  1
  O  O13  1  0.737963  0.361053  0.389583  1
  O  O14  1  0.232942  0.635715  0.612830  1
  O  O15  1  0.629254  0.195283  0.853877  1
  O  O16  1  0.115179  0.823652  0.741048  1
  O  O17  1  0.856332  0.694276  0.242161  1
  O  O18  1  0.714253  0.878854  0.380281  1
  O  O19  1  0.607919  0.678747  0.885960  1
