# generated using pymatgen
data_Cr2Bi28O47
_symmetry_space_group_name_H-M   'P 1'
_cell_length_a   8.86324877
_cell_length_b   8.87671658
_cell_length_c   21.14408897
_cell_angle_alpha   114.58685693
_cell_angle_beta   114.25227134
_cell_angle_gamma   90.31671252
_symmetry_Int_Tables_number   1
_chemical_formula_structural   Cr2Bi28O47
_chemical_formula_sum   'Cr2 Bi28 O47'
_cell_volume   1347.61874398
_cell_formula_units_Z   1
loop_
 _symmetry_equiv_pos_site_id
 _symmetry_equiv_pos_as_xyz
  1  'x, y, z'
loop_
 _atom_site_type_symbol
 _atom_site_label
 _atom_site_symmetry_multiplicity
 _atom_site_fract_x
 _atom_site_fract_y
 _atom_site_fract_z
 _atom_site_occupancy
  Cr  Cr0  1  0.976548  0.025770  0.978519  1
  Cr  Cr1  1  0.940089  0.027651  0.478566  1
  Bi  Bi2  1  0.129563  0.726275  0.833332  1
  Bi  Bi3  1  0.055917  0.870864  0.667258  1
  Bi  Bi4  1  0.341925  0.349378  0.839997  1
  Bi  Bi5  1  0.272974  0.468338  0.666146  1
  Bi  Bi6  1  0.216197  0.551944  0.499547  1
  Bi  Bi7  1  0.527154  0.941872  0.828897  1
  Bi  Bi8  1  0.124070  0.719939  0.330529  1
  Bi  Bi9  1  0.057184  0.871610  0.167123  1
  Bi  Bi10  1  0.464911  0.058903  0.667692  1
  Bi  Bi11  1  0.441568  0.213523  0.498212  1
  Bi  Bi12  1  0.717350  0.536144  0.828616  1
  Bi  Bi13  1  0.339705  0.344703  0.339268  1
  Bi  Bi14  1  0.657543  0.659806  0.660158  1
  Bi  Bi15  1  0.273844  0.466082  0.166228  1
  Bi  Bi16  1  0.560948  0.791033  0.500555  1
  Bi  Bi17  1  0.215831  0.554547  0.000418  1
  Bi  Bi18  1  0.527413  0.939077  0.330233  1
  Bi  Bi19  1  0.938422  0.137317  0.829770  1
  Bi  Bi20  1  0.865187  0.276560  0.664263  1
  Bi  Bi21  1  0.465575  0.059053  0.167117  1
  Bi  Bi22  1  0.784259  0.443629  0.498420  1
  Bi  Bi23  1  0.442454  0.214400  0.998867  1
  Bi  Bi24  1  0.720562  0.534204  0.329029  1
  Bi  Bi25  1  0.662125  0.662809  0.159943  1
  Bi  Bi26  1  0.558541  0.790547  0.001212  1
  Bi  Bi27  1  0.938719  0.130690  0.330245  1
  Bi  Bi28  1  0.869066  0.275288  0.164930  1
  Bi  Bi29  1  0.785926  0.444464  0.998130  1
  O  O30  1  0.175074  0.998745  0.010787  1
  O  O31  1  0.999943  0.168279  0.746335  1
  O  O32  1  0.237717  0.299143  0.919819  1
  O  O33  1  0.298023  0.603856  0.920579  1
  O  O34  1  0.175136  0.506294  0.754135  1
  O  O35  1  0.116277  0.619471  0.616211  1
  O  O36  1  0.378910  0.889571  0.884400  1
  O  O37  1  0.328827  0.001779  0.747604  1
  O  O38  1  0.543224  0.239930  0.919362  1
  O  O39  1  0.001864  0.169168  0.248393  1
  O  O40  1  0.597342  0.546184  0.918847  1
  O  O41  1  0.496537  0.668376  0.745540  1
  O  O42  1  0.498476  0.331447  0.751380  1
  O  O43  1  0.240616  0.299022  0.419864  1
  O  O44  1  0.400849  0.461872  0.580282  1
  O  O45  1  0.296873  0.601119  0.419796  1
  O  O46  1  0.171556  0.496758  0.250722  1
  O  O47  1  0.456087  0.764971  0.580935  1
  O  O48  1  0.118254  0.620212  0.116696  1
  O  O49  1  0.663041  0.003149  0.748005  1
  O  O50  1  0.378623  0.889661  0.385412  1
  O  O51  1  0.616628  0.116020  0.616475  1
  O  O52  1  0.329473  0.003571  0.250607  1
  O  O53  1  0.874664  0.898796  0.881684  1
  O  O54  1  0.881392  0.390726  0.880558  1
  O  O55  1  0.542089  0.237402  0.419787  1
  O  O56  1  0.820161  0.497434  0.743754  1
  O  O57  1  0.696536  0.399008  0.578137  1
  O  O58  1  0.601907  0.542297  0.420284  1
  O  O59  1  0.763130  0.702816  0.579374  1
  O  O60  1  0.493123  0.665746  0.247253  1
  O  O61  1  0.497227  0.330848  0.249558  1
  O  O62  1  0.399127  0.459617  0.079189  1
  O  O63  1  0.002066  0.831625  0.748712  1
  O  O64  1  0.457494  0.761432  0.079861  1
  O  O65  1  0.802392  0.995301  0.512137  1
  O  O66  1  0.666339  0.999765  0.247489  1
  O  O67  1  0.617264  0.115275  0.114924  1
  O  O68  1  0.899701  0.868437  0.384924  1
  O  O69  1  0.882236  0.385718  0.382765  1
  O  O70  1  0.067029  0.213294  0.511028  1
  O  O71  1  0.827209  0.495042  0.245191  1
  O  O72  1  0.701111  0.399506  0.078458  1
  O  O73  1  0.761564  0.709014  0.081406  1
  O  O74  1  0.997755  0.828394  0.246954  1
  O  O75  1  0.875093  0.979745  0.021929  1
  O  O76  1  0.978269  0.226544  0.993040  1
