# generated using pymatgen
data_H18RuN5(ClO)2
_symmetry_space_group_name_H-M   'P 1'
_cell_length_a   9.99427553
_cell_length_b   10.16566360
_cell_length_c   10.62382062
_cell_angle_alpha   90.00000000
_cell_angle_beta   99.81590206
_cell_angle_gamma   90.00000000
_symmetry_Int_Tables_number   1
_chemical_formula_structural   H18RuN5(ClO)2
_chemical_formula_sum   'H72 Ru4 N20 Cl8 O8'
_cell_volume   1063.56241956
_cell_formula_units_Z   4
loop_
 _symmetry_equiv_pos_site_id
 _symmetry_equiv_pos_as_xyz
  1  'x, y, z'
loop_
 _atom_site_type_symbol
 _atom_site_label
 _atom_site_symmetry_multiplicity
 _atom_site_fract_x
 _atom_site_fract_y
 _atom_site_fract_z
 _atom_site_occupancy
  H  H0  1  0.974520  0.195326  0.882366  1
  H  H1  1  0.474520  0.304674  0.382366  1
  H  H2  1  0.025480  0.804674  0.117634  1
  H  H3  1  0.525480  0.695326  0.617634  1
  H  H4  1  0.828956  0.117216  0.872798  1
  H  H5  1  0.328956  0.382784  0.372798  1
  H  H6  1  0.171044  0.882784  0.127202  1
  H  H7  1  0.671044  0.617216  0.627202  1
  H  H8  1  0.060651  0.908836  0.644115  1
  H  H9  1  0.560651  0.591164  0.144115  1
  H  H10  1  0.939349  0.091164  0.355885  1
  H  H11  1  0.439349  0.408836  0.855885  1
  H  H12  1  0.903856  0.921280  0.656230  1
  H  H13  1  0.403856  0.578720  0.156230  1
  H  H14  1  0.096144  0.078720  0.343770  1
  H  H15  1  0.596144  0.421280  0.843770  1
  H  H16  1  0.991385  0.059444  0.652303  1
  H  H17  1  0.491385  0.440556  0.152303  1
  H  H18  1  0.008615  0.940556  0.347697  1
  H  H19  1  0.508615  0.559444  0.847697  1
  H  H20  1  0.296337  0.004390  0.976728  1
  H  H21  1  0.796337  0.495610  0.476728  1
  H  H22  1  0.703663  0.995610  0.023272  1
  H  H23  1  0.203663  0.504390  0.523272  1
  H  H24  1  0.257471  0.002131  0.820449  1
  H  H25  1  0.757471  0.497869  0.320449  1
  H  H26  1  0.742529  -0.002131  0.179551  1
  H  H27  1  0.242529  0.502131  0.679551  1
  H  H28  1  0.223098  0.131208  0.895710  1
  H  H29  1  0.723098  0.368792  0.395711  1
  H  H30  1  0.776902  0.868792  0.104289  1
  H  H31  1  0.276902  0.631208  0.604290  1
  H  H32  1  0.837413  0.765196  0.794955  1
  H  H33  1  0.337413  0.734804  0.294955  1
  H  H34  1  0.162587  0.234804  0.205045  1
  H  H35  1  0.662587  0.265196  0.705045  1
  H  H36  1  0.813250  0.770730  0.941248  1
  H  H37  1  0.313250  0.729270  0.441248  1
  H  H38  1  0.186750  0.229270  0.058752  1
  H  H39  1  0.686750  0.270730  0.558752  1
  H  H40  1  0.754208  0.888035  0.848748  1
  H  H41  1  0.254208  0.611965  0.348748  1
  H  H42  1  0.245792  0.111965  0.151252  1
  H  H43  1  0.745792  0.388035  0.651252  1
  H  H44  1  0.144029  0.697971  0.946704  1
  H  H45  1  0.644029  0.802029  0.446704  1
  H  H46  1  0.855971  0.302029  0.053296  1
  H  H47  1  0.355971  0.197971  0.553296  1
  H  H48  1  0.064859  0.694958  0.795665  1
  H  H49  1  0.564859  0.805042  0.295665  1
  H  H50  1  0.935141  0.305042  0.204335  1
  H  H51  1  0.435141  0.194958  0.704335  1
  H  H52  1  0.215628  0.762792  0.832145  1
  H  H53  1  0.715628  0.737208  0.332145  1
  H  H54  1  0.784372  0.237208  0.167855  1
  H  H55  1  0.284372  0.262792  0.667855  1
  H  H56  1  0.643482  0.968024  0.663414  1
  H  H57  1  0.143482  0.531976  0.163414  1
  H  H58  1  0.356518  0.031976  0.336586  1
  H  H59  1  0.856518  0.468024  0.836586  1
  H  H60  1  0.708749  0.997701  0.544363  1
  H  H61  1  0.208749  0.502299  0.044363  1
  H  H62  1  0.291251  0.002299  0.455637  1
  H  H63  1  0.791251  0.497701  0.955637  1
  H  H64  1  0.057298  0.379108  0.742978  1
  H  H65  1  0.557298  0.120892  0.242978  1
  H  H66  1  0.942702  0.620892  0.257022  1
  H  H67  1  0.442702  0.879108  0.757022  1
  H  H68  1  0.993593  0.248275  0.526002  1
  H  H69  1  0.493593  0.251725  0.026002  1
  H  H70  1  0.006407  0.751725  0.473998  1
  H  H71  1  0.506407  0.748275  0.973998  1
  Ru  Ru72  1  0.027219  0.937510  0.898439  1
  Ru  Ru73  1  0.527219  0.562490  0.398439  1
  Ru  Ru74  1  0.972781  0.062490  0.101561  1
  Ru  Ru75  1  0.472781  0.437510  0.601561  1
  N  N76  1  0.929984  0.111959  0.911281  1
  N  N77  1  0.429984  0.388041  0.411281  1
  N  N78  1  0.070016  0.888041  0.088719  1
  N  N79  1  0.570016  0.611959  0.588719  1
  N  N80  1  0.996751  0.960717  0.692861  1
  N  N81  1  0.496751  0.539283  0.192861  1
  N  N82  1  0.003249  0.039283  0.307139  1
  N  N83  1  0.503249  0.460717  0.807139  1
  N  N84  1  0.221828  0.031119  0.900827  1
  N  N85  1  0.721828  0.468881  0.400827  1
  N  N86  1  0.778172  0.968881  0.099173  1
  N  N87  1  0.278172  0.531119  0.599173  1
  N  N88  1  0.838892  0.828707  0.870423  1
  N  N89  1  0.338892  0.671293  0.370423  1
  N  N90  1  0.161108  0.171293  0.129577  1
  N  N91  1  0.661108  0.328707  0.629577  1
  N  N92  1  0.124997  0.752033  0.863487  1
  N  N93  1  0.624997  0.747967  0.363487  1
  N  N94  1  0.875003  0.247967  0.136513  1
  N  N95  1  0.375003  0.252033  0.636513  1
  Cl  Cl96  1  0.911925  0.566866  0.672029  1
  Cl  Cl97  1  0.411925  0.933134  0.172029  1
  Cl  Cl98  1  0.088075  0.433134  0.327971  1
  Cl  Cl99  1  0.588075  0.066866  0.827971  1
  Cl  Cl100  1  0.336045  0.863742  0.664124  1
  Cl  Cl101  1  0.836045  0.636258  0.164124  1
  Cl  Cl102  1  0.663955  0.136258  0.335876  1
  Cl  Cl103  1  0.163955  0.363742  0.835876  1
  O  O104  1  0.682550  0.924816  0.593770  1
  O  O105  1  0.182550  0.575184  0.093770  1
  O  O106  1  0.317450  0.075184  0.406230  1
  O  O107  1  0.817450  0.424816  0.906230  1
  O  O108  1  0.933773  0.191044  0.565776  1
  O  O109  1  0.433773  0.308956  0.065776  1
  O  O110  1  0.066227  0.808956  0.434224  1
  O  O111  1  0.566227  0.691044  0.934224  1
