# generated using pymatgen
data_La2(SiO3)3
_symmetry_space_group_name_H-M   'P 1'
_cell_length_a   6.82134782
_cell_length_b   6.82153230
_cell_length_c   10.19045395
_cell_angle_alpha   89.99989741
_cell_angle_beta   90.00135566
_cell_angle_gamma   120.00002138
_symmetry_Int_Tables_number   1
_chemical_formula_structural   La2(SiO3)3
_chemical_formula_sum   'La4 Si6 O18'
_cell_volume   410.65413823
_cell_formula_units_Z   2
loop_
 _symmetry_equiv_pos_site_id
 _symmetry_equiv_pos_as_xyz
  1  'x, y, z'
loop_
 _atom_site_type_symbol
 _atom_site_label
 _atom_site_symmetry_multiplicity
 _atom_site_fract_x
 _atom_site_fract_y
 _atom_site_fract_z
 _atom_site_occupancy
  La  La0  1  0.333341  0.666659  0.968836  1
  La  La1  1  0.333336  0.666669  0.531158  1
  La  La2  1  0.666668  0.333340  0.468837  1
  La  La3  1  0.666661  0.333331  0.031162  1
  Si  Si4  1  0.229838  0.950796  0.250005  1
  Si  Si5  1  0.049221  0.279014  0.250003  1
  Si  Si6  1  0.279020  0.229821  0.750004  1
  Si  Si7  1  0.720980  0.770166  0.249989  1
  Si  Si8  1  0.950783  0.720987  0.749994  1
  Si  Si9  1  0.770172  0.049205  0.749984  1
  O  O10  1  0.203345  0.958344  0.750000  1
  O  O11  1  0.358679  0.948528  0.116232  1
  O  O12  1  0.358677  0.948536  0.383764  1
  O  O13  1  0.051481  0.410128  0.383770  1
  O  O14  1  0.051478  0.410144  0.116236  1
  O  O15  1  0.041666  0.245014  0.750000  1
  O  O16  1  0.245021  0.203359  0.249998  1
  O  O17  1  0.589874  0.641332  0.116240  1
  O  O18  1  0.589870  0.641331  0.383773  1
  O  O19  1  0.410137  0.358672  0.616231  1
  O  O20  1  0.410139  0.358666  0.883763  1
  O  O21  1  0.754994  0.796639  0.750002  1
  O  O22  1  0.958338  0.754984  0.249999  1
  O  O23  1  0.948531  0.589872  0.616234  1
  O  O24  1  0.948522  0.589851  0.883767  1
  O  O25  1  0.641334  0.051471  0.616244  1
  O  O26  1  0.641329  0.051472  0.883775  1
  O  O27  1  0.796667  0.041664  0.249999  1
