# generated using pymatgen
data_Co3OF5
_symmetry_space_group_name_H-M   'P 1'
_cell_length_a   7.31409865
_cell_length_b   5.69962120
_cell_length_c   5.69962120
_cell_angle_alpha   73.70314660
_cell_angle_beta   72.62742824
_cell_angle_gamma   72.62742824
_symmetry_Int_Tables_number   1
_chemical_formula_structural   Co3OF5
_chemical_formula_sum   'Co6 O2 F10'
_cell_volume   211.58531233
_cell_formula_units_Z   2
loop_
 _symmetry_equiv_pos_site_id
 _symmetry_equiv_pos_as_xyz
  1  'x, y, z'
loop_
 _atom_site_type_symbol
 _atom_site_label
 _atom_site_symmetry_multiplicity
 _atom_site_fract_x
 _atom_site_fract_y
 _atom_site_fract_z
 _atom_site_occupancy
  Co  Co0  1  0.833333  0.666667  0.666667  1
  Co  Co1  1  0.333333  0.666667  0.666667  1
  Co  Co2  1  0.688036  0.310090  0.310090  1
  Co  Co3  1  0.161719  0.330741  0.330741  1
  Co  Co4  1  0.504947  0.002592  0.002592  1
  Co  Co5  1  0.978631  0.023243  0.023243  1
  O  O6  1  0.968559  0.235318  0.235318  1
  O  O7  1  0.698108  0.098016  0.098016  1
  F  F8  1  0.333333  0.367051  0.966282  1
  F  F9  1  0.661185  0.027408  0.630904  1
  F  F10  1  0.637188  0.553137  0.553137  1
  F  F11  1  0.289874  0.906901  0.906901  1
  F  F12  1  0.376793  0.426433  0.426433  1
  F  F13  1  0.029478  0.780196  0.780196  1
  F  F14  1  0.333333  0.966282  0.367051  1
  F  F15  1  0.661185  0.630904  0.027408  1
  F  F16  1  0.005481  0.305925  0.702429  1
  F  F17  1  0.005481  0.702429  0.305925  1
