# generated using pymatgen
data_La2UO6
_symmetry_space_group_name_H-M   'P 1'
_cell_length_a   3.98073933
_cell_length_b   6.71297305
_cell_length_c   5.59080865
_cell_angle_alpha   114.75171375
_cell_angle_beta   90.13798582
_cell_angle_gamma   72.62760030
_symmetry_Int_Tables_number   1
_chemical_formula_structural   La2UO6
_chemical_formula_sum   'La2 U1 O6'
_cell_volume   128.18450503
_cell_formula_units_Z   1
loop_
 _symmetry_equiv_pos_site_id
 _symmetry_equiv_pos_as_xyz
  1  'x, y, z'
loop_
 _atom_site_type_symbol
 _atom_site_label
 _atom_site_symmetry_multiplicity
 _atom_site_fract_x
 _atom_site_fract_y
 _atom_site_fract_z
 _atom_site_occupancy
  La  La0  1  0.669672  0.670112  0.333710  1
  La  La1  1  0.340809  0.324147  0.661479  1
  U  U2  1  0.001002  0.997647  0.997390  1
  O  O3  1  0.152763  0.700735  0.086917  1
  O  O4  1  0.503873  0.997474  0.219973  1
  O  O5  1  0.154859  0.698461  0.619933  1
  O  O6  1  0.853072  0.295432  0.377109  1
  O  O7  1  0.506544  0.996869  0.776343  1
  O  O8  1  0.855413  0.294370  0.910872  1
