# generated using pymatgen
data_Li4Ti3Nb2Fe3O16
_symmetry_space_group_name_H-M   'P 1'
_cell_length_a   6.08892956
_cell_length_b   6.00724506
_cell_length_c   9.89465007
_cell_angle_alpha   90.03223397
_cell_angle_beta   90.61749918
_cell_angle_gamma   119.54592676
_symmetry_Int_Tables_number   1
_chemical_formula_structural   Li4Ti3Nb2Fe3O16
_chemical_formula_sum   'Li4 Ti3 Nb2 Fe3 O16'
_cell_volume   314.83371949
_cell_formula_units_Z   1
loop_
 _symmetry_equiv_pos_site_id
 _symmetry_equiv_pos_as_xyz
  1  'x, y, z'
loop_
 _atom_site_type_symbol
 _atom_site_label
 _atom_site_symmetry_multiplicity
 _atom_site_fract_x
 _atom_site_fract_y
 _atom_site_fract_z
 _atom_site_occupancy
  Li  Li0  1  0.327932  0.664052  0.902894  1
  Li  Li1  1  0.002276  0.000975  0.986907  1
  Li  Li2  1  0.004661  0.002449  0.493509  1
  Li  Li3  1  0.664420  0.332112  0.406749  1
  Ti  Ti4  1  0.354203  0.177206  0.732501  1
  Ti  Ti5  1  0.189086  0.843461  0.220033  1
  Ti  Ti6  1  0.189762  0.345965  0.219688  1
  Nb  Nb7  1  0.333606  0.666686  0.499826  1
  Nb  Nb8  1  0.702292  0.350922  0.987302  1
  Fe  Fe9  1  0.659554  0.829601  0.210036  1
  Fe  Fe10  1  0.830236  0.662547  0.709318  1
  Fe  Fe11  1  0.830140  0.167640  0.709423  1
  O  O12  1  0.182241  0.839434  0.589373  1
  O  O13  1  0.039654  0.520026  0.333416  1
  O  O14  1  0.297817  0.648941  0.106862  1
  O  O15  1  0.016836  0.008639  0.304592  1
  O  O16  1  0.014946  0.007540  0.799184  1
  O  O17  1  0.182302  0.342948  0.589445  1
  O  O18  1  0.463863  0.961265  0.338583  1
  O  O19  1  0.463773  0.502386  0.338740  1
  O  O20  1  0.326662  0.163358  0.103982  1
  O  O21  1  0.662278  0.831086  0.576576  1
  O  O22  1  0.495740  0.464224  0.848644  1
  O  O23  1  0.495667  0.031620  0.848734  1
  O  O24  1  0.638208  0.319038  0.611038  1
  O  O25  1  0.835222  0.666071  0.091837  1
  O  O26  1  0.961219  0.480725  0.856894  1
  O  O27  1  0.835406  0.169382  0.091755  1
