# generated using pymatgen
data_Hf2N2O
_symmetry_space_group_name_H-M   'P 1'
_cell_length_a   8.74192899
_cell_length_b   8.70043130
_cell_length_c   8.73760020
_cell_angle_alpha   109.47249673
_cell_angle_beta   109.43761957
_cell_angle_gamma   109.46272556
_symmetry_Int_Tables_number   1
_chemical_formula_structural   Hf2N2O
_chemical_formula_sum   'Hf16 N16 O8'
_cell_volume   511.84315069
_cell_formula_units_Z   8
loop_
 _symmetry_equiv_pos_site_id
 _symmetry_equiv_pos_as_xyz
  1  'x, y, z'
loop_
 _atom_site_type_symbol
 _atom_site_label
 _atom_site_symmetry_multiplicity
 _atom_site_fract_x
 _atom_site_fract_y
 _atom_site_fract_z
 _atom_site_occupancy
  Hf  Hf0  1  0.784150  0.245554  0.041920  1
  Hf  Hf1  1  0.990474  0.997015  0.986860  1
  Hf  Hf2  1  0.535867  0.282758  0.248642  1
  Hf  Hf3  1  0.483192  0.991152  0.490713  1
  Hf  Hf4  1  0.502305  0.490997  0.999738  1
  Hf  Hf5  1  0.975166  0.217048  0.758760  1
  Hf  Hf6  1  0.749481  0.963821  0.210908  1
  Hf  Hf7  1  0.744893  0.461445  0.714355  1
  Hf  Hf8  1  0.714018  0.752681  0.463332  1
  Hf  Hf9  1  0.293763  0.254728  0.542918  1
  Hf  Hf10  1  0.260051  0.537960  0.281225  1
  Hf  Hf11  1  0.249548  0.033663  0.777586  1
  Hf  Hf12  1  0.031489  0.784848  0.247063  1
  Hf  Hf13  1  0.004624  0.501454  0.511897  1
  Hf  Hf14  1  0.469664  0.721510  0.750402  1
  Hf  Hf15  1  0.201986  0.741241  0.958888  1
  N  N16  1  0.767417  0.230619  0.278351  1
  N  N17  1  0.775366  0.733009  0.241080  1
  N  N18  1  0.491946  0.228204  0.454290  1
  N  N19  1  0.457987  0.485883  0.229615  1
  N  N20  1  0.042561  0.273919  0.033553  1
  N  N21  1  0.963794  0.949978  0.726071  1
  N  N22  1  0.535238  0.258144  0.984340  1
  N  N23  1  0.275534  0.758407  0.224378  1
  N  N24  1  0.543615  0.514454  0.771796  1
  N  N25  1  0.955997  0.731135  0.967845  1
  N  N26  1  0.511575  0.774296  0.546990  1
  N  N27  1  0.227596  0.276503  0.762992  1
  N  N28  1  0.004921  0.463136  0.734639  1
  N  N29  1  0.729036  0.964951  0.959924  1
  N  N30  1  0.258821  0.989076  0.529629  1
  N  N31  1  0.239665  0.770471  0.729159  1
  O  O32  1  0.738073  0.012711  0.467618  1
  O  O33  1  0.273282  0.036844  0.047490  1
  O  O34  1  0.990828  0.537970  0.265815  1
  O  O35  1  0.776257  0.547693  0.510671  1
  O  O36  1  0.468910  0.746233  0.019494  1
  O  O37  1  0.036799  0.052025  0.275374  1
  O  O38  1  0.725893  0.238631  0.772105  1
  O  O39  1  0.218216  0.447835  0.481575  1
