# generated using pymatgen
data_AlH10SO9F
_symmetry_space_group_name_H-M   'P 1'
_cell_length_a   11.32891588
_cell_length_b   13.10879814
_cell_length_c   10.89669191
_cell_angle_alpha   90.00000000
_cell_angle_beta   90.00000000
_cell_angle_gamma   90.00000000
_symmetry_Int_Tables_number   1
_chemical_formula_structural   AlH10SO9F
_chemical_formula_sum   'Al8 H80 S8 O72 F8'
_cell_volume   1618.25105904
_cell_formula_units_Z   8
loop_
 _symmetry_equiv_pos_site_id
 _symmetry_equiv_pos_as_xyz
  1  'x, y, z'
loop_
 _atom_site_type_symbol
 _atom_site_label
 _atom_site_symmetry_multiplicity
 _atom_site_fract_x
 _atom_site_fract_y
 _atom_site_fract_z
 _atom_site_occupancy
  Al  Al0  1  0.500000  0.000000  0.500000  1
  Al  Al1  1  0.000000  0.000000  0.000000  1
  Al  Al2  1  0.500000  0.500000  0.000000  1
  Al  Al3  1  0.000000  0.500000  0.500000  1
  Al  Al4  1  0.500000  0.000000  0.000000  1
  Al  Al5  1  0.000000  0.000000  0.500000  1
  Al  Al6  1  0.500000  0.500000  0.500000  1
  Al  Al7  1  0.000000  0.500000  0.000000  1
  H  H8  1  0.570923  0.140185  0.651780  1
  H  H9  1  0.070923  0.859815  0.848220  1
  H  H10  1  0.429077  0.359815  0.151780  1
  H  H11  1  0.929077  0.640185  0.348220  1
  H  H12  1  0.429077  0.859815  0.348220  1
  H  H13  1  0.929077  0.140185  0.151780  1
  H  H14  1  0.570923  0.640185  0.848220  1
  H  H15  1  0.070923  0.359815  0.651780  1
  H  H16  1  0.440684  0.171909  0.600778  1
  H  H17  1  0.940684  0.828091  0.899222  1
  H  H18  1  0.559316  0.328091  0.100778  1
  H  H19  1  0.059316  0.671909  0.399222  1
  H  H20  1  0.559316  0.828091  0.399222  1
  H  H21  1  0.059316  0.171909  0.100778  1
  H  H22  1  0.440684  0.671909  0.899222  1
  H  H23  1  0.940684  0.328091  0.600778  1
  H  H24  1  0.650443  0.143328  0.040681  1
  H  H25  1  0.150443  0.856672  0.459319  1
  H  H26  1  0.349557  0.356672  0.540681  1
  H  H27  1  0.849557  0.643328  0.959319  1
  H  H28  1  0.349557  0.856672  0.959319  1
  H  H29  1  0.849557  0.143328  0.540681  1
  H  H30  1  0.650443  0.643328  0.459319  1
  H  H31  1  0.150443  0.356672  0.040681  1
  H  H32  1  0.655073  0.114522  0.895806  1
  H  H33  1  0.155073  0.885478  0.604194  1
  H  H34  1  0.344927  0.385478  0.395806  1
  H  H35  1  0.844927  0.614522  0.104194  1
  H  H36  1  0.344927  0.885478  0.104194  1
  H  H37  1  0.844927  0.114522  0.395806  1
  H  H38  1  0.655073  0.614522  0.604194  1
  H  H39  1  0.155073  0.385478  0.895806  1
  H  H40  1  0.377419  0.165050  0.963596  1
  H  H41  1  0.877419  0.834950  0.536404  1
  H  H42  1  0.622581  0.334950  0.463596  1
  H  H43  1  0.122581  0.665050  0.036404  1
  H  H44  1  0.622581  0.834950  0.036404  1
  H  H45  1  0.122581  0.165050  0.463596  1
  H  H46  1  0.377419  0.665050  0.536404  1
  H  H47  1  0.877419  0.334950  0.963596  1
  H  H48  1  0.369094  0.133213  0.110302  1
  H  H49  1  0.869094  0.866787  0.389698  1
  H  H50  1  0.630906  0.366787  0.610302  1
  H  H51  1  0.130906  0.633213  0.889698  1
  H  H52  1  0.630906  0.866787  0.889698  1
  H  H53  1  0.130906  0.133213  0.610302  1
  H  H54  1  0.369094  0.633213  0.389698  1
  H  H55  1  0.869094  0.366787  0.110302  1
  H  H56  1  0.558590  0.036505  0.280195  1
  H  H57  1  0.058590  0.963495  0.219805  1
  H  H58  1  0.441410  0.463495  0.780195  1
  H  H59  1  0.941410  0.536505  0.719805  1
  H  H60  1  0.441410  0.963495  0.719805  1
  H  H61  1  0.941410  0.036505  0.780195  1
  H  H62  1  0.558590  0.536505  0.219805  1
  H  H63  1  0.058590  0.463495  0.280195  1
  H  H64  1  0.600182  0.135689  0.365018  1
  H  H65  1  0.100182  0.864311  0.134982  1
  H  H66  1  0.399818  0.364311  0.865018  1
  H  H67  1  0.899818  0.635689  0.634982  1
  H  H68  1  0.399818  0.864311  0.634982  1
  H  H69  1  0.899818  0.135689  0.865018  1
  H  H70  1  0.600182  0.635689  0.134982  1
  H  H71  1  0.100182  0.364311  0.365018  1
  H  H72  1  0.328945  0.077532  0.365718  1
  H  H73  1  0.828945  0.922468  0.134282  1
  H  H74  1  0.671055  0.422468  0.865718  1
  H  H75  1  0.171055  0.577532  0.634282  1
  H  H76  1  0.671055  0.922468  0.634282  1
  H  H77  1  0.171055  0.077532  0.865718  1
  H  H78  1  0.328945  0.577532  0.134282  1
  H  H79  1  0.828945  0.422468  0.365718  1
  H  H80  1  0.274433  0.000329  0.470234  1
  H  H81  1  0.774433  0.999671  0.029766  1
  H  H82  1  0.725567  0.499671  0.970234  1
  H  H83  1  0.225567  0.500329  0.529766  1
  H  H84  1  0.725567  0.999671  0.529766  1
  H  H85  1  0.225567  0.000329  0.970234  1
  H  H86  1  0.274433  0.500329  0.029766  1
  H  H87  1  0.774433  0.499671  0.470234  1
  S  S88  1  0.738753  0.252209  0.246920  1
  S  S89  1  0.238753  0.747791  0.253080  1
  S  S90  1  0.261247  0.247791  0.746920  1
  S  S91  1  0.761247  0.752209  0.753080  1
  S  S92  1  0.261247  0.747791  0.753080  1
  S  S93  1  0.761247  0.252209  0.746920  1
  S  S94  1  0.738753  0.752209  0.253080  1
  S  S95  1  0.238753  0.247791  0.246920  1
  O  O96  1  0.668533  0.243105  0.131113  1
  O  O97  1  0.168533  0.756895  0.368887  1
  O  O98  1  0.331467  0.256895  0.631113  1
  O  O99  1  0.831467  0.743105  0.868887  1
  O  O100  1  0.331467  0.756895  0.868887  1
  O  O101  1  0.831467  0.243105  0.631113  1
  O  O102  1  0.668533  0.743105  0.368887  1
  O  O103  1  0.168533  0.256895  0.131113  1
  O  O104  1  0.804757  0.350841  0.244340  1
  O  O105  1  0.304757  0.649158  0.255660  1
  O  O106  1  0.195243  0.149158  0.744340  1
  O  O107  1  0.695243  0.850842  0.755660  1
  O  O108  1  0.195243  0.649158  0.755660  1
  O  O109  1  0.695243  0.350841  0.744340  1
  O  O110  1  0.804757  0.850842  0.255660  1
  O  O111  1  0.304757  0.149158  0.244340  1
  O  O112  1  0.659183  0.249734  0.355927  1
  O  O113  1  0.159183  0.750266  0.144073  1
  O  O114  1  0.340817  0.250266  0.855927  1
  O  O115  1  0.840817  0.749734  0.644073  1
  O  O116  1  0.340817  0.750266  0.644073  1
  O  O117  1  0.840817  0.249734  0.855927  1
  O  O118  1  0.659183  0.749734  0.144073  1
  O  O119  1  0.159183  0.250266  0.355927  1
  O  O120  1  0.822411  0.164183  0.255368  1
  O  O121  1  0.322411  0.835817  0.244632  1
  O  O122  1  0.177589  0.335817  0.755368  1
  O  O123  1  0.677589  0.664183  0.744632  1
  O  O124  1  0.177589  0.835817  0.744632  1
  O  O125  1  0.677589  0.164183  0.755368  1
  O  O126  1  0.822411  0.664183  0.244632  1
  O  O127  1  0.322411  0.335817  0.255368  1
  O  O128  1  0.510591  0.126763  0.586497  1
  O  O129  1  0.010591  0.873237  0.913503  1
  O  O130  1  0.489409  0.373237  0.086497  1
  O  O131  1  0.989409  0.626763  0.413503  1
  O  O132  1  0.489409  0.873237  0.413503  1
  O  O133  1  0.989409  0.126763  0.086497  1
  O  O134  1  0.510591  0.626763  0.913503  1
  O  O135  1  0.010591  0.373237  0.586497  1
  O  O136  1  0.642507  0.085311  0.980418  1
  O  O137  1  0.142507  0.914689  0.519582  1
  O  O138  1  0.357493  0.414689  0.480418  1
  O  O139  1  0.857493  0.585311  0.019582  1
  O  O140  1  0.357493  0.914689  0.019582  1
  O  O141  1  0.857493  0.085311  0.480418  1
  O  O142  1  0.642507  0.585311  0.519582  1
  O  O143  1  0.142507  0.414689  0.980418  1
  O  O144  1  0.408310  0.119444  0.029299  1
  O  O145  1  0.908310  0.880556  0.470701  1
  O  O146  1  0.591690  0.380556  0.529299  1
  O  O147  1  0.091690  0.619444  0.970701  1
  O  O148  1  0.591690  0.880556  0.970701  1
  O  O149  1  0.091690  0.119444  0.529299  1
  O  O150  1  0.408310  0.619444  0.470701  1
  O  O151  1  0.908310  0.380556  0.029299  1
  O  O152  1  0.571737  0.063061  0.365824  1
  O  O153  1  0.071737  0.936939  0.134176  1
  O  O154  1  0.428263  0.436939  0.865824  1
  O  O155  1  0.928263  0.563061  0.634176  1
  O  O156  1  0.428263  0.936939  0.634176  1
  O  O157  1  0.928263  0.063061  0.865824  1
  O  O158  1  0.571737  0.563061  0.134176  1
  O  O159  1  0.071737  0.436939  0.365824  1
  O  O160  1  0.346183  0.035392  0.440723  1
  O  O161  1  0.846183  0.964608  0.059277  1
  O  O162  1  0.653817  0.464608  0.940723  1
  O  O163  1  0.153817  0.535392  0.559277  1
  O  O164  1  0.653817  0.964608  0.559277  1
  O  O165  1  0.153817  0.035392  0.940723  1
  O  O166  1  0.346183  0.535392  0.059277  1
  O  O167  1  0.846183  0.464608  0.440723  1
  F  F168  1  0.528230  0.990269  0.159087  1
  F  F169  1  0.028230  0.009731  0.340913  1
  F  F170  1  0.471770  0.509731  0.659087  1
  F  F171  1  0.971770  0.490269  0.840913  1
  F  F172  1  0.471770  0.009731  0.840913  1
  F  F173  1  0.971770  0.990269  0.659087  1
  F  F174  1  0.528230  0.490269  0.340913  1
  F  F175  1  0.028230  0.509731  0.159087  1
