# generated using pymatgen
data_Li4MnO2F3
_symmetry_space_group_name_H-M   'P 1'
_cell_length_a   3.94598666
_cell_length_b   5.10553191
_cell_length_c   5.26860351
_cell_angle_alpha   95.98179485
_cell_angle_beta   112.01526140
_cell_angle_gamma   67.36715774
_symmetry_Int_Tables_number   1
_chemical_formula_structural   Li4MnO2F3
_chemical_formula_sum   'Li4 Mn1 O2 F3'
_cell_volume   90.72607829
_cell_formula_units_Z   1
loop_
 _symmetry_equiv_pos_site_id
 _symmetry_equiv_pos_as_xyz
  1  'x, y, z'
loop_
 _atom_site_type_symbol
 _atom_site_label
 _atom_site_symmetry_multiplicity
 _atom_site_fract_x
 _atom_site_fract_y
 _atom_site_fract_z
 _atom_site_occupancy
  Li  Li0  1  0.604226  0.203110  0.415422  1
  Li  Li1  1  0.786314  0.603823  0.182866  1
  Li  Li2  1  0.195347  0.384709  0.778923  1
  Li  Li3  1  0.422390  0.772461  0.623522  1
  Mn  Mn4  1  0.980379  0.027944  0.993058  1
  O  O5  1  0.501827  0.998183  0.006171  1
  O  O6  1  0.714255  0.377559  0.808528  1
  F  F7  1  0.092975  0.212233  0.400781  1
  F  F8  1  0.283349  0.635774  0.210859  1
  F  F9  1  0.901066  0.793143  0.600041  1
