# generated using pymatgen
data_Rb6In2Co2Si9O26
_symmetry_space_group_name_H-M   'P 1'
_cell_length_a   8.22821052
_cell_length_b   8.22821005
_cell_length_c   21.15627344
_cell_angle_alpha   90.00000000
_cell_angle_beta   90.00000000
_cell_angle_gamma   96.31804178
_symmetry_Int_Tables_number   1
_chemical_formula_structural   Rb6In2Co2Si9O26
_chemical_formula_sum   'Rb12 In4 Co4 Si18 O52'
_cell_volume   1423.65297888
_cell_formula_units_Z   2
loop_
 _symmetry_equiv_pos_site_id
 _symmetry_equiv_pos_as_xyz
  1  'x, y, z'
loop_
 _atom_site_type_symbol
 _atom_site_label
 _atom_site_symmetry_multiplicity
 _atom_site_fract_x
 _atom_site_fract_y
 _atom_site_fract_z
 _atom_site_occupancy
  Rb  Rb0  1  0.988682  0.988682  0.000000  1
  Rb  Rb1  1  0.782270  0.095149  0.633239  1
  Rb  Rb2  1  0.291722  0.212273  0.335378  1
  Rb  Rb3  1  0.488682  0.488682  0.500000  1
  Rb  Rb4  1  0.282270  0.595149  0.866761  1
  Rb  Rb5  1  0.791722  0.712273  0.164622  1
  Rb  Rb6  1  0.595149  0.282270  0.133239  1
  Rb  Rb7  1  0.095149  0.782270  0.366761  1
  Rb  Rb8  1  0.212273  0.291722  0.664622  1
  Rb  Rb9  1  0.326394  0.326394  0.000000  1
  Rb  Rb10  1  0.712273  0.791722  0.835378  1
  Rb  Rb11  1  0.826394  0.826394  0.500000  1
  In  In12  1  0.728200  0.314583  0.910400  1
  In  In13  1  0.814583  0.228200  0.410400  1
  In  In14  1  0.228200  0.814583  0.589600  1
  In  In15  1  0.314583  0.728200  0.089600  1
  Co  Co16  1  0.058229  0.838421  0.729181  1
  Co  Co17  1  0.338421  0.558229  0.229181  1
  Co  Co18  1  0.558229  0.338421  0.770819  1
  Co  Co19  1  0.838421  0.058229  0.270819  1
  Si  Si20  1  0.642530  0.503724  0.322469  1
  Si  Si21  1  0.503724  0.642530  0.677531  1
  Si  Si22  1  0.864103  0.569917  0.640877  1
  Si  Si23  1  0.023092  0.485185  0.513405  1
  Si  Si24  1  0.485185  0.023092  0.486595  1
  Si  Si25  1  0.069917  0.364103  0.140877  1
  Si  Si26  1  0.569917  0.864103  0.359123  1
  Si  Si27  1  0.523092  0.985185  0.986595  1
  Si  Si28  1  0.931480  0.473991  0.777038  1
  Si  Si29  1  0.473991  0.931480  0.222962  1
  Si  Si30  1  0.364103  0.069917  0.859123  1
  Si  Si31  1  0.144458  0.144458  0.500000  1
  Si  Si32  1  0.985185  0.523092  0.013405  1
  Si  Si33  1  0.644458  0.644458  0.000000  1
  Si  Si34  1  0.973991  0.431480  0.277038  1
  Si  Si35  1  0.003724  0.142530  0.822469  1
  Si  Si36  1  0.431480  0.973991  0.722962  1
  Si  Si37  1  0.142530  0.003724  0.177531  1
  O  O38  1  0.969062  0.029651  0.760129  1
  O  O39  1  0.157442  0.516864  0.288904  1
  O  O40  1  0.170355  0.099297  0.861873  1
  O  O41  1  0.119913  0.852527  0.128271  1
  O  O42  1  0.443902  0.894198  0.300206  1
  O  O43  1  0.434205  0.759166  0.184760  1
  O  O44  1  0.912176  0.458357  0.450608  1
  O  O45  1  0.553778  0.836447  0.701831  1
  O  O46  1  0.458357  0.912176  0.549392  1
  O  O47  1  0.898558  0.467470  0.576679  1
  O  O48  1  0.628672  0.163718  0.987494  1
  O  O49  1  0.958357  0.412176  0.950608  1
  O  O50  1  0.967470  0.398558  0.076679  1
  O  O51  1  0.894198  0.443902  0.699794  1
  O  O52  1  0.838153  0.644352  0.023744  1
  O  O53  1  0.599297  0.670355  0.361873  1
  O  O54  1  0.943902  0.394198  0.199794  1
  O  O55  1  0.663718  0.128672  0.487494  1
  O  O56  1  0.336447  0.053778  0.201830  1
  O  O57  1  0.982066  0.741285  0.644228  1
  O  O58  1  0.482066  0.241285  0.855772  1
  O  O59  1  0.603440  0.523842  0.940024  1
  O  O60  1  0.467470  0.898558  0.423321  1
  O  O61  1  0.241285  0.482066  0.144228  1
  O  O62  1  0.741285  0.982066  0.355772  1
  O  O63  1  0.398558  0.967470  0.923321  1
  O  O64  1  0.836447  0.553778  0.298169  1
  O  O65  1  0.516864  0.157442  0.711096  1
  O  O66  1  0.163718  0.628672  0.012506  1
  O  O67  1  0.670355  0.599297  0.638127  1
  O  O68  1  0.338153  0.144352  0.476256  1
  O  O69  1  0.259166  0.934205  0.684760  1
  O  O70  1  0.934205  0.259166  0.315240  1
  O  O71  1  0.759166  0.434205  0.815240  1
  O  O72  1  0.394198  0.943902  0.800206  1
  O  O73  1  0.657442  0.016864  0.211096  1
  O  O74  1  0.529651  0.469062  0.260129  1
  O  O75  1  0.099297  0.170355  0.138127  1
  O  O76  1  0.029651  0.969062  0.239871  1
  O  O77  1  0.619913  0.352527  0.371729  1
  O  O78  1  0.852527  0.119913  0.871729  1
  O  O79  1  0.469062  0.529651  0.739871  1
  O  O80  1  0.144352  0.338153  0.523744  1
  O  O81  1  0.644352  0.838153  0.976256  1
  O  O82  1  0.053778  0.336447  0.798169  1
  O  O83  1  0.128672  0.663718  0.512506  1
  O  O84  1  0.412176  0.958357  0.049392  1
  O  O85  1  0.103440  0.023842  0.559976  1
  O  O86  1  0.352527  0.619913  0.628271  1
  O  O87  1  0.523842  0.603440  0.059976  1
  O  O88  1  0.016864  0.657442  0.788904  1
  O  O89  1  0.023842  0.103440  0.440024  1
