# generated using pymatgen
data_Fe6O7F5
_symmetry_space_group_name_H-M   'P 1'
_cell_length_a   4.78280911
_cell_length_b   7.71399532
_cell_length_c   5.65606642
_cell_angle_alpha   95.40539212
_cell_angle_beta   93.62061499
_cell_angle_gamma   87.82891329
_symmetry_Int_Tables_number   1
_chemical_formula_structural   Fe6O7F5
_chemical_formula_sum   'Fe6 O7 F5'
_cell_volume   207.22837344
_cell_formula_units_Z   1
loop_
 _symmetry_equiv_pos_site_id
 _symmetry_equiv_pos_as_xyz
  1  'x, y, z'
loop_
 _atom_site_type_symbol
 _atom_site_label
 _atom_site_symmetry_multiplicity
 _atom_site_fract_x
 _atom_site_fract_y
 _atom_site_fract_z
 _atom_site_occupancy
  Fe  Fe0  1  0.511404  0.667156  0.181217  1
  Fe  Fe1  1  0.460074  0.993873  0.517904  1
  Fe  Fe2  1  0.554435  0.332349  0.812687  1
  Fe  Fe3  1  0.980373  0.673810  0.658018  1
  Fe  Fe4  1  0.984262  0.331968  0.346164  1
  Fe  Fe5  1  0.021382  0.000722  0.985667  1
  O  O6  1  0.814575  0.445186  0.624589  1
  O  O7  1  0.697175  0.092037  0.786778  1
  O  O8  1  0.681590  0.778489  0.473063  1
  O  O9  1  0.696878  0.437298  0.127969  1
  O  O10  1  0.303963  0.226824  0.535653  1
  O  O11  1  0.303029  0.900439  0.209464  1
  O  O12  1  0.187092  0.886773  0.712849  1
  F  F13  1  0.804556  0.764618  0.972124  1
  F  F14  1  0.812126  0.100084  0.279188  1
  F  F15  1  0.301529  0.565293  0.869041  1
  F  F16  1  0.188738  0.236885  0.039969  1
  F  F17  1  0.196821  0.566196  0.367655  1
