# generated using pymatgen
data_LiFeSiO4
_symmetry_space_group_name_H-M   'P 1'
_cell_length_a   8.78226494
_cell_length_b   8.78215347
_cell_length_c   8.30091759
_cell_angle_alpha   89.99705185
_cell_angle_beta   90.00567170
_cell_angle_gamma   119.99981225
_symmetry_Int_Tables_number   1
_chemical_formula_structural   LiFeSiO4
_chemical_formula_sum   'Li6 Fe6 Si6 O24'
_cell_volume   554.45347587
_cell_formula_units_Z   6
loop_
 _symmetry_equiv_pos_site_id
 _symmetry_equiv_pos_as_xyz
  1  'x, y, z'
loop_
 _atom_site_type_symbol
 _atom_site_label
 _atom_site_symmetry_multiplicity
 _atom_site_fract_x
 _atom_site_fract_y
 _atom_site_fract_z
 _atom_site_occupancy
  Li  Li0  1  0.333338  0.666681  0.984986  1
  Li  Li1  1  0.333366  0.666664  0.550729  1
  Li  Li2  1  -0.000015  0.000009  0.815860  1
  Li  Li3  1  -0.000014  0.999994  0.315856  1
  Li  Li4  1  0.666682  0.333335  0.484981  1
  Li  Li5  1  0.666679  0.333326  0.050722  1
  Fe  Fe6  1  0.044660  0.686739  0.263746  1
  Fe  Fe7  1  0.313229  0.357933  0.263755  1
  Fe  Fe8  1  0.642048  0.955317  0.263796  1
  Fe  Fe9  1  0.357915  0.044668  0.763748  1
  Fe  Fe10  1  0.686730  0.642065  0.763752  1
  Fe  Fe11  1  0.955283  0.313225  0.763791  1
  Si  Si12  1  0.039824  0.683843  0.881760  1
  Si  Si13  1  0.316170  0.356142  0.881708  1
  Si  Si14  1  0.644077  0.960026  0.881883  1
  Si  Si15  1  0.356147  0.039935  0.381707  1
  Si  Si16  1  0.683955  0.644095  0.381848  1
  Si  Si17  1  0.959992  0.315984  0.381800  1
  O  O18  1  0.112215  0.873264  0.787474  1
  O  O19  1  0.143216  0.724499  0.056017  1
  O  O20  1  0.098413  0.558861  0.783306  1
  O  O21  1  0.240787  0.823804  0.404440  1
  O  O22  1  0.176236  0.416941  0.404463  1
  O  O23  1  0.126768  0.238977  0.787476  1
  O  O24  1  0.460285  0.901513  0.783310  1
  O  O25  1  0.275556  0.418752  0.055975  1
  O  O26  1  0.581328  0.856784  0.055961  1
  O  O27  1  0.238943  0.112217  0.287443  1
  O  O28  1  0.441062  0.539554  0.783306  1
  O  O29  1  0.583095  0.759258  0.404491  1
  O  O30  1  0.416998  0.240757  0.904441  1
  O  O31  1  0.558771  0.460321  0.283298  1
  O  O32  1  0.760980  0.887789  0.787550  1
  O  O33  1  0.418732  0.143224  0.556016  1
  O  O34  1  0.724545  0.581317  0.555972  1
  O  O35  1  0.539525  0.098494  0.283363  1
  O  O36  1  0.873231  0.761002  0.287501  1
  O  O37  1  0.823824  0.583051  0.904470  1
  O  O38  1  0.759289  0.176208  0.904493  1
  O  O39  1  0.901514  0.441167  0.283319  1
  O  O40  1  0.856793  0.275455  0.555961  1
  O  O41  1  0.887805  0.126810  0.287507  1
