# generated using pymatgen
data_VH8N2O5F
_symmetry_space_group_name_H-M   'P 1'
_cell_length_a   6.21026002
_cell_length_b   11.50642797
_cell_length_c   8.12439340
_cell_angle_alpha   90.00000000
_cell_angle_beta   89.66872270
_cell_angle_gamma   90.00000000
_symmetry_Int_Tables_number   1
_chemical_formula_structural   VH8N2O5F
_chemical_formula_sum   'V4 H32 N8 O20 F4'
_cell_volume   580.54246488
_cell_formula_units_Z   4
loop_
 _symmetry_equiv_pos_site_id
 _symmetry_equiv_pos_as_xyz
  1  'x, y, z'
loop_
 _atom_site_type_symbol
 _atom_site_label
 _atom_site_symmetry_multiplicity
 _atom_site_fract_x
 _atom_site_fract_y
 _atom_site_fract_z
 _atom_site_occupancy
  V  V0  1  0.200582  0.256345  0.958827  1
  V  V1  1  0.799418  0.756345  0.541173  1
  V  V2  1  0.799418  0.743655  0.041173  1
  V  V3  1  0.200582  0.243655  0.458827  1
  H  H4  1  0.738649  0.474616  0.722977  1
  H  H5  1  0.261351  0.974616  0.777023  1
  H  H6  1  0.261351  0.525384  0.277023  1
  H  H7  1  0.738649  0.025384  0.222977  1
  H  H8  1  0.816178  0.338970  0.668863  1
  H  H9  1  0.183822  0.838970  0.831137  1
  H  H10  1  0.183822  0.661030  0.331137  1
  H  H11  1  0.816178  0.161030  0.168863  1
  H  H12  1  0.678937  0.361849  0.848371  1
  H  H13  1  0.321063  0.861849  0.651629  1
  H  H14  1  0.321063  0.638151  0.151629  1
  H  H15  1  0.678937  0.138151  0.348371  1
  H  H16  1  0.556468  0.374738  0.660429  1
  H  H17  1  0.443532  0.874738  0.839571  1
  H  H18  1  0.443532  0.625262  0.339571  1
  H  H19  1  0.556468  0.125262  0.160429  1
  H  H20  1  0.776708  0.498095  0.134986  1
  H  H21  1  0.223292  0.998095  0.365014  1
  H  H22  1  0.223292  0.501905  0.865014  1
  H  H23  1  0.776708  0.001905  0.634986  1
  H  H24  1  0.801196  0.496973  0.346325  1
  H  H25  1  0.198804  0.996973  0.153675  1
  H  H26  1  0.198804  0.503027  0.653675  1
  H  H27  1  0.801196  0.003027  0.846325  1
  H  H28  1  0.640935  0.397853  0.250404  1
  H  H29  1  0.359065  0.897853  0.249595  1
  H  H30  1  0.359065  0.602147  0.749595  1
  H  H31  1  0.640935  0.102147  0.750405  1
  H  H32  1  0.910136  0.389632  0.228178  1
  H  H33  1  0.089864  0.889632  0.271822  1
  H  H34  1  0.089864  0.610368  0.771822  1
  H  H35  1  0.910136  0.110368  0.728178  1
  N  N36  1  0.697374  0.387821  0.727925  1
  N  N37  1  0.302626  0.887821  0.772075  1
  N  N38  1  0.302626  0.612179  0.272075  1
  N  N39  1  0.697374  0.112179  0.227925  1
  N  N40  1  0.780731  0.445321  0.241094  1
  N  N41  1  0.219269  0.945321  0.258906  1
  N  N42  1  0.219269  0.554679  0.758906  1
  N  N43  1  0.780731  0.054679  0.741094  1
  O  O44  1  0.420054  0.357813  0.032323  1
  O  O45  1  0.579946  0.857813  0.467677  1
  O  O46  1  0.579946  0.642187  0.967677  1
  O  O47  1  0.420054  0.142187  0.532323  1
  O  O48  1  0.406669  0.132779  0.964943  1
  O  O49  1  0.593331  0.632779  0.535057  1
  O  O50  1  0.593331  0.867221  0.035057  1
  O  O51  1  0.406669  0.367221  0.464943  1
  O  O52  1  0.186048  0.087263  0.966976  1
  O  O53  1  0.813952  0.587263  0.533024  1
  O  O54  1  0.813952  0.912737  0.033024  1
  O  O55  1  0.186048  0.412737  0.466976  1
  O  O56  1  0.185770  0.283930  0.759227  1
  O  O57  1  0.814230  0.783930  0.740773  1
  O  O58  1  0.814230  0.716070  0.240773  1
  O  O59  1  0.185770  0.216070  0.259227  1
  O  O60  1  0.208883  0.413856  0.044961  1
  O  O61  1  0.791117  0.913856  0.455039  1
  O  O62  1  0.791117  0.586144  0.955039  1
  O  O63  1  0.208883  0.086144  0.544961  1
  F  F64  1  0.891795  0.256227  0.003036  1
  F  F65  1  0.108205  0.756227  0.496964  1
  F  F66  1  0.108205  0.743773  0.996964  1
  F  F67  1  0.891795  0.243773  0.503036  1
