# generated using pymatgen
data_Li5Fe8(BO3)8
_symmetry_space_group_name_H-M   'P 1'
_cell_length_a   5.25743663
_cell_length_b   9.08977152
_cell_length_c   11.35071683
_cell_angle_alpha   66.83838643
_cell_angle_beta   76.65054975
_cell_angle_gamma   90.16822359
_symmetry_Int_Tables_number   1
_chemical_formula_structural   Li5Fe8(BO3)8
_chemical_formula_sum   'Li5 Fe8 B8 O24'
_cell_volume   482.56970578
_cell_formula_units_Z   1
loop_
 _symmetry_equiv_pos_site_id
 _symmetry_equiv_pos_as_xyz
  1  'x, y, z'
loop_
 _atom_site_type_symbol
 _atom_site_label
 _atom_site_symmetry_multiplicity
 _atom_site_fract_x
 _atom_site_fract_y
 _atom_site_fract_z
 _atom_site_occupancy
  Li  Li0  1  0.704842  0.720769  0.901868  1
  Li  Li1  1  0.512229  0.489441  0.665337  1
  Li  Li2  1  0.727984  0.752810  0.165316  1
  Li  Li3  1  0.021318  0.995565  0.659069  1
  Li  Li4  1  0.224006  0.250505  0.167364  1
  Fe  Fe5  1  0.983914  0.647366  0.382404  1
  Fe  Fe6  1  0.730797  0.074541  0.879857  1
  Fe  Fe7  1  0.533111  0.841528  0.627374  1
  Fe  Fe8  1  0.747120  0.436679  0.132075  1
  Fe  Fe9  1  0.227641  0.550898  0.883049  1
  Fe  Fe10  1  0.484969  0.145764  0.382656  1
  Fe  Fe11  1  0.039485  0.349008  0.629175  1
  Fe  Fe12  1  0.248604  0.942227  0.126216  1
  B  B13  1  0.980808  0.316720  0.376425  1
  B  B14  1  0.729332  0.400611  0.875272  1
  B  B15  1  0.526029  0.183352  0.629724  1
  B  B16  1  0.762376  0.104365  0.129065  1
  B  B17  1  0.481248  0.817087  0.374151  1
  B  B18  1  0.237139  0.896106  0.876175  1
  B  B19  1  0.025563  0.684431  0.628547  1
  B  B20  1  0.262718  0.602867  0.127500  1
  O  O21  1  0.977429  0.914414  0.865721  1
  O  O22  1  0.880108  0.287031  0.842756  1
  O  O23  1  0.832210  0.502469  0.921449  1
  O  O24  1  0.898138  0.810062  0.642511  1
  O  O25  1  0.908888  0.581925  0.583439  1
  O  O26  1  0.757706  0.147893  0.674733  1
  O  O27  1  0.743257  0.320318  0.341508  1
  O  O28  1  0.484180  0.408568  0.856036  1
  O  O29  1  0.373403  0.783009  0.841972  1
  O  O30  1  0.551094  0.926986  0.420492  1
  O  O31  1  0.648212  0.707315  0.357007  1
  O  O32  1  0.362811  0.991345  0.920258  1
  O  O33  1  0.662401  0.998305  0.082518  1
  O  O34  1  0.408356  0.315894  0.628730  1
  O  O35  1  0.417213  0.077182  0.586267  1
  O  O36  1  0.589829  0.200892  0.172978  1
  O  O37  1  0.531909  0.623904  0.110615  1
  O  O38  1  0.263895  0.652166  0.660211  1
  O  O39  1  0.245067  0.821847  0.338287  1
  O  O40  1  0.048971  0.426806  0.423068  1
  O  O41  1  0.145259  0.203921  0.363887  1
  O  O42  1  0.154310  0.485207  0.098733  1
  O  O43  1  0.097812  0.702511  0.171801  1
  O  O44  1  0.017680  0.110016  0.132756  1
