# generated using pymatgen
data_Mn2Ni3P6WO24
_symmetry_space_group_name_H-M   'P 1'
_cell_length_a   8.65326259
_cell_length_b   8.72301523
_cell_length_c   8.72301594
_cell_angle_alpha   60.00000202
_cell_angle_beta   59.73299137
_cell_angle_gamma   59.73298909
_symmetry_Int_Tables_number   1
_chemical_formula_structural   Mn2Ni3P6WO24
_chemical_formula_sum   'Mn2 Ni3 P6 W1 O24'
_cell_volume   463.69626742
_cell_formula_units_Z   1
loop_
 _symmetry_equiv_pos_site_id
 _symmetry_equiv_pos_as_xyz
  1  'x, y, z'
loop_
 _atom_site_type_symbol
 _atom_site_label
 _atom_site_symmetry_multiplicity
 _atom_site_fract_x
 _atom_site_fract_y
 _atom_site_fract_z
 _atom_site_occupancy
  Mn  Mn0  1  0.026011  0.991330  0.991330  1
  Mn  Mn1  1  0.502762  0.499079  0.499079  1
  Ni  Ni2  1  0.072490  0.642503  0.642503  1
  Ni  Ni3  1  0.436274  0.854575  0.854575  1
  Ni  Ni4  1  0.929540  0.356820  0.356820  1
  P  P5  1  0.243368  0.255383  0.547504  1
  P  P6  1  0.243368  0.953746  0.255383  1
  P  P7  1  0.243368  0.547504  0.953746  1
  P  P8  1  0.748203  0.463340  0.044820  1
  P  P9  1  0.748203  0.044820  0.743637  1
  P  P10  1  0.748203  0.743637  0.463340  1
  W  W11  1  0.572293  0.142569  0.142569  1
  O  O12  1  0.067105  0.106463  0.320925  1
  O  O13  1  0.067105  0.505507  0.106463  1
  O  O14  1  0.067105  0.320925  0.505507  1
  O  O15  1  0.235969  0.091535  0.734880  1
  O  O16  1  0.425477  0.181479  0.379819  1
  O  O17  1  0.285309  0.410570  0.542230  1
  O  O18  1  0.235969  0.937615  0.091535  1
  O  O19  1  0.285309  0.761889  0.410570  1
  O  O20  1  0.565579  0.610677  0.010995  1
  O  O21  1  0.285309  0.542230  0.761889  1
  O  O22  1  0.754922  0.258916  0.073606  1
  O  O23  1  0.565579  0.010995  0.812749  1
  O  O24  1  0.425477  0.013225  0.181479  1
  O  O25  1  0.235969  0.734880  0.937615  1
  O  O26  1  0.728230  0.438531  0.242878  1
  O  O27  1  0.425477  0.379819  0.013225  1
  O  O28  1  0.728230  0.242878  0.590359  1
  O  O29  1  0.754922  0.073606  0.912556  1
  O  O30  1  0.728230  0.590359  0.438531  1
  O  O31  1  0.565579  0.812749  0.610677  1
  O  O32  1  0.754922  0.912556  0.258916  1
  O  O33  1  0.932712  0.696554  0.481982  1
  O  O34  1  0.932712  0.481982  0.888752  1
  O  O35  1  0.932712  0.888752  0.696554  1
