# generated using pymatgen
data_FeCu(PO4)2
_symmetry_space_group_name_H-M   'P 1'
_cell_length_a   8.50202232
_cell_length_b   8.58714795
_cell_length_c   8.58714827
_cell_angle_alpha   59.99999728
_cell_angle_beta   59.66823776
_cell_angle_gamma   59.66823081
_symmetry_Int_Tables_number   1
_chemical_formula_structural   FeCu(PO4)2
_chemical_formula_sum   'Fe3 Cu3 P6 O24'
_cell_volume   441.07151618
_cell_formula_units_Z   3
loop_
 _symmetry_equiv_pos_site_id
 _symmetry_equiv_pos_as_xyz
  1  'x, y, z'
loop_
 _atom_site_type_symbol
 _atom_site_label
 _atom_site_symmetry_multiplicity
 _atom_site_fract_x
 _atom_site_fract_y
 _atom_site_fract_z
 _atom_site_occupancy
  Fe  Fe0  1  0.066362  0.644546  0.644546  1
  Fe  Fe1  1  0.429953  0.856682  0.856682  1
  Fe  Fe2  1  0.931496  0.356168  0.356168  1
  Cu  Cu3  1  0.997573  0.000809  0.000809  1
  Cu  Cu4  1  0.569419  0.143527  0.143527  1
  Cu  Cu5  1  0.498487  0.500504  0.500504  1
  P  P6  1  0.250395  0.249636  0.543908  1
  P  P7  1  0.250395  0.956061  0.249636  1
  P  P8  1  0.250395  0.543908  0.956061  1
  P  P9  1  0.748247  0.456411  0.045072  1
  P  P10  1  0.748247  0.045072  0.750271  1
  P  P11  1  0.748247  0.750271  0.456411  1
  O  O12  1  0.067775  0.113652  0.314663  1
  O  O13  1  0.067775  0.503910  0.113652  1
  O  O14  1  0.067775  0.314663  0.503910  1
  O  O15  1  0.226252  0.087442  0.742770  1
  O  O16  1  0.440279  0.187947  0.388160  1
  O  O17  1  0.269757  0.411822  0.561946  1
  O  O18  1  0.226252  0.943536  0.087442  1
  O  O19  1  0.269757  0.756475  0.411822  1
  O  O20  1  0.565094  0.613809  0.006178  1
  O  O21  1  0.269757  0.561946  0.756475  1
  O  O22  1  0.775764  0.258240  0.052401  1
  O  O23  1  0.565094  0.006178  0.814919  1
  O  O24  1  0.440279  0.983615  0.187947  1
  O  O25  1  0.226252  0.742770  0.943536  1
  O  O26  1  0.726418  0.440965  0.243926  1
  O  O27  1  0.440279  0.388160  0.983615  1
  O  O28  1  0.726418  0.243926  0.588689  1
  O  O29  1  0.775764  0.052401  0.913595  1
  O  O30  1  0.726418  0.588689  0.440965  1
  O  O31  1  0.565094  0.814919  0.613809  1
  O  O32  1  0.775764  0.913595  0.258240  1
  O  O33  1  0.932257  0.682302  0.496668  1
  O  O34  1  0.932257  0.496668  0.888772  1
  O  O35  1  0.932257  0.888772  0.682302  1
