# generated using pymatgen
data_Li4FeO3F
_symmetry_space_group_name_H-M   'P 1'
_cell_length_a   7.82918208
_cell_length_b   5.28221787
_cell_length_c   5.35723813
_cell_angle_alpha   66.74736404
_cell_angle_beta   70.40743419
_cell_angle_gamma   83.30448007
_symmetry_Int_Tables_number   1
_chemical_formula_structural   Li4FeO3F
_chemical_formula_sum   'Li8 Fe2 O6 F2'
_cell_volume   191.73750712
_cell_formula_units_Z   2
loop_
 _symmetry_equiv_pos_site_id
 _symmetry_equiv_pos_as_xyz
  1  'x, y, z'
loop_
 _atom_site_type_symbol
 _atom_site_label
 _atom_site_symmetry_multiplicity
 _atom_site_fract_x
 _atom_site_fract_y
 _atom_site_fract_z
 _atom_site_occupancy
  Li  Li0  1  0.078431  0.239382  0.971026  1
  Li  Li1  1  0.083097  0.743338  0.410735  1
  Li  Li2  1  0.285122  0.783595  0.890865  1
  Li  Li3  1  0.495750  0.253301  0.762414  1
  Li  Li4  1  0.499648  0.762291  0.263431  1
  Li  Li5  1  0.720847  0.215116  0.092467  1
  Li  Li6  1  0.918254  0.256262  0.598482  1
  Li  Li7  1  0.948138  0.739669  0.981418  1
  Fe  Fe8  1  0.262007  0.219155  0.332890  1
  Fe  Fe9  1  0.711003  0.764985  0.695172  1
  O  O10  1  0.121194  0.029031  0.704553  1
  O  O11  1  0.103389  0.493165  0.200900  1
  O  O12  1  0.302383  0.997940  0.122550  1
  O  O13  1  0.508075  0.657183  0.660685  1
  O  O14  1  0.693428  0.001937  0.884816  1
  O  O15  1  0.889690  0.511239  0.797808  1
  F  F16  1  0.500912  0.342532  0.330079  1
  F  F17  1  0.878634  0.989879  0.299711  1
