# generated using pymatgen
data_Li6MnNi7O16
_symmetry_space_group_name_H-M   'P 1'
_cell_length_a   7.57615538
_cell_length_b   6.41620846
_cell_length_c   12.71086779
_cell_angle_alpha   99.12609308
_cell_angle_beta   84.66759579
_cell_angle_gamma   65.85335753
_symmetry_Int_Tables_number   1
_chemical_formula_structural   Li6MnNi7O16
_chemical_formula_sum   'Li12 Mn2 Ni14 O32'
_cell_volume   548.07055375
_cell_formula_units_Z   2
loop_
 _symmetry_equiv_pos_site_id
 _symmetry_equiv_pos_as_xyz
  1  'x, y, z'
loop_
 _atom_site_type_symbol
 _atom_site_label
 _atom_site_symmetry_multiplicity
 _atom_site_fract_x
 _atom_site_fract_y
 _atom_site_fract_z
 _atom_site_occupancy
  Li  Li0  1  0.048005  0.399434  0.096671  1
  Li  Li1  1  0.186488  0.212253  0.278239  1
  Li  Li2  1  0.324256  0.029335  0.469064  1
  Li  Li3  1  0.064303  0.900968  0.596516  1
  Li  Li4  1  0.453187  0.351847  0.152035  1
  Li  Li5  1  0.315500  0.533978  0.966884  1
  Li  Li6  1  0.573594  0.160922  0.342802  1
  Li  Li7  1  0.430802  0.843523  0.655088  1
  Li  Li8  1  0.555524  0.654880  0.847144  1
  Li  Li9  1  0.930140  0.100067  0.406210  1
  Li  Li10  1  0.814689  0.779388  0.715512  1
  Li  Li11  1  0.941079  0.599694  0.905730  1
  Mn  Mn12  1  0.877025  0.187833  0.814337  1
  Mn  Mn13  1  0.875158  0.688174  0.313257  1
  Ni  Ni14  1  0.122758  0.320831  0.689392  1
  Ni  Ni15  1  0.252202  0.119519  0.874470  1
  Ni  Ni16  1  0.123557  0.816724  0.188977  1
  Ni  Ni17  1  0.249504  0.625478  0.374492  1
  Ni  Ni18  1  0.372491  0.439925  0.562850  1
  Ni  Ni19  1  0.501812  0.249073  0.749372  1
  Ni  Ni20  1  0.376355  0.937831  0.063008  1
  Ni  Ni21  1  0.622425  0.065308  0.937563  1
  Ni  Ni22  1  0.501474  0.745254  0.249017  1
  Ni  Ni23  1  0.622809  0.567251  0.439050  1
  Ni  Ni24  1  0.753333  0.366454  0.622978  1
  Ni  Ni25  1  0.751182  0.871573  0.124069  1
  Ni  Ni26  1  0.998872  0.999075  0.999583  1
  Ni  Ni27  1  0.998890  0.497853  0.498850  1
  O  O28  1  0.015126  0.230734  0.547022  1
  O  O29  1  0.116468  0.083617  0.136549  1
  O  O30  1  0.141378  0.042867  0.734523  1
  O  O31  1  0.013967  0.729571  0.048873  1
  O  O32  1  0.139691  0.535738  0.234860  1
  O  O33  1  0.094073  0.583130  0.623326  1
  O  O34  1  0.363463  0.213866  0.013248  1
  O  O35  1  0.260496  0.353047  0.423397  1
  O  O36  1  0.234989  0.387943  0.826772  1
  O  O37  1  0.489397  0.013577  0.200933  1
  O  O38  1  0.380739  0.174466  0.614524  1
  O  O39  1  0.229955  0.899554  0.327831  1
  O  O40  1  0.382304  0.669877  0.116309  1
  O  O41  1  0.352253  0.713152  0.516081  1
  O  O42  1  0.267185  0.858295  0.930460  1
  O  O43  1  0.509792  0.484647  0.301996  1
  O  O44  1  0.494372  0.512943  0.698654  1
  O  O45  1  0.637014  0.301155  0.484984  1
  O  O46  1  0.722938  0.131443  0.061063  1
  O  O47  1  0.609061  0.332603  0.886875  1
  O  O48  1  0.782162  0.102439  0.684941  1
  O  O49  1  0.607844  0.831802  0.386152  1
  O  O50  1  0.525811  0.982693  0.807491  1
  O  O51  1  0.781972  0.608956  0.185344  1
  O  O52  1  0.636462  0.799981  0.982987  1
  O  O53  1  0.738917  0.636541  0.575768  1
  O  O54  1  0.904648  0.416108  0.373770  1
  O  O55  1  0.860961  0.464109  0.767267  1
  O  O56  1  0.982181  0.263820  0.942417  1
  O  O57  1  0.860218  0.958799  0.267866  1
  O  O58  1  0.983073  0.762227  0.444488  1
  O  O59  1  0.879298  0.917810  0.861019  1
