# generated using pymatgen
data_Ba3La2Cl12
_symmetry_space_group_name_H-M   'P 1'
_cell_length_a   8.99773312
_cell_length_b   8.99773302
_cell_length_c   15.97292682
_cell_angle_alpha   79.19103555
_cell_angle_beta   100.80896229
_cell_angle_gamma   70.07143699
_symmetry_Int_Tables_number   1
_chemical_formula_structural   Ba3La2Cl12
_chemical_formula_sum   'Ba6 La4 Cl24'
_cell_volume   1149.02432797
_cell_formula_units_Z   2
loop_
 _symmetry_equiv_pos_site_id
 _symmetry_equiv_pos_as_xyz
  1  'x, y, z'
loop_
 _atom_site_type_symbol
 _atom_site_label
 _atom_site_symmetry_multiplicity
 _atom_site_fract_x
 _atom_site_fract_y
 _atom_site_fract_z
 _atom_site_occupancy
  Ba  Ba0  1  0.119839  0.119839  0.250000  1
  Ba  Ba1  1  0.206150  0.540737  0.420070  1
  Ba  Ba2  1  0.459263  0.793850  0.920070  1
  Ba  Ba3  1  0.540737  0.206150  0.079930  1
  Ba  Ba4  1  0.793850  0.459263  0.579930  1
  Ba  Ba5  1  0.880161  0.880161  0.750000  1
  La  La6  1  0.040805  0.709255  0.089965  1
  La  La7  1  0.290745  0.959195  0.589965  1
  La  La8  1  0.709255  0.040805  0.410035  1
  La  La9  1  0.959195  0.290745  0.910035  1
  Cl  Cl10  1  0.304997  0.174354  0.917125  1
  Cl  Cl11  1  0.132910  0.331039  0.073360  1
  Cl  Cl12  1  0.174354  0.304997  0.582875  1
  Cl  Cl13  1  0.242030  0.766481  0.739785  1
  Cl  Cl14  1  0.037067  0.494473  0.242654  1
  Cl  Cl15  1  0.082236  0.931190  0.925294  1
  Cl  Cl16  1  0.331039  0.132910  0.426640  1
  Cl  Cl17  1  0.068810  0.917764  0.425294  1
  Cl  Cl18  1  0.233519  0.757970  0.239785  1
  Cl  Cl19  1  0.635384  0.424196  0.930067  1
  Cl  Cl20  1  0.494473  0.037067  0.257346  1
  Cl  Cl21  1  0.424196  0.635384  0.569933  1
  Cl  Cl22  1  0.575804  0.364616  0.430067  1
  Cl  Cl23  1  0.505527  0.962933  0.742654  1
  Cl  Cl24  1  0.364616  0.575804  0.069933  1
  Cl  Cl25  1  0.766481  0.242030  0.760215  1
  Cl  Cl26  1  0.931190  0.082236  0.574706  1
  Cl  Cl27  1  0.668961  0.867090  0.573360  1
  Cl  Cl28  1  0.917764  0.068810  0.074706  1
  Cl  Cl29  1  0.962933  0.505527  0.757346  1
  Cl  Cl30  1  0.757970  0.233519  0.260215  1
  Cl  Cl31  1  0.825646  0.695003  0.417125  1
  Cl  Cl32  1  0.867090  0.668961  0.926640  1
  Cl  Cl33  1  0.695003  0.825646  0.082875  1
