# generated using pymatgen
data_Li2VO2F
_symmetry_space_group_name_H-M   'P 1'
_cell_length_a   6.02185483
_cell_length_b   6.01777326
_cell_length_c   7.94044662
_cell_angle_alpha   101.07646342
_cell_angle_beta   67.70488609
_cell_angle_gamma   120.03694880
_symmetry_Int_Tables_number   1
_chemical_formula_structural   Li2VO2F
_chemical_formula_sum   'Li8 V4 O8 F4'
_cell_volume   230.48016409
_cell_formula_units_Z   4
loop_
 _symmetry_equiv_pos_site_id
 _symmetry_equiv_pos_as_xyz
  1  'x, y, z'
loop_
 _atom_site_type_symbol
 _atom_site_label
 _atom_site_symmetry_multiplicity
 _atom_site_fract_x
 _atom_site_fract_y
 _atom_site_fract_z
 _atom_site_occupancy
  Li  Li0  1  0.128950  0.848522  0.138036  1
  Li  Li1  1  0.089238  0.333489  0.154985  1
  Li  Li2  1  0.581636  0.848597  0.137955  1
  Li  Li3  1  0.582594  0.302176  0.137198  1
  Li  Li4  1  0.415824  0.688255  0.856495  1
  Li  Li5  1  0.417362  0.155842  0.857457  1
  Li  Li6  1  0.907040  0.665356  0.851472  1
  Li  Li7  1  0.881181  0.155938  0.857323  1
  V  V8  1  0.239712  0.496406  0.506595  1
  V  V9  1  0.251877  0.000438  0.496517  1
  V  V10  1  0.750052  0.496482  0.506566  1
  V  V11  1  0.749429  0.007478  0.508431  1
  O  O12  1  0.153051  0.658887  0.352820  1
  O  O13  1  0.151337  0.169757  0.353306  1
  O  O14  1  0.344164  0.831130  0.644947  1
  O  O15  1  0.346762  0.337869  0.644188  1
  O  O16  1  0.500599  0.998414  0.997310  1
  O  O17  1  0.842072  0.831318  0.644813  1
  O  O18  1  0.664833  0.169644  0.353299  1
  O  O19  1  0.839467  0.336879  0.657568  1
  F  F20  1  0.998332  0.500861  0.002911  1
  F  F21  1  0.998719  0.998246  0.001017  1
  F  F22  1  0.500060  0.500951  0.003034  1
  F  F23  1  0.665669  0.667065  0.335757  1
