# generated using pymatgen
data_Mn6O5F7
_symmetry_space_group_name_H-M   'P 1'
_cell_length_a   7.17494312
_cell_length_b   5.72129703
_cell_length_c   5.72129703
_cell_angle_alpha   75.45102536
_cell_angle_beta   74.32460426
_cell_angle_gamma   74.32460426
_symmetry_Int_Tables_number   1
_chemical_formula_structural   Mn6O5F7
_chemical_formula_sum   'Mn6 O5 F7'
_cell_volume   213.65335158
_cell_formula_units_Z   1
loop_
 _symmetry_equiv_pos_site_id
 _symmetry_equiv_pos_as_xyz
  1  'x, y, z'
loop_
 _atom_site_type_symbol
 _atom_site_label
 _atom_site_symmetry_multiplicity
 _atom_site_fract_x
 _atom_site_fract_y
 _atom_site_fract_z
 _atom_site_occupancy
  Mn  Mn0  1  0.833333  0.667777  0.665556  1
  Mn  Mn1  1  0.678693  0.330609  0.337456  1
  Mn  Mn2  1  0.333333  0.687418  0.645915  1
  Mn  Mn3  1  0.163660  0.304346  0.326979  1
  Mn  Mn4  1  0.503007  0.006354  0.028988  1
  Mn  Mn5  1  0.987973  0.995877  0.002724  1
  O  O6  1  0.634596  0.567082  0.553816  1
  O  O7  1  0.965274  0.217882  0.228735  1
  O  O8  1  0.701393  0.104599  0.115451  1
  O  O9  1  0.032071  0.779517  0.766251  1
  O  O10  1  0.333333  0.980137  0.353197  1
  F  F11  1  0.652367  0.025542  0.666997  1
  F  F12  1  0.333333  0.385347  0.947987  1
  F  F13  1  0.294079  0.915576  0.913009  1
  F  F14  1  0.372588  0.420324  0.417757  1
  F  F15  1  0.664178  0.636525  0.024580  1
  F  F16  1  0.002489  0.308753  0.696808  1
  F  F17  1  0.014300  0.666336  0.307792  1
