# generated using pymatgen
data_Li4Mn3Fe(BO3)4
_symmetry_space_group_name_H-M   'P 1'
_cell_length_a   6.05099129
_cell_length_b   5.24173591
_cell_length_c   16.29698929
_cell_angle_alpha   90.90809277
_cell_angle_beta   98.08210635
_cell_angle_gamma   89.26555605
_symmetry_Int_Tables_number   1
_chemical_formula_structural   Li4Mn3Fe(BO3)4
_chemical_formula_sum   'Li8 Mn6 Fe2 B8 O24'
_cell_volume   511.67535343
_cell_formula_units_Z   2
loop_
 _symmetry_equiv_pos_site_id
 _symmetry_equiv_pos_as_xyz
  1  'x, y, z'
loop_
 _atom_site_type_symbol
 _atom_site_label
 _atom_site_symmetry_multiplicity
 _atom_site_fract_x
 _atom_site_fract_y
 _atom_site_fract_z
 _atom_site_occupancy
  Li  Li0  1  0.064413  0.846955  0.611425  1
  Li  Li1  1  0.435646  0.152815  0.890814  1
  Li  Li2  1  0.185587  0.653045  0.138575  1
  Li  Li3  1  0.314092  0.348365  0.359277  1
  Li  Li4  1  0.686758  0.652473  0.642367  1
  Li  Li5  1  0.814354  0.347185  0.859186  1
  Li  Li6  1  0.563242  0.847527  0.107633  1
  Li  Li7  1  0.935908  0.151635  0.390723  1
  Mn  Mn8  1  0.023976  0.169321  0.209869  1
  Mn  Mn9  1  0.226024  0.330679  0.540131  1
  Mn  Mn10  1  0.526057  0.167461  0.710058  1
  Mn  Mn11  1  0.475164  0.830529  0.289815  1
  Mn  Mn12  1  0.774836  0.669471  0.460185  1
  Mn  Mn13  1  0.723943  0.332539  0.039942  1
  Fe  Fe14  1  0.271208  0.663994  0.957274  1
  Fe  Fe15  1  0.978792  0.836006  0.792726  1
  B  B16  1  0.037688  0.328031  0.703980  1
  B  B17  1  0.285462  0.830674  0.452497  1
  B  B18  1  0.463811  0.668143  0.798282  1
  B  B19  1  0.212312  0.171969  0.046020  1
  B  B20  1  0.786189  0.831857  0.951718  1
  B  B21  1  0.534351  0.330958  0.201787  1
  B  B22  1  0.715649  0.169042  0.548213  1
  B  B23  1  0.964538  0.669326  0.297503  1
  O  O24  1  0.011461  0.587489  0.693341  1
  O  O25  1  0.169813  0.183290  0.655873  1
  O  O26  1  0.169428  0.714023  0.509657  1
  O  O27  1  0.325213  0.299063  0.989563  1
  O  O28  1  0.080572  0.785977  0.240343  1
  O  O29  1  0.330826  0.816610  0.845949  1
  O  O30  1  0.080187  0.316710  0.094127  1
  O  O31  1  0.263506  0.090251  0.438605  1
  O  O32  1  0.487504  0.408355  0.811280  1
  O  O33  1  0.238539  0.912511  0.056659  1
  O  O34  1  0.419204  0.680970  0.406151  1
  O  O35  1  0.418869  0.213843  0.258862  1
  O  O36  1  0.576784  0.786141  0.741025  1
  O  O37  1  0.581970  0.318997  0.594537  1
  O  O38  1  0.762496  0.091645  0.938720  1
  O  O39  1  0.512365  0.590712  0.187899  1
  O  O40  1  0.737635  0.909288  0.562101  1
  O  O41  1  0.919174  0.683390  0.904051  1
  O  O42  1  0.668030  0.181003  0.155464  1
  O  O43  1  0.924786  0.200937  0.760437  1
  O  O44  1  0.673216  0.713859  0.008975  1
  O  O45  1  0.831131  0.286157  0.491138  1
  O  O46  1  0.830796  0.819030  0.343849  1
  O  O47  1  0.986494  0.409749  0.311395  1
