# generated using pymatgen
data_V2O5
_symmetry_space_group_name_H-M   'P 1'
_cell_length_a   7.96492189
_cell_length_b   6.61126625
_cell_length_c   7.60255874
_cell_angle_alpha   90.00000000
_cell_angle_beta   90.00000000
_cell_angle_gamma   90.00000000
_symmetry_Int_Tables_number   1
_chemical_formula_structural   V2O5
_chemical_formula_sum   'V8 O20'
_cell_volume   400.33720518
_cell_formula_units_Z   4
loop_
 _symmetry_equiv_pos_site_id
 _symmetry_equiv_pos_as_xyz
  1  'x, y, z'
loop_
 _atom_site_type_symbol
 _atom_site_label
 _atom_site_symmetry_multiplicity
 _atom_site_fract_x
 _atom_site_fract_y
 _atom_site_fract_z
 _atom_site_occupancy
  V  V0  1  0.169093  0.250000  0.739412  1
  V  V1  1  0.330907  0.750000  0.239412  1
  V  V2  1  0.669093  0.250000  0.760588  1
  V  V3  1  0.830907  0.750000  0.260588  1
  V  V4  1  0.119486  0.750000  0.623654  1
  V  V5  1  0.380514  0.250000  0.123654  1
  V  V6  1  0.619486  0.750000  0.876346  1
  V  V7  1  0.880514  0.250000  0.376346  1
  O  O8  1  0.054477  0.250000  0.511507  1
  O  O9  1  0.136987  0.750000  0.172606  1
  O  O10  1  0.122863  0.531028  0.751959  1
  O  O11  1  0.122863  0.968972  0.751959  1
  O  O12  1  0.206192  0.250000  0.984637  1
  O  O13  1  0.293808  0.750000  0.484637  1
  O  O14  1  0.377137  0.031028  0.251959  1
  O  O15  1  0.377137  0.468972  0.251959  1
  O  O16  1  0.363013  0.250000  0.672606  1
  O  O17  1  0.445523  0.750000  0.011507  1
  O  O18  1  0.554477  0.250000  0.988493  1
  O  O19  1  0.636987  0.750000  0.327394  1
  O  O20  1  0.622863  0.531028  0.748041  1
  O  O21  1  0.622863  0.968972  0.748041  1
  O  O22  1  0.706192  0.250000  0.515363  1
  O  O23  1  0.793808  0.750000  0.015363  1
  O  O24  1  0.877137  0.031028  0.248041  1
  O  O25  1  0.877137  0.468972  0.248041  1
  O  O26  1  0.863013  0.250000  0.827394  1
  O  O27  1  0.945523  0.750000  0.488493  1
