# generated using pymatgen
data_Li2MnCSO7
_symmetry_space_group_name_H-M   'P 1'
_cell_length_a   9.35344009
_cell_length_b   6.49271249
_cell_length_c   4.93651621
_cell_angle_alpha   90.00000000
_cell_angle_beta   82.02407067
_cell_angle_gamma   90.00000000
_symmetry_Int_Tables_number   1
_chemical_formula_structural   Li2MnCSO7
_chemical_formula_sum   'Li4 Mn2 C2 S2 O14'
_cell_volume   296.89062678
_cell_formula_units_Z   2
loop_
 _symmetry_equiv_pos_site_id
 _symmetry_equiv_pos_as_xyz
  1  'x, y, z'
loop_
 _atom_site_type_symbol
 _atom_site_label
 _atom_site_symmetry_multiplicity
 _atom_site_fract_x
 _atom_site_fract_y
 _atom_site_fract_z
 _atom_site_occupancy
  Li  Li0  1  0.164504  0.514570  0.207215  1
  Li  Li1  1  0.164504  0.985430  0.207215  1
  Li  Li2  1  0.835496  0.014570  0.792785  1
  Li  Li3  1  0.835496  0.485430  0.792785  1
  Mn  Mn4  1  0.362507  0.750000  0.748380  1
  Mn  Mn5  1  0.637493  0.250000  0.251620  1
  C  C6  1  0.075989  0.750000  0.725006  1
  C  C7  1  0.924011  0.250000  0.274994  1
  S  S8  1  0.400725  0.250000  0.772013  1
  S  S9  1  0.599275  0.750000  0.227987  1
  O  O10  1  0.057823  0.250000  0.306834  1
  O  O11  1  0.117384  0.750000  0.966772  1
  O  O12  1  0.178669  0.750000  0.512219  1
  O  O13  1  0.314967  0.065721  0.874283  1
  O  O14  1  0.314967  0.434279  0.874283  1
  O  O15  1  0.454938  0.750000  0.137422  1
  O  O16  1  0.422336  0.250000  0.465805  1
  O  O17  1  0.577664  0.750000  0.534195  1
  O  O18  1  0.545062  0.250000  0.862578  1
  O  O19  1  0.685033  0.565721  0.125717  1
  O  O20  1  0.685033  0.934279  0.125717  1
  O  O21  1  0.821331  0.250000  0.487781  1
  O  O22  1  0.882616  0.250000  0.033228  1
  O  O23  1  0.942177  0.750000  0.693166  1
