# generated using pymatgen
data_Na3MgPCO7
_symmetry_space_group_name_H-M   'P 1'
_cell_length_a   8.92754214
_cell_length_b   6.68605082
_cell_length_c   5.18660179
_cell_angle_alpha   90.00000000
_cell_angle_beta   89.63557523
_cell_angle_gamma   90.00000000
_symmetry_Int_Tables_number   1
_chemical_formula_structural   Na3MgPCO7
_chemical_formula_sum   'Na6 Mg2 P2 C2 O14'
_cell_volume   309.58200127
_cell_formula_units_Z   2
loop_
 _symmetry_equiv_pos_site_id
 _symmetry_equiv_pos_as_xyz
  1  'x, y, z'
loop_
 _atom_site_type_symbol
 _atom_site_label
 _atom_site_symmetry_multiplicity
 _atom_site_fract_x
 _atom_site_fract_y
 _atom_site_fract_z
 _atom_site_occupancy
  Na  Na0  1  0.083269  0.250000  0.760409  1
  Na  Na1  1  0.261707  0.003738  0.249782  1
  Na  Na2  1  0.261707  0.496262  0.249782  1
  Na  Na3  1  0.738293  0.503738  0.750218  1
  Na  Na4  1  0.738293  0.996262  0.750218  1
  Na  Na5  1  0.916731  0.750000  0.239591  1
  Mg  Mg6  1  0.355945  0.750000  0.786202  1
  Mg  Mg7  1  0.644055  0.250000  0.213798  1
  P  P8  1  0.415505  0.250000  0.703320  1
  P  P9  1  0.584495  0.750000  0.296680  1
  C  C10  1  0.064279  0.750000  0.735267  1
  C  C11  1  0.935721  0.250000  0.264733  1
  O  O12  1  0.080131  0.250000  0.285738  1
  O  O13  1  0.127164  0.750000  0.961171  1
  O  O14  1  0.150181  0.750000  0.531368  1
  O  O15  1  0.320940  0.062940  0.778007  1
  O  O16  1  0.320940  0.437060  0.778007  1
  O  O17  1  0.443662  0.250000  0.405609  1
  O  O18  1  0.431047  0.750000  0.158567  1
  O  O19  1  0.568953  0.250000  0.841433  1
  O  O20  1  0.556338  0.750000  0.594391  1
  O  O21  1  0.679060  0.562940  0.221993  1
  O  O22  1  0.679060  0.937060  0.221993  1
  O  O23  1  0.849819  0.250000  0.468632  1
  O  O24  1  0.872836  0.250000  0.038829  1
  O  O25  1  0.919869  0.750000  0.714262  1
