# generated using pymatgen
data_Li5V3P8O29
_symmetry_space_group_name_H-M   'P 1'
_cell_length_a   9.78692530
_cell_length_b   9.80251102
_cell_length_c   14.08415753
_cell_angle_alpha   90.25907490
_cell_angle_beta   90.75809635
_cell_angle_gamma   60.31417650
_symmetry_Int_Tables_number   1
_chemical_formula_structural   Li5V3P8O29
_chemical_formula_sum   'Li10 V6 P16 O58'
_cell_volume   1173.74063255
_cell_formula_units_Z   2
loop_
 _symmetry_equiv_pos_site_id
 _symmetry_equiv_pos_as_xyz
  1  'x, y, z'
loop_
 _atom_site_type_symbol
 _atom_site_label
 _atom_site_symmetry_multiplicity
 _atom_site_fract_x
 _atom_site_fract_y
 _atom_site_fract_z
 _atom_site_occupancy
  Li  Li0  1  0.772491  0.908469  0.556463  1
  Li  Li1  1  0.916778  0.313832  0.560910  1
  Li  Li2  1  0.677331  0.670736  0.890970  1
  Li  Li3  1  0.769578  0.320486  0.061724  1
  Li  Li4  1  0.327906  0.905277  0.064120  1
  Li  Li5  1  0.681129  0.230823  0.435904  1
  Li  Li6  1  0.323079  0.772073  0.557715  1
  Li  Li7  1  0.668527  0.095194  0.940900  1
  Li  Li8  1  0.094715  0.681347  0.435313  1
  Li  Li9  1  0.035616  0.945084  0.999941  1
  V  V10  1  0.566401  0.437158  0.245680  1
  V  V11  1  0.426807  0.567472  0.751813  1
  V  V12  1  0.566539  0.000490  0.745861  1
  V  V13  1  0.427881  0.004743  0.251928  1
  V  V14  1  0.996176  0.567565  0.244269  1
  V  V15  1  0.004554  0.433361  0.756754  1
  P  P16  1  0.913857  0.781458  0.840916  1
  P  P17  1  0.770148  0.912123  0.338293  1
  P  P18  1  0.914339  0.319963  0.344118  1
  P  P19  1  0.660768  0.672232  0.127972  1
  P  P20  1  0.668210  0.661979  0.630712  1
  P  P21  1  0.771802  0.317165  0.842065  1
  P  P22  1  0.679647  0.234015  0.657165  1
  P  P23  1  0.317983  0.908926  0.845084  1
  P  P24  1  0.682395  0.087676  0.155606  1
  P  P25  1  0.323424  0.767276  0.342589  1
  P  P26  1  0.222450  0.690795  0.161208  1
  P  P27  1  0.337549  0.334797  0.369471  1
  P  P28  1  0.339515  0.331492  0.872669  1
  P  P29  1  0.083960  0.681593  0.656279  1
  P  P30  1  0.225135  0.085720  0.662017  1
  P  P31  1  0.081059  0.222578  0.160577  1
  O  O32  1  0.001672  0.758305  0.564691  1
  O  O33  1  0.916782  0.748023  0.339398  1
  O  O34  1  0.763624  0.010277  0.065854  1
  O  O35  1  0.740211  0.921949  0.835289  1
  O  O36  1  0.900689  0.629509  0.834891  1
  O  O37  1  0.802785  0.680246  0.170146  1
  O  O38  1  0.905480  0.478531  0.320262  1
  O  O39  1  0.992622  0.201129  0.080084  1
  O  O40  1  0.911396  0.344779  0.843632  1
  O  O41  1  0.671955  0.813108  0.666611  1
  O  O42  1  0.618630  0.901614  0.319736  1
  O  O43  1  0.816737  0.516477  0.676400  1
  O  O44  1  0.650640  0.675823  0.020979  1
  O  O45  1  0.664029  0.655955  0.525257  1
  O  O46  1  0.672331  0.513709  0.162873  1
  O  O47  1  0.481715  0.893127  0.831180  1
  O  O48  1  0.505579  0.816708  0.167252  1
  O  O49  1  0.746583  0.339243  0.334456  1
  O  O50  1  0.790090  0.212789  0.748612  1
  O  O51  1  0.753412  0.249878  0.568431  1
  O  O52  1  0.761821  0.233781  0.928739  1
  O  O53  1  0.618888  0.480666  0.827553  1
  O  O54  1  0.517805  0.664316  0.674014  1
  O  O55  1  0.658927  0.255710  0.160053  1
  O  O56  1  0.482067  0.622499  0.322837  1
  O  O57  1  0.341956  0.915369  0.334131  1
  O  O58  1  0.790666  0.001176  0.248488  1
  O  O59  1  0.755730  0.002253  0.428002  1
  O  O60  1  0.238610  0.987809  0.578908  1
  O  O61  1  0.664082  0.084507  0.656163  1
  O  O62  1  0.520394  0.381993  0.678118  1
  O  O63  1  0.339949  0.740498  0.829770  1
  O  O64  1  0.487733  0.331261  0.328622  1
  O  O65  1  0.381617  0.536525  0.169185  1
  O  O66  1  0.209057  0.794881  0.080561  1
  O  O67  1  0.249747  0.757774  0.433328  1
  O  O68  1  0.202454  0.787132  0.258439  1
  O  O69  1  0.252283  0.663908  0.660088  1
  O  O70  1  0.487317  0.185002  0.833301  1
  O  O71  1  0.526148  0.087425  0.171938  1
  O  O72  1  0.336384  0.480571  0.822752  1
  O  O73  1  0.342661  0.342342  0.977236  1
  O  O74  1  0.348896  0.316725  0.474474  1
  O  O75  1  0.187291  0.483311  0.332098  1
  O  O76  1  0.379557  0.093553  0.680728  1
  O  O77  1  0.338242  0.184871  0.319855  1
  O  O78  1  0.087122  0.653734  0.164228  1
  O  O79  1  0.990203  0.797100  0.742603  1
  O  O80  1  0.998063  0.800662  0.922814  1
  O  O81  1  0.095826  0.523051  0.674499  1
  O  O82  1  0.188055  0.336046  0.828885  1
  O  O83  1  0.081382  0.377912  0.166319  1
  O  O84  1  0.254773  0.081584  0.162099  1
  O  O85  1  0.239237  0.973762  0.937078  1
  O  O86  1  0.204070  0.009719  0.759574  1
  O  O87  1  0.082796  0.252198  0.661857  1
  O  O88  1  0.988397  0.253550  0.437261  1
  O  O89  1  0.012132  0.201114  0.259989  1
