# generated using pymatgen
data_Sr2FeCO3F5
_symmetry_space_group_name_H-M   'P 1'
_cell_length_a   5.61221316
_cell_length_b   8.94766329
_cell_length_c   13.57023682
_cell_angle_alpha   90.00000000
_cell_angle_beta   98.13934710
_cell_angle_gamma   90.00000000
_symmetry_Int_Tables_number   1
_chemical_formula_structural   Sr2FeCO3F5
_chemical_formula_sum   'Sr8 Fe4 C4 O12 F20'
_cell_volume   674.58120848
_cell_formula_units_Z   4
loop_
 _symmetry_equiv_pos_site_id
 _symmetry_equiv_pos_as_xyz
  1  'x, y, z'
loop_
 _atom_site_type_symbol
 _atom_site_label
 _atom_site_symmetry_multiplicity
 _atom_site_fract_x
 _atom_site_fract_y
 _atom_site_fract_z
 _atom_site_occupancy
  Sr  Sr0  1  0.211901  0.890653  0.902971  1
  Sr  Sr1  1  0.221797  0.359670  0.914114  1
  Sr  Sr2  1  0.278203  0.859670  0.585886  1
  Sr  Sr3  1  0.288098  0.390653  0.597029  1
  Sr  Sr4  1  0.711901  0.609347  0.402971  1
  Sr  Sr5  1  0.721797  0.140330  0.414114  1
  Sr  Sr6  1  0.778203  0.640330  0.085886  1
  Sr  Sr7  1  0.788099  0.109347  0.097029  1
  Fe  Fe8  1  0.137850  0.871827  0.327750  1
  Fe  Fe9  1  0.362150  0.371827  0.172250  1
  Fe  Fe10  1  0.637850  0.628173  0.827750  1
  Fe  Fe11  1  0.862150  0.128173  0.672250  1
  C  C12  1  0.182872  0.375979  0.364684  1
  C  C13  1  0.317128  0.875979  0.135316  1
  C  C14  1  0.682872  0.124021  0.864684  1
  C  C15  1  0.817128  0.624021  0.635316  1
  O  O16  1  0.004039  0.380132  0.416060  1
  O  O17  1  0.133182  0.370169  0.268045  1
  O  O18  1  0.097848  0.877656  0.090204  1
  O  O19  1  0.504039  0.119869  0.916060  1
  O  O20  1  0.402152  0.377656  0.409796  1
  O  O21  1  0.366818  0.870169  0.231955  1
  O  O22  1  0.633182  0.129831  0.768045  1
  O  O23  1  0.597848  0.622344  0.590204  1
  O  O24  1  0.495961  0.880131  0.083940  1
  O  O25  1  0.902152  0.122344  0.909796  1
  O  O26  1  0.866818  0.629831  0.731955  1
  O  O27  1  0.995961  0.619869  0.583940  1
  F  F28  1  0.059611  0.962710  0.727665  1
  F  F29  1  0.071515  0.283142  0.736240  1
  F  F30  1  0.092054  0.129908  0.566734  1
  F  F31  1  0.407946  0.629908  0.933266  1
  F  F32  1  0.166022  0.512823  0.084581  1
  F  F33  1  0.309736  0.717353  0.415738  1
  F  F34  1  0.428485  0.783142  0.763760  1
  F  F35  1  0.440389  0.462710  0.772335  1
  F  F36  1  0.190264  0.217353  0.084262  1
  F  F37  1  0.333978  0.012823  0.415419  1
  F  F38  1  0.666022  0.987177  0.584581  1
  F  F39  1  0.809736  0.782647  0.915738  1
  F  F40  1  0.559611  0.537290  0.227665  1
  F  F41  1  0.571515  0.216858  0.236240  1
  F  F42  1  0.690264  0.282647  0.584262  1
  F  F43  1  0.833978  0.487177  0.915419  1
  F  F44  1  0.592054  0.370092  0.066734  1
  F  F45  1  0.907946  0.870092  0.433266  1
  F  F46  1  0.928485  0.716858  0.263760  1
  F  F47  1  0.940389  0.037290  0.272335  1
