# generated using pymatgen
data_Fe5O3F7
_symmetry_space_group_name_H-M   'P 1'
_cell_length_a   4.79750715
_cell_length_b   4.79750715
_cell_length_c   15.68223091
_cell_angle_alpha   89.69444144
_cell_angle_beta   89.69444144
_cell_angle_gamma   91.39171291
_symmetry_Int_Tables_number   1
_chemical_formula_structural   Fe5O3F7
_chemical_formula_sum   'Fe10 O6 F14'
_cell_volume   360.82640854
_cell_formula_units_Z   2
loop_
 _symmetry_equiv_pos_site_id
 _symmetry_equiv_pos_as_xyz
  1  'x, y, z'
loop_
 _atom_site_type_symbol
 _atom_site_label
 _atom_site_symmetry_multiplicity
 _atom_site_fract_x
 _atom_site_fract_y
 _atom_site_fract_z
 _atom_site_occupancy
  Fe  Fe0  1  0.979052  0.954002  0.993979  1
  Fe  Fe1  1  0.034259  0.034571  0.199207  1
  Fe  Fe2  1  0.965429  0.965741  0.400794  1
  Fe  Fe3  1  0.045998  0.020948  0.606021  1
  Fe  Fe4  1  0.028939  0.971061  0.800000  1
  Fe  Fe5  1  0.500594  0.493098  0.100793  1
  Fe  Fe6  1  0.506902  0.499406  0.499207  1
  Fe  Fe7  1  0.500981  0.499019  0.300000  1
  Fe  Fe8  1  0.473927  0.514144  0.695234  1
  Fe  Fe9  1  0.485856  0.526073  0.904766  1
  O  O10  1  0.189998  0.819837  0.700546  1
  O  O11  1  0.180163  0.810002  0.899454  1
  O  O12  1  0.332925  0.330374  0.200242  1
  O  O13  1  0.310338  0.310395  0.589640  1
  O  O14  1  0.689605  0.689662  0.010360  1
  O  O15  1  0.669626  0.667075  0.399758  1
  F  F16  1  0.198556  0.798441  0.096355  1
  F  F17  1  0.205557  0.794443  0.300000  1
  F  F18  1  0.201559  0.801444  0.503645  1
  F  F19  1  0.282894  0.283665  0.009209  1
  F  F20  1  0.288712  0.286532  0.398196  1
  F  F21  1  0.292943  0.302043  0.802603  1
  F  F22  1  0.713468  0.711288  0.201804  1
  F  F23  1  0.716335  0.717106  0.590791  1
  F  F24  1  0.697957  0.707057  0.797397  1
  F  F25  1  0.802899  0.195711  0.094980  1
  F  F26  1  0.804289  0.197101  0.505020  1
  F  F27  1  0.795277  0.204723  0.300000  1
  F  F28  1  0.795196  0.190233  0.898933  1
  F  F29  1  0.809767  0.204804  0.701067  1
