# generated using pymatgen
data_LiCuPO4
_symmetry_space_group_name_H-M   'P 1'
_cell_length_a   6.31360727
_cell_length_b   9.43221471
_cell_length_c   5.95055290
_cell_angle_alpha   96.61890518
_cell_angle_beta   99.61476889
_cell_angle_gamma   73.24257021
_symmetry_Int_Tables_number   1
_chemical_formula_structural   LiCuPO4
_chemical_formula_sum   'Li4 Cu4 P4 O16'
_cell_volume   333.70213019
_cell_formula_units_Z   4
loop_
 _symmetry_equiv_pos_site_id
 _symmetry_equiv_pos_as_xyz
  1  'x, y, z'
loop_
 _atom_site_type_symbol
 _atom_site_label
 _atom_site_symmetry_multiplicity
 _atom_site_fract_x
 _atom_site_fract_y
 _atom_site_fract_z
 _atom_site_occupancy
  Li  Li0  1  0.179984  0.291973  0.568919  1
  Li  Li1  1  0.343949  0.673870  0.431376  1
  Li  Li2  1  0.656051  0.326130  0.568624  1
  Li  Li3  1  0.820016  0.708027  0.431081  1
  Cu  Cu4  1  0.107017  0.719958  0.979252  1
  Cu  Cu5  1  0.343782  0.946270  0.800729  1
  Cu  Cu6  1  0.656218  0.053730  0.199271  1
  Cu  Cu7  1  0.892983  0.280042  0.020748  1
  P  P8  1  0.292612  0.384002  0.127878  1
  P  P9  1  0.186569  0.004189  0.286078  1
  P  P10  1  0.813431  0.995811  0.713922  1
  P  P11  1  0.707388  0.615998  0.872122  1
  O  O12  1  0.253424  0.064289  0.529854  1
  O  O13  1  0.102692  0.358708  0.250700  1
  O  O14  1  0.265547  0.330438  0.878276  1
  O  O15  1  0.054610  0.897971  0.803431  1
  O  O16  1  0.350185  0.024980  0.131350  1
  O  O17  1  0.276310  0.553930  0.164376  1
  O  O18  1  0.185476  0.840811  0.271217  1
  O  O19  1  0.479592  0.695833  0.734096  1
  O  O20  1  0.520408  0.304167  0.265904  1
  O  O21  1  0.814524  0.159189  0.728783  1
  O  O22  1  0.723690  0.446070  0.835624  1
  O  O23  1  0.649815  0.975020  0.868650  1
  O  O24  1  0.945390  0.102029  0.196569  1
  O  O25  1  0.734453  0.669562  0.121724  1
  O  O26  1  0.897308  0.641292  0.749300  1
  O  O27  1  0.746576  0.935711  0.470146  1
