# generated using pymatgen
data_RbB5(H2O3)4
_symmetry_space_group_name_H-M   'P 1'
_cell_length_a   13.97249467
_cell_length_b   8.62377139
_cell_length_c   8.62377139
_cell_angle_alpha   95.63904977
_cell_angle_beta   90.00000000
_cell_angle_gamma   90.00000000
_symmetry_Int_Tables_number   1
_chemical_formula_structural   RbB5(H2O3)4
_chemical_formula_sum   'Rb2 B10 H16 O24'
_cell_volume   1034.09782024
_cell_formula_units_Z   2
loop_
 _symmetry_equiv_pos_site_id
 _symmetry_equiv_pos_as_xyz
  1  'x, y, z'
loop_
 _atom_site_type_symbol
 _atom_site_label
 _atom_site_symmetry_multiplicity
 _atom_site_fract_x
 _atom_site_fract_y
 _atom_site_fract_z
 _atom_site_occupancy
  Rb  Rb0  1  0.500000  0.579329  0.579329  1
  Rb  Rb1  1  0.000000  0.079329  0.079329  1
  B  B2  1  0.500000  0.906153  0.906153  1
  B  B3  1  0.000000  0.406153  0.406153  1
  B  B4  1  0.653026  0.751339  0.904267  1
  B  B5  1  0.346974  0.904267  0.751339  1
  B  B6  1  0.846974  0.251339  0.404267  1
  B  B7  1  0.153026  0.404267  0.251339  1
  B  B8  1  0.652687  0.015134  0.915439  1
  B  B9  1  0.347313  0.915439  0.015134  1
  B  B10  1  0.847313  0.515134  0.415439  1
  B  B11  1  0.152687  0.415439  0.515134  1
  H  H12  1  0.496950  0.938501  0.493949  1
  H  H13  1  0.503050  0.493949  0.938501  1
  H  H14  1  0.003050  0.438501  -0.006051  1
  H  H15  1  -0.003050  -0.006051  0.438501  1
  H  H16  1  0.488497  0.045844  0.291843  1
  H  H17  1  0.511503  0.291843  0.045844  1
  H  H18  1  0.011503  0.545844  0.791843  1
  H  H19  1  0.988497  0.791843  0.545844  1
  H  H20  1  0.511307  0.124348  0.310961  1
  H  H21  1  0.488693  0.310961  0.124348  1
  H  H22  1  0.988693  0.624348  0.810961  1
  H  H23  1  0.011307  0.810961  0.624348  1
  H  H24  1  0.693408  0.628797  0.897099  1
  H  H25  1  0.306592  0.897099  0.628797  1
  H  H26  1  0.806592  0.128797  0.397099  1
  H  H27  1  0.193408  0.397099  0.128797  1
  O  O28  1  0.557849  0.764819  0.901817  1
  O  O29  1  0.442151  0.901817  0.764819  1
  O  O30  1  0.942151  0.264819  0.401817  1
  O  O31  1  0.057849  0.401817  0.264819  1
  O  O32  1  0.563297  0.050019  0.918114  1
  O  O33  1  0.436703  0.918114  0.050019  1
  O  O34  1  0.936703  0.550019  0.418114  1
  O  O35  1  0.063297  0.418114  0.550019  1
  O  O36  1  0.710131  0.893533  0.908965  1
  O  O37  1  0.289869  0.908965  0.893533  1
  O  O38  1  0.789869  0.393533  0.408965  1
  O  O39  1  0.210131  0.408965  0.393533  1
  O  O40  1  0.516151  0.436584  0.837691  1
  O  O41  1  0.483849  0.837691  0.436584  1
  O  O42  1  0.983849  0.936584  0.337691  1
  O  O43  1  0.016151  0.337691  0.936584  1
  O  O44  1  0.875253  0.799987  0.040090  1
  O  O45  1  0.124747  0.040090  0.799987  1
  O  O46  1  0.624747  0.299987  0.540090  1
  O  O47  1  0.375253  0.540090  0.299987  1
  O  O48  1  0.588131  0.175684  0.570393  1
  O  O49  1  0.411869  0.570393  0.175684  1
  O  O50  1  0.911869  0.675684  0.070393  1
  O  O51  1  0.088131  0.070393  0.675684  1
