# generated using pymatgen
data_Li5Nb3OF18
_symmetry_space_group_name_H-M   'P 1'
_cell_length_a   8.25249084
_cell_length_b   10.03120015
_cell_length_c   10.03043328
_cell_angle_alpha   99.71986742
_cell_angle_beta   114.27075904
_cell_angle_gamma   65.70872114
_symmetry_Int_Tables_number   1
_chemical_formula_structural   Li5Nb3OF18
_chemical_formula_sum   'Li10 Nb6 O2 F36'
_cell_volume   689.93573287
_cell_formula_units_Z   2
loop_
 _symmetry_equiv_pos_site_id
 _symmetry_equiv_pos_as_xyz
  1  'x, y, z'
loop_
 _atom_site_type_symbol
 _atom_site_label
 _atom_site_symmetry_multiplicity
 _atom_site_fract_x
 _atom_site_fract_y
 _atom_site_fract_z
 _atom_site_occupancy
  Li  Li0  1  0.908322  0.322991  0.156391  1
  Li  Li1  1  0.577847  0.156639  0.324455  1
  Li  Li2  1  0.737626  0.673829  0.156925  1
  Li  Li3  1  0.752870  0.157339  0.674567  1
  Li  Li4  1  0.369399  0.500839  0.500006  1
  Li  Li5  1  0.869425  0.499962  0.499332  1
  Li  Li6  1  0.237347  0.843284  0.326070  1
  Li  Li7  1  0.253134  0.325461  0.842887  1
  Li  Li8  1  0.408667  0.843721  0.676882  1
  Li  Li9  1  0.077939  0.675619  0.843437  1
  Nb  Nb10  1  0.245475  0.000243  0.000046  1
  Nb  Nb11  1  0.745600  0.999989  -0.000107  1
  Nb  Nb12  1  0.312832  0.499899  0.164013  1
  Nb  Nb13  1  0.149314  0.163914  0.500235  1
  Nb  Nb14  1  0.649304  0.499710  0.836007  1
  Nb  Nb15  1  0.812706  0.836027  0.500059  1
  O  O16  1  0.028381  0.999801  0.999791  1
  O  O17  1  0.528469  -0.000009  0.000257  1
  F  F18  1  0.260254  0.171356  0.124845  1
  F  F19  1  0.806960  0.125331  0.171179  1
  F  F20  1  0.442646  0.319762  0.079561  1
  F  F21  1  0.182540  0.079124  0.319675  1
  F  F22  1  0.139651  0.500295  0.943694  1
  F  F23  1  0.196541  0.943508  0.500634  1
  F  F24  1  0.080095  0.501290  0.173905  1
  F  F25  1  0.906781  0.173606  0.500551  1
  F  F26  1  0.429047  0.361383  0.337758  1
  F  F27  1  0.952681  0.337474  0.361092  1
  F  F28  1  0.569093  0.500261  0.261844  1
  F  F29  1  0.307455  0.261246  0.500210  1
  F  F30  1  0.262312  0.680928  0.079279  1
  F  F31  1  0.362835  0.079645  0.681338  1
  F  F32  1  0.135768  0.125121  0.828713  1
  F  F33  1  0.931896  0.828430  0.124885  1
  F  F34  1  0.290804  0.639257  0.338122  1
  F  F35  1  0.091244  0.338285  0.638539  1
  F  F36  1  0.590931  0.361740  0.661586  1
  F  F37  1  0.790672  0.661866  0.360957  1
  F  F38  1  0.635423  0.171256  0.874755  1
  F  F39  1  0.431740  0.875089  0.171535  1
  F  F40  1  0.762159  0.920583  0.319169  1
  F  F41  1  0.862372  0.318735  0.919913  1
  F  F42  1  0.807315  0.499887  0.738579  1
  F  F43  1  0.069040  0.737973  0.499663  1
  F  F44  1  0.929189  0.662188  0.638798  1
  F  F45  1  0.452532  0.639156  0.662488  1
  F  F46  1  0.406680  0.499619  0.826450  1
  F  F47  1  0.580160  0.826142  0.499114  1
  F  F48  1  0.696621  0.499397  0.056434  1
  F  F49  1  0.639716  0.056283  0.499853  1
  F  F50  1  0.682567  0.680475  0.920846  1
  F  F51  1  0.942794  0.920416  0.680329  1
  F  F52  1  0.760280  0.875003  0.828537  1
  F  F53  1  0.307077  0.828635  0.874578  1
