# generated using pymatgen
data_Cs2CeO3
_symmetry_space_group_name_H-M   'P 1'
_cell_length_a   6.90814979
_cell_length_b   7.49048486
_cell_length_c   14.66094280
_cell_angle_alpha   89.94088295
_cell_angle_beta   90.09276384
_cell_angle_gamma   117.41384877
_symmetry_Int_Tables_number   1
_chemical_formula_structural   Cs2CeO3
_chemical_formula_sum   'Cs8 Ce4 O12'
_cell_volume   673.44358791
_cell_formula_units_Z   4
loop_
 _symmetry_equiv_pos_site_id
 _symmetry_equiv_pos_as_xyz
  1  'x, y, z'
loop_
 _atom_site_type_symbol
 _atom_site_label
 _atom_site_symmetry_multiplicity
 _atom_site_fract_x
 _atom_site_fract_y
 _atom_site_fract_z
 _atom_site_occupancy
  Cs  Cs0  1  0.370551  0.738469  0.080715  1
  Cs  Cs1  1  0.054265  0.109250  0.133019  1
  Cs  Cs2  1  0.129723  0.255492  0.583795  1
  Cs  Cs3  1  0.444793  0.889763  0.633115  1
  Cs  Cs4  1  0.553476  0.101547  0.362512  1
  Cs  Cs5  1  0.878846  0.745956  0.418545  1
  Cs  Cs6  1  0.941648  0.889497  0.865541  1
  Cs  Cs7  1  0.624170  0.251611  0.920595  1
  Ce  Ce8  1  0.237555  0.476573  0.340624  1
  Ce  Ce9  1  0.258452  0.520469  0.839628  1
  Ce  Ce10  1  0.758006  0.522076  0.660649  1
  Ce  Ce11  1  0.739624  0.477697  0.162095  1
  O  O12  1  0.022464  0.545148  0.251462  1
  O  O13  1  0.340489  0.682915  0.444358  1
  O  O14  1  0.082478  0.176029  0.367394  1
  O  O15  1  0.161861  0.323581  0.947079  1
  O  O16  1  0.408012  0.821155  0.866977  1
  O  O17  1  0.475683  0.454263  0.751333  1
  O  O18  1  0.516470  0.534449  0.250820  1
  O  O19  1  0.837892  0.680106  0.056925  1
  O  O20  1  0.594650  0.177707  0.132133  1
  O  O21  1  0.906100  0.823195  0.633943  1
  O  O22  1  0.665641  0.326901  0.553553  1
  O  O23  1  0.982541  0.462059  0.747610  1
