# generated using pymatgen
data_LiMnOF2
_symmetry_space_group_name_H-M   'P 1'
_cell_length_a   5.39575078
_cell_length_b   5.39575078
_cell_length_c   9.00594248
_cell_angle_alpha   83.89096480
_cell_angle_beta   78.19846605
_cell_angle_gamma   118.75144515
_symmetry_Int_Tables_number   1
_chemical_formula_structural   LiMnOF2
_chemical_formula_sum   'Li4 Mn4 O4 F8'
_cell_volume   218.51436210
_cell_formula_units_Z   4
loop_
 _symmetry_equiv_pos_site_id
 _symmetry_equiv_pos_as_xyz
  1  'x, y, z'
loop_
 _atom_site_type_symbol
 _atom_site_label
 _atom_site_symmetry_multiplicity
 _atom_site_fract_x
 _atom_site_fract_y
 _atom_site_fract_z
 _atom_site_occupancy
  Li  Li0  1  0.225396  0.560575  0.651726  1
  Li  Li1  1  0.712301  0.877121  0.848274  1
  Li  Li2  1  0.287699  0.122879  0.151726  1
  Li  Li3  1  0.774604  0.439425  0.348274  1
  Mn  Mn4  1  0.000000  0.500000  0.000000  1
  Mn  Mn5  1  0.576335  0.826335  0.250000  1
  Mn  Mn6  1  0.000000  0.000000  0.500000  1
  Mn  Mn7  1  0.423665  0.173665  0.750000  1
  O  O8  1  0.298149  0.784190  0.821900  1
  O  O9  1  0.893910  0.879951  0.321900  1
  O  O10  1  0.106090  0.120049  0.678100  1
  O  O11  1  0.701851  0.215810  0.178100  1
  F  F12  1  0.236477  0.806907  0.473636  1
  F  F13  1  0.254631  0.726240  0.151815  1
  F  F14  1  0.378055  0.406446  0.348185  1
  F  F15  1  0.219457  0.289887  0.973636  1
  F  F16  1  0.780543  0.710113  0.026364  1
  F  F17  1  0.621945  0.593554  0.651815  1
  F  F18  1  0.745369  0.273760  0.848185  1
  F  F19  1  0.763523  0.193093  0.526364  1
