# generated using pymatgen
data_V4CoNiO12
_symmetry_space_group_name_H-M   'P 1'
_cell_length_a   6.75016048
_cell_length_b   6.75016031
_cell_length_c   5.85704913
_cell_angle_alpha   74.81437208
_cell_angle_beta   105.18563020
_cell_angle_gamma   95.70892262
_symmetry_Int_Tables_number   1
_chemical_formula_structural   V4CoNiO12
_chemical_formula_sum   'V4 Co1 Ni1 O12'
_cell_volume   248.42608177
_cell_formula_units_Z   1
loop_
 _symmetry_equiv_pos_site_id
 _symmetry_equiv_pos_as_xyz
  1  'x, y, z'
loop_
 _atom_site_type_symbol
 _atom_site_label
 _atom_site_symmetry_multiplicity
 _atom_site_fract_x
 _atom_site_fract_y
 _atom_site_fract_z
 _atom_site_occupancy
  V  V0  1  0.203070  0.612122  0.758774  1
  V  V1  1  0.389079  0.794641  0.261203  1
  V  V2  1  0.612122  0.203070  0.741226  1
  V  V3  1  0.794641  0.389079  0.238797  1
  Co  Co4  1  0.086321  0.086321  0.750000  1
  Ni  Ni5  1  0.916690  0.916690  0.250000  1
  O  O6  1  0.031899  0.807379  0.637454  1
  O  O7  1  0.086116  0.378185  0.782498  1
  O  O8  1  0.196209  0.967489  0.144399  1
  O  O9  1  0.368064  0.642906  0.556446  1
  O  O10  1  0.378185  0.086116  0.717502  1
  O  O11  1  0.353783  0.632476  0.053648  1
  O  O12  1  0.642906  0.368064  0.943554  1
  O  O13  1  0.621751  0.911821  0.282783  1
  O  O14  1  0.632476  0.353783  0.446352  1
  O  O15  1  0.807379  0.031899  0.862546  1
  O  O16  1  0.911821  0.621751  0.217217  1
  O  O17  1  0.967489  0.196209  0.355601  1
