# generated using pymatgen
data_Li2Ti3CoO8
_symmetry_space_group_name_H-M   'P 1'
_cell_length_a   8.44436710
_cell_length_b   8.44444074
_cell_length_c   8.44491955
_cell_angle_alpha   90.00004648
_cell_angle_beta   90.00009594
_cell_angle_gamma   90.00024324
_symmetry_Int_Tables_number   1
_chemical_formula_structural   Li2Ti3CoO8
_chemical_formula_sum   'Li8 Ti12 Co4 O32'
_cell_volume   602.18996489
_cell_formula_units_Z   4
loop_
 _symmetry_equiv_pos_site_id
 _symmetry_equiv_pos_as_xyz
  1  'x, y, z'
loop_
 _atom_site_type_symbol
 _atom_site_label
 _atom_site_symmetry_multiplicity
 _atom_site_fract_x
 _atom_site_fract_y
 _atom_site_fract_z
 _atom_site_occupancy
  Li  Li0  1  0.997678  0.997679  0.997681  1
  Li  Li1  1  0.002323  0.497678  0.502319  1
  Li  Li2  1  0.124342  0.875659  0.375654  1
  Li  Li3  1  0.375657  0.124341  0.875654  1
  Li  Li4  1  0.502323  0.002321  0.497681  1
  Li  Li5  1  0.497678  0.502322  0.002319  1
  Li  Li6  1  0.624342  0.624342  0.624346  1
  Li  Li7  1  0.875658  0.375658  0.124346  1
  Ti  Ti8  1  0.134994  0.120064  0.627614  1
  Ti  Ti9  1  0.120066  0.627608  0.134989  1
  Ti  Ti10  1  0.127610  0.365006  0.879944  1
  Ti  Ti11  1  0.379935  0.372392  0.634989  1
  Ti  Ti12  1  0.372388  0.634996  0.379947  1
  Ti  Ti13  1  0.365006  0.879933  0.127613  1
  Ti  Ti14  1  0.627609  0.134995  0.120055  1
  Ti  Ti15  1  0.634994  0.379933  0.372388  1
  Ti  Ti16  1  0.620062  0.872389  0.865009  1
  Ti  Ti17  1  0.879936  0.127610  0.365009  1
  Ti  Ti18  1  0.872390  0.865005  0.620056  1
  Ti  Ti19  1  0.865007  0.620066  0.872388  1
  Co  Co20  1  0.252486  0.252485  0.252491  1
  Co  Co21  1  0.247514  0.747514  0.752493  1
  Co  Co22  1  0.752484  0.247513  0.747507  1
  Co  Co23  1  0.747515  0.752487  0.247508  1
  O  O24  1  0.127977  0.389577  0.107532  1
  O  O25  1  0.139276  0.360724  0.639257  1
  O  O26  1  0.143889  0.858750  0.123241  1
  O  O27  1  0.110418  0.892455  0.627975  1
  O  O28  1  0.107543  0.127974  0.389591  1
  O  O29  1  0.123253  0.143891  0.858752  1
  O  O30  1  0.141248  0.623252  0.356092  1
  O  O31  1  0.111893  0.611891  0.888113  1
  O  O32  1  0.389583  0.107543  0.127974  1
  O  O33  1  0.356110  0.141250  0.623245  1
  O  O34  1  0.388108  0.388110  0.388113  1
  O  O35  1  0.358752  0.376751  0.856092  1
  O  O36  1  0.360725  0.639277  0.139256  1
  O  O37  1  0.372021  0.610425  0.607533  1
  O  O38  1  0.376747  0.856110  0.358752  1
  O  O39  1  0.392456  0.872023  0.889590  1
  O  O40  1  0.639274  0.139278  0.360742  1
  O  O41  1  0.623249  0.356109  0.141250  1
  O  O42  1  0.607543  0.372026  0.610410  1
  O  O43  1  0.610418  0.607544  0.372025  1
  O  O44  1  0.611891  0.888110  0.111887  1
  O  O45  1  0.641245  0.876745  0.643907  1
  O  O46  1  0.627975  0.110425  0.892469  1
  O  O47  1  0.643888  0.641251  0.876755  1
  O  O48  1  0.858755  0.123252  0.143908  1
  O  O49  1  0.888110  0.111891  0.611888  1
  O  O50  1  0.856112  0.358749  0.376755  1
  O  O51  1  0.892457  0.627974  0.110411  1
  O  O52  1  0.876753  0.643892  0.641250  1
  O  O53  1  0.872023  0.889576  0.392469  1
  O  O54  1  0.889583  0.392456  0.872024  1
  O  O55  1  0.860727  0.860723  0.860742  1
