# generated using pymatgen
data_Li8MnFe7(BO3)8
_symmetry_space_group_name_H-M   'P 1'
_cell_length_a   6.02617473
_cell_length_b   9.72073755
_cell_length_c   9.71531343
_cell_angle_alpha   65.09720037
_cell_angle_beta   78.52291087
_cell_angle_gamma   79.67351646
_symmetry_Int_Tables_number   1
_chemical_formula_structural   Li8MnFe7(BO3)8
_chemical_formula_sum   'Li8 Mn1 Fe7 B8 O24'
_cell_volume   502.94983319
_cell_formula_units_Z   1
loop_
 _symmetry_equiv_pos_site_id
 _symmetry_equiv_pos_as_xyz
  1  'x, y, z'
loop_
 _atom_site_type_symbol
 _atom_site_label
 _atom_site_symmetry_multiplicity
 _atom_site_fract_x
 _atom_site_fract_y
 _atom_site_fract_z
 _atom_site_occupancy
  Li  Li0  1  0.955450  0.185011  0.534128  1
  Li  Li1  1  0.955105  0.685526  0.033235  1
  Li  Li2  1  0.544834  0.815556  0.966443  1
  Li  Li3  1  0.455692  0.684612  0.533661  1
  Li  Li4  1  0.546591  0.315502  0.467363  1
  Li  Li5  1  0.454804  0.183135  0.033111  1
  Li  Li6  1  0.044835  0.314954  0.964689  1
  Li  Li7  1  0.045764  0.815303  0.466675  1
  Mn  Mn8  1  0.185670  0.374907  0.205826  1
  Fe  Fe9  1  0.816172  0.625099  0.790299  1
  Fe  Fe10  1  0.684756  0.371705  0.707501  1
  Fe  Fe11  1  0.684923  0.877849  0.206761  1
  Fe  Fe12  1  0.812494  0.127489  0.295346  1
  Fe  Fe13  1  0.183555  0.872475  0.710257  1
  Fe  Fe14  1  0.315228  0.127723  0.790321  1
  Fe  Fe15  1  0.318939  0.629153  0.291025  1
  B  B16  1  0.664229  0.961592  0.632869  1
  B  B17  1  0.835090  0.037485  0.867901  1
  B  B18  1  0.833743  0.539985  0.367797  1
  B  B19  1  0.666717  0.462631  0.132070  1
  B  B20  1  0.336810  0.537218  0.866380  1
  B  B21  1  0.164893  0.462935  0.631593  1
  B  B22  1  0.164470  0.962819  0.132029  1
  B  B23  1  0.332014  0.035065  0.370082  1
  O  O24  1  0.821817  0.895602  0.987127  1
  O  O25  1  0.983217  0.438060  0.753032  1
  O  O26  1  0.984000  0.937506  0.253030  1
  O  O27  1  0.836219  0.843393  0.638621  1
  O  O28  1  0.823090  0.396970  0.486853  1
  O  O29  1  0.483491  0.937840  0.754173  1
  O  O30  1  0.836080  0.342206  0.136713  1
  O  O31  1  0.664284  0.156972  0.862021  1
  O  O32  1  0.659299  0.656606  0.362094  1
  O  O33  1  0.517606  0.563293  0.745416  1
  O  O34  1  0.676709  0.103434  0.513226  1
  O  O35  1  0.679017  0.604372  0.012717  1
  O  O36  1  0.323428  0.394036  0.983506  1
  O  O37  1  0.323699  0.893308  0.488509  1
  O  O38  1  0.487181  0.438467  0.254273  1
  O  O39  1  0.336030  0.343079  0.637927  1
  O  O40  1  0.337383  0.844105  0.137661  1
  O  O41  1  0.165135  0.655676  0.862821  1
  O  O42  1  0.513847  0.061221  0.248069  1
  O  O43  1  0.178117  0.603936  0.513547  1
  O  O44  1  0.159133  0.152555  0.365266  1
  O  O45  1  0.015996  0.061529  0.746626  1
  O  O46  1  0.014916  0.566015  0.247013  1
  O  O47  1  0.177525  0.104095  0.012399  1
