# generated using pymatgen
data_Hg2H2C2NCl5
_symmetry_space_group_name_H-M   'P 1'
_cell_length_a   10.86550012
_cell_length_b   7.43286761
_cell_length_c   17.39464640
_cell_angle_alpha   90.00000000
_cell_angle_beta   102.28994750
_cell_angle_gamma   90.00000000
_symmetry_Int_Tables_number   1
_chemical_formula_structural   Hg2H2C2NCl5
_chemical_formula_sum   'Hg8 H8 C8 N4 Cl20'
_cell_volume   1372.62894116
_cell_formula_units_Z   4
loop_
 _symmetry_equiv_pos_site_id
 _symmetry_equiv_pos_as_xyz
  1  'x, y, z'
loop_
 _atom_site_type_symbol
 _atom_site_label
 _atom_site_symmetry_multiplicity
 _atom_site_fract_x
 _atom_site_fract_y
 _atom_site_fract_z
 _atom_site_occupancy
  Hg  Hg0  1  0.577634  0.864601  0.902531  1
  Hg  Hg1  1  0.077634  0.635399  0.402531  1
  Hg  Hg2  1  0.422366  0.135399  0.097469  1
  Hg  Hg3  1  0.922366  0.364601  0.597469  1
  Hg  Hg4  1  0.658037  0.626140  0.155981  1
  Hg  Hg5  1  0.158037  0.873860  0.655981  1
  Hg  Hg6  1  0.341963  0.373860  0.844019  1
  Hg  Hg7  1  0.841963  0.126140  0.344019  1
  H  H8  1  0.857984  0.823982  0.838670  1
  H  H9  1  0.357984  0.676018  0.338670  1
  H  H10  1  0.142016  0.176018  0.161330  1
  H  H11  1  0.642016  0.323982  0.661330  1
  H  H12  1  0.001443  0.628067  0.798331  1
  H  H13  1  0.501443  0.871933  0.298331  1
  H  H14  1  0.998557  0.371933  0.201669  1
  H  H15  1  0.498557  0.128067  0.701669  1
  C  C16  1  0.894332  0.528545  0.882154  1
  C  C17  1  0.394332  0.971455  0.382154  1
  C  C18  1  0.105668  0.471455  0.117846  1
  C  C19  1  0.605668  0.028545  0.617846  1
  C  C20  1  0.707064  0.715463  0.429048  1
  C  C21  1  0.207064  0.784537  0.929048  1
  C  C22  1  0.292936  0.284537  0.570952  1
  C  C23  1  0.792936  0.215463  0.070952  1
  N  N24  1  0.940887  0.607491  0.836691  1
  N  N25  1  0.440887  0.892509  0.336691  1
  N  N26  1  0.059113  0.392509  0.163309  1
  N  N27  1  0.559113  0.107491  0.663309  1
  Cl  Cl28  1  0.137780  0.563381  0.736079  1
  Cl  Cl29  1  0.637780  0.936619  0.236079  1
  Cl  Cl30  1  0.862220  0.436619  0.263921  1
  Cl  Cl31  1  0.362220  0.063381  0.763921  1
  Cl  Cl32  1  0.304818  0.517351  0.340138  1
  Cl  Cl33  1  0.804818  0.982649  0.840138  1
  Cl  Cl34  1  0.695182  0.482649  0.659862  1
  Cl  Cl35  1  0.195182  0.017351  0.159862  1
  Cl  Cl36  1  0.345900  0.789279  0.981356  1
  Cl  Cl37  1  0.845900  0.710721  0.481356  1
  Cl  Cl38  1  0.654100  0.210721  0.018644  1
  Cl  Cl39  1  0.154100  0.289279  0.518644  1
  Cl  Cl40  1  0.777487  0.718091  0.062761  1
  Cl  Cl41  1  0.277487  0.781909  0.562761  1
  Cl  Cl42  1  0.222513  0.281909  0.937239  1
  Cl  Cl43  1  0.722513  0.218091  0.437239  1
  Cl  Cl44  1  0.017390  0.973463  0.308847  1
  Cl  Cl45  1  0.517390  0.526537  0.808847  1
  Cl  Cl46  1  0.982610  0.026537  0.691153  1
  Cl  Cl47  1  0.482610  0.473463  0.191153  1
