# generated using pymatgen
data_InP2H6NO8
_symmetry_space_group_name_H-M   'P 1'
_cell_length_a   10.06254897
_cell_length_b   8.61790937
_cell_length_c   9.52459864
_cell_angle_alpha   90.00000000
_cell_angle_beta   118.90800057
_cell_angle_gamma   90.00000000
_symmetry_Int_Tables_number   1
_chemical_formula_structural   InP2H6NO8
_chemical_formula_sum   'In4 P8 H24 N4 O32'
_cell_volume   723.03893586
_cell_formula_units_Z   4
loop_
 _symmetry_equiv_pos_site_id
 _symmetry_equiv_pos_as_xyz
  1  'x, y, z'
loop_
 _atom_site_type_symbol
 _atom_site_label
 _atom_site_symmetry_multiplicity
 _atom_site_fract_x
 _atom_site_fract_y
 _atom_site_fract_z
 _atom_site_occupancy
  In  In0  1  0.256284  0.117224  0.511929  1
  In  In1  1  0.256284  0.382776  0.011929  1
  In  In2  1  0.743716  0.617224  0.988071  1
  In  In3  1  0.743716  0.882776  0.488071  1
  P  P4  1  0.998118  0.185112  0.634213  1
  P  P5  1  0.998118  0.314888  0.134213  1
  P  P6  1  0.390889  0.448980  0.742306  1
  P  P7  1  0.609111  0.948980  0.757694  1
  P  P8  1  0.390889  0.051020  0.242306  1
  P  P9  1  0.609111  0.551020  0.257694  1
  P  P10  1  0.001882  0.685112  0.865787  1
  P  P11  1  0.001882  0.814888  0.365787  1
  H  H12  1  0.994445  0.792928  0.122286  1
  H  H13  1  0.994445  0.707072  0.622286  1
  H  H14  1  0.283795  0.768020  0.880837  1
  H  H15  1  0.334157  0.947896  0.962627  1
  H  H16  1  0.383826  0.890242  0.825357  1
  H  H17  1  0.194959  0.624784  0.603285  1
  H  H18  1  0.465225  0.803838  0.008269  1
  H  H19  1  0.283795  0.731980  0.380837  1
  H  H20  1  0.334157  0.552104  0.462627  1
  H  H21  1  0.383826  0.609758  0.325357  1
  H  H22  1  0.194959  0.875216  0.103285  1
  H  H23  1  0.465225  0.696162  0.508269  1
  H  H24  1  0.534775  0.303838  0.491731  1
  H  H25  1  0.805041  0.124784  0.896715  1
  H  H26  1  0.616174  0.390242  0.674643  1
  H  H27  1  0.665843  0.447896  0.537373  1
  H  H28  1  0.716206  0.268020  0.619163  1
  H  H29  1  0.534775  0.196162  0.991731  1
  H  H30  1  0.805041  0.375216  0.396715  1
  H  H31  1  0.616174  0.109758  0.174643  1
  H  H32  1  0.665843  0.052104  0.037373  1
  H  H33  1  0.716206  0.231980  0.119163  1
  H  H34  1  0.005555  0.292928  0.377714  1
  H  H35  1  0.005555  0.207072  0.877714  1
  N  N36  1  0.366060  0.852970  0.919609  1
  N  N37  1  0.366060  0.647030  0.419609  1
  N  N38  1  0.633940  0.352970  0.580391  1
  N  N39  1  0.633940  0.147030  0.080391  1
  O  O40  1  0.041634  0.821592  0.982900  1
  O  O41  1  0.051489  0.256813  0.813190  1
  O  O42  1  0.141924  0.591251  0.892267  1
  O  O43  1  0.041634  0.678408  0.482900  1
  O  O44  1  0.133220  0.092978  0.645728  1
  O  O45  1  0.051489  0.243187  0.313190  1
  O  O46  1  0.141924  0.908749  0.392267  1
  O  O47  1  0.374370  0.362560  0.874260  1
  O  O48  1  0.304503  0.608889  0.698278  1
  O  O49  1  0.133220  0.407022  0.145728  1
  O  O50  1  0.332761  0.352849  0.586724  1
  O  O51  1  0.440584  0.990142  0.700793  1
  O  O52  1  0.374370  0.137440  0.374260  1
  O  O53  1  0.559416  0.490142  0.799207  1
  O  O54  1  0.304503  0.891111  0.198278  1
  O  O55  1  0.667239  0.852849  0.913276  1
  O  O56  1  0.332761  0.147151  0.086724  1
  O  O57  1  0.695497  0.108889  0.801722  1
  O  O58  1  0.440584  0.509858  0.200793  1
  O  O59  1  0.625630  0.862560  0.625740  1
  O  O60  1  0.559416  0.009858  0.299207  1
  O  O61  1  0.667239  0.647151  0.413276  1
  O  O62  1  0.866780  0.592978  0.854272  1
  O  O63  1  0.695497  0.391111  0.301722  1
  O  O64  1  0.625630  0.637440  0.125740  1
  O  O65  1  0.858076  0.091251  0.607733  1
  O  O66  1  0.948511  0.756813  0.686810  1
  O  O67  1  0.866780  0.907022  0.354272  1
  O  O68  1  0.958366  0.321591  0.517100  1
  O  O69  1  0.858076  0.408749  0.107733  1
  O  O70  1  0.948511  0.743187  0.186810  1
  O  O71  1  0.958366  0.178408  0.017100  1
