# generated using pymatgen
data_FeNi(PO4)2
_symmetry_space_group_name_H-M   'P 1'
_cell_length_a   8.51549691
_cell_length_b   8.64915062
_cell_length_c   8.64915138
_cell_angle_alpha   59.99999988
_cell_angle_beta   59.47942540
_cell_angle_gamma   59.47942649
_symmetry_Int_Tables_number   1
_chemical_formula_structural   FeNi(PO4)2
_chemical_formula_sum   'Fe3 Ni3 P6 O24'
_cell_volume   446.86827766
_cell_formula_units_Z   3
loop_
 _symmetry_equiv_pos_site_id
 _symmetry_equiv_pos_as_xyz
  1  'x, y, z'
loop_
 _atom_site_type_symbol
 _atom_site_label
 _atom_site_symmetry_multiplicity
 _atom_site_fract_x
 _atom_site_fract_y
 _atom_site_fract_z
 _atom_site_occupancy
  Fe  Fe0  1  0.066216  0.644595  0.644595  1
  Fe  Fe1  1  0.430319  0.856560  0.856560  1
  Fe  Fe2  1  0.930975  0.356342  0.356342  1
  Ni  Ni3  1  0.998260  0.000580  0.000580  1
  Ni  Ni4  1  0.574358  0.141880  0.141880  1
  Ni  Ni5  1  0.499267  0.500244  0.500244  1
  P  P6  1  0.251129  0.249960  0.544951  1
  P  P7  1  0.251129  0.953961  0.249960  1
  P  P8  1  0.251129  0.544951  0.953961  1
  P  P9  1  0.748661  0.453108  0.046830  1
  P  P10  1  0.748661  0.046830  0.751402  1
  P  P11  1  0.748661  0.751402  0.453108  1
  O  O12  1  0.067223  0.111068  0.317982  1
  O  O13  1  0.067223  0.503728  0.111068  1
  O  O14  1  0.067223  0.317982  0.503728  1
  O  O15  1  0.222895  0.092344  0.744895  1
  O  O16  1  0.437556  0.186473  0.389305  1
  O  O17  1  0.274704  0.408810  0.562534  1
  O  O18  1  0.222895  0.939865  0.092344  1
  O  O19  1  0.274704  0.753952  0.408810  1
  O  O20  1  0.564818  0.608822  0.004253  1
  O  O21  1  0.274704  0.562534  0.753952  1
  O  O22  1  0.779477  0.254923  0.057868  1
  O  O23  1  0.564818  0.004253  0.822107  1
  O  O24  1  0.437556  0.986666  0.186473  1
  O  O25  1  0.222895  0.744895  0.939865  1
  O  O26  1  0.721301  0.440209  0.245965  1
  O  O27  1  0.437556  0.389305  0.986666  1
  O  O28  1  0.721301  0.245965  0.592525  1
  O  O29  1  0.779477  0.057868  0.907732  1
  O  O30  1  0.721301  0.592525  0.440209  1
  O  O31  1  0.564818  0.822107  0.608822  1
  O  O32  1  0.779477  0.907732  0.254923  1
  O  O33  1  0.932440  0.679191  0.496893  1
  O  O34  1  0.932440  0.496893  0.891476  1
  O  O35  1  0.932440  0.891476  0.679191  1
