# generated using pymatgen
data_Li3MnFe2(BO3)3
_symmetry_space_group_name_H-M   'P 1'
_cell_length_a   8.26852679
_cell_length_b   8.26740730
_cell_length_c   6.28781614
_cell_angle_alpha   90.00000000
_cell_angle_beta   90.00000000
_cell_angle_gamma   120.04775334
_symmetry_Int_Tables_number   1
_chemical_formula_structural   Li3MnFe2(BO3)3
_chemical_formula_sum   'Li6 Mn2 Fe4 B6 O18'
_cell_volume   372.06494726
_cell_formula_units_Z   2
loop_
 _symmetry_equiv_pos_site_id
 _symmetry_equiv_pos_as_xyz
  1  'x, y, z'
loop_
 _atom_site_type_symbol
 _atom_site_label
 _atom_site_symmetry_multiplicity
 _atom_site_fract_x
 _atom_site_fract_y
 _atom_site_fract_z
 _atom_site_occupancy
  Li  Li0  1  0.284436  0.982806  0.250359  1
  Li  Li1  1  0.284436  0.982806  0.749641  1
  Li  Li2  1  0.016824  0.301713  0.250973  1
  Li  Li3  1  0.016824  0.301713  0.749027  1
  Li  Li4  1  0.698564  0.714364  0.751235  1
  Li  Li5  1  0.698564  0.714364  0.248765  1
  Mn  Mn6  1  0.373364  0.361094  0.500000  1
  Mn  Mn7  1  0.639614  0.012502  0.000000  1
  Fe  Fe8  1  0.365831  0.359098  0.000000  1
  Fe  Fe9  1  0.641148  0.006939  0.500000  1
  Fe  Fe10  1  0.992041  0.631962  0.000000  1
  Fe  Fe11  1  0.991870  0.632537  0.500000  1
  B  B12  1  0.000549  0.997065  0.000000  1
  B  B13  1  0.998323  0.999940  0.500000  1
  B  B14  1  0.332239  0.667167  0.250031  1
  B  B15  1  0.332239  0.667167  0.749969  1
  B  B16  1  0.668110  0.334232  0.250033  1
  B  B17  1  0.668110  0.334232  0.749967  1
  O  O18  1  0.107531  0.915419  0.500000  1
  O  O19  1  0.111602  0.914633  0.000000  1
  O  O20  1  0.138078  0.580628  0.250246  1
  O  O21  1  0.138078  0.580628  0.749754  1
  O  O22  1  0.085072  0.192534  0.000000  1
  O  O23  1  0.080639  0.193028  0.500000  1
  O  O24  1  0.439943  0.860699  0.254141  1
  O  O25  1  0.439943  0.860699  0.745859  1
  O  O26  1  0.418367  0.559653  0.245714  1
  O  O27  1  0.418367  0.559653  0.754286  1
  O  O28  1  0.474220  0.253590  0.247174  1
  O  O29  1  0.474220  0.253590  0.752826  1
  O  O30  1  0.807510  0.887314  0.000000  1
  O  O31  1  0.803356  0.888271  0.500000  1
  O  O32  1  0.781918  0.528075  0.249705  1
  O  O33  1  0.781918  0.528075  0.750295  1
  O  O34  1  0.748075  0.220904  0.746783  1
  O  O35  1  0.748075  0.220904  0.253217  1
