# generated using pymatgen
data_Li3TiMn3O8
_symmetry_space_group_name_H-M   'P 1'
_cell_length_a   10.48100956
_cell_length_b   10.31039307
_cell_length_c   14.80834308
_cell_angle_alpha   19.31017862
_cell_angle_beta   19.30350267
_cell_angle_gamma   32.86231443
_symmetry_Int_Tables_number   1
_chemical_formula_structural   Li3TiMn3O8
_chemical_formula_sum   'Li3 Ti1 Mn3 O8'
_cell_volume   154.96911442
_cell_formula_units_Z   1
loop_
 _symmetry_equiv_pos_site_id
 _symmetry_equiv_pos_as_xyz
  1  'x, y, z'
loop_
 _atom_site_type_symbol
 _atom_site_label
 _atom_site_symmetry_multiplicity
 _atom_site_fract_x
 _atom_site_fract_y
 _atom_site_fract_z
 _atom_site_occupancy
  Li  Li0  1  0.999994  0.499991  0.500011  1
  Li  Li1  1  0.499994  0.999989  0.500012  1
  Li  Li2  1  0.500013  0.499994  0.499996  1
  Ti  Ti3  1  0.999993  0.000008  0.000001  1
  Mn  Mn4  1  0.999995  0.499995  0.000006  1
  Mn  Mn5  1  0.500007  0.000006  0.999988  1
  Mn  Mn6  1  0.499997  0.500003  0.000000  1
  O  O7  1  0.050096  0.042392  0.196559  1
  O  O8  1  0.060091  0.550138  0.184461  1
  O  O9  1  0.486937  0.975286  0.290972  1
  O  O10  1  0.949913  0.957612  0.803430  1
  O  O11  1  0.421275  0.476267  0.327995  1
  O  O12  1  0.939902  0.449864  0.815543  1
  O  O13  1  0.513069  0.024721  0.709019  1
  O  O14  1  0.578726  0.523734  0.672005  1
