# generated using pymatgen
data_Li3Cr(PO4)2
_symmetry_space_group_name_H-M   'P 1'
_cell_length_a   8.78850684
_cell_length_b   8.78852967
_cell_length_c   6.75112308
_cell_angle_alpha   90.00236465
_cell_angle_beta   89.99956316
_cell_angle_gamma   120.00094809
_symmetry_Int_Tables_number   1
_chemical_formula_structural   Li3Cr(PO4)2
_chemical_formula_sum   'Li9 Cr3 P6 O24'
_cell_volume   451.57909222
_cell_formula_units_Z   3
loop_
 _symmetry_equiv_pos_site_id
 _symmetry_equiv_pos_as_xyz
  1  'x, y, z'
loop_
 _atom_site_type_symbol
 _atom_site_label
 _atom_site_symmetry_multiplicity
 _atom_site_fract_x
 _atom_site_fract_y
 _atom_site_fract_z
 _atom_site_occupancy
  Li  Li0  1  0.372753  0.069764  0.732775  1
  Li  Li1  1  0.930330  0.302992  0.732661  1
  Li  Li2  1  0.000022  0.999939  0.499897  1
  Li  Li3  1  0.333400  0.666692  0.476863  1
  Li  Li4  1  0.302986  0.372691  0.267300  1
  Li  Li5  1  0.696994  0.627233  0.732795  1
  Li  Li6  1  0.666666  0.333261  0.523191  1
  Li  Li7  1  0.069738  0.697032  0.267351  1
  Li  Li8  1  0.627317  0.930321  0.267331  1
  Cr  Cr9  1  -0.000025  -0.000049  -0.000157  1
  Cr  Cr10  1  0.333338  0.666665  0.048614  1
  Cr  Cr11  1  0.666665  0.333339  0.951453  1
  P  P12  1  0.025393  0.681257  0.754019  1
  P  P13  1  0.318723  0.344129  0.753991  1
  P  P14  1  0.655889  0.974617  0.754024  1
  P  P15  1  0.344018  0.025242  0.246031  1
  P  P16  1  0.681233  0.656039  0.246034  1
  P  P17  1  0.974772  0.318753  0.246010  1
  O  O18  1  0.143929  0.950447  0.202987  1
  O  O19  1  0.115064  0.716651  0.553507  1
  O  O20  1  0.155988  0.706686  0.920714  1
  O  O21  1  0.372296  0.861968  0.240988  1
  O  O22  1  0.138066  0.510374  0.240998  1
  O  O23  1  0.049565  0.193510  0.202943  1
  O  O24  1  0.550704  0.844028  0.920719  1
  O  O25  1  0.293315  0.449301  0.920683  1
  O  O26  1  0.193517  0.143918  0.796941  1
  O  O27  1  0.283393  0.398433  0.553494  1
  O  O28  1  0.601513  0.884905  0.553467  1
  O  O29  1  0.489651  0.627701  0.240989  1
  O  O30  1  0.510402  0.372291  0.759055  1
  O  O31  1  0.398488  0.115103  0.446535  1
  O  O32  1  0.716660  0.601618  0.446588  1
  O  O33  1  0.806479  0.856066  0.202937  1
  O  O34  1  0.706684  0.550631  0.079245  1
  O  O35  1  0.449351  0.156033  0.079206  1
  O  O36  1  0.950376  0.806448  0.796993  1
  O  O37  1  0.861911  0.489601  0.759046  1
  O  O38  1  0.627706  0.138112  0.759049  1
  O  O39  1  0.843959  0.293312  0.079230  1
  O  O40  1  0.884911  0.283359  0.446551  1
  O  O41  1  0.856061  0.049585  0.796949  1
