# generated using pymatgen
data_Li2MnFe(BO3)2
_symmetry_space_group_name_H-M   'P 1'
_cell_length_a   6.05127305
_cell_length_b   5.24244709
_cell_length_c   5.16996764
_cell_angle_alpha   60.72604572
_cell_angle_beta   113.12794046
_cell_angle_gamma   88.86989714
_symmetry_Int_Tables_number   1
_chemical_formula_structural   Li2MnFe(BO3)2
_chemical_formula_sum   'Li2 Mn1 Fe1 B2 O6'
_cell_volume   126.89778600
_cell_formula_units_Z   1
loop_
 _symmetry_equiv_pos_site_id
 _symmetry_equiv_pos_as_xyz
  1  'x, y, z'
loop_
 _atom_site_type_symbol
 _atom_site_label
 _atom_site_symmetry_multiplicity
 _atom_site_fract_x
 _atom_site_fract_y
 _atom_site_fract_z
 _atom_site_occupancy
  Li  Li0  1  0.327760  0.368852  0.564167  1
  Li  Li1  1  0.673021  0.627556  0.439490  1
  Mn  Mn2  1  0.228269  0.749876  0.834514  1
  Fe  Fe3  1  0.763659  0.259227  0.158109  1
  B  B4  1  0.261527  0.075847  0.189555  1
  B  B5  1  0.740207  0.923928  0.810362  1
  O  O6  1  0.322562  0.305739  0.964326  1
  O  O7  1  0.172121  0.132459  0.374315  1
  O  O8  1  0.297839  0.789016  0.243371  1
  O  O9  1  0.705660  0.205039  0.767664  1
  O  O10  1  0.819911  0.876993  0.612374  1
  O  O11  1  0.687464  0.685469  0.041753  1
