# generated using pymatgen
data_Na2V2O5
_symmetry_space_group_name_H-M   'P 1'
_cell_length_a   6.60973854
_cell_length_b   17.00700436
_cell_length_c   5.34774845
_cell_angle_alpha   90.01352397
_cell_angle_beta   89.99772336
_cell_angle_gamma   89.93335822
_symmetry_Int_Tables_number   1
_chemical_formula_structural   Na2V2O5
_chemical_formula_sum   'Na8 V8 O20'
_cell_volume   601.14988442
_cell_formula_units_Z   4
loop_
 _symmetry_equiv_pos_site_id
 _symmetry_equiv_pos_as_xyz
  1  'x, y, z'
loop_
 _atom_site_type_symbol
 _atom_site_label
 _atom_site_symmetry_multiplicity
 _atom_site_fract_x
 _atom_site_fract_y
 _atom_site_fract_z
 _atom_site_occupancy
  Na  Na0  1  0.094497  0.056690  0.776251  1
  Na  Na1  1  0.094514  0.556779  0.223763  1
  Na  Na2  1  0.405557  0.056731  0.276013  1
  Na  Na3  1  0.405495  0.556763  0.723939  1
  Na  Na4  1  0.594433  0.443241  0.275982  1
  Na  Na5  1  0.594461  0.943221  0.724042  1
  Na  Na6  1  0.905539  0.443289  0.776253  1
  Na  Na7  1  0.905462  0.943216  0.223733  1
  V  V8  1  0.094098  0.349346  0.292442  1
  V  V9  1  0.094027  0.849430  0.707224  1
  V  V10  1  0.406022  0.349439  0.792296  1
  V  V11  1  0.406308  0.849511  0.207707  1
  V  V12  1  0.593764  0.650520  0.207532  1
  V  V13  1  0.593867  0.150543  0.792293  1
  V  V14  1  0.905902  0.150618  0.292554  1
  V  V15  1  0.906069  0.650640  0.707293  1
  O  O16  1  0.000068  0.250030  0.240904  1
  O  O17  1  -0.000005  0.749968  0.759099  1
  O  O18  1  0.057333  0.069807  0.219569  1
  O  O19  1  0.057431  0.569850  0.780781  1
  O  O20  1  0.157309  0.361703  0.629960  1
  O  O21  1  0.157268  0.861474  0.369678  1
  O  O22  1  0.342384  0.362353  0.129499  1
  O  O23  1  0.341913  0.862578  0.870828  1
  O  O24  1  0.442386  0.069764  0.721204  1
  O  O25  1  0.442336  0.569716  0.278990  1
  O  O26  1  0.499969  0.250031  0.741514  1
  O  O27  1  0.500020  0.749969  0.258371  1
  O  O28  1  0.557658  0.430283  0.720941  1
  O  O29  1  0.557679  0.930231  0.278731  1
  O  O30  1  0.657741  0.137617  0.129457  1
  O  O31  1  0.657904  0.637501  0.870543  1
  O  O32  1  0.842812  0.138413  0.630168  1
  O  O33  1  0.842531  0.638386  0.369883  1
  O  O34  1  0.942612  0.430242  0.219659  1
  O  O35  1  0.942635  0.930106  0.780904  1
