# generated using pymatgen
data_LiCuSbO4
_symmetry_space_group_name_H-M   'P 1'
_cell_length_a   6.15729608
_cell_length_b   6.15731228
_cell_length_c   8.45402385
_cell_angle_alpha   90.00031071
_cell_angle_beta   89.99558814
_cell_angle_gamma   90.00231694
_symmetry_Int_Tables_number   1
_chemical_formula_structural   LiCuSbO4
_chemical_formula_sum   'Li4 Cu4 Sb4 O16'
_cell_volume   320.51228805
_cell_formula_units_Z   4
loop_
 _symmetry_equiv_pos_site_id
 _symmetry_equiv_pos_as_xyz
  1  'x, y, z'
loop_
 _atom_site_type_symbol
 _atom_site_label
 _atom_site_symmetry_multiplicity
 _atom_site_fract_x
 _atom_site_fract_y
 _atom_site_fract_z
 _atom_site_occupancy
  Li  Li0  1  0.000069  0.211264  0.000022  1
  Li  Li1  1  0.999899  0.788762  0.500051  1
  Li  Li2  1  0.211257  0.000109  0.249988  1
  Li  Li3  1  0.788754  0.999938  0.749943  1
  Cu  Cu4  1  0.249425  0.249452  0.625018  1
  Cu  Cu5  1  0.249562  0.750409  0.874986  1
  Cu  Cu6  1  0.750404  0.249569  0.375010  1
  Cu  Cu7  1  0.750600  0.750615  0.124977  1
  Sb  Sb8  1  0.226905  0.500174  0.250018  1
  Sb  Sb9  1  0.500375  0.227011  0.000000  1
  Sb  Sb10  1  0.500035  0.772974  0.499957  1
  Sb  Sb11  1  0.772872  0.499831  0.750019  1
  O  O12  1  0.016994  0.261171  0.255288  1
  O  O13  1  0.016872  0.738686  0.244590  1
  O  O14  1  0.261043  0.016755  0.994616  1
  O  O15  1  0.261173  0.983225  0.505399  1
  O  O16  1  0.264673  0.471325  0.010379  1
  O  O17  1  0.264664  0.528622  0.489602  1
  O  O18  1  0.471271  0.264713  0.239555  1
  O  O19  1  0.471383  0.735302  0.260374  1
  O  O20  1  0.528611  0.264683  0.760386  1
  O  O21  1  0.528653  0.735304  0.739629  1
  O  O22  1  0.735265  0.528707  0.510440  1
  O  O23  1  0.735281  0.471395  0.989640  1
  O  O24  1  0.738672  0.016873  0.005392  1
  O  O25  1  0.738816  0.983002  0.494709  1
  O  O26  1  0.983229  0.261188  0.744622  1
  O  O27  1  0.983242  0.738941  0.755390  1
