# generated using pymatgen
data_Li4TiMn4(Fe2O9)2
_symmetry_space_group_name_H-M   'P 1'
_cell_length_a   9.03578221
_cell_length_b   24.55745367
_cell_length_c   2.90670846
_cell_angle_alpha   90.00001331
_cell_angle_beta   90.00004164
_cell_angle_gamma   90.00583542
_symmetry_Int_Tables_number   1
_chemical_formula_structural   Li4TiMn4(Fe2O9)2
_chemical_formula_sum   'Li8 Ti2 Mn8 Fe8 O36'
_cell_volume   644.98640463
_cell_formula_units_Z   2
loop_
 _symmetry_equiv_pos_site_id
 _symmetry_equiv_pos_as_xyz
  1  'x, y, z'
loop_
 _atom_site_type_symbol
 _atom_site_label
 _atom_site_symmetry_multiplicity
 _atom_site_fract_x
 _atom_site_fract_y
 _atom_site_fract_z
 _atom_site_occupancy
  Li  Li0  1  0.174715  0.995043  0.000000  1
  Li  Li1  1  0.200481  0.206554  1.000000  1
  Li  Li2  1  0.299507  0.706443  1.000000  1
  Li  Li3  1  0.325247  0.495073  1.000000  1
  Li  Li4  1  0.689843  0.519811  0.999999  1
  Li  Li5  1  0.691107  0.297881  0.000001  1
  Li  Li6  1  0.808668  0.798047  0.999998  1
  Li  Li7  1  0.810188  0.019683  0.000002  1
  Ti  Ti8  1  0.507868  0.398068  0.000000  1
  Ti  Ti9  1  0.992167  0.898055  0.000001  1
  Mn  Mn10  1  0.000336  0.500752  0.000007  1
  Mn  Mn11  1  0.011061  0.105749  0.000000  1
  Mn  Mn12  1  0.151607  0.806479  0.500001  1
  Mn  Mn13  1  0.348399  0.306457  0.500001  1
  Mn  Mn14  1  0.488883  0.605785  0.999998  1
  Mn  Mn15  1  0.499571  0.000654  0.999998  1
  Mn  Mn16  1  0.653932  0.691008  0.500000  1
  Mn  Mn17  1  0.846133  0.191034  0.499996  1
  Fe  Fe18  1  0.010901  0.307308  0.999999  1
  Fe  Fe19  1  0.150913  0.585449  0.500000  1
  Fe  Fe20  1  0.349073  0.085380  0.499999  1
  Fe  Fe21  1  0.489196  0.807283  0.000000  1
  Fe  Fe22  1  0.504955  0.188473  1.000000  1
  Fe  Fe23  1  0.644524  0.914457  0.500000  1
  Fe  Fe24  1  0.855507  0.414523  0.499999  1
  Fe  Fe25  1  0.995117  0.688502  1.000000  1
  O  O26  1  0.994198  0.422859  0.000001  1
  O  O27  1  0.008447  0.579460  1.000000  1
  O  O28  1  0.054893  0.942932  0.500001  1
  O  O29  1  0.048461  0.159417  0.500001  1
  O  O30  1  0.128034  0.663590  0.500000  1
  O  O31  1  0.104571  0.757827  1.000000  1
  O  O32  1  0.143362  0.504420  0.500001  1
  O  O33  1  0.146054  0.279604  0.500000  1
  O  O34  1  0.192148  0.855193  0.000000  1
  O  O35  1  0.206385  0.079630  0.000000  1
  O  O36  1  0.293599  0.579664  0.999999  1
  O  O37  1  0.307855  0.355178  0.000001  1
  O  O38  1  0.353999  0.779643  0.500000  1
  O  O39  1  0.356478  0.004339  0.500000  1
  O  O40  1  0.395474  0.257812  0.000001  1
  O  O41  1  0.372127  0.163530  0.499999  1
  O  O42  1  0.451547  0.659433  0.499998  1
  O  O43  1  0.444951  0.442890  0.500001  1
  O  O44  1  0.491534  0.079372  -0.000000  1
  O  O45  1  0.505804  0.922746  0.999999  1
  O  O46  1  0.545820  0.558625  0.499998  1
  O  O47  1  0.545445  0.339022  0.500002  1
  O  O48  1  0.615126  0.836413  0.500000  1
  O  O49  1  0.611742  0.740309  1.000000  1
  O  O50  1  0.645887  0.996308  0.500000  1
  O  O51  1  0.642968  0.212545  0.500000  1
  O  O52  1  0.686019  0.640567  0.999999  1
  O  O53  1  0.709275  0.414418  -0.000000  1
  O  O54  1  0.790734  0.914350  0.000001  1
  O  O55  1  0.813959  0.140602  0.999999  1
  O  O56  1  0.857087  0.712512  0.499999  1
  O  O57  1  0.853987  0.496384  0.500000  1
  O  O58  1  0.888292  0.240353  1.000000  1
  O  O59  1  0.885157  0.336496  0.500000  1
  O  O60  1  0.954591  0.839012  0.500000  1
  O  O61  1  0.954087  0.058596  0.500000  1
