# generated using pymatgen
data_BaTi8O16
_symmetry_space_group_name_H-M   'P 1'
_cell_length_a   7.44892898
_cell_length_b   5.97462367
_cell_length_c   7.31568781
_cell_angle_alpha   78.15744170
_cell_angle_beta   89.42081378
_cell_angle_gamma   78.38260039
_symmetry_Int_Tables_number   1
_chemical_formula_structural   BaTi8O16
_chemical_formula_sum   'Ba1 Ti8 O16'
_cell_volume   311.95806137
_cell_formula_units_Z   1
loop_
 _symmetry_equiv_pos_site_id
 _symmetry_equiv_pos_as_xyz
  1  'x, y, z'
loop_
 _atom_site_type_symbol
 _atom_site_label
 _atom_site_symmetry_multiplicity
 _atom_site_fract_x
 _atom_site_fract_y
 _atom_site_fract_z
 _atom_site_occupancy
  Ba  Ba0  1  0.999291  0.021246  0.000165  1
  Ti  Ti1  1  0.179781  0.577076  0.518045  1
  Ti  Ti2  1  0.184357  0.076834  0.504444  1
  Ti  Ti3  1  0.529657  0.662965  0.820993  1
  Ti  Ti4  1  0.513811  0.169148  0.812794  1
  Ti  Ti5  1  0.488283  0.831502  0.186616  1
  Ti  Ti6  1  0.468430  0.338370  0.179105  1
  Ti  Ti7  1  0.815524  0.922616  0.497151  1
  Ti  Ti8  1  0.820719  0.425250  0.480442  1
  O  O9  1  0.054361  0.830143  0.645367  1
  O  O10  1  0.055415  0.322555  0.643506  1
  O  O11  1  0.382401  0.978288  0.695944  1
  O  O12  1  0.386259  0.484701  0.693778  1
  O  O13  1  0.645370  0.852800  0.963331  1
  O  O14  1  0.642818  0.346035  0.962360  1
  O  O15  1  0.279456  0.840620  0.356967  1
  O  O16  1  0.284668  0.340248  0.365256  1
  O  O17  1  0.715079  0.660523  0.634977  1
  O  O18  1  0.720826  0.162282  0.642991  1
  O  O19  1  0.354064  0.149409  0.036860  1
  O  O20  1  0.358301  0.655885  0.037810  1
  O  O21  1  0.617459  0.023736  0.303951  1
  O  O22  1  0.613701  0.516363  0.306401  1
  O  O23  1  0.944361  0.679643  0.357004  1
  O  O24  1  0.945606  0.172813  0.353744  1
