# generated using pymatgen
data_Li2VO2F
_symmetry_space_group_name_H-M   'P 1'
_cell_length_a   2.94531103
_cell_length_b   5.94913387
_cell_length_c   6.71498106
_cell_angle_alpha   77.56966143
_cell_angle_beta   77.33334348
_cell_angle_gamma   90.00404569
_symmetry_Int_Tables_number   1
_chemical_formula_structural   Li2VO2F
_chemical_formula_sum   'Li4 V2 O4 F2'
_cell_volume   111.96758491
_cell_formula_units_Z   2
loop_
 _symmetry_equiv_pos_site_id
 _symmetry_equiv_pos_as_xyz
  1  'x, y, z'
loop_
 _atom_site_type_symbol
 _atom_site_label
 _atom_site_symmetry_multiplicity
 _atom_site_fract_x
 _atom_site_fract_y
 _atom_site_fract_z
 _atom_site_occupancy
  Li  Li0  1  0.999232  0.489429  0.001378  1
  Li  Li1  1  0.334098  0.177242  0.331845  1
  Li  Li2  1  0.666667  0.333308  0.666630  1
  Li  Li3  1  0.666663  0.833374  0.666642  1
  V  V4  1  0.997582  0.008161  0.004891  1
  V  V5  1  0.335716  0.658505  0.328487  1
  O  O6  1  0.504592  0.237784  0.990893  1
  O  O7  1  0.498065  0.765969  0.003841  1
  O  O8  1  0.828709  0.428888  0.342499  1
  O  O9  1  0.835205  0.900711  0.329549  1
  F  F10  1  0.164623  0.078263  0.670981  1
  F  F11  1  0.168846  0.588367  0.662364  1
