# generated using pymatgen
data_Na2SbPCO7
_symmetry_space_group_name_H-M   'P 1'
_cell_length_a   9.51084141
_cell_length_b   6.79513102
_cell_length_c   5.43931195
_cell_angle_alpha   90.00000000
_cell_angle_beta   95.21248691
_cell_angle_gamma   90.00000000
_symmetry_Int_Tables_number   1
_chemical_formula_structural   Na2SbPCO7
_chemical_formula_sum   'Na4 Sb2 P2 C2 O14'
_cell_volume   350.07495902
_cell_formula_units_Z   2
loop_
 _symmetry_equiv_pos_site_id
 _symmetry_equiv_pos_as_xyz
  1  'x, y, z'
loop_
 _atom_site_type_symbol
 _atom_site_label
 _atom_site_symmetry_multiplicity
 _atom_site_fract_x
 _atom_site_fract_y
 _atom_site_fract_z
 _atom_site_occupancy
  Na  Na0  1  0.217006  0.486845  0.244766  1
  Na  Na1  1  0.217006  0.013155  0.244766  1
  Na  Na2  1  0.782994  0.513155  0.755234  1
  Na  Na3  1  0.782994  0.986845  0.755234  1
  Sb  Sb4  1  0.374234  0.750000  0.802391  1
  Sb  Sb5  1  0.625766  0.250000  0.197609  1
  P  P6  1  0.394890  0.250000  0.746041  1
  P  P7  1  0.605110  0.750000  0.253959  1
  C  C8  1  0.089705  0.750000  0.723877  1
  C  C9  1  0.910295  0.250000  0.276123  1
  O  O10  1  0.041196  0.250000  0.273683  1
  O  O11  1  0.174279  0.750000  0.938174  1
  O  O12  1  0.159539  0.750000  0.527236  1
  O  O13  1  0.335063  0.067068  0.876212  1
  O  O14  1  0.335063  0.432932  0.876212  1
  O  O15  1  0.437572  0.750000  0.190178  1
  O  O16  1  0.359964  0.250000  0.468262  1
  O  O17  1  0.640036  0.750000  0.531738  1
  O  O18  1  0.562428  0.250000  0.809822  1
  O  O19  1  0.664937  0.567068  0.123788  1
  O  O20  1  0.664937  0.932932  0.123788  1
  O  O21  1  0.840461  0.250000  0.472764  1
  O  O22  1  0.825721  0.250000  0.061826  1
  O  O23  1  0.958804  0.750000  0.726317  1
