# generated using pymatgen
data_GaH7(NF2)2
_symmetry_space_group_name_H-M   'P 1'
_cell_length_a   6.35989050
_cell_length_b   6.35989050
_cell_length_c   7.57668755
_cell_angle_alpha   65.74656783
_cell_angle_beta   65.74656783
_cell_angle_gamma   65.19387007
_symmetry_Int_Tables_number   1
_chemical_formula_structural   GaH7(NF2)2
_chemical_formula_sum   'Ga2 H14 N4 F8'
_cell_volume   242.87955004
_cell_formula_units_Z   2
loop_
 _symmetry_equiv_pos_site_id
 _symmetry_equiv_pos_as_xyz
  1  'x, y, z'
loop_
 _atom_site_type_symbol
 _atom_site_label
 _atom_site_symmetry_multiplicity
 _atom_site_fract_x
 _atom_site_fract_y
 _atom_site_fract_z
 _atom_site_occupancy
  Ga  Ga0  1  0.000000  0.000000  0.000000  1
  Ga  Ga1  1  0.000000  0.000000  0.500000  1
  H  H2  1  0.208287  0.208287  0.073388  1
  H  H3  1  0.471079  0.471079  0.233548  1
  H  H4  1  0.195332  0.436107  0.336518  1
  H  H5  1  0.436107  0.195332  0.336518  1
  H  H6  1  0.615929  0.858877  0.143515  1
  H  H7  1  0.858877  0.615929  0.143515  1
  H  H8  1  0.363353  0.363353  0.488737  1
  H  H9  1  0.636647  0.636647  0.511263  1
  H  H10  1  0.384071  0.141123  0.856485  1
  H  H11  1  0.141123  0.384071  0.856485  1
  H  H12  1  0.563893  0.804668  0.663482  1
  H  H13  1  0.804668  0.563893  0.663482  1
  H  H14  1  0.528921  0.528921  0.766452  1
  H  H15  1  0.791713  0.791713  0.926612  1
  N  N16  1  0.791511  0.791511  0.061949  1
  N  N17  1  0.368268  0.368268  0.350845  1
  N  N18  1  0.631732  0.631732  0.649155  1
  N  N19  1  0.208489  0.208489  0.938051  1
  F  F20  1  0.275730  0.724270  0.000000  1
  F  F21  1  0.724270  0.275730  0.000000  1
  F  F22  1  0.069284  0.069284  0.697466  1
  F  F23  1  0.337263  0.943245  0.350244  1
  F  F24  1  0.943245  0.337263  0.350244  1
  F  F25  1  0.056755  0.662737  0.649756  1
  F  F26  1  0.662737  0.056755  0.649756  1
  F  F27  1  0.930716  0.930716  0.302534  1
