# generated using pymatgen
data_Li2MnFe(BO3)2
_symmetry_space_group_name_H-M   'P 1'
_cell_length_a   5.26175886
_cell_length_b   5.23877272
_cell_length_c   10.44061609
_cell_angle_alpha   89.66508877
_cell_angle_beta   91.03861739
_cell_angle_gamma   59.93905936
_symmetry_Int_Tables_number   1
_chemical_formula_structural   Li2MnFe(BO3)2
_chemical_formula_sum   'Li4 Mn2 Fe2 B4 O12'
_cell_volume   249.00855854
_cell_formula_units_Z   2
loop_
 _symmetry_equiv_pos_site_id
 _symmetry_equiv_pos_as_xyz
  1  'x, y, z'
loop_
 _atom_site_type_symbol
 _atom_site_label
 _atom_site_symmetry_multiplicity
 _atom_site_fract_x
 _atom_site_fract_y
 _atom_site_fract_z
 _atom_site_occupancy
  Li  Li0  1  0.322204  0.651977  0.332426  1
  Li  Li1  1  0.346500  0.678823  0.832475  1
  Li  Li2  1  0.653661  0.335197  0.583330  1
  Li  Li3  1  0.662485  0.348376  0.082667  1
  Mn  Mn4  1  0.327132  0.006085  0.118311  1
  Mn  Mn5  1  0.677844  0.000542  0.865008  1
  Fe  Fe6  1  0.993775  0.321156  0.369179  1
  Fe  Fe7  1  0.002445  0.671284  0.614681  1
  B  B8  1  0.004079  0.340482  0.872719  1
  B  B9  1  0.330077  0.006232  0.621988  1
  B  B10  1  0.663360  0.995971  0.375689  1
  B  B11  1  0.993138  0.666905  0.125979  1
  O  O12  1  0.067886  0.254919  0.583974  1
  O  O13  1  0.254829  0.069553  0.903552  1
  O  O14  1  0.033533  0.577041  0.831390  1
  O  O15  1  0.581124  0.026017  0.650391  1
  O  O16  1  0.267286  0.643089  0.139880  1
  O  O17  1  0.345680  0.734982  0.635577  1
  O  O18  1  0.643131  0.269399  0.388250  1
  O  O19  1  0.728581  0.369887  0.887385  1
  O  O20  1  0.416894  0.978013  0.337896  1
  O  O21  1  0.961596  0.424050  0.157162  1
  O  O22  1  0.750782  0.930161  0.082897  1
  O  O23  1  0.931380  0.740458  0.403396  1
