# generated using pymatgen
data_Li3Fe4WO8
_symmetry_space_group_name_H-M   'P 1'
_cell_length_a   10.63272393
_cell_length_b   10.63272412
_cell_length_c   14.96304072
_cell_angle_alpha   19.44844936
_cell_angle_beta   19.44844987
_cell_angle_gamma   33.69175228
_symmetry_Int_Tables_number   1
_chemical_formula_structural   Li3Fe4WO8
_chemical_formula_sum   'Li3 Fe4 W1 O8'
_cell_volume   160.74466386
_cell_formula_units_Z   1
loop_
 _symmetry_equiv_pos_site_id
 _symmetry_equiv_pos_as_xyz
  1  'x, y, z'
loop_
 _atom_site_type_symbol
 _atom_site_label
 _atom_site_symmetry_multiplicity
 _atom_site_fract_x
 _atom_site_fract_y
 _atom_site_fract_z
 _atom_site_occupancy
  Li  Li0  1  0.000000  0.500000  0.500000  1
  Li  Li1  1  0.500000  0.000000  0.500000  1
  Li  Li2  1  0.500000  0.500000  0.500000  1
  Fe  Fe3  1  0.000000  0.000000  0.000000  1
  Fe  Fe4  1  0.000000  0.500000  0.000000  1
  Fe  Fe5  1  0.500000  0.000000  0.000000  1
  Fe  Fe6  1  0.000000  0.000000  0.500000  1
  W  W7  1  0.500000  0.500000  0.000000  1
  O  O8  1  0.997413  0.997413  0.259636  1
  O  O9  1  0.029858  0.493149  0.231646  1
  O  O10  1  0.493149  0.029858  0.231646  1
  O  O11  1  0.002587  0.002587  0.740364  1
  O  O12  1  0.510808  0.510808  0.235469  1
  O  O13  1  0.970142  0.506851  0.768354  1
  O  O14  1  0.506851  0.970142  0.768354  1
  O  O15  1  0.489192  0.489192  0.764531  1
