# generated using pymatgen
data_Li4NbCr(WO6)2
_symmetry_space_group_name_H-M   'P 1'
_cell_length_a   5.47965971
_cell_length_b   10.95806931
_cell_length_c   9.65333432
_cell_angle_alpha   28.21729077
_cell_angle_beta   51.21737070
_cell_angle_gamma   56.45349950
_symmetry_Int_Tables_number   1
_chemical_formula_structural   Li4NbCr(WO6)2
_chemical_formula_sum   'Li4 Nb1 Cr1 W2 O12'
_cell_volume   213.64302000
_cell_formula_units_Z   1
loop_
 _symmetry_equiv_pos_site_id
 _symmetry_equiv_pos_as_xyz
  1  'x, y, z'
loop_
 _atom_site_type_symbol
 _atom_site_label
 _atom_site_symmetry_multiplicity
 _atom_site_fract_x
 _atom_site_fract_y
 _atom_site_fract_z
 _atom_site_occupancy
  Li  Li0  1  0.317886  0.000566  0.268136  1
  Li  Li1  1  0.255330  0.496626  0.310029  1
  Li  Li2  1  0.771158  0.996318  0.809915  1
  Li  Li3  1  0.774416  0.504426  0.739733  1
  Nb  Nb4  1  0.006910  0.502821  0.009318  1
  Cr  Cr5  1  0.002670  0.000047  0.996400  1
  W  W6  1  0.522320  0.995805  0.501765  1
  W  W7  1  0.484830  0.505510  0.504195  1
  O  O8  1  0.376438  0.308700  0.122521  1
  O  O9  1  0.252620  0.116119  0.620017  1
  O  O10  1  0.144631  0.315323  0.730966  1
  O  O11  1  0.875332  0.182138  0.248078  1
  O  O12  1  0.368527  0.792322  0.140845  1
  O  O13  1  0.742422  0.373442  0.374754  1
  O  O14  1  0.233854  0.622897  0.626454  1
  O  O15  1  0.633744  0.199888  0.849184  1
  O  O16  1  0.122916  0.822623  0.733309  1
  O  O17  1  0.850386  0.694853  0.242094  1
  O  O18  1  0.718871  0.886949  0.369466  1
  O  O19  1  0.615939  0.682629  0.874020  1
