# generated using pymatgen
data_Li2Mn3CoO8
_symmetry_space_group_name_H-M   'P 1'
_cell_length_a   8.30293272
_cell_length_b   8.30292323
_cell_length_c   8.30296206
_cell_angle_alpha   90.00092842
_cell_angle_beta   89.99862338
_cell_angle_gamma   90.00100488
_symmetry_Int_Tables_number   1
_chemical_formula_structural   Li2Mn3CoO8
_chemical_formula_sum   'Li8 Mn12 Co4 O32'
_cell_volume   572.39468770
_cell_formula_units_Z   4
loop_
 _symmetry_equiv_pos_site_id
 _symmetry_equiv_pos_as_xyz
  1  'x, y, z'
loop_
 _atom_site_type_symbol
 _atom_site_label
 _atom_site_symmetry_multiplicity
 _atom_site_fract_x
 _atom_site_fract_y
 _atom_site_fract_z
 _atom_site_occupancy
  Li  Li0  1  0.124441  0.875563  0.375555  1
  Li  Li1  1  0.251611  0.751611  0.748395  1
  Li  Li2  1  0.248389  0.248393  0.248392  1
  Li  Li3  1  0.375553  0.124442  0.875561  1
  Li  Li4  1  0.624431  0.624440  0.624440  1
  Li  Li5  1  0.751608  0.748387  0.251613  1
  Li  Li6  1  0.748387  0.251614  0.751616  1
  Li  Li7  1  0.875562  0.375556  0.124443  1
  Mn  Mn8  1  0.124201  0.623016  0.121995  1
  Mn  Mn9  1  0.123022  0.378005  0.875802  1
  Mn  Mn10  1  0.121997  0.124196  0.623018  1
  Mn  Mn11  1  0.378008  0.875804  0.123020  1
  Mn  Mn12  1  0.376981  0.621996  0.375807  1
  Mn  Mn13  1  0.375802  0.376985  0.621995  1
  Mn  Mn14  1  0.624195  0.876982  0.878001  1
  Mn  Mn15  1  0.623018  0.121998  0.124191  1
  Mn  Mn16  1  0.621994  0.375810  0.376985  1
  Mn  Mn17  1  0.878009  0.624197  0.876985  1
  Mn  Mn18  1  0.876982  0.878008  0.624199  1
  Mn  Mn19  1  0.875798  0.123023  0.378009  1
  Co  Co20  1  0.997035  0.502967  0.497038  1
  Co  Co21  1  0.502964  0.497034  0.997038  1
  Co  Co22  1  0.497035  0.997034  0.502971  1
  Co  Co23  1  0.002966  0.002965  0.002970  1
  O  O24  1  0.101543  0.127854  0.393309  1
  O  O25  1  0.106693  0.898455  0.627856  1
  O  O26  1  0.113966  0.613947  0.886047  1
  O  O27  1  0.127855  0.393304  0.101542  1
  O  O28  1  0.121592  0.147330  0.859725  1
  O  O29  1  0.135865  0.364139  0.635859  1
  O  O30  1  0.140276  0.621590  0.352667  1
  O  O31  1  0.147333  0.859724  0.121592  1
  O  O32  1  0.352672  0.140281  0.621601  1
  O  O33  1  0.359722  0.378408  0.852668  1
  O  O34  1  0.364141  0.635866  0.135869  1
  O  O35  1  0.378402  0.852671  0.359725  1
  O  O36  1  0.372141  0.606695  0.601549  1
  O  O37  1  0.386047  0.386050  0.386045  1
  O  O38  1  0.393307  0.101544  0.127853  1
  O  O39  1  0.398455  0.872151  0.893308  1
  O  O40  1  0.601544  0.372153  0.606696  1
  O  O41  1  0.606693  0.601554  0.372151  1
  O  O42  1  0.613955  0.886042  0.113947  1
  O  O43  1  0.627854  0.106694  0.898451  1
  O  O44  1  0.621592  0.352671  0.140280  1
  O  O45  1  0.635857  0.135868  0.364137  1
  O  O46  1  0.640276  0.878405  0.647332  1
  O  O47  1  0.647330  0.640280  0.878406  1
  O  O48  1  0.852666  0.359726  0.378411  1
  O  O49  1  0.859720  0.121595  0.147331  1
  O  O50  1  0.864137  0.864141  0.864140  1
  O  O51  1  0.878408  0.647334  0.640281  1
  O  O52  1  0.872147  0.893308  0.398461  1
  O  O53  1  0.886049  0.113965  0.613953  1
  O  O54  1  0.893312  0.398454  0.872151  1
  O  O55  1  0.898462  0.627857  0.106698  1
