# generated using pymatgen
data_NdAsO4
_symmetry_space_group_name_H-M   'P 1'
_cell_length_a   6.14508980
_cell_length_b   6.14508980
_cell_length_c   6.14508980
_cell_angle_alpha   106.42244321
_cell_angle_beta   106.41055069
_cell_angle_gamma   115.77032167
_symmetry_Int_Tables_number   1
_chemical_formula_structural   NdAsO4
_chemical_formula_sum   'Nd2 As2 O8'
_cell_volume   176.99663938
_cell_formula_units_Z   2
loop_
 _symmetry_equiv_pos_site_id
 _symmetry_equiv_pos_as_xyz
  1  'x, y, z'
loop_
 _atom_site_type_symbol
 _atom_site_label
 _atom_site_symmetry_multiplicity
 _atom_site_fract_x
 _atom_site_fract_y
 _atom_site_fract_z
 _atom_site_occupancy
  Nd  Nd0  1  0.874888  0.124888  0.750000  1
  Nd  Nd1  1  0.125112  0.875112  0.250000  1
  As  As2  1  0.625190  0.375190  0.250000  1
  As  As3  1  0.374810  0.624810  0.750000  1
  O  O4  1  0.794350  0.365310  0.070960  1
  O  O5  1  0.276078  0.205246  0.070831  1
  O  O6  1  0.634415  0.205246  0.429169  1
  O  O7  1  0.794350  0.723390  0.429040  1
  O  O8  1  0.205650  0.276610  0.570960  1
  O  O9  1  0.723922  0.794754  0.929169  1
  O  O10  1  0.365585  0.794754  0.570831  1
  O  O11  1  0.205650  0.634690  0.929040  1
