# generated using pymatgen
data_K7P6H2NO22
_symmetry_space_group_name_H-M   'P 1'
_cell_length_a   9.85941850
_cell_length_b   9.89909793
_cell_length_c   6.61529037
_cell_angle_alpha   107.13481407
_cell_angle_beta   106.37110359
_cell_angle_gamma   75.86469356
_symmetry_Int_Tables_number   1
_chemical_formula_structural   K7P6H2NO22
_chemical_formula_sum   'K7 P6 H2 N1 O22'
_cell_volume   582.75747706
_cell_formula_units_Z   1
loop_
 _symmetry_equiv_pos_site_id
 _symmetry_equiv_pos_as_xyz
  1  'x, y, z'
loop_
 _atom_site_type_symbol
 _atom_site_label
 _atom_site_symmetry_multiplicity
 _atom_site_fract_x
 _atom_site_fract_y
 _atom_site_fract_z
 _atom_site_occupancy
  K  K0  1  0.450248  0.837347  0.718211  1
  K  K1  1  0.000715  0.000047  0.500845  1
  K  K2  1  0.848538  0.445491  0.755297  1
  K  K3  1  0.716038  0.726082  0.324858  1
  K  K4  1  0.552545  0.162108  0.286125  1
  K  K5  1  0.155492  0.554081  0.249852  1
  K  K6  1  0.278547  0.265806  0.669247  1
  P  P7  1  0.300934  0.911309  0.180180  1
  P  P8  1  0.142364  0.182498  0.073243  1
  P  P9  1  0.861272  0.297391  0.185160  1
  P  P10  1  0.702003  0.088405  0.823663  1
  P  P11  1  0.862082  0.816350  0.930910  1
  P  P12  1  0.142041  0.701533  0.818725  1
  H  H13  1  0.523479  0.530023  0.455875  1
  H  H14  1  0.458525  0.567059  0.232184  1
  N  N15  1  0.509752  0.473185  0.824341  1
  O  O16  1  0.265844  0.969833  0.399396  1
  O  O17  1  0.202444  0.011195  0.012844  1
  O  O18  1  0.453708  0.889381  0.160616  1
  O  O19  1  0.236065  0.762377  0.063936  1
  O  O20  1  0.255708  0.260023  0.238949  1
  O  O21  1  0.080103  0.224955  0.860593  1
  O  O22  1  0.015402  0.186393  0.190709  1
  O  O23  1  0.883191  0.444157  0.193645  1
  O  O24  1  0.799741  0.273589  0.352824  1
  O  O25  1  0.767712  0.237008  0.941116  1
  O  O26  1  0.737849  0.032619  0.604086  1
  O  O27  1  0.549383  0.111063  0.842562  1
  O  O28  1  0.800312  0.988013  0.989348  1
  O  O29  1  0.750883  0.738001  0.764212  1
  O  O30  1  0.924406  0.776698  0.145954  1
  O  O31  1  0.989380  0.813724  0.815231  1
  O  O32  1  0.204094  0.724110  0.651546  1
  O  O33  1  0.118518  0.554931  0.809870  1
  O  O34  1  0.490233  0.610795  0.387708  1
  O  O35  1  0.494812  0.398900  0.627852  1
  O  O36  1  0.449680  0.446668  0.951346  1
  O  O37  1  0.583329  0.571863  0.889040  1
