# generated using pymatgen
data_Cr4OF6
_symmetry_space_group_name_H-M   'P 1'
_cell_length_a   7.22128769
_cell_length_b   7.22123074
_cell_length_c   5.32049008
_cell_angle_alpha   89.99166989
_cell_angle_beta   89.99610271
_cell_angle_gamma   90.00000803
_symmetry_Int_Tables_number   1
_chemical_formula_structural   Cr4OF6
_chemical_formula_sum   'Cr8 O2 F12'
_cell_volume   277.44538273
_cell_formula_units_Z   2
loop_
 _symmetry_equiv_pos_site_id
 _symmetry_equiv_pos_as_xyz
  1  'x, y, z'
loop_
 _atom_site_type_symbol
 _atom_site_label
 _atom_site_symmetry_multiplicity
 _atom_site_fract_x
 _atom_site_fract_y
 _atom_site_fract_z
 _atom_site_occupancy
  Cr  Cr0  1  0.997946  0.249999  0.563143  1
  Cr  Cr1  1  0.250001  0.997897  0.063138  1
  Cr  Cr2  1  0.250001  0.502093  0.063113  1
  Cr  Cr3  1  0.502095  0.249982  0.563135  1
  Cr  Cr4  1  0.497899  0.750011  0.436875  1
  Cr  Cr5  1  0.750004  0.497902  0.936874  1
  Cr  Cr6  1  0.750017  0.002121  0.936878  1
  Cr  Cr7  1  0.002041  0.750003  0.436837  1
  O  O8  1  0.249978  0.749974  0.250020  1
  O  O9  1  0.750012  0.250033  0.749974  1
  F  F10  1  0.033926  0.966075  0.750006  1
  F  F11  1  0.033920  0.533929  0.750006  1
  F  F12  1  0.250008  0.250002  0.901640  1
  F  F13  1  0.250022  0.250000  0.401611  1
  F  F14  1  0.466076  0.533927  0.750002  1
  F  F15  1  0.466076  0.966089  0.749999  1
  F  F16  1  0.533929  0.033915  0.250001  1
  F  F17  1  0.533923  0.466066  0.250006  1
  F  F18  1  0.749996  0.750005  0.098363  1
  F  F19  1  0.749969  0.749991  0.598386  1
  F  F20  1  0.966079  0.033923  0.249998  1
  F  F21  1  0.966079  0.466062  0.249995  1
