# generated using pymatgen
data_Li4TiMn(WO6)2
_symmetry_space_group_name_H-M   'P 1'
_cell_length_a   5.38764461
_cell_length_b   10.77371816
_cell_length_c   9.48028486
_cell_angle_alpha   28.36551069
_cell_angle_beta   51.43205046
_cell_angle_gamma   56.73101005
_symmetry_Int_Tables_number   1
_chemical_formula_structural   Li4TiMn(WO6)2
_chemical_formula_sum   'Li4 Ti1 Mn1 W2 O12'
_cell_volume   204.40910179
_cell_formula_units_Z   1
loop_
 _symmetry_equiv_pos_site_id
 _symmetry_equiv_pos_as_xyz
  1  'x, y, z'
loop_
 _atom_site_type_symbol
 _atom_site_label
 _atom_site_symmetry_multiplicity
 _atom_site_fract_x
 _atom_site_fract_y
 _atom_site_fract_z
 _atom_site_occupancy
  Li  Li0  1  0.285081  0.001227  0.292311  1
  Li  Li1  1  0.296126  0.498562  0.288358  1
  Li  Li2  1  0.773259  0.000096  0.765387  1
  Li  Li3  1  0.766687  0.500124  0.774089  1
  Ti  Ti4  1  0.010748  0.001861  0.006894  1
  Mn  Mn5  1  0.001536  0.498959  0.002996  1
  W  W6  1  0.497620  0.000735  0.506023  1
  W  W7  1  0.511870  0.499001  0.503242  1
  O  O8  1  0.360414  0.298751  0.134940  1
  O  O9  1  0.237947  0.118750  0.626750  1
  O  O10  1  0.130843  0.319067  0.729146  1
  O  O11  1  0.861935  0.196896  0.239020  1
  O  O12  1  0.365417  0.804522  0.130458  1
  O  O13  1  0.734411  0.383687  0.363190  1
  O  O14  1  0.243282  0.616902  0.630524  1
  O  O15  1  0.621310  0.186114  0.866629  1
  O  O16  1  0.134678  0.807625  0.743023  1
  O  O17  1  0.866484  0.690374  0.243303  1
  O  O18  1  0.736662  0.886217  0.362766  1
  O  O19  1  0.634890  0.690529  0.862151  1
