# generated using pymatgen
data_Li12MnFe3P4(CO7)4
_symmetry_space_group_name_H-M   'P 1'
_cell_length_a   8.53595582
_cell_length_b   10.04057305
_cell_length_c   6.51363464
_cell_angle_alpha   90.00000000
_cell_angle_beta   90.00000000
_cell_angle_gamma   85.20514944
_symmetry_Int_Tables_number   1
_chemical_formula_structural   Li12MnFe3P4(CO7)4
_chemical_formula_sum   'Li12 Mn1 Fe3 P4 C4 O28'
_cell_volume   556.30315203
_cell_formula_units_Z   1
loop_
 _symmetry_equiv_pos_site_id
 _symmetry_equiv_pos_as_xyz
  1  'x, y, z'
loop_
 _atom_site_type_symbol
 _atom_site_label
 _atom_site_symmetry_multiplicity
 _atom_site_fract_x
 _atom_site_fract_y
 _atom_site_fract_z
 _atom_site_occupancy
  Li  Li0  1  0.092031  0.379642  0.250000  1
  Li  Li1  1  0.090476  0.879327  0.250000  1
  Li  Li2  1  0.274433  0.124311  0.024694  1
  Li  Li3  1  0.274433  0.124311  0.475306  1
  Li  Li4  1  0.273633  0.623450  0.023864  1
  Li  Li5  1  0.273633  0.623450  0.476136  1
  Li  Li6  1  0.725434  0.376444  0.525788  1
  Li  Li7  1  0.725434  0.376444  0.974212  1
  Li  Li8  1  0.725988  0.876942  0.525343  1
  Li  Li9  1  0.725988  0.876942  0.974657  1
  Li  Li10  1  0.908254  0.120270  0.750000  1
  Li  Li11  1  0.907034  0.619787  0.750000  1
  Mn  Mn12  1  0.659407  0.610981  0.250000  1
  Fe  Fe13  1  0.334656  0.394222  0.750000  1
  Fe  Fe14  1  0.335319  0.893658  0.750000  1
  Fe  Fe15  1  0.666001  0.105517  0.250000  1
  P  P16  1  0.413002  0.358350  0.250000  1
  P  P17  1  0.410338  0.860332  0.250000  1
  P  P18  1  0.587792  0.140734  0.750000  1
  P  P19  1  0.588821  0.639987  0.750000  1
  C  C20  1  0.034341  0.351166  0.750000  1
  C  C21  1  0.034116  0.851434  0.750000  1
  C  C22  1  0.965268  0.148673  0.250000  1
  C  C23  1  0.967264  0.648249  0.250000  1
  O  O24  1  0.071262  0.473758  0.750000  1
  O  O25  1  0.111335  0.178000  0.250000  1
  O  O26  1  0.070889  0.973997  0.750000  1
  O  O27  1  0.147238  0.254681  0.750000  1
  O  O28  1  0.113414  0.677820  0.250000  1
  O  O29  1  0.147179  0.754990  0.750000  1
  O  O30  1  0.311454  0.411983  0.063342  1
  O  O31  1  0.311454  0.411983  0.436658  1
  O  O32  1  0.310147  0.913965  0.062958  1
  O  O33  1  0.310147  0.913965  0.437042  1
  O  O34  1  0.421736  0.090389  0.750000  1
  O  O35  1  0.428043  0.202148  0.250000  1
  O  O36  1  0.421774  0.590609  0.750000  1
  O  O37  1  0.423602  0.704314  0.250000  1
  O  O38  1  0.571787  0.296840  0.750000  1
  O  O39  1  0.579084  0.407983  0.250000  1
  O  O40  1  0.571904  0.796522  0.750000  1
  O  O41  1  0.578286  0.907029  0.250000  1
  O  O42  1  0.689170  0.087450  0.936727  1
  O  O43  1  0.689170  0.087450  0.563273  1
  O  O44  1  0.690601  0.586506  0.565192  1
  O  O45  1  0.690601  0.586506  0.934808  1
  O  O46  1  0.852941  0.245119  0.250000  1
  O  O47  1  0.888981  0.321773  0.750000  1
  O  O48  1  0.855797  0.745390  0.250000  1
  O  O49  1  0.928693  0.026306  0.250000  1
  O  O50  1  0.888777  0.822055  0.750000  1
  O  O51  1  0.931436  0.525846  0.250000  1
