# generated using pymatgen
data_Li8Nb2S9
_symmetry_space_group_name_H-M   'P 1'
_cell_length_a   18.72701952
_cell_length_b   10.94265912
_cell_length_c   7.25302004
_cell_angle_alpha   70.45179131
_cell_angle_beta   78.64865731
_cell_angle_gamma   85.53677842
_symmetry_Int_Tables_number   1
_chemical_formula_structural   Li8Nb2S9
_chemical_formula_sum   'Li32 Nb8 S36'
_cell_volume   1373.12927238
_cell_formula_units_Z   4
loop_
 _symmetry_equiv_pos_site_id
 _symmetry_equiv_pos_as_xyz
  1  'x, y, z'
loop_
 _atom_site_type_symbol
 _atom_site_label
 _atom_site_symmetry_multiplicity
 _atom_site_fract_x
 _atom_site_fract_y
 _atom_site_fract_z
 _atom_site_occupancy
  Li  Li0  1  0.041281  0.125272  0.746862  1
  Li  Li1  1  0.048943  0.627461  0.541743  1
  Li  Li2  1  0.052748  0.625876  0.034690  1
  Li  Li3  1  0.039451  0.123125  0.334103  1
  Li  Li4  1  0.157812  0.400416  0.851632  1
  Li  Li5  1  0.158340  0.851770  0.121726  1
  Li  Li6  1  0.239507  0.626368  0.971428  1
  Li  Li7  1  0.240840  0.634349  0.412362  1
  Li  Li8  1  0.257031  0.125493  0.659880  1
  Li  Li9  1  0.257806  0.118492  0.209926  1
  Li  Li10  1  0.339413  0.342978  0.784211  1
  Li  Li11  1  0.343469  0.891570  0.504894  1
  Li  Li12  1  0.460517  0.630648  0.873023  1
  Li  Li13  1  0.445784  0.122077  0.604088  1
  Li  Li14  1  0.458085  0.624391  0.293986  1
  Li  Li15  1  0.548432  0.869818  0.924374  1
  Li  Li16  1  0.451568  0.130182  0.075626  1
  Li  Li17  1  0.541915  0.375608  0.706014  1
  Li  Li18  1  0.554216  0.877923  0.395912  1
  Li  Li19  1  0.539483  0.369352  0.126977  1
  Li  Li20  1  0.656531  0.108430  0.495106  1
  Li  Li21  1  0.660587  0.657022  0.215789  1
  Li  Li22  1  0.742194  0.881508  0.790074  1
  Li  Li23  1  0.742969  0.874507  0.340120  1
  Li  Li24  1  0.759160  0.365651  0.587638  1
  Li  Li25  1  0.760493  0.373632  0.028572  1
  Li  Li26  1  0.841660  0.148230  0.878274  1
  Li  Li27  1  0.842188  0.599584  0.148368  1
  Li  Li28  1  0.960549  0.876875  0.665897  1
  Li  Li29  1  0.947252  0.374124  0.965310  1
  Li  Li30  1  0.951057  0.372539  0.458257  1
  Li  Li31  1  0.958719  0.874728  0.253138  1
  Nb  Nb32  1  0.144237  0.864752  0.646507  1
  Nb  Nb33  1  0.136099  0.375076  0.365371  1
  Nb  Nb34  1  0.364739  0.871585  0.033228  1
  Nb  Nb35  1  0.356384  0.356206  0.281426  1
  Nb  Nb36  1  0.643616  0.643794  0.718574  1
  Nb  Nb37  1  0.635261  0.128415  0.966772  1
  Nb  Nb38  1  0.863901  0.624924  0.634629  1
  Nb  Nb39  1  0.855763  0.135248  0.353493  1
  S  S40  1  0.052849  0.880630  0.903711  1
  S  S41  1  0.067218  0.887869  0.400604  1
  S  S42  1  0.059944  0.360556  0.672765  1
  S  S43  1  0.054428  0.367787  0.163248  1
  S  S44  1  0.152549  0.637971  0.731740  1
  S  S45  1  0.141661  0.606722  0.256411  1
  S  S46  1  0.153137  0.126771  0.485327  1
  S  S47  1  0.246938  0.878056  0.797450  1
  S  S48  1  0.254029  0.875016  0.302700  1
  S  S49  1  0.251375  0.377766  0.542663  1
  S  S50  1  0.248774  0.376231  0.090251  1
  S  S51  1  0.344457  0.103487  0.903107  1
  S  S52  1  0.346366  0.636381  0.136833  1
  S  S53  1  0.358355  0.133064  0.380476  1
  S  S54  1  0.442075  0.869916  0.730072  1
  S  S55  1  0.432269  0.393539  0.958088  1
  S  S56  1  0.450299  0.866884  0.224691  1
  S  S57  1  0.442622  0.385964  0.456056  1
  S  S58  1  0.557378  0.614036  0.543944  1
  S  S59  1  0.549701  0.133116  0.775309  1
  S  S60  1  0.567731  0.606461  0.041912  1
  S  S61  1  0.557925  0.130084  0.269928  1
  S  S62  1  0.641645  0.866936  0.619524  1
  S  S63  1  0.653634  0.363619  0.863167  1
  S  S64  1  0.655543  0.896513  0.096893  1
  S  S65  1  0.751226  0.623769  0.909749  1
  S  S66  1  0.748625  0.622234  0.457337  1
  S  S67  1  0.745971  0.124984  0.697300  1
  S  S68  1  0.753062  0.121944  0.202550  1
  S  S69  1  0.846863  0.873229  0.514673  1
  S  S70  1  0.858339  0.393278  0.743589  1
  S  S71  1  0.847451  0.362029  0.268260  1
  S  S72  1  0.945572  0.632213  0.836752  1
  S  S73  1  0.940056  0.639444  0.327235  1
  S  S74  1  0.932782  0.112131  0.599396  1
  S  S75  1  0.947151  0.119370  0.096289  1
