# generated using pymatgen
data_Tm2GeO5
_symmetry_space_group_name_H-M   'P 1'
_cell_length_a   5.16670180
_cell_length_b   6.32809832
_cell_length_c   7.37275602
_cell_angle_alpha   68.07671177
_cell_angle_beta   90.16311674
_cell_angle_gamma   65.93626314
_symmetry_Int_Tables_number   1
_chemical_formula_structural   Tm2GeO5
_chemical_formula_sum   'Tm4 Ge2 O10'
_cell_volume   200.73710664
_cell_formula_units_Z   2
loop_
 _symmetry_equiv_pos_site_id
 _symmetry_equiv_pos_as_xyz
  1  'x, y, z'
loop_
 _atom_site_type_symbol
 _atom_site_label
 _atom_site_symmetry_multiplicity
 _atom_site_fract_x
 _atom_site_fract_y
 _atom_site_fract_z
 _atom_site_occupancy
  Tm  Tm0  1  0.630235  0.715485  0.764327  1
  Tm  Tm1  1  0.654786  0.718629  0.264957  1
  Tm  Tm2  1  0.344821  0.283088  0.733669  1
  Tm  Tm3  1  0.369101  0.284709  0.234920  1
  Ge  Ge4  1  0.999104  0.001221  0.498070  1
  Ge  Ge5  1  0.001835  0.998934  0.998069  1
  O  O6  1  0.765252  0.848909  0.963714  1
  O  O7  1  0.384665  0.854290  0.462295  1
  O  O8  1  0.015060  0.667638  0.631898  1
  O  O9  1  0.687459  0.331478  0.858839  1
  O  O10  1  0.318839  0.666988  0.134893  1
  O  O11  1  0.983508  0.334239  0.364242  1
  O  O12  1  0.614058  0.147847  0.536147  1
  O  O13  1  0.167150  0.998064  0.749541  1
  O  O14  1  0.240692  0.145989  0.036710  1
  O  O15  1  0.832310  0.003792  0.247417  1
