# generated using pymatgen
data_Li2V5NiO12
_symmetry_space_group_name_H-M   'P 1'
_cell_length_a   6.95022597
_cell_length_b   6.95022543
_cell_length_c   5.60851092
_cell_angle_alpha   72.28730142
_cell_angle_beta   107.71269366
_cell_angle_gamma   103.06755994
_symmetry_Int_Tables_number   1
_chemical_formula_structural   Li2V5NiO12
_chemical_formula_sum   'Li2 V5 Ni1 O12'
_cell_volume   243.16839923
_cell_formula_units_Z   1
loop_
 _symmetry_equiv_pos_site_id
 _symmetry_equiv_pos_as_xyz
  1  'x, y, z'
loop_
 _atom_site_type_symbol
 _atom_site_label
 _atom_site_symmetry_multiplicity
 _atom_site_fract_x
 _atom_site_fract_y
 _atom_site_fract_z
 _atom_site_occupancy
  Li  Li0  1  0.267937  0.267937  0.250000  1
  Li  Li1  1  0.728604  0.728604  0.750000  1
  V  V2  1  0.083905  0.083905  0.750000  1
  V  V3  1  0.166230  0.617339  0.705153  1
  V  V4  1  0.382180  0.808834  0.242705  1
  V  V5  1  0.617339  0.166230  0.794847  1
  V  V6  1  0.808834  0.382180  0.257295  1
  Ni  Ni7  1  0.912893  0.912893  0.250000  1
  O  O8  1  0.995984  0.814946  0.648197  1
  O  O9  1  0.097012  0.333804  0.810851  1
  O  O10  1  0.200134  0.978934  0.148055  1
  O  O11  1  0.415354  0.698938  0.577026  1
  O  O12  1  0.333804  0.097012  0.689149  1
  O  O13  1  0.312227  0.619226  0.078927  1
  O  O14  1  0.698938  0.415354  0.922974  1
  O  O15  1  0.612227  0.953290  0.190627  1
  O  O16  1  0.619226  0.312227  0.421073  1
  O  O17  1  0.814946  0.995984  0.851803  1
  O  O18  1  0.953290  0.612227  0.309373  1
  O  O19  1  0.978934  0.200134  0.351945  1
