# generated using pymatgen
data_LiCoSiO4
_symmetry_space_group_name_H-M   'P 1'
_cell_length_a   5.08816175
_cell_length_b   5.21503719
_cell_length_c   6.66926036
_cell_angle_alpha   89.99712170
_cell_angle_beta   90.51100078
_cell_angle_gamma   90.16463701
_symmetry_Int_Tables_number   1
_chemical_formula_structural   LiCoSiO4
_chemical_formula_sum   'Li2 Co2 Si2 O8'
_cell_volume   176.96073979
_cell_formula_units_Z   2
loop_
 _symmetry_equiv_pos_site_id
 _symmetry_equiv_pos_as_xyz
  1  'x, y, z'
loop_
 _atom_site_type_symbol
 _atom_site_label
 _atom_site_symmetry_multiplicity
 _atom_site_fract_x
 _atom_site_fract_y
 _atom_site_fract_z
 _atom_site_occupancy
  Li  Li0  1  0.499661  0.327961  0.241245  1
  Li  Li1  1  0.999639  0.671775  0.741359  1
  Co  Co2  1  0.995309  0.678933  0.238404  1
  Co  Co3  1  0.495152  0.320943  0.738474  1
  Si  Si4  1  0.495019  0.811842  0.491596  1
  Si  Si5  1  0.994815  0.188196  0.991343  1
  O  O6  1  0.045610  0.878093  0.007876  1
  O  O7  1  0.112134  0.342866  0.187815  1
  O  O8  1  0.635423  0.689589  0.292077  1
  O  O9  1  0.176682  0.751152  0.476607  1
  O  O10  1  0.546172  0.122266  0.507925  1
  O  O11  1  0.611693  0.657838  0.688280  1
  O  O12  1  0.135126  0.310498  0.791507  1
  O  O13  1  0.676668  0.248050  0.976372  1
