# generated using pymatgen
data_Ca5Y3Ti5Mn3O24
_symmetry_space_group_name_H-M   'P 1'
_cell_length_a   5.38879442
_cell_length_b   5.61958061
_cell_length_c   15.28738044
_cell_angle_alpha   90.09851502
_cell_angle_beta   89.83788442
_cell_angle_gamma   89.51335657
_symmetry_Int_Tables_number   1
_chemical_formula_structural   Ca5Y3Ti5Mn3O24
_chemical_formula_sum   'Ca5 Y3 Ti5 Mn3 O24'
_cell_volume   462.92488931
_cell_formula_units_Z   1
loop_
 _symmetry_equiv_pos_site_id
 _symmetry_equiv_pos_as_xyz
  1  'x, y, z'
loop_
 _atom_site_type_symbol
 _atom_site_label
 _atom_site_symmetry_multiplicity
 _atom_site_fract_x
 _atom_site_fract_y
 _atom_site_fract_z
 _atom_site_occupancy
  Ca  Ca0  1  0.012887  0.949007  0.376143  1
  Ca  Ca1  1  0.012795  0.942717  0.871997  1
  Ca  Ca2  1  0.490822  0.447102  0.376301  1
  Ca  Ca3  1  0.510662  0.546478  0.127463  1
  Ca  Ca4  1  0.991162  0.046184  0.127622  1
  Y  Y5  1  0.485243  0.431659  0.871194  1
  Y  Y6  1  0.516701  0.569667  0.625846  1
  Y  Y7  1  0.979958  0.069944  0.625475  1
  Ti  Ti8  1  0.012616  0.497078  0.251817  1
  Ti  Ti9  1  0.007568  0.503434  0.498947  1
  Ti  Ti10  1  0.514013  0.003053  0.250748  1
  Ti  Ti11  1  0.505157  0.977815  0.999016  1
  Ti  Ti12  1  0.991700  0.483551  0.999279  1
  Mn  Mn13  1  0.002387  0.503912  0.750100  1
  Mn  Mn14  1  0.496854  0.999449  0.749670  1
  Mn  Mn15  1  0.493482  0.004941  0.499916  1
  O  O16  1  0.078482  0.479128  0.123996  1
  O  O17  1  0.108074  0.467955  0.625129  1
  O  O18  1  0.202697  0.212063  0.271132  1
  O  O19  1  0.187301  0.200558  0.479026  1
  O  O20  1  0.212291  0.193005  0.774764  1
  O  O21  1  0.210030  0.218875  0.973941  1
  O  O22  1  0.301720  0.682211  0.773189  1
  O  O23  1  0.285055  0.707200  0.270783  1
  O  O24  1  0.294025  0.683229  0.479500  1
  O  O25  1  0.304313  0.705739  0.972827  1
  O  O26  1  0.415904  0.978234  0.123487  1
  O  O27  1  0.391395  0.969820  0.621945  1
  O  O28  1  0.580376  0.025568  0.375088  1
  O  O29  1  0.592091  0.033740  0.877745  1
  O  O30  1  0.707298  0.299569  0.019865  1
  O  O31  1  0.704842  0.285379  0.228207  1
  O  O32  1  0.712485  0.311713  0.532281  1
  O  O33  1  0.708760  0.315043  0.724637  1
  O  O34  1  0.795969  0.797894  0.022204  1
  O  O35  1  0.783881  0.790192  0.228257  1
  O  O36  1  0.800226  0.797685  0.529049  1
  O  O37  1  0.789455  0.813158  0.720119  1
  O  O38  1  0.912436  0.526348  0.374809  1
  O  O39  1  0.896887  0.529703  0.876483  1
