# generated using pymatgen
data_Sr6Te6O17
_symmetry_space_group_name_H-M   'P 1'
_cell_length_a   14.46197475
_cell_length_b   14.46197475
_cell_length_c   28.91983140
_cell_angle_alpha   67.09600925
_cell_angle_beta   112.90399075
_cell_angle_gamma   156.27628172
_symmetry_Int_Tables_number   1
_chemical_formula_structural   Sr6Te6O17
_chemical_formula_sum   'Sr24 Te24 O68'
_cell_volume   2232.78750664
_cell_formula_units_Z   4
loop_
 _symmetry_equiv_pos_site_id
 _symmetry_equiv_pos_as_xyz
  1  'x, y, z'
loop_
 _atom_site_type_symbol
 _atom_site_label
 _atom_site_symmetry_multiplicity
 _atom_site_fract_x
 _atom_site_fract_y
 _atom_site_fract_z
 _atom_site_occupancy
  Sr  Sr0  1  0.000000  0.500000  0.000000  1
  Sr  Sr1  1  0.500000  0.000000  0.500000  1
  Sr  Sr2  1  0.238327  0.238327  0.750000  1
  Sr  Sr3  1  0.761673  0.761673  0.250000  1
  Sr  Sr4  1  0.854778  0.739328  0.554995  1
  Sr  Sr5  1  0.739328  0.854778  0.945005  1
  Sr  Sr6  1  0.145222  0.260672  0.445005  1
  Sr  Sr7  1  0.260672  0.145222  0.054995  1
  Sr  Sr8  1  0.947762  0.545501  0.576066  1
  Sr  Sr9  1  0.545501  0.947762  0.923934  1
  Sr  Sr10  1  0.052238  0.454499  0.423934  1
  Sr  Sr11  1  0.454499  0.052238  0.076066  1
  Sr  Sr12  1  0.823096  0.684612  0.698753  1
  Sr  Sr13  1  0.684612  0.823096  0.801247  1
  Sr  Sr14  1  0.176904  0.315388  0.301247  1
  Sr  Sr15  1  0.315388  0.176904  0.198753  1
  Sr  Sr16  1  0.885532  0.594095  0.137979  1
  Sr  Sr17  1  0.594095  0.885532  0.362021  1
  Sr  Sr18  1  0.114468  0.405905  0.862021  1
  Sr  Sr19  1  0.405905  0.114468  0.637979  1
  Sr  Sr20  1  0.912569  0.580851  0.289462  1
  Sr  Sr21  1  0.580851  0.912569  0.210538  1
  Sr  Sr22  1  0.087431  0.419149  0.710538  1
  Sr  Sr23  1  0.419149  0.087431  0.789462  1
  Te  Te24  1  0.950900  0.559692  0.705606  1
  Te  Te25  1  0.559692  0.950900  0.794394  1
  Te  Te26  1  0.049100  0.440308  0.294394  1
  Te  Te27  1  0.440308  0.049100  0.205606  1
  Te  Te28  1  0.012248  0.459209  0.138773  1
  Te  Te29  1  0.459209  0.012248  0.361227  1
  Te  Te30  1  0.987752  0.540791  0.861227  1
  Te  Te31  1  0.540791  0.987752  0.638773  1
  Te  Te32  1  0.716001  0.691092  0.110243  1
  Te  Te33  1  0.691092  0.716001  0.389757  1
  Te  Te34  1  0.283999  0.308908  0.889757  1
  Te  Te35  1  0.308908  0.283999  0.610243  1
  Te  Te36  1  0.089043  0.397764  0.574114  1
  Te  Te37  1  0.397764  0.089043  0.925886  1
  Te  Te38  1  0.910957  0.602236  0.425886  1
  Te  Te39  1  0.602236  0.910957  0.074114  1
  Te  Te40  1  0.859025  0.652898  0.000308  1
  Te  Te41  1  0.652898  0.859025  0.499692  1
  Te  Te42  1  0.140975  0.347102  0.999692  1
  Te  Te43  1  0.347102  0.140975  0.500308  1
  Te  Te44  1  0.136166  0.303903  0.174052  1
  Te  Te45  1  0.303903  0.136166  0.325948  1
  Te  Te46  1  0.863834  0.696097  0.825948  1
  Te  Te47  1  0.696097  0.863834  0.674052  1
  O  O48  1  0.859368  0.554073  0.636292  1
  O  O49  1  0.554073  0.859368  0.863708  1
  O  O50  1  0.140632  0.445927  0.363708  1
  O  O51  1  0.445927  0.140632  0.136292  1
  O  O52  1  0.697740  0.384628  0.724811  1
  O  O53  1  0.384628  0.697740  0.775189  1
  O  O54  1  0.302260  0.615372  0.275189  1
  O  O55  1  0.615372  0.302260  0.224811  1
  O  O56  1  0.181284  0.857126  0.713692  1
  O  O57  1  0.857126  0.181284  0.786308  1
  O  O58  1  0.818716  0.142874  0.286308  1
  O  O59  1  0.142874  0.818716  0.213692  1
  O  O60  1  0.907577  0.455588  0.073783  1
  O  O61  1  0.455588  0.907577  0.426217  1
  O  O62  1  0.092423  0.544412  0.926217  1
  O  O63  1  0.544412  0.092423  0.573783  1
  O  O64  1  0.239152  0.747430  0.154805  1
  O  O65  1  0.747430  0.239152  0.345195  1
  O  O66  1  0.760848  0.252570  0.845195  1
  O  O67  1  0.252570  0.760848  0.654805  1
  O  O68  1  0.777605  0.269933  0.174252  1
  O  O69  1  0.269933  0.777605  0.325748  1
  O  O70  1  0.222395  0.730067  0.825748  1
  O  O71  1  0.730067  0.222395  0.674252  1
  O  O72  1  0.642329  0.595167  0.178029  1
  O  O73  1  0.595167  0.642329  0.321971  1
  O  O74  1  0.357671  0.404833  0.821971  1
  O  O75  1  0.404833  0.357671  0.678029  1
  O  O76  1  0.015328  0.892436  0.124987  1
  O  O77  1  0.892436  0.015328  0.375013  1
  O  O78  1  0.984672  0.107564  0.875013  1
  O  O79  1  0.107564  0.984672  0.624987  1
  O  O80  1  0.990074  0.379610  0.611964  1
  O  O81  1  0.379610  0.990074  0.888036  1
  O  O82  1  0.009926  0.620390  0.388036  1
  O  O83  1  0.620390  0.009926  0.111964  1
  O  O84  1  0.908844  0.295159  0.511864  1
  O  O85  1  0.295159  0.908844  0.988136  1
  O  O86  1  0.091156  0.704841  0.488136  1
  O  O87  1  0.704841  0.091156  0.011864  1
  O  O88  1  0.372369  0.716122  0.557312  1
  O  O89  1  0.716122  0.372369  0.942688  1
  O  O90  1  0.627631  0.283878  0.442688  1
  O  O91  1  0.283878  0.627631  0.057312  1
  O  O92  1  0.852269  0.783151  0.991365  1
  O  O93  1  0.783151  0.852269  0.508635  1
  O  O94  1  0.147731  0.216849  0.008635  1
  O  O95  1  0.216849  0.147731  0.491365  1
  O  O96  1  0.081058  0.821013  0.056723  1
  O  O97  1  0.821013  0.081058  0.443277  1
  O  O98  1  0.918942  0.178987  0.943277  1
  O  O99  1  0.178987  0.918942  0.556723  1
  O  O100  1  0.596115  0.368929  0.036295  1
  O  O101  1  0.368929  0.596115  0.463705  1
  O  O102  1  0.403885  0.631071  0.963705  1
  O  O103  1  0.631071  0.403885  0.536295  1
  O  O104  1  0.111669  0.143771  0.190650  1
  O  O105  1  0.143771  0.111669  0.309350  1
  O  O106  1  0.888331  0.856229  0.809350  1
  O  O107  1  0.856229  0.888331  0.690650  1
  O  O108  1  0.403405  0.564158  0.212513  1
  O  O109  1  0.564158  0.403405  0.287487  1
  O  O110  1  0.596595  0.435842  0.787487  1
  O  O111  1  0.435842  0.596595  0.712513  1
  O  O112  1  0.921121  0.112399  0.219321  1
  O  O113  1  0.112399  0.921121  0.280679  1
  O  O114  1  0.078879  0.887601  0.780679  1
  O  O115  1  0.887601  0.078879  0.719321  1
