# generated using pymatgen
data_LiMnF3
_symmetry_space_group_name_H-M   'P 1'
_cell_length_a   10.28897412
_cell_length_b   9.27624776
_cell_length_c   5.71913113
_cell_angle_alpha   90.00000000
_cell_angle_beta   75.03034893
_cell_angle_gamma   90.00000000
_symmetry_Int_Tables_number   1
_chemical_formula_structural   LiMnF3
_chemical_formula_sum   'Li8 Mn8 F24'
_cell_volume   527.32677233
_cell_formula_units_Z   8
loop_
 _symmetry_equiv_pos_site_id
 _symmetry_equiv_pos_as_xyz
  1  'x, y, z'
loop_
 _atom_site_type_symbol
 _atom_site_label
 _atom_site_symmetry_multiplicity
 _atom_site_fract_x
 _atom_site_fract_y
 _atom_site_fract_z
 _atom_site_occupancy
  Li  Li0  1  0.045006  0.164840  0.755210  1
  Li  Li1  1  0.045006  0.335160  0.255210  1
  Li  Li2  1  0.438097  0.334018  0.848384  1
  Li  Li3  1  0.438097  0.165982  0.348384  1
  Li  Li4  1  0.561903  0.834018  0.651616  1
  Li  Li5  1  0.561903  0.665982  0.151616  1
  Li  Li6  1  0.954994  0.664840  0.744790  1
  Li  Li7  1  0.954994  0.835160  0.244790  1
  Mn  Mn8  1  0.258581  0.655685  0.947205  1
  Mn  Mn9  1  0.258930  0.039585  0.940614  1
  Mn  Mn10  1  0.258581  0.844315  0.447205  1
  Mn  Mn11  1  0.258930  0.460415  0.440614  1
  Mn  Mn12  1  0.741070  0.539585  0.559386  1
  Mn  Mn13  1  0.741419  0.155685  0.552795  1
  Mn  Mn14  1  0.741070  0.960415  0.059386  1
  Mn  Mn15  1  0.741419  0.344315  0.052795  1
  F  F16  1  0.139883  0.985582  0.689227  1
  F  F17  1  0.150919  0.658817  0.662940  1
  F  F18  1  0.114930  0.301897  0.525123  1
  F  F19  1  0.139883  0.514418  0.189227  1
  F  F20  1  0.150919  0.841183  0.162940  1
  F  F21  1  0.114930  0.198103  0.025123  1
  F  F22  1  0.357357  0.488429  0.719263  1
  F  F23  1  0.364811  0.835930  0.737944  1
  F  F24  1  0.396264  0.166642  0.692465  1
  F  F25  1  0.357357  0.011571  0.219263  1
  F  F26  1  0.364811  0.664070  0.237944  1
  F  F27  1  0.396264  0.333358  0.192465  1
  F  F28  1  0.603736  0.666642  0.807535  1
  F  F29  1  0.635189  0.335930  0.762056  1
  F  F30  1  0.642643  0.988429  0.780737  1
  F  F31  1  0.603736  0.833358  0.307535  1
  F  F32  1  0.635189  0.164070  0.262056  1
  F  F33  1  0.642643  0.511571  0.280737  1
  F  F34  1  0.885070  0.801897  0.974877  1
  F  F35  1  0.849081  0.158817  0.837060  1
  F  F36  1  0.860117  0.485582  0.810773  1
  F  F37  1  0.885070  0.698103  0.474877  1
  F  F38  1  0.849081  0.341183  0.337060  1
  F  F39  1  0.860117  0.014418  0.310773  1
