# generated using pymatgen
data_Na5SbO5
_symmetry_space_group_name_H-M   'P 1'
_cell_length_a   4.46651057
_cell_length_b   5.88821690
_cell_length_c   6.48348384
_cell_angle_alpha   72.81838575
_cell_angle_beta   90.15802487
_cell_angle_gamma   67.75569259
_symmetry_Int_Tables_number   1
_chemical_formula_structural   Na5SbO5
_chemical_formula_sum   'Na5 Sb1 O5'
_cell_volume   149.50979557
_cell_formula_units_Z   1
loop_
 _symmetry_equiv_pos_site_id
 _symmetry_equiv_pos_as_xyz
  1  'x, y, z'
loop_
 _atom_site_type_symbol
 _atom_site_label
 _atom_site_symmetry_multiplicity
 _atom_site_fract_x
 _atom_site_fract_y
 _atom_site_fract_z
 _atom_site_occupancy
  Na  Na0  1  0.678548  0.643542  0.857140  1
  Na  Na1  1  0.696903  0.605575  0.324396  1
  Na  Na2  1  0.301146  0.392832  0.673937  1
  Na  Na3  1  0.323899  0.357552  0.137356  1
  Na  Na4  1  0.993896  0.000465  0.499501  1
  Sb  Sb5  1  0.006857  0.000001  0.999687  1
  O  O6  1  0.131117  0.737055  0.843035  1
  O  O7  1  0.142800  0.712845  0.292158  1
  O  O8  1  0.852858  0.288324  0.707259  1
  O  O9  1  0.870576  0.263582  0.155818  1
  O  O10  1  0.494991  0.000055  0.997950  1
