# generated using pymatgen
data_Na4Ti7O16
_symmetry_space_group_name_H-M   'P 1'
_cell_length_a   6.08497783
_cell_length_b   6.17435513
_cell_length_c   9.02608167
_cell_angle_alpha   93.53451298
_cell_angle_beta   90.00000000
_cell_angle_gamma   90.00000000
_symmetry_Int_Tables_number   1
_chemical_formula_structural   Na4Ti7O16
_chemical_formula_sum   'Na4 Ti7 O16'
_cell_volume   338.47218274
_cell_formula_units_Z   1
loop_
 _symmetry_equiv_pos_site_id
 _symmetry_equiv_pos_as_xyz
  1  'x, y, z'
loop_
 _atom_site_type_symbol
 _atom_site_label
 _atom_site_symmetry_multiplicity
 _atom_site_fract_x
 _atom_site_fract_y
 _atom_site_fract_z
 _atom_site_occupancy
  Na  Na0  1  0.000000  0.005087  0.001760  1
  Na  Na1  1  0.500000  0.022351  0.254111  1
  Na  Na2  1  0.500000  0.477649  0.495889  1
  Na  Na3  1  0.000000  0.494913  0.748239  1
  Ti  Ti4  1  0.244497  0.513145  0.130894  1
  Ti  Ti5  1  0.755503  0.513145  0.130894  1
  Ti  Ti6  1  0.000000  0.750000  0.375000  1
  Ti  Ti7  1  0.244497  0.986855  0.619106  1
  Ti  Ti8  1  0.755503  0.986855  0.619106  1
  Ti  Ti9  1  0.500000  0.250000  0.875000  1
  Ti  Ti10  1  0.500000  0.750000  0.875000  1
  O  O11  1  0.500000  0.730784  0.094614  1
  O  O12  1  0.500000  0.302104  0.099603  1
  O  O13  1  0.000000  0.741382  0.151038  1
  O  O14  1  0.000000  0.332938  0.096947  1
  O  O15  1  0.767629  0.532384  0.331970  1
  O  O16  1  0.232371  0.532384  0.331970  1
  O  O17  1  0.767629  0.967616  0.418030  1
  O  O18  1  0.232371  0.967616  0.418030  1
  O  O19  1  0.000000  0.167062  0.653053  1
  O  O20  1  0.500000  0.197896  0.650397  1
  O  O21  1  0.500000  0.769216  0.655386  1
  O  O22  1  0.000000  0.758618  0.598962  1
  O  O23  1  0.292998  0.999642  0.864357  1
  O  O24  1  0.707002  0.999642  0.864357  1
  O  O25  1  0.707002  0.500358  0.885643  1
  O  O26  1  0.292998  0.500358  0.885643  1
