# generated using pymatgen
data_Al2FeO4
_symmetry_space_group_name_H-M   'P 1'
_cell_length_a   5.81204136
_cell_length_b   5.81204142
_cell_length_c   23.37140860
_cell_angle_alpha   60.17428620
_cell_angle_beta   60.17428589
_cell_angle_gamma   60.00000410
_symmetry_Int_Tables_number   1
_chemical_formula_structural   Al2FeO4
_chemical_formula_sum   'Al16 Fe8 O32'
_cell_volume   559.71425539
_cell_formula_units_Z   8
loop_
 _symmetry_equiv_pos_site_id
 _symmetry_equiv_pos_as_xyz
  1  'x, y, z'
loop_
 _atom_site_type_symbol
 _atom_site_label
 _atom_site_symmetry_multiplicity
 _atom_site_fract_x
 _atom_site_fract_y
 _atom_site_fract_z
 _atom_site_occupancy
  Al  Al0  1  0.006742  0.496178  0.125225  1
  Al  Al1  1  0.496178  0.496178  0.125225  1
  Al  Al2  1  0.001619  0.495960  0.376615  1
  Al  Al3  1  0.496178  0.006742  0.125225  1
  Al  Al4  1  0.495960  0.495960  0.376615  1
  Al  Al5  1  0.000356  0.501030  0.624396  1
  Al  Al6  1  0.880790  0.880790  0.214407  1
  Al  Al7  1  0.500312  0.500312  0.499766  1
  Al  Al8  1  0.495960  0.001619  0.376615  1
  Al  Al9  1  0.501030  0.501030  0.624396  1
  Al  Al10  1  0.008011  0.499059  0.873468  1
  Al  Al11  1  0.502878  0.502878  0.747842  1
  Al  Al12  1  0.501030  0.000356  0.624396  1
  Al  Al13  1  0.499059  0.499059  0.873468  1
  Al  Al14  1  0.499059  0.008011  0.873468  1
  Al  Al15  1  0.877638  0.877638  0.966771  1
  Fe  Fe16  1  0.124259  0.124259  0.031806  1
  Fe  Fe17  1  0.120651  0.120651  0.284512  1
  Fe  Fe18  1  0.499369  0.499369  0.000473  1
  Fe  Fe19  1  0.496682  0.496682  0.252489  1
  Fe  Fe20  1  0.123233  0.123233  0.532575  1
  Fe  Fe21  1  0.127469  0.127469  0.779398  1
  Fe  Fe22  1  0.877773  0.877773  0.466670  1
  Fe  Fe23  1  0.872289  0.872289  0.720783  1
  O  O24  1  0.250536  0.250536  0.072939  1
  O  O25  1  0.260465  0.260465  0.179651  1
  O  O26  1  0.250536  0.707173  0.072939  1
  O  O27  1  0.707173  0.250536  0.072939  1
  O  O28  1  0.245537  0.245537  0.324929  1
  O  O29  1  0.269268  0.754647  0.180360  1
  O  O30  1  0.754647  0.269268  0.180360  1
  O  O31  1  0.261341  0.261341  0.428994  1
  O  O32  1  0.744586  0.744586  0.066561  1
  O  O33  1  0.245537  0.709209  0.324929  1
  O  O34  1  0.754647  0.754647  0.180360  1
  O  O35  1  0.709209  0.245537  0.324929  1
  O  O36  1  0.266214  0.266214  0.565862  1
  O  O37  1  0.303412  0.732498  0.432898  1
  O  O38  1  0.751282  0.751282  0.311539  1
  O  O39  1  0.732498  0.303412  0.432898  1
  O  O40  1  0.267127  0.267127  0.674654  1
  O  O41  1  0.266214  0.704126  0.565862  1
  O  O42  1  0.732498  0.732498  0.432898  1
  O  O43  1  0.704126  0.266214  0.565862  1
  O  O44  1  0.268873  0.268873  0.814613  1
  O  O45  1  0.297058  0.735984  0.682744  1
  O  O46  1  0.735973  0.735973  0.573020  1
  O  O47  1  0.266394  0.266394  0.925204  1
  O  O48  1  0.735984  0.297058  0.682744  1
  O  O49  1  0.268873  0.703802  0.814613  1
  O  O50  1  0.735984  0.735984  0.682744  1
  O  O51  1  0.703802  0.268873  0.814613  1
  O  O52  1  0.259837  0.759221  0.930430  1
  O  O53  1  0.727400  0.727400  0.829450  1
  O  O54  1  0.759221  0.259837  0.930430  1
  O  O55  1  0.759221  0.759221  0.930430  1
