# generated using pymatgen
data_Ba3Y2Br12
_symmetry_space_group_name_H-M   'P 1'
_cell_length_a   13.50206051
_cell_length_b   13.00816324
_cell_length_c   13.89564435
_cell_angle_alpha   90.00000000
_cell_angle_beta   88.66611099
_cell_angle_gamma   90.00000000
_symmetry_Int_Tables_number   1
_chemical_formula_structural   Ba3Y2Br12
_chemical_formula_sum   'Ba12 Y8 Br48'
_cell_volume   2439.92802533
_cell_formula_units_Z   4
loop_
 _symmetry_equiv_pos_site_id
 _symmetry_equiv_pos_as_xyz
  1  'x, y, z'
loop_
 _atom_site_type_symbol
 _atom_site_label
 _atom_site_symmetry_multiplicity
 _atom_site_fract_x
 _atom_site_fract_y
 _atom_site_fract_z
 _atom_site_occupancy
  Ba  Ba0  1  0.028160  0.219930  0.804179  1
  Ba  Ba1  1  0.016592  0.610181  0.690811  1
  Ba  Ba2  1  0.192748  0.990480  0.524597  1
  Ba  Ba3  1  0.307252  0.490480  0.975403  1
  Ba  Ba4  1  0.483408  0.110181  0.809189  1
  Ba  Ba5  1  0.471840  0.719930  0.695821  1
  Ba  Ba6  1  0.528160  0.280070  0.304179  1
  Ba  Ba7  1  0.516593  0.889819  0.190811  1
  Ba  Ba8  1  0.692748  0.509520  0.024597  1
  Ba  Ba9  1  0.807252  0.009520  0.475403  1
  Ba  Ba10  1  0.983407  0.389819  0.309189  1
  Ba  Ba11  1  0.971840  0.780070  0.195821  1
  Y  Y12  1  0.189846  0.850311  0.934462  1
  Y  Y13  1  0.192392  0.176527  0.145340  1
  Y  Y14  1  0.310154  0.350311  0.565538  1
  Y  Y15  1  0.307608  0.676527  0.354660  1
  Y  Y16  1  0.692392  0.323473  0.645340  1
  Y  Y17  1  0.689846  0.649689  0.434462  1
  Y  Y18  1  0.807608  0.823473  0.854660  1
  Y  Y19  1  0.810154  0.149689  0.065537  1
  Br  Br20  1  0.993209  0.749513  0.922918  1
  Br  Br21  1  0.996409  0.124223  0.585241  1
  Br  Br22  1  0.096842  0.453408  0.852893  1
  Br  Br23  1  0.119794  0.420585  0.535347  1
  Br  Br24  1  0.082068  0.154690  0.316313  1
  Br  Br25  1  0.116226  0.611758  0.319869  1
  Br  Br26  1  0.114180  0.977298  0.086580  1
  Br  Br27  1  0.137417  0.978677  0.787776  1
  Br  Br28  1  0.186061  0.695380  0.074218  1
  Br  Br29  1  0.220379  0.381556  0.192010  1
  Br  Br30  1  0.257914  0.223642  0.954700  1
  Br  Br31  1  0.243711  0.700193  0.803013  1
  Br  Br32  1  0.256289  0.200193  0.696987  1
  Br  Br33  1  0.242086  0.723642  0.545300  1
  Br  Br34  1  0.279621  0.881556  0.307990  1
  Br  Br35  1  0.313939  0.195380  0.425782  1
  Br  Br36  1  0.362583  0.478677  0.712224  1
  Br  Br37  1  0.385820  0.477298  0.413420  1
  Br  Br38  1  0.383774  0.111758  0.180131  1
  Br  Br39  1  0.380206  0.920585  0.964653  1
  Br  Br40  1  0.417932  0.654690  0.183687  1
  Br  Br41  1  0.403158  0.953408  0.647107  1
  Br  Br42  1  0.503591  0.624223  0.914759  1
  Br  Br43  1  0.506791  0.249513  0.577082  1
  Br  Br44  1  0.493209  0.750487  0.422918  1
  Br  Br45  1  0.496409  0.375777  0.085241  1
  Br  Br46  1  0.596842  0.046592  0.352893  1
  Br  Br47  1  0.582068  0.345310  0.816313  1
  Br  Br48  1  0.619794  0.079415  0.035347  1
  Br  Br49  1  0.616226  0.888242  0.819869  1
  Br  Br50  1  0.614180  0.522702  0.586580  1
  Br  Br51  1  0.637417  0.521323  0.287776  1
  Br  Br52  1  0.686061  0.804620  0.574218  1
  Br  Br53  1  0.720379  0.118444  0.692010  1
  Br  Br54  1  0.757914  0.276358  0.454700  1
  Br  Br55  1  0.743711  0.799807  0.303013  1
  Br  Br56  1  0.756289  0.299807  0.196987  1
  Br  Br57  1  0.742086  0.776358  0.045300  1
  Br  Br58  1  0.779621  0.618444  0.807990  1
  Br  Br59  1  0.813939  0.304620  0.925782  1
  Br  Br60  1  0.862583  0.021323  0.212224  1
  Br  Br61  1  0.885820  0.022702  0.913420  1
  Br  Br62  1  0.883774  0.388242  0.680131  1
  Br  Br63  1  0.917932  0.845310  0.683687  1
  Br  Br64  1  0.880206  0.579415  0.464653  1
  Br  Br65  1  0.903158  0.546592  0.147107  1
  Br  Br66  1  0.003591  0.875777  0.414759  1
  Br  Br67  1  0.006791  0.250487  0.077082  1
