# generated using pymatgen
data_P5(WO6)4
_symmetry_space_group_name_H-M   'P 1'
_cell_length_a   8.51796637
_cell_length_b   9.59852178
_cell_length_c   14.16382660
_cell_angle_alpha   78.35204256
_cell_angle_beta   72.50068553
_cell_angle_gamma   63.65901182
_symmetry_Int_Tables_number   1
_chemical_formula_structural   P5(WO6)4
_chemical_formula_sum   'P10 W8 O48'
_cell_volume   986.58323725
_cell_formula_units_Z   2
loop_
 _symmetry_equiv_pos_site_id
 _symmetry_equiv_pos_as_xyz
  1  'x, y, z'
loop_
 _atom_site_type_symbol
 _atom_site_label
 _atom_site_symmetry_multiplicity
 _atom_site_fract_x
 _atom_site_fract_y
 _atom_site_fract_z
 _atom_site_occupancy
  P  P0  1  0.336577  0.375605  0.104537  1
  P  P1  1  0.319343  0.122768  0.397345  1
  P  P2  1  0.235842  0.050986  0.960130  1
  P  P3  1  0.253042  0.550986  0.460130  1
  P  P4  1  0.097789  0.750444  0.750365  1
  P  P5  1  0.901403  0.250444  0.250365  1
  P  P6  1  0.750049  0.449233  0.539851  1
  P  P7  1  0.760865  0.949233  0.039851  1
  P  P8  1  0.660543  0.622768  0.897345  1
  P  P9  1  0.683280  0.875605  0.604537  1
  W  W10  1  0.027072  0.508149  0.318849  1
  W  W11  1  0.349225  0.990785  0.181968  1
  W  W12  1  0.791480  0.288295  0.020720  1
  W  W13  1  0.598152  0.212665  0.482248  1
  W  W14  1  0.206937  0.712665  0.982248  1
  W  W15  1  0.399505  0.788295  0.520720  1
  W  W16  1  0.645928  0.008149  0.818849  1
  W  W17  1  0.978021  0.490785  0.681968  1
  O  O18  1  0.087492  0.107669  0.227204  1
  O  O19  1  0.237088  0.482823  0.025750  1
  O  O20  1  0.253368  0.008764  0.479928  1
  O  O21  1  0.344369  0.213550  0.111038  1
  O  O22  1  0.166276  0.282976  0.395771  1
  O  O23  1  0.380303  0.051611  0.295953  1
  O  O24  1  0.241288  0.443842  0.208676  1
  O  O25  1  0.100772  0.309654  0.732894  1
  O  O26  1  0.212214  0.740975  0.098381  1
  O  O27  1  0.146685  0.592503  0.379321  1
  O  O28  1  0.153286  0.480222  0.553432  1
  O  O29  1  0.062654  0.202222  0.986278  1
  O  O30  1  0.531078  0.368288  0.082874  1
  O  O31  1  0.488289  0.119691  0.415146  1
  O  O32  1  0.077635  0.607669  0.727204  1
  O  O33  1  0.248846  0.702222  0.486278  1
  O  O34  1  0.313061  0.980222  0.053432  1
  O  O35  1  0.381492  0.092503  0.879321  1
  O  O36  1  0.448430  0.240975  0.598381  1
  O  O37  1  0.356681  0.809654  0.232894  1
  O  O38  1  0.447034  0.435890  0.423968  1
  O  O39  1  0.800469  0.072847  0.073653  1
  O  O40  1  0.173859  0.702288  0.841163  1
  O  O41  1  0.216486  0.802217  0.659121  1
  O  O42  1  0.822176  0.302217  0.159121  1
  O  O43  1  0.782690  0.202288  0.341163  1
  O  O44  1  0.553029  0.572847  0.573653  1
  O  O45  1  0.193108  0.935890  0.923968  1
  O  O46  1  0.643283  0.187027  0.766249  1
  O  O47  1  0.548468  0.759920  0.405312  1
  O  O48  1  0.612294  0.915089  0.122986  1
  O  O49  1  0.683710  0.023033  0.946413  1
  O  O50  1  0.758042  0.297410  0.518951  1
  O  O51  1  0.476874  0.619691  0.915146  1
  O  O52  1  0.517759  0.868288  0.582874  1
  O  O53  1  0.933410  0.389217  0.270071  1
  O  O54  1  0.925596  0.797410  0.018951  1
  O  O55  1  0.846843  0.523033  0.446413  1
  O  O56  1  0.849632  0.415089  0.622986  1
  O  O57  1  0.786301  0.259920  0.905312  1
  O  O58  1  0.903441  0.687027  0.266249  1
  O  O59  1  0.606194  0.943842  0.708676  1
  O  O60  1  0.772133  0.551611  0.795953  1
  O  O61  1  0.654977  0.782976  0.895771  1
  O  O62  1  0.831043  0.713550  0.611038  1
  O  O63  1  0.757939  0.508764  0.979928  1
  O  O64  1  0.754339  0.982823  0.525750  1
  O  O65  1  0.907302  0.889217  0.770071  1
