# generated using pymatgen
data_Li2Cr2Si5O13
_symmetry_space_group_name_H-M   'P 1'
_cell_length_a   7.66638802
_cell_length_b   8.00485859
_cell_length_c   9.85915210
_cell_angle_alpha   83.27796143
_cell_angle_beta   68.84208395
_cell_angle_gamma   68.74018088
_symmetry_Int_Tables_number   1
_chemical_formula_structural   Li2Cr2Si5O13
_chemical_formula_sum   'Li4 Cr4 Si10 O26'
_cell_volume   525.78729087
_cell_formula_units_Z   2
loop_
 _symmetry_equiv_pos_site_id
 _symmetry_equiv_pos_as_xyz
  1  'x, y, z'
loop_
 _atom_site_type_symbol
 _atom_site_label
 _atom_site_symmetry_multiplicity
 _atom_site_fract_x
 _atom_site_fract_y
 _atom_site_fract_z
 _atom_site_occupancy
  Li  Li0  1  0.218382  0.066097  0.857377  1
  Li  Li1  1  0.147402  0.403690  0.742649  1
  Li  Li2  1  0.852598  0.596310  0.257351  1
  Li  Li3  1  0.781618  0.933903  0.142623  1
  Cr  Cr4  1  0.040366  0.149325  0.600530  1
  Cr  Cr5  1  0.435529  0.839664  0.404173  1
  Cr  Cr6  1  0.564471  0.160336  0.595827  1
  Cr  Cr7  1  0.959634  0.850675  0.399470  1
  Si  Si8  1  0.168850  0.224735  0.262078  1
  Si  Si9  1  0.204416  0.696173  0.047070  1
  Si  Si10  1  0.314506  0.455340  0.404738  1
  Si  Si11  1  0.241684  0.754752  0.737003  1
  Si  Si12  1  0.618066  0.704540  0.046100  1
  Si  Si13  1  0.381934  0.295460  0.953900  1
  Si  Si14  1  0.758316  0.245248  0.262997  1
  Si  Si15  1  0.685494  0.544660  0.595262  1
  Si  Si16  1  0.795584  0.303827  0.952930  1
  Si  Si17  1  0.831150  0.775265  0.737922  1
  O  O18  1  0.009270  0.771873  0.188540  1
  O  O19  1  0.189945  0.059925  0.374664  1
  O  O20  1  0.319015  0.165673  0.093601  1
  O  O21  1  0.207167  0.392555  0.310091  1
  O  O22  1  0.059755  0.686784  0.745906  1
  O  O23  1  0.401815  0.694542  0.071076  1
  O  O24  1  0.207778  0.668530  0.430665  1
  O  O25  1  0.316192  0.328629  0.546182  1
  O  O26  1  0.552694  0.416774  0.299629  1
  O  O27  1  0.373428  0.218986  0.813159  1
  O  O28  1  0.218855  0.500453  0.999147  1
  O  O29  1  0.267746  0.918530  0.627474  1
  O  O30  1  0.184516  0.829808  0.904708  1
  O  O31  1  0.815484  0.170192  0.095292  1
  O  O32  1  0.732254  0.081470  0.372526  1
  O  O33  1  0.781145  0.499547  0.000853  1
  O  O34  1  0.626572  0.781014  0.186841  1
  O  O35  1  0.447306  0.583226  0.700371  1
  O  O36  1  0.683808  0.671371  0.453818  1
  O  O37  1  0.792222  0.331470  0.569335  1
  O  O38  1  0.598185  0.305458  0.928924  1
  O  O39  1  0.940245  0.313216  0.254094  1
  O  O40  1  0.792833  0.607445  0.689909  1
  O  O41  1  0.680985  0.834327  0.906399  1
  O  O42  1  0.810055  0.940075  0.625336  1
  O  O43  1  0.990730  0.228127  0.811460  1
