# generated using pymatgen
data_Li2VP2O7
_symmetry_space_group_name_H-M   'P 1'
_cell_length_a   5.09704785
_cell_length_b   7.13597478
_cell_length_c   8.48605701
_cell_angle_alpha   90.00011089
_cell_angle_beta   90.00007710
_cell_angle_gamma   70.67666849
_symmetry_Int_Tables_number   1
_chemical_formula_structural   Li2VP2O7
_chemical_formula_sum   'Li4 V2 P4 O14'
_cell_volume   291.27043225
_cell_formula_units_Z   2
loop_
 _symmetry_equiv_pos_site_id
 _symmetry_equiv_pos_as_xyz
  1  'x, y, z'
loop_
 _atom_site_type_symbol
 _atom_site_label
 _atom_site_symmetry_multiplicity
 _atom_site_fract_x
 _atom_site_fract_y
 _atom_site_fract_z
 _atom_site_occupancy
  Li  Li0  1  0.171271  0.347036  0.851519  1
  Li  Li1  1  0.280095  0.906029  0.165723  1
  Li  Li2  1  0.719907  0.093972  0.665723  1
  Li  Li3  1  0.828731  0.652964  0.351519  1
  V  V4  1  0.208153  0.278916  0.497550  1
  V  V5  1  0.791836  0.721078  0.997560  1
  P  P6  1  0.390361  0.479374  0.182492  1
  P  P7  1  0.207282  0.913779  0.790142  1
  P  P8  1  0.792722  0.086222  0.290138  1
  P  P9  1  0.609641  0.520625  0.682495  1
  O  O10  1  0.067246  0.124532  0.314574  1
  O  O11  1  0.142756  0.110377  0.698768  1
  O  O12  1  0.207829  0.506053  0.035806  1
  O  O13  1  0.227916  0.500173  0.335983  1
  O  O14  1  0.434912  0.379724  0.684485  1
  O  O15  1  0.629517  0.084530  0.441504  1
  O  O16  1  0.600363  0.251489  0.169288  1
  O  O17  1  0.399640  0.748512  0.669291  1
  O  O18  1  0.370483  0.915475  0.941506  1
  O  O19  1  0.565083  0.620277  0.184487  1
  O  O20  1  0.772081  0.499826  0.835982  1
  O  O21  1  0.792173  0.493949  0.535806  1
  O  O22  1  0.857245  0.889624  0.198769  1
  O  O23  1  0.932755  0.875470  0.814577  1
