# generated using pymatgen
data_LiVSiO4
_symmetry_space_group_name_H-M   'P 1'
_cell_length_a   10.40681493
_cell_length_b   6.82672701
_cell_length_c   5.09286689
_cell_angle_alpha   90.00000000
_cell_angle_beta   90.00000000
_cell_angle_gamma   90.00000000
_symmetry_Int_Tables_number   1
_chemical_formula_structural   LiVSiO4
_chemical_formula_sum   'Li4 V4 Si4 O16'
_cell_volume   361.82010319
_cell_formula_units_Z   4
loop_
 _symmetry_equiv_pos_site_id
 _symmetry_equiv_pos_as_xyz
  1  'x, y, z'
loop_
 _atom_site_type_symbol
 _atom_site_label
 _atom_site_symmetry_multiplicity
 _atom_site_fract_x
 _atom_site_fract_y
 _atom_site_fract_z
 _atom_site_occupancy
  Li  Li0  1  0.156123  0.713341  0.685447  1
  Li  Li1  1  0.343877  0.213341  0.185447  1
  Li  Li2  1  0.656123  0.713341  0.814553  1
  Li  Li3  1  0.843877  0.213341  0.314553  1
  V  V4  1  0.158462  0.217413  0.682916  1
  V  V5  1  0.341538  0.717413  0.182916  1
  V  V6  1  0.658462  0.217413  0.817084  1
  V  V7  1  0.841538  0.717413  0.317084  1
  Si  Si8  1  0.093324  0.961973  0.181949  1
  Si  Si9  1  0.406676  0.461973  0.681949  1
  Si  Si10  1  0.593324  0.961973  0.318051  1
  Si  Si11  1  0.906676  0.461973  0.818051  1
  O  O12  1  0.060214  0.453479  0.744032  1
  O  O13  1  0.116720  0.972707  0.862512  1
  O  O14  1  0.161282  0.157659  0.311611  1
  O  O15  1  0.165860  0.765254  0.298550  1
  O  O16  1  0.334140  0.265254  0.798550  1
  O  O17  1  0.338718  0.657659  0.811611  1
  O  O18  1  0.383280  0.472707  0.362512  1
  O  O19  1  0.439786  0.953479  0.244032  1
  O  O20  1  0.560214  0.453479  0.755968  1
  O  O21  1  0.616720  0.972707  0.637488  1
  O  O22  1  0.661282  0.157659  0.188389  1
  O  O23  1  0.665860  0.765254  0.201450  1
  O  O24  1  0.834140  0.265254  0.701450  1
  O  O25  1  0.838718  0.657659  0.688389  1
  O  O26  1  0.883280  0.472707  0.137488  1
  O  O27  1  0.939786  0.953479  0.255968  1
