# generated using pymatgen
data_Li2MnVP2(O4F)2
_symmetry_space_group_name_H-M   'P 1'
_cell_length_a   5.23843948
_cell_length_b   10.52536673
_cell_length_c   10.35259939
_cell_angle_alpha   78.74842610
_cell_angle_beta   80.28991554
_cell_angle_gamma   83.84584472
_symmetry_Int_Tables_number   1
_chemical_formula_structural   Li2MnVP2(O4F)2
_chemical_formula_sum   'Li6 Mn3 V3 P6 O24 F6'
_cell_volume   550.18283735
_cell_formula_units_Z   3
loop_
 _symmetry_equiv_pos_site_id
 _symmetry_equiv_pos_as_xyz
  1  'x, y, z'
loop_
 _atom_site_type_symbol
 _atom_site_label
 _atom_site_symmetry_multiplicity
 _atom_site_fract_x
 _atom_site_fract_y
 _atom_site_fract_z
 _atom_site_occupancy
  Li  Li0  1  0.005232  0.268019  0.083926  1
  Li  Li1  1  0.328101  0.398647  0.582740  1
  Li  Li2  1  0.668672  0.067514  0.255097  1
  Li  Li3  1  0.334767  0.935272  0.747405  1
  Li  Li4  1  0.664661  0.599153  0.411570  1
  Li  Li5  1  0.998566  0.731395  0.919261  1
  Mn  Mn6  1  0.501655  0.498575  0.000332  1
  Mn  Mn7  1  0.666667  0.333333  0.333333  1
  Mn  Mn8  1  0.831679  0.168092  0.666334  1
  V  V9  1  0.004054  0.998756  0.001276  1
  V  V10  1  0.166667  0.833333  0.333333  1
  V  V11  1  0.329279  0.667911  0.665391  1
  P  P12  1  0.187359  0.135893  0.373167  1
  P  P13  1  0.145974  0.530774  0.293500  1
  P  P14  1  0.517893  0.798620  0.037847  1
  P  P15  1  0.488931  0.199001  0.962393  1
  P  P16  1  0.844402  0.467666  0.704274  1
  P  P17  1  0.815440  0.868047  0.628819  1
  O  O18  1  0.263314  0.111715  0.026651  1
  O  O19  1  0.023205  0.665236  0.323023  1
  O  O20  1  0.118870  0.135423  0.523443  1
  O  O21  1  0.214464  0.531243  0.143224  1
  O  O22  1  0.070020  0.554951  0.640015  1
  O  O23  1  0.055583  0.820375  0.701894  1
  O  O24  1  0.411386  0.225743  0.306256  1
  O  O25  1  0.383238  0.487263  0.368825  1
  O  O26  1  0.310129  0.001430  0.343644  1
  O  O27  1  0.450876  0.797099  0.188314  1
  O  O28  1  0.364202  0.333726  0.993349  1
  O  O29  1  0.728398  0.151861  0.036303  1
  O  O30  1  0.277750  0.846291  0.964773  1
  O  O31  1  0.639395  0.663935  0.006195  1
  O  O32  1  0.554612  0.199877  0.811871  1
  O  O33  1  0.693938  0.002732  0.660471  1
  O  O34  1  0.604936  0.514805  0.630364  1
  O  O35  1  0.589535  0.780759  0.691139  1
  O  O36  1  0.950095  0.179404  0.297842  1
  O  O37  1  0.921947  0.440924  0.360411  1
  O  O38  1  0.778721  0.466790  0.854795  1
  O  O39  1  0.882457  0.869567  0.478352  1
  O  O40  1  0.969131  0.332940  0.673318  1
  O  O41  1  0.743798  0.885908  0.975528  1
  F  F42  1  0.074904  0.060757  0.806936  1
  F  F43  1  0.258429  0.605910  0.859730  1
  F  F44  1  0.399023  0.729571  0.467401  1
  F  F45  1  0.589437  0.271532  0.530667  1
  F  F46  1  0.743896  0.395135  0.136000  1
  F  F47  1  0.934311  0.937096  0.199265  1
