# generated using pymatgen
data_Mn12O7F17
_symmetry_space_group_name_H-M   'P 1'
_cell_length_a   4.79136106
_cell_length_b   5.81226787
_cell_length_c   15.86842614
_cell_angle_alpha   90.53907624
_cell_angle_beta   90.09421000
_cell_angle_gamma   85.84862202
_symmetry_Int_Tables_number   1
_chemical_formula_structural   Mn12O7F17
_chemical_formula_sum   'Mn12 O7 F17'
_cell_volume   440.73544603
_cell_formula_units_Z   1
loop_
 _symmetry_equiv_pos_site_id
 _symmetry_equiv_pos_as_xyz
  1  'x, y, z'
loop_
 _atom_site_type_symbol
 _atom_site_label
 _atom_site_symmetry_multiplicity
 _atom_site_fract_x
 _atom_site_fract_y
 _atom_site_fract_z
 _atom_site_occupancy
  Mn  Mn0  1  0.994564  0.148685  0.416978  1
  Mn  Mn1  1  0.025750  0.836996  0.237220  1
  Mn  Mn2  1  0.014033  0.152630  0.076234  1
  Mn  Mn3  1  0.019432  0.149862  0.753269  1
  Mn  Mn4  1  0.038506  0.834531  0.579886  1
  Mn  Mn5  1  0.007708  0.850745  0.912798  1
  Mn  Mn6  1  0.494837  0.356265  0.587197  1
  Mn  Mn7  1  0.484980  0.310817  0.930364  1
  Mn  Mn8  1  0.520560  0.333901  0.258475  1
  Mn  Mn9  1  0.499362  0.649233  0.082757  1
  Mn  Mn10  1  0.505265  0.654986  0.418168  1
  Mn  Mn11  1  0.482958  0.668762  0.751205  1
  O  O12  1  0.194595  0.103912  0.968887  1
  O  O13  1  0.237506  0.888974  0.127071  1
  O  O14  1  0.227088  0.882749  0.469579  1
  O  O15  1  0.218868  0.885741  0.805767  1
  O  O16  1  0.291638  0.625023  0.643491  1
  O  O17  1  0.715600  0.379888  0.033232  1
  O  O18  1  0.724196  0.384534  0.369357  1
  F  F19  1  0.221076  0.115342  0.306064  1
  F  F20  1  0.239252  0.124959  0.642708  1
  F  F21  1  0.263486  0.396700  0.149776  1
  F  F22  1  0.272979  0.617843  0.312617  1
  F  F23  1  0.253873  0.384903  0.476236  1
  F  F24  1  0.272029  0.385508  0.814367  1
  F  F25  1  0.256117  0.606266  0.979091  1
  F  F26  1  0.714703  0.622106  0.193281  1
  F  F27  1  0.730187  0.613772  0.525461  1
  F  F28  1  0.725010  0.633987  0.857423  1
  F  F29  1  0.743177  0.391184  0.700929  1
  F  F30  1  0.787384  0.123835  0.183916  1
  F  F31  1  0.774092  0.111818  0.531332  1
  F  F32  1  0.762743  0.892352  0.353222  1
  F  F33  1  0.749973  0.872438  0.015508  1
  F  F34  1  0.750126  0.120983  0.851226  1
  F  F35  1  0.786348  0.887773  0.684903  1
