# generated using pymatgen
data_LiCo5O7F
_symmetry_space_group_name_H-M   'P 1'
_cell_length_a   5.73578563
_cell_length_b   5.73578563
_cell_length_c   5.73578563
_cell_angle_alpha   60.48878449
_cell_angle_beta   60.48878449
_cell_angle_gamma   60.48878449
_symmetry_Int_Tables_number   1
_chemical_formula_structural   LiCo5O7F
_chemical_formula_sum   'Li1 Co5 O7 F1'
_cell_volume   134.90722332
_cell_formula_units_Z   1
loop_
 _symmetry_equiv_pos_site_id
 _symmetry_equiv_pos_as_xyz
  1  'x, y, z'
loop_
 _atom_site_type_symbol
 _atom_site_label
 _atom_site_symmetry_multiplicity
 _atom_site_fract_x
 _atom_site_fract_y
 _atom_site_fract_z
 _atom_site_occupancy
  Li  Li0  1  0.008683  0.008683  0.008683  1
  Co  Co1  1  0.245031  0.245031  0.245031  1
  Co  Co2  1  0.619907  0.619907  0.125800  1
  Co  Co3  1  0.619907  0.125800  0.619907  1
  Co  Co4  1  0.125800  0.619907  0.619907  1
  Co  Co5  1  0.626182  0.626182  0.626182  1
  O  O6  1  0.832504  0.387402  0.387402  1
  O  O7  1  0.386207  0.386207  0.386207  1
  O  O8  1  0.387402  0.832504  0.387402  1
  O  O9  1  0.387402  0.387402  0.832504  1
  O  O10  1  0.861276  0.861276  0.418558  1
  O  O11  1  0.861276  0.418558  0.861276  1
  O  O12  1  0.418558  0.861276  0.861276  1
  F  F13  1  0.869868  0.869868  0.869868  1
