# generated using pymatgen
data_CaLaI5
_symmetry_space_group_name_H-M   'P 1'
_cell_length_a   4.48141036
_cell_length_b   8.03820296
_cell_length_c   19.19137181
_cell_angle_alpha   90.00000000
_cell_angle_beta   90.00000000
_cell_angle_gamma   106.18603138
_symmetry_Int_Tables_number   1
_chemical_formula_structural   CaLaI5
_chemical_formula_sum   'Ca2 La2 I10'
_cell_volume   663.91811944
_cell_formula_units_Z   2
loop_
 _symmetry_equiv_pos_site_id
 _symmetry_equiv_pos_as_xyz
  1  'x, y, z'
loop_
 _atom_site_type_symbol
 _atom_site_label
 _atom_site_symmetry_multiplicity
 _atom_site_fract_x
 _atom_site_fract_y
 _atom_site_fract_z
 _atom_site_occupancy
  Ca  Ca0  1  0.489996  0.979992  0.250000  1
  Ca  Ca1  1  0.510004  0.020008  0.750000  1
  La  La2  1  0.000000  0.000000  0.000000  1
  La  La3  1  0.000000  0.000000  0.500000  1
  I  I4  1  0.094861  0.189722  0.148080  1
  I  I5  1  0.147236  0.294470  0.750000  1
  I  I6  1  0.094861  0.189722  0.351920  1
  I  I7  1  0.372652  0.745306  0.056956  1
  I  I8  1  0.372652  0.745306  0.443044  1
  I  I9  1  0.627348  0.254694  0.556956  1
  I  I10  1  0.627348  0.254694  0.943044  1
  I  I11  1  0.852764  0.705530  0.250000  1
  I  I12  1  0.905139  0.810278  0.648080  1
  I  I13  1  0.905139  0.810278  0.851920  1
