# generated using pymatgen
data_Li6V3P8O29
_symmetry_space_group_name_H-M   'P 1'
_cell_length_a   9.80540057
_cell_length_b   9.80002832
_cell_length_c   13.99803382
_cell_angle_alpha   89.92200722
_cell_angle_beta   90.58506535
_cell_angle_gamma   60.10561852
_symmetry_Int_Tables_number   1
_chemical_formula_structural   Li6V3P8O29
_chemical_formula_sum   'Li12 V6 P16 O58'
_cell_volume   1166.04927722
_cell_formula_units_Z   2
loop_
 _symmetry_equiv_pos_site_id
 _symmetry_equiv_pos_as_xyz
  1  'x, y, z'
loop_
 _atom_site_type_symbol
 _atom_site_label
 _atom_site_symmetry_multiplicity
 _atom_site_fract_x
 _atom_site_fract_y
 _atom_site_fract_z
 _atom_site_occupancy
  Li  Li0  1  0.682950  0.662076  0.392334  1
  Li  Li1  1  0.765056  0.331360  0.058162  1
  Li  Li2  1  0.331832  0.902982  0.058358  1
  Li  Li3  1  0.663860  0.237141  0.443511  1
  Li  Li4  1  0.325612  0.769803  0.565720  1
  Li  Li5  1  0.661650  0.096251  0.934497  1
  Li  Li6  1  0.237183  0.659062  0.937963  1
  Li  Li7  1  0.096054  0.669625  0.441355  1
  Li  Li8  1  0.230054  0.101283  0.446609  1
  Li  Li9  1  0.099828  0.237187  0.935946  1
  Li  Li10  1  0.982179  0.967859  0.998283  1
  Li  Li11  1  0.957882  0.024866  0.513335  1
  V  V12  1  0.564645  0.434060  0.250718  1
  V  V13  1  0.435031  0.564043  0.752432  1
  V  V14  1  0.567026  0.997997  0.748523  1
  V  V15  1  0.435959  0.002909  0.249134  1
  V  V16  1  0.999157  0.564746  0.247330  1
  V  V17  1  0.997287  0.440203  0.745625  1
  P  P18  1  0.918003  0.777971  0.838753  1
  P  P19  1  0.781789  0.913808  0.340037  1
  P  P20  1  0.913857  0.306667  0.341402  1
  P  P21  1  0.664726  0.664261  0.129913  1
  P  P22  1  0.662911  0.669756  0.631728  1
  P  P23  1  0.777042  0.311308  0.841273  1
  P  P24  1  0.684098  0.225958  0.658551  1
  P  P25  1  0.315276  0.912461  0.842432  1
  P  P26  1  0.688905  0.084948  0.153153  1
  P  P27  1  0.320460  0.774105  0.342400  1
  P  P28  1  0.225422  0.688994  0.158576  1
  P  P29  1  0.330995  0.334682  0.371547  1
  P  P30  1  0.333444  0.331274  0.869367  1
  P  P31  1  0.085842  0.690185  0.654771  1
  P  P32  1  0.222364  0.089270  0.659053  1
  P  P33  1  0.083947  0.229027  0.155408  1
  O  O34  1  0.016086  0.775228  0.562070  1
  O  O35  1  0.922812  0.744562  0.343370  1
  O  O36  1  0.767563  0.013450  0.061102  1
  O  O37  1  0.747248  0.916091  0.841171  1
  O  O38  1  0.926270  0.617927  0.832582  1
  O  O39  1  0.809912  0.666222  0.179268  1
  O  O40  1  0.903672  0.469711  0.334441  1
  O  O41  1  -0.000106  0.230363  0.064274  1
  O  O42  1  0.918504  0.337209  0.842356  1
  O  O43  1  0.671521  0.810020  0.675274  1
  O  O44  1  0.630086  0.900564  0.329698  1
  O  O45  1  0.810529  0.519595  0.675943  1
  O  O46  1  0.665251  0.661698  0.023967  1
  O  O47  1  0.660730  0.669153  0.524296  1
  O  O48  1  0.674823  0.508413  0.170702  1
  O  O49  1  0.469984  0.913083  0.829794  1
  O  O50  1  0.511790  0.811393  0.169930  1
  O  O51  1  0.742305  0.336135  0.342243  1
  O  O52  1  0.796825  0.205980  0.749106  1
  O  O53  1  0.771140  0.211739  0.568067  1
  O  O54  1  0.775160  0.222972  0.929962  1
  O  O55  1  0.620628  0.468727  0.828217  1
  O  O56  1  0.510846  0.675094  0.669514  1
  O  O57  1  0.661825  0.253829  0.161603  1
  O  O58  1  0.485455  0.627898  0.328139  1
  O  O59  1  0.340816  0.921404  0.342787  1
  O  O60  1  0.802173  0.986209  0.240380  1
  O  O61  1  0.785231  0.013348  0.419590  1
  O  O62  1  0.217634  0.001539  0.570522  1
  O  O63  1  0.653843  0.086783  0.667990  1
  O  O64  1  0.531533  0.383089  0.669600  1
  O  O65  1  0.342432  0.742529  0.844385  1
  O  O66  1  0.482826  0.330608  0.331470  1
  O  O67  1  0.384092  0.534149  0.171988  1
  O  O68  1  0.223102  0.776967  0.069252  1
  O  O69  1  0.238779  0.765122  0.430592  1
  O  O70  1  0.211851  0.796373  0.250298  1
  O  O71  1  0.256203  0.664137  0.665361  1
  O  O72  1  0.487790  0.187206  0.831479  1
  O  O73  1  0.532542  0.083564  0.170066  1
  O  O74  1  0.323890  0.487764  0.830411  1
  O  O75  1  0.332721  0.332845  0.976303  1
  O  O76  1  0.328718  0.339130  0.477733  1
  O  O77  1  0.183431  0.485221  0.327815  1
  O  O78  1  0.378781  0.086325  0.670432  1
  O  O79  1  0.326715  0.187138  0.330719  1
  O  O80  1  0.086912  0.660603  0.162413  1
  O  O81  1  0.989266  0.804202  0.740524  1
  O  O82  1  0.013019  0.792791  0.919278  1
  O  O83  1  0.091295  0.531926  0.667287  1
  O  O84  1  0.187753  0.324567  0.826809  1
  O  O85  1  0.093066  0.379345  0.170251  1
  O  O86  1  0.249842  0.080174  0.160589  1
  O  O87  1  0.227778  0.999511  0.931319  1
  O  O88  1  0.205149  0.995852  0.750555  1
  O  O89  1  0.082764  0.255812  0.661930  1
  O  O90  1  0.008227  0.201517  0.422303  1
  O  O91  1  0.985983  0.213764  0.242435  1
