# generated using pymatgen
data_Na2BiBPO7
_symmetry_space_group_name_H-M   'P 1'
_cell_length_a   9.49918696
_cell_length_b   7.05963467
_cell_length_c   5.47746988
_cell_angle_alpha   90.00000000
_cell_angle_beta   92.52387678
_cell_angle_gamma   90.00000000
_symmetry_Int_Tables_number   1
_chemical_formula_structural   Na2BiBPO7
_chemical_formula_sum   'Na4 Bi2 B2 P2 O14'
_cell_volume   366.96713595
_cell_formula_units_Z   2
loop_
 _symmetry_equiv_pos_site_id
 _symmetry_equiv_pos_as_xyz
  1  'x, y, z'
loop_
 _atom_site_type_symbol
 _atom_site_label
 _atom_site_symmetry_multiplicity
 _atom_site_fract_x
 _atom_site_fract_y
 _atom_site_fract_z
 _atom_site_occupancy
  Na  Na0  1  0.214559  0.001598  0.240307  1
  Na  Na1  1  0.214559  0.498402  0.240307  1
  Na  Na2  1  0.785441  0.501598  0.759693  1
  Na  Na3  1  0.785441  -0.001598  0.759693  1
  Bi  Bi4  1  0.369107  0.750000  0.786639  1
  Bi  Bi5  1  0.630893  0.250000  0.213361  1
  B  B6  1  0.084563  0.750000  0.737778  1
  B  B7  1  0.915437  0.250000  0.262222  1
  P  P8  1  0.406875  0.250000  0.725953  1
  P  P9  1  0.593125  0.750000  0.274047  1
  O  O10  1  0.058649  0.250000  0.296176  1
  O  O11  1  0.158914  0.750000  0.959280  1
  O  O12  1  0.163031  0.750000  0.529438  1
  O  O13  1  0.338681  0.075028  0.846250  1
  O  O14  1  0.338681  0.424972  0.846250  1
  O  O15  1  0.428613  0.750000  0.204047  1
  O  O16  1  0.389971  0.250000  0.445095  1
  O  O17  1  0.610029  0.750000  0.554905  1
  O  O18  1  0.571387  0.250000  0.795953  1
  O  O19  1  0.661319  0.575029  0.153750  1
  O  O20  1  0.661319  0.924971  0.153750  1
  O  O21  1  0.836969  0.250000  0.470562  1
  O  O22  1  0.841086  0.250000  0.040720  1
  O  O23  1  0.941351  0.750000  0.703824  1
