# generated using pymatgen
data_Fe2O3
_symmetry_space_group_name_H-M   'P 1'
_cell_length_a   5.14257520
_cell_length_b   5.38325856
_cell_length_c   14.90158199
_cell_angle_alpha   90.39095785
_cell_angle_beta   90.01411824
_cell_angle_gamma   89.83420415
_symmetry_Int_Tables_number   1
_chemical_formula_structural   Fe2O3
_chemical_formula_sum   'Fe16 O24'
_cell_volume   412.52125239
_cell_formula_units_Z   8
loop_
 _symmetry_equiv_pos_site_id
 _symmetry_equiv_pos_as_xyz
  1  'x, y, z'
loop_
 _atom_site_type_symbol
 _atom_site_label
 _atom_site_symmetry_multiplicity
 _atom_site_fract_x
 _atom_site_fract_y
 _atom_site_fract_z
 _atom_site_occupancy
  Fe  Fe0  1  0.000375  0.177183  0.076310  1
  Fe  Fe1  1  0.997886  0.739508  0.179052  1
  Fe  Fe2  1  0.003341  0.316378  0.572028  1
  Fe  Fe3  1  -0.002900  0.762989  0.679902  1
  Fe  Fe4  1  0.500270  0.239631  0.181764  1
  Fe  Fe5  1  0.502486  0.258992  0.680792  1
  Fe  Fe6  1  0.498664  0.676592  0.074901  1
  Fe  Fe7  1  0.497704  0.814652  0.572552  1
  Fe  Fe8  1  0.503190  0.185671  0.426400  1
  Fe  Fe9  1  0.502715  0.315637  0.929838  1
  Fe  Fe10  1  0.500121  0.744262  0.319010  1
  Fe  Fe11  1  0.498577  0.755658  0.821260  1
  Fe  Fe12  1  -0.000938  0.687365  0.425233  1
  Fe  Fe13  1  0.998068  0.249015  0.324339  1
  Fe  Fe14  1  0.003798  0.261236  0.821114  1
  Fe  Fe15  1  -0.001505  0.818924  0.928531  1
  O  O16  1  0.136778  0.118114  0.205698  1
  O  O17  1  0.142147  0.389906  0.702804  1
  O  O18  1  0.146903  0.845228  0.052028  1
  O  O19  1  0.153473  0.665790  0.548835  1
  O  O20  1  0.191798  0.964504  0.372689  1
  O  O21  1  0.197726  0.541569  0.877338  1
  O  O22  1  0.297866  0.455342  0.371523  1
  O  O23  1  0.297759  0.040631  0.876649  1
  O  O24  1  0.346512  0.166961  0.549328  1
  O  O25  1  0.347636  0.344419  0.051890  1
  O  O26  1  0.364594  0.616185  0.200956  1
  O  O27  1  0.360249  0.889569  0.702714  1
  O  O28  1  0.653791  0.103105  0.297312  1
  O  O29  1  0.642475  0.389771  0.797190  1
  O  O30  1  0.647226  0.829434  0.447911  1
  O  O31  1  0.651933  0.669039  0.950505  1
  O  O32  1  0.701717  0.538294  0.621850  1
  O  O33  1  0.694092  0.954292  0.123718  1
  O  O34  1  0.805668  0.453571  0.121955  1
  O  O35  1  0.803958  0.041862  0.622362  1
  O  O36  1  0.853285  0.329850  0.446898  1
  O  O37  1  0.846613  0.167277  0.951576  1
  O  O38  1  0.857009  0.888021  0.797017  1
  O  O39  1  0.856938  0.593574  0.296230  1
