# generated using pymatgen
data_LiFeBO4
_symmetry_space_group_name_H-M   'P 1'
_cell_length_a   10.05417600
_cell_length_b   5.88046801
_cell_length_c   4.31771083
_cell_angle_alpha   89.99980256
_cell_angle_beta   90.01049925
_cell_angle_gamma   89.98678937
_symmetry_Int_Tables_number   1
_chemical_formula_structural   LiFeBO4
_chemical_formula_sum   'Li4 Fe4 B4 O16'
_cell_volume   255.27712996
_cell_formula_units_Z   4
loop_
 _symmetry_equiv_pos_site_id
 _symmetry_equiv_pos_as_xyz
  1  'x, y, z'
loop_
 _atom_site_type_symbol
 _atom_site_label
 _atom_site_symmetry_multiplicity
 _atom_site_fract_x
 _atom_site_fract_y
 _atom_site_fract_z
 _atom_site_occupancy
  Li  Li0  1  0.224263  0.749933  0.476819  1
  Li  Li1  1  0.275608  0.250022  0.976763  1
  Li  Li2  1  0.724392  0.749978  0.023241  1
  Li  Li3  1  0.775735  0.250068  0.523181  1
  Fe  Fe4  1  0.999998  0.000001  -0.000007  1
  Fe  Fe5  1  0.000003  0.500001  0.999995  1
  Fe  Fe6  1  0.500004  0.000001  0.500004  1
  Fe  Fe7  1  0.499999  0.499994  0.500010  1
  B  B8  1  0.082260  0.249951  0.408920  1
  B  B9  1  0.417771  0.750036  0.908836  1
  B  B10  1  0.582229  0.249967  0.091167  1
  B  B11  1  0.917740  0.750046  0.591074  1
  O  O12  1  0.057960  0.749982  0.747812  1
  O  O13  1  0.077334  0.249954  0.747842  1
  O  O14  1  0.140912  0.457632  0.278700  1
  O  O15  1  0.140915  0.042237  0.278674  1
  O  O16  1  0.359093  0.542358  0.778494  1
  O  O17  1  0.359092  0.957759  0.778489  1
  O  O18  1  0.422645  0.750034  0.247758  1
  O  O19  1  0.442049  0.250022  0.247669  1
  O  O20  1  0.557952  0.749976  0.752336  1
  O  O21  1  0.577356  0.249964  0.752248  1
  O  O22  1  0.640910  0.042241  0.221509  1
  O  O23  1  0.640906  0.457639  0.221509  1
  O  O24  1  0.859087  0.542369  0.721301  1
  O  O25  1  0.859082  0.957767  0.721322  1
  O  O26  1  0.922665  0.750048  0.252152  1
  O  O27  1  0.942039  0.250019  0.252182  1
