# generated using pymatgen
data_Li3CuF4
_symmetry_space_group_name_H-M   'P 1'
_cell_length_a   6.43692352
_cell_length_b   5.54527118
_cell_length_c   5.12414447
_cell_angle_alpha   90.00000000
_cell_angle_beta   90.00000000
_cell_angle_gamma   90.00000000
_symmetry_Int_Tables_number   1
_chemical_formula_structural   Li3CuF4
_chemical_formula_sum   'Li6 Cu2 F8'
_cell_volume   182.90370552
_cell_formula_units_Z   2
loop_
 _symmetry_equiv_pos_site_id
 _symmetry_equiv_pos_as_xyz
  1  'x, y, z'
loop_
 _atom_site_type_symbol
 _atom_site_label
 _atom_site_symmetry_multiplicity
 _atom_site_fract_x
 _atom_site_fract_y
 _atom_site_fract_z
 _atom_site_occupancy
  Li  Li0  1  0.000000  0.172165  0.496123  1
  Li  Li1  1  0.249443  0.665740  0.494782  1
  Li  Li2  1  0.250557  0.334260  0.994782  1
  Li  Li3  1  0.500000  0.827835  0.996123  1
  Li  Li4  1  0.749443  0.334260  0.994782  1
  Li  Li5  1  0.750557  0.665740  0.494782  1
  Cu  Cu6  1  0.000000  0.831345  0.992953  1
  Cu  Cu7  1  0.500000  0.168655  0.492953  1
  F  F8  1  0.000000  0.195144  0.866845  1
  F  F9  1  0.000000  0.838649  0.408252  1
  F  F10  1  0.231037  0.345219  0.365498  1
  F  F11  1  0.268963  0.654781  0.865498  1
  F  F12  1  0.500000  0.161351  0.908252  1
  F  F13  1  0.500000  0.804856  0.366845  1
  F  F14  1  0.731037  0.654781  0.865498  1
  F  F15  1  0.768963  0.345219  0.365498  1
