# generated using pymatgen
data_Li4Mn3Fe(BO3)4
_symmetry_space_group_name_H-M   'P 1'
_cell_length_a   5.25858790
_cell_length_b   9.08386992
_cell_length_c   10.48570193
_cell_angle_alpha   91.55612105
_cell_angle_beta   91.12809800
_cell_angle_gamma   89.73099656
_symmetry_Int_Tables_number   1
_chemical_formula_structural   Li4Mn3Fe(BO3)4
_chemical_formula_sum   'Li8 Mn6 Fe2 B8 O24'
_cell_volume   500.59834664
_cell_formula_units_Z   2
loop_
 _symmetry_equiv_pos_site_id
 _symmetry_equiv_pos_as_xyz
  1  'x, y, z'
loop_
 _atom_site_type_symbol
 _atom_site_label
 _atom_site_symmetry_multiplicity
 _atom_site_fract_x
 _atom_site_fract_y
 _atom_site_fract_z
 _atom_site_occupancy
  Li  Li0  1  0.852990  0.825831  0.667264  1
  Li  Li1  1  0.813119  0.839231  0.167478  1
  Li  Li2  1  0.678850  0.668322  0.417779  1
  Li  Li3  1  0.663443  0.674556  0.917546  1
  Li  Li4  1  0.354090  0.325642  0.668364  1
  Li  Li5  1  0.312169  0.339425  0.168079  1
  Li  Li6  1  0.178611  0.168526  0.417156  1
  Li  Li7  1  0.163480  0.174270  0.917298  1
  Mn  Mn8  1  0.822229  0.501396  0.133191  1
  Mn  Mn9  1  0.668935  0.335784  0.385262  1
  Mn  Mn10  1  0.669337  0.003067  0.882161  1
  Mn  Mn11  1  0.339850  0.661434  0.631012  1
  Mn  Mn12  1  0.322218  0.000581  0.133938  1
  Mn  Mn13  1  0.168893  0.501704  0.883060  1
  Fe  Fe14  1  0.845940  0.159079  0.632866  1
  Fe  Fe15  1  0.161782  0.837297  0.382245  1
  B  B16  1  0.825938  0.170467  0.126352  1
  B  B17  1  0.842628  0.497092  0.626520  1
  B  B18  1  0.665756  0.000649  0.378015  1
  B  B19  1  0.672704  0.332763  0.874759  1
  B  B20  1  0.326258  0.670662  0.126827  1
  B  B21  1  0.339794  0.000234  0.624257  1
  B  B22  1  0.163456  0.503986  0.375233  1
  B  B23  1  0.172493  0.833026  0.875327  1
  O  O24  1  0.903365  0.519036  0.345297  1
  O  O25  1  0.911006  0.820635  0.860721  1
  O  O26  1  0.827664  0.211386  0.843451  1
  O  O27  1  0.806264  0.123127  0.418713  1
  O  O28  1  0.783071  0.864056  0.362816  1
  O  O29  1  0.782156  0.465270  0.917788  1
  O  O30  1  0.733444  0.634868  0.611092  1
  O  O31  1  0.711489  0.034451  0.095982  1
  O  O32  1  0.698195  0.370547  0.597640  1
  O  O33  1  0.676428  0.289255  0.167603  1
  O  O34  1  0.585878  0.686146  0.111970  1
  O  O35  1  0.594255  0.988855  0.663602  1
  O  O36  1  0.405574  0.013473  0.348347  1
  O  O37  1  0.411365  0.319804  0.861134  1
  O  O38  1  0.327138  0.711308  0.844456  1
  O  O39  1  0.304938  0.627026  0.415690  1
  O  O40  1  0.276689  0.366588  0.362198  1
  O  O41  1  0.282999  0.965378  0.917610  1
  O  O42  1  0.212096  0.534687  0.095752  1
  O  O43  1  0.225745  0.137791  0.612315  1
  O  O44  1  0.197011  0.874038  0.594356  1
  O  O45  1  0.176857  0.789311  0.168347  1
  O  O46  1  0.085901  0.185437  0.112050  1
  O  O47  1  0.096109  0.483101  0.666682  1
