# generated using pymatgen
data_LiP4WO12
_symmetry_space_group_name_H-M   'P 1'
_cell_length_a   9.47868101
_cell_length_b   13.06249850
_cell_length_c   7.47960829
_cell_angle_alpha   90.00000000
_cell_angle_beta   87.04862555
_cell_angle_gamma   90.00000000
_symmetry_Int_Tables_number   1
_chemical_formula_structural   LiP4WO12
_chemical_formula_sum   'Li4 P16 W4 O48'
_cell_volume   924.86124525
_cell_formula_units_Z   4
loop_
 _symmetry_equiv_pos_site_id
 _symmetry_equiv_pos_as_xyz
  1  'x, y, z'
loop_
 _atom_site_type_symbol
 _atom_site_label
 _atom_site_symmetry_multiplicity
 _atom_site_fract_x
 _atom_site_fract_y
 _atom_site_fract_z
 _atom_site_occupancy
  Li  Li0  1  0.063854  0.234187  0.023087  1
  Li  Li1  1  0.436146  0.734187  0.476913  1
  Li  Li2  1  0.563854  0.265813  0.523087  1
  Li  Li3  1  0.936146  0.765813  0.976913  1
  P  P4  1  0.190808  0.376035  0.381369  1
  P  P5  1  0.194216  0.593340  0.313768  1
  P  P6  1  0.267687  0.117647  0.581356  1
  P  P7  1  0.227548  0.906582  0.718227  1
  P  P8  1  0.272452  0.406582  0.781773  1
  P  P9  1  0.232313  0.617647  0.918644  1
  P  P10  1  0.305784  0.093340  0.186232  1
  P  P11  1  0.309192  0.876035  0.118631  1
  P  P12  1  0.690808  0.123965  0.881369  1
  P  P13  1  0.694216  0.906660  0.813768  1
  P  P14  1  0.767687  0.382353  0.081356  1
  P  P15  1  0.727548  0.593418  0.218227  1
  P  P16  1  0.772452  0.093418  0.281773  1
  P  P17  1  0.732313  0.882353  0.418644  1
  P  P18  1  0.805784  0.406660  0.686232  1
  P  P19  1  0.809192  0.623965  0.618631  1
  W  W20  1  0.063435  0.802917  0.468204  1
  W  W21  1  0.436565  0.302917  0.031796  1
  W  W22  1  0.563435  0.697083  0.968204  1
  W  W23  1  0.936565  0.197083  0.531796  1
  O  O24  1  0.073174  0.668923  0.302266  1
  O  O25  1  0.069644  0.916189  0.693256  1
  O  O26  1  0.125481  0.154290  0.657679  1
  O  O27  1  0.084611  0.291222  0.360019  1
  O  O28  1  0.114950  0.484327  0.356146  1
  O  O29  1  0.109223  0.687346  0.917451  1
  O  O30  1  0.178092  0.872529  0.239704  1
  O  O31  1  0.236481  0.380394  0.584005  1
  O  O32  1  0.217558  0.322624  0.910014  1
  O  O33  1  0.191476  0.512605  0.814912  1
  O  O34  1  0.238639  0.073672  0.384873  1
  O  O35  1  0.193554  0.115008  0.060193  1
  O  O36  1  0.306446  0.615008  0.439807  1
  O  O37  1  0.261361  0.573672  0.115127  1
  O  O38  1  0.308524  0.012605  0.685088  1
  O  O39  1  0.282442  0.822624  0.589986  1
  O  O40  1  0.263519  0.880394  0.915995  1
  O  O41  1  0.321908  0.372529  0.260296  1
  O  O42  1  0.390777  0.187346  0.582549  1
  O  O43  1  0.385050  0.984327  0.143854  1
  O  O44  1  0.415389  0.791222  0.139982  1
  O  O45  1  0.374519  0.654290  0.842321  1
  O  O46  1  0.430356  0.416189  0.806744  1
  O  O47  1  0.426826  0.168923  0.197734  1
  O  O48  1  0.573174  0.831077  0.802266  1
  O  O49  1  0.569644  0.583811  0.193256  1
  O  O50  1  0.625481  0.345710  0.157679  1
  O  O51  1  0.584611  0.208778  0.860019  1
  O  O52  1  0.614950  0.015673  0.856146  1
  O  O53  1  0.609223  0.812654  0.417451  1
  O  O54  1  0.678092  0.627471  0.739704  1
  O  O55  1  0.736481  0.119606  0.084005  1
  O  O56  1  0.717558  0.177376  0.410014  1
  O  O57  1  0.691476  0.987395  0.314912  1
  O  O58  1  0.738639  0.426328  0.884873  1
  O  O59  1  0.693554  0.384992  0.560193  1
  O  O60  1  0.806446  0.884992  0.939807  1
  O  O61  1  0.761361  0.926328  0.615127  1
  O  O62  1  0.808524  0.487395  0.185088  1
  O  O63  1  0.782442  0.677376  0.089986  1
  O  O64  1  0.763519  0.619606  0.415995  1
  O  O65  1  0.821908  0.127471  0.760296  1
  O  O66  1  0.890777  0.312654  0.082549  1
  O  O67  1  0.885050  0.515673  0.643854  1
  O  O68  1  0.915389  0.708778  0.639981  1
  O  O69  1  0.874519  0.845710  0.342321  1
  O  O70  1  0.930356  0.083811  0.306744  1
  O  O71  1  0.926826  0.331077  0.697734  1
