# generated using pymatgen
data_CrSbO4
_symmetry_space_group_name_H-M   'P 1'
_cell_length_a   5.06800552
_cell_length_b   10.15761908
_cell_length_c   9.66607916
_cell_angle_alpha   17.89521180
_cell_angle_beta   31.20418039
_cell_angle_gamma   35.51672513
_symmetry_Int_Tables_number   1
_chemical_formula_structural   CrSbO4
_chemical_formula_sum   'Cr1 Sb1 O4'
_cell_volume   79.21624537
_cell_formula_units_Z   1
loop_
 _symmetry_equiv_pos_site_id
 _symmetry_equiv_pos_as_xyz
  1  'x, y, z'
loop_
 _atom_site_type_symbol
 _atom_site_label
 _atom_site_symmetry_multiplicity
 _atom_site_fract_x
 _atom_site_fract_y
 _atom_site_fract_z
 _atom_site_occupancy
  Cr  Cr0  1  0.500080  0.999800  0.500169  1
  Sb  Sb1  1  0.500011  0.500054  0.499936  1
  O  O2  1  0.246500  0.000038  0.234140  1
  O  O3  1  0.222456  0.500012  0.237504  1
  O  O4  1  0.753445  0.000060  0.765789  1
  O  O5  1  0.777508  0.500036  0.762462  1
