# generated using pymatgen
data_SiO2
_symmetry_space_group_name_H-M   'P 1'
_cell_length_a   5.72512273
_cell_length_b   4.73215448
_cell_length_c   4.85580369
_cell_angle_alpha   119.16116579
_cell_angle_beta   126.12248551
_cell_angle_gamma   89.99999999
_symmetry_Int_Tables_number   1
_chemical_formula_structural   SiO2
_chemical_formula_sum   'Si2 O4'
_cell_volume   84.75237499
_cell_formula_units_Z   2
loop_
 _symmetry_equiv_pos_site_id
 _symmetry_equiv_pos_as_xyz
  1  'x, y, z'
loop_
 _atom_site_type_symbol
 _atom_site_label
 _atom_site_symmetry_multiplicity
 _atom_site_fract_x
 _atom_site_fract_y
 _atom_site_fract_z
 _atom_site_occupancy
  O  O0  1  0.985164  0.632819  0.265638  1
  O  O1  1  0.719526  0.867181  0.734362  1
  O  O2  1  0.280474  0.132819  0.265638  1
  O  O3  1  0.014836  0.367181  0.734362  1
  Si  Si4  1  0.000000  0.750000  0.000000  1
  Si  Si5  1  0.000000  0.250000  0.000000  1
