# generated using pymatgen
data_Li6Ti7Cr5O24
_symmetry_space_group_name_H-M   'P 1'
_cell_length_a   5.97691104
_cell_length_b   5.94868692
_cell_length_c   13.33749999
_cell_angle_alpha   103.04419271
_cell_angle_beta   103.18631514
_cell_angle_gamma   89.83365340
_symmetry_Int_Tables_number   1
_chemical_formula_structural   Li6Ti7Cr5O24
_chemical_formula_sum   'Li6 Ti7 Cr5 O24'
_cell_volume   449.20420772
_cell_formula_units_Z   1
loop_
 _symmetry_equiv_pos_site_id
 _symmetry_equiv_pos_as_xyz
  1  'x, y, z'
loop_
 _atom_site_type_symbol
 _atom_site_label
 _atom_site_symmetry_multiplicity
 _atom_site_fract_x
 _atom_site_fract_y
 _atom_site_fract_z
 _atom_site_occupancy
  Li  Li0  1  0.999542  0.000654  0.000851  1
  Li  Li1  1  0.583791  0.082679  0.165816  1
  Li  Li2  1  0.666714  0.668512  0.333932  1
  Li  Li3  1  0.252652  0.750507  0.500454  1
  Li  Li4  1  0.330681  0.332827  0.666213  1
  Li  Li5  1  0.916620  0.414821  0.832734  1
  Ti  Ti6  1  0.121286  0.872810  0.247139  1
  Ti  Ti7  1  0.123955  0.375262  0.248574  1
  Ti  Ti8  1  0.459161  0.203124  0.417606  1
  Ti  Ti9  1  0.791667  0.541667  0.583333  1
  Ti  Ti10  1  0.124173  0.880209  0.749061  1
  Ti  Ti11  1  0.462047  0.210523  0.919527  1
  Ti  Ti12  1  0.459378  0.708072  0.918093  1
  Cr  Cr13  1  0.291667  0.541667  0.083333  1
  Cr  Cr14  1  0.791667  0.541667  0.083333  1
  Cr  Cr15  1  0.958017  0.210356  0.416644  1
  Cr  Cr16  1  0.791667  0.041667  0.583333  1
  Cr  Cr17  1  0.625316  0.872977  0.750022  1
  O  O18  1  0.536832  0.307933  0.072788  1
  O  O19  1  0.535697  0.764534  0.072472  1
  O  O20  1  0.047636  0.318799  0.094195  1
  O  O21  1  0.046501  0.775401  0.093879  1
  O  O22  1  0.897862  0.622490  0.243894  1
  O  O23  1  0.344161  0.622055  0.243730  1
  O  O24  1  0.354704  0.128717  0.258496  1
  O  O25  1  0.906081  0.128487  0.256033  1
  O  O26  1  0.208902  0.978514  0.407108  1
  O  O27  1  0.208952  0.429117  0.406410  1
  O  O28  1  0.707269  0.440243  0.426099  1
  O  O29  1  0.707581  0.989954  0.423600  1
  O  O30  1  0.559281  0.292016  0.574249  1
  O  O31  1  0.010176  0.292968  0.575546  1
  O  O32  1  0.024052  0.791317  0.592417  1
  O  O33  1  0.573158  0.790366  0.591120  1
  O  O34  1  0.876065  0.643090  0.740568  1
  O  O35  1  0.875752  0.093379  0.743067  1
  O  O36  1  0.374381  0.654216  0.760256  1
  O  O37  1  0.374431  0.104819  0.759559  1
  O  O38  1  0.677252  0.954846  0.910634  1
  O  O39  1  0.228629  0.954616  0.908170  1
  O  O40  1  0.685472  0.460843  0.922773  1
  O  O41  1  0.239172  0.461278  0.922937  1
