# generated using pymatgen
data_Li3MnPCO7
_symmetry_space_group_name_H-M   'P 1'
_cell_length_a   9.56726105
_cell_length_b   9.83471817
_cell_length_c   6.47969035
_cell_angle_alpha   90.00000000
_cell_angle_beta   90.00000000
_cell_angle_gamma   63.82728725
_symmetry_Int_Tables_number   1
_chemical_formula_structural   Li3MnPCO7
_chemical_formula_sum   'Li12 Mn4 P4 C4 O28'
_cell_volume   547.17094432
_cell_formula_units_Z   4
loop_
 _symmetry_equiv_pos_site_id
 _symmetry_equiv_pos_as_xyz
  1  'x, y, z'
loop_
 _atom_site_type_symbol
 _atom_site_label
 _atom_site_symmetry_multiplicity
 _atom_site_fract_x
 _atom_site_fract_y
 _atom_site_fract_z
 _atom_site_occupancy
  Li  Li0  1  0.897040  0.437975  0.753086  1
  Li  Li1  1  0.897040  0.937975  0.746914  1
  Li  Li2  1  0.714688  0.259799  0.988675  1
  Li  Li3  1  0.714688  0.759799  0.511325  1
  Li  Li4  1  0.646574  0.066404  0.245374  1
  Li  Li5  1  0.646574  0.566404  0.254626  1
  Li  Li6  1  0.353426  0.433596  0.754626  1
  Li  Li7  1  0.353426  0.933596  0.745374  1
  Li  Li8  1  0.285312  0.240200  0.011325  1
  Li  Li9  1  0.285312  0.740201  0.488675  1
  Li  Li10  1  0.102960  0.062025  0.246914  1
  Li  Li11  1  0.102960  0.562025  0.253086  1
  Mn  Mn12  1  0.730831  0.265008  0.500827  1
  Mn  Mn13  1  0.730831  0.765008  0.999173  1
  Mn  Mn14  1  0.269169  0.234992  0.499173  1
  Mn  Mn15  1  0.269169  0.734992  0.000827  1
  P  P16  1  0.592874  0.063683  0.752562  1
  P  P17  1  0.592874  0.563683  0.747438  1
  P  P18  1  0.407126  0.436317  0.247438  1
  P  P19  1  0.407126  0.936317  0.252562  1
  C  C20  1  0.957633  0.373235  0.251180  1
  C  C21  1  0.957633  0.873235  0.248820  1
  C  C22  1  0.042367  0.126765  0.748820  1
  C  C23  1  0.042367  0.626765  0.751180  1
  O  O24  1  0.930078  0.012887  0.262295  1
  O  O25  1  0.930078  0.512887  0.237705  1
  O  O26  1  0.896768  0.234079  0.746371  1
  O  O27  1  0.846195  0.332277  0.259516  1
  O  O28  1  0.896768  0.734079  0.753629  1
  O  O29  1  0.846195  0.832277  0.240484  1
  O  O30  1  0.692709  0.063579  0.940412  1
  O  O31  1  0.687696  0.070124  0.559771  1
  O  O32  1  0.687696  0.570124  0.940229  1
  O  O33  1  0.692709  0.563579  0.559588  1
  O  O34  1  0.573481  0.303187  0.244573  1
  O  O35  1  0.577656  0.411509  0.749604  1
  O  O36  1  0.573481  0.803187  0.255427  1
  O  O37  1  0.577656  0.911509  0.750396  1
  O  O38  1  0.422344  0.088491  0.250396  1
  O  O39  1  0.426519  0.196813  0.755427  1
  O  O40  1  0.422344  0.588491  0.249604  1
  O  O41  1  0.426519  0.696813  0.744573  1
  O  O42  1  0.307291  0.436421  0.059588  1
  O  O43  1  0.312304  0.429876  0.440229  1
  O  O44  1  0.312304  0.929876  0.059771  1
  O  O45  1  0.307291  0.936421  0.440412  1
  O  O46  1  0.153805  0.167723  0.740484  1
  O  O47  1  0.103232  0.265921  0.253629  1
  O  O48  1  0.153805  0.667723  0.759516  1
  O  O49  1  0.103232  0.765921  0.246371  1
  O  O50  1  0.069922  0.487113  0.737705  1
  O  O51  1  0.069922  0.987113  0.762295  1
