# generated using pymatgen
data_Li4Mn3Fe(BO3)4
_symmetry_space_group_name_H-M   'P 1'
_cell_length_a   6.05305562
_cell_length_b   5.24280627
_cell_length_c   8.27949597
_cell_angle_alpha   90.79997006
_cell_angle_beta   76.56476486
_cell_angle_gamma   89.26561118
_symmetry_Int_Tables_number   1
_chemical_formula_structural   Li4Mn3Fe(BO3)4
_chemical_formula_sum   'Li4 Mn3 Fe1 B4 O12'
_cell_volume   255.49940270
_cell_formula_units_Z   1
loop_
 _symmetry_equiv_pos_site_id
 _symmetry_equiv_pos_as_xyz
  1  'x, y, z'
loop_
 _atom_site_type_symbol
 _atom_site_label
 _atom_site_symmetry_multiplicity
 _atom_site_fract_x
 _atom_site_fract_y
 _atom_site_fract_z
 _atom_site_occupancy
  Li  Li0  1  0.047122  0.650633  0.283571  1
  Li  Li1  1  0.453130  0.847879  0.219401  1
  Li  Li2  1  0.545644  0.149805  0.781359  1
  Li  Li3  1  0.953242  0.349571  0.717506  1
  Mn  Mn4  1  0.313488  0.667668  0.917995  1
  Mn  Mn5  1  0.685997  0.332685  0.079467  1
  Mn  Mn6  1  0.813218  0.165799  0.420149  1
  Fe  Fe7  1  0.183721  0.839481  0.581861  1
  B  B8  1  0.166805  0.169163  0.096333  1
  B  B9  1  0.334540  0.330174  0.406089  1
  B  B10  1  0.665295  0.669704  0.595203  1
  B  B11  1  0.834683  0.831182  0.901569  1
  O  O12  1  0.174726  0.909533  0.122962  1
  O  O13  1  0.015213  0.682117  0.806827  1
  O  O14  1  0.162687  0.207452  0.519351  1
  O  O15  1  0.322249  0.589277  0.382877  1
  O  O16  1  0.514282  0.181902  0.310949  1
  O  O17  1  0.661582  0.713894  0.015511  1
  O  O18  1  0.340918  0.286593  0.983264  1
  O  O19  1  0.483702  0.819728  0.686423  1
  O  O20  1  0.673871  0.410329  0.623112  1
  O  O21  1  0.841020  0.785772  0.483239  1
  O  O22  1  0.986139  0.319008  0.188994  1
  O  O23  1  0.826726  0.090651  0.875989  1
