# generated using pymatgen
data_Li2V5B3O13
_symmetry_space_group_name_H-M   'P 1'
_cell_length_a   9.61664909
_cell_length_b   3.23444844
_cell_length_c   15.12135326
_cell_angle_alpha   90.00000000
_cell_angle_beta   106.46637902
_cell_angle_gamma   90.00000000
_symmetry_Int_Tables_number   1
_chemical_formula_structural   Li2V5B3O13
_chemical_formula_sum   'Li4 V10 B6 O26'
_cell_volume   451.05243481
_cell_formula_units_Z   2
loop_
 _symmetry_equiv_pos_site_id
 _symmetry_equiv_pos_as_xyz
  1  'x, y, z'
loop_
 _atom_site_type_symbol
 _atom_site_label
 _atom_site_symmetry_multiplicity
 _atom_site_fract_x
 _atom_site_fract_y
 _atom_site_fract_z
 _atom_site_occupancy
  Li  Li0  1  0.272974  0.250000  0.760446  1
  Li  Li1  1  0.383459  0.750000  0.945911  1
  Li  Li2  1  0.616541  0.250000  0.054089  1
  Li  Li3  1  0.727026  0.750000  0.239554  1
  V  V4  1  0.141344  0.250000  0.003162  1
  V  V5  1  0.040721  0.250000  0.365889  1
  V  V6  1  0.188955  0.750000  0.203908  1
  V  V7  1  0.357918  0.750000  0.435724  1
  V  V8  1  0.478177  0.750000  0.687449  1
  V  V9  1  0.521823  0.250000  0.312551  1
  V  V10  1  0.642082  0.250000  0.564276  1
  V  V11  1  0.811045  0.250000  0.796092  1
  V  V12  1  0.959279  0.750000  0.634111  1
  V  V13  1  0.858656  0.750000  0.996838  1
  B  B14  1  0.087405  0.750000  0.818579  1
  B  B15  1  0.205742  0.250000  0.573733  1
  B  B16  1  0.591738  0.750000  0.883231  1
  B  B17  1  0.408262  0.250000  0.116769  1
  B  B18  1  0.794258  0.750000  0.426267  1
  B  B19  1  0.912595  0.250000  0.181421  1
  O  O20  1  0.165891  0.750000  0.910072  1
  O  O21  1  0.069399  0.250000  0.586095  1
  O  O22  1  0.149139  0.750000  0.747881  1
  O  O23  1  0.063362  0.250000  0.212049  1
  O  O24  1  0.157622  0.750000  0.344440  1
  O  O25  1  0.227099  0.250000  0.486292  1
  O  O26  1  0.330145  0.250000  0.649779  1
  O  O27  1  0.074604  0.750000  0.064381  1
  O  O28  1  0.455532  0.750000  0.822013  1
  O  O29  1  0.620290  0.750000  0.977507  1
  O  O30  1  0.281759  0.250000  0.144588  1
  O  O31  1  0.387827  0.750000  0.294074  1
  O  O32  1  0.510764  0.750000  0.565551  1
  O  O33  1  0.489236  0.250000  0.434449  1
  O  O34  1  0.612173  0.250000  0.705926  1
  O  O35  1  0.718241  0.750000  0.855412  1
  O  O36  1  0.379710  0.250000  0.022493  1
  O  O37  1  0.544468  0.250000  0.177987  1
  O  O38  1  0.925396  0.250000  0.935619  1
  O  O39  1  0.669855  0.750000  0.350221  1
  O  O40  1  0.772901  0.750000  0.513708  1
  O  O41  1  0.842378  0.250000  0.655560  1
  O  O42  1  0.936638  0.750000  0.787951  1
  O  O43  1  0.850861  0.250000  0.252119  1
  O  O44  1  0.930601  0.750000  0.413905  1
  O  O45  1  0.834109  0.250000  0.089928  1
