# generated using pymatgen
data_Li10Fe3Co7O20
_symmetry_space_group_name_H-M   'P 1'
_cell_length_a   2.87950220
_cell_length_b   5.81899407
_cell_length_c   20.59599477
_cell_angle_alpha   83.07126839
_cell_angle_beta   90.00002737
_cell_angle_gamma   89.99972249
_symmetry_Int_Tables_number   1
_chemical_formula_structural   Li10Fe3Co7O20
_chemical_formula_sum   'Li10 Fe3 Co7 O20'
_cell_volume   342.58220481
_cell_formula_units_Z   1
loop_
 _symmetry_equiv_pos_site_id
 _symmetry_equiv_pos_as_xyz
  1  'x, y, z'
loop_
 _atom_site_type_symbol
 _atom_site_label
 _atom_site_symmetry_multiplicity
 _atom_site_fract_x
 _atom_site_fract_y
 _atom_site_fract_z
 _atom_site_occupancy
  Li  Li0  1  0.999994  0.998414  0.998547  1
  Li  Li1  1  0.499999  0.800101  0.899987  1
  Li  Li2  1  0.000003  0.601744  0.801442  1
  Li  Li3  1  0.500000  0.398287  0.704337  1
  Li  Li4  1  0.999994  0.201935  0.601281  1
  Li  Li5  1  0.499998  0.000405  0.500946  1
  Li  Li6  1  0.999999  0.799960  0.399999  1
  Li  Li7  1  0.499993  0.599579  0.299026  1
  Li  Li8  1  0.999996  0.398016  0.198726  1
  Li  Li9  1  0.499993  0.201602  0.095689  1
  Fe  Fe10  1  0.999998  0.299982  0.400009  1
  Fe  Fe11  1  0.999994  0.701859  0.602735  1
  Fe  Fe12  1  -0.000008  0.898330  0.197270  1
  Co  Co13  1  0.500000  0.300014  0.899992  1
  Co  Co14  1  -0.000001  0.102101  0.801821  1
  Co  Co15  1  0.500000  0.904472  0.703364  1
  Co  Co16  1  0.499998  0.500587  0.501232  1
  Co  Co17  1  0.500000  0.099452  0.298763  1
  Co  Co18  1  0.500000  0.695501  0.096633  1
  Co  Co19  1  0.999998  0.497884  0.998168  1
  O  O20  1  0.500000  0.274141  0.994396  1
  O  O21  1  0.999996  0.523623  0.903773  1
  O  O22  1  0.000000  0.076383  0.896202  1
  O  O23  1  0.500000  0.879996  0.797488  1
  O  O24  1  0.499999  0.325867  0.805573  1
  O  O25  1  0.000001  0.676089  0.702027  1
  O  O26  1  0.999996  0.126845  0.707307  1
  O  O27  1  0.499993  0.942564  0.606896  1
  O  O28  1  0.499997  0.461006  0.597423  1
  O  O29  1  0.999994  0.727144  0.502959  1
  O  O30  1  0.000001  0.273627  0.499361  1
  O  O31  1  0.499994  0.540366  0.405023  1
  O  O32  1  0.499998  0.059652  0.394991  1
  O  O33  1  0.000003  0.872865  0.297069  1
  O  O34  1  0.999997  0.326396  0.300658  1
  O  O35  1  0.500018  0.138897  0.202594  1
  O  O36  1  0.500022  0.657329  0.193122  1
  O  O37  1  0.999997  0.923845  0.097987  1
  O  O38  1  -0.000003  0.473144  0.092676  1
  O  O39  1  0.499997  0.719990  0.002506  1
