# generated using pymatgen
data_SrCd2H16(Cl3O4)2
_symmetry_space_group_name_H-M   'P 1'
_cell_length_a   9.69935779
_cell_length_b   11.85122681
_cell_length_c   8.01314428
_cell_angle_alpha   100.10789403
_cell_angle_beta   91.15975689
_cell_angle_gamma   75.02420662
_symmetry_Int_Tables_number   1
_chemical_formula_structural   SrCd2H16(Cl3O4)2
_chemical_formula_sum   'Sr2 Cd4 H32 Cl12 O16'
_cell_volume   875.70366881
_cell_formula_units_Z   2
loop_
 _symmetry_equiv_pos_site_id
 _symmetry_equiv_pos_as_xyz
  1  'x, y, z'
loop_
 _atom_site_type_symbol
 _atom_site_label
 _atom_site_symmetry_multiplicity
 _atom_site_fract_x
 _atom_site_fract_y
 _atom_site_fract_z
 _atom_site_occupancy
  Sr  Sr0  1  0.333015  0.917480  0.474184  1
  Sr  Sr1  1  0.666985  0.082520  0.525816  1
  Cd  Cd2  1  0.188072  0.427305  0.105774  1
  Cd  Cd3  1  0.186075  0.429579  0.608611  1
  Cd  Cd4  1  0.813925  0.570421  0.391389  1
  Cd  Cd5  1  0.811928  0.572695  0.894226  1
  H  H6  1  0.108508  0.036965  0.812497  1
  H  H7  1  0.152738  0.053915  0.191047  1
  H  H8  1  0.147557  0.147822  0.353809  1
  H  H9  1  0.205323  0.120087  0.784879  1
  H  H10  1  0.058334  0.792715  0.372233  1
  H  H11  1  0.140982  0.816861  0.855149  1
  H  H12  1  0.164803  0.805883  0.039270  1
  H  H13  1  0.137926  0.751364  0.527991  1
  H  H14  1  0.433798  0.991603  0.177319  1
  H  H15  1  0.410337  0.109717  0.310425  1
  H  H16  1  0.328328  0.679380  0.254305  1
  H  H17  1  0.546695  0.148208  0.995442  1
  H  H18  1  0.476403  0.678081  0.183345  1
  H  H19  1  0.413599  0.768756  0.778415  1
  H  H20  1  0.378242  0.959629  0.918413  1
  H  H21  1  0.444504  0.669933  0.620925  1
  H  H22  1  0.555496  0.330067  0.379075  1
  H  H23  1  0.621758  0.040371  0.081587  1
  H  H24  1  0.586401  0.231244  0.221585  1
  H  H25  1  0.523597  0.321919  0.816655  1
  H  H26  1  0.453305  0.851792  0.004558  1
  H  H27  1  0.671672  0.320620  0.745695  1
  H  H28  1  0.589663  0.890283  0.689575  1
  H  H29  1  0.566202  0.008397  0.822681  1
  H  H30  1  0.862074  0.248636  0.472009  1
  H  H31  1  0.835197  0.194117  0.960730  1
  H  H32  1  0.859018  0.183139  0.144851  1
  H  H33  1  0.941666  0.207285  0.627767  1
  H  H34  1  0.794677  0.879913  0.215121  1
  H  H35  1  0.852443  0.852178  0.646191  1
  H  H36  1  0.847262  0.946085  0.808953  1
  H  H37  1  0.891492  0.963035  0.187503  1
  Cl  Cl38  1  0.007560  0.373727  0.834349  1
  Cl  Cl39  1  0.015012  0.364121  0.347762  1
  Cl  Cl40  1  0.325006  0.212761  0.037920  1
  Cl  Cl41  1  0.335516  0.212296  0.571740  1
  Cl  Cl42  1  0.333845  0.486065  0.377230  1
  Cl  Cl43  1  0.329658  0.487919  0.873059  1
  Cl  Cl44  1  0.670342  0.512081  0.126941  1
  Cl  Cl45  1  0.666155  0.513935  0.622770  1
  Cl  Cl46  1  0.664484  0.787704  0.428260  1
  Cl  Cl47  1  0.674994  0.787239  0.962080  1
  Cl  Cl48  1  0.984988  0.635879  0.652238  1
  Cl  Cl49  1  0.992440  0.626273  0.165651  1
  O  O50  1  0.151448  0.063994  0.315030  1
  O  O51  1  0.175538  0.048961  0.732230  1
  O  O52  1  0.136994  0.803791  0.446457  1
  O  O53  1  0.092823  0.844247  0.965657  1
  O  O54  1  0.526907  0.971821  0.714774  1
  O  O55  1  0.366952  0.919508  0.012584  1
  O  O56  1  0.381054  0.748707  0.663147  1
  O  O57  1  0.382641  0.731870  0.222154  1
  O  O58  1  0.617359  0.268130  0.777846  1
  O  O59  1  0.618946  0.251293  0.336853  1
  O  O60  1  0.633048  0.080492  0.987416  1
  O  O61  1  0.473093  0.028179  0.285226  1
  O  O62  1  0.907177  0.155753  0.034343  1
  O  O63  1  0.863006  0.196209  0.553543  1
  O  O64  1  0.824462  0.951039  0.267770  1
  O  O65  1  0.848552  0.936006  0.684970  1
