# generated using pymatgen
data_Li3Mn4(BO3)4
_symmetry_space_group_name_H-M   'P 1'
_cell_length_a   9.26477679
_cell_length_b   9.16783906
_cell_length_c   6.18493279
_cell_angle_alpha   77.06684250
_cell_angle_beta   82.31768960
_cell_angle_gamma   81.19175343
_symmetry_Int_Tables_number   1
_chemical_formula_structural   Li3Mn4(BO3)4
_chemical_formula_sum   'Li6 Mn8 B8 O24'
_cell_volume   503.26822564
_cell_formula_units_Z   2
loop_
 _symmetry_equiv_pos_site_id
 _symmetry_equiv_pos_as_xyz
  1  'x, y, z'
loop_
 _atom_site_type_symbol
 _atom_site_label
 _atom_site_symmetry_multiplicity
 _atom_site_fract_x
 _atom_site_fract_y
 _atom_site_fract_z
 _atom_site_occupancy
  Li  Li0  1  0.284259  0.190589  0.035610  1
  Li  Li1  1  0.036130  0.695559  0.271981  1
  Li  Li2  1  0.463870  0.304441  0.228019  1
  Li  Li3  1  0.215741  0.809411  0.464390  1
  Li  Li4  1  0.798012  0.185943  0.545480  1
  Li  Li5  1  0.701988  0.814057  0.954520  1
  Mn  Mn6  1  0.008960  0.380710  0.239502  1
  Mn  Mn7  1  0.228723  0.122686  0.527860  1
  Mn  Mn8  1  0.746794  0.128110  0.017021  1
  Mn  Mn9  1  0.491040  0.619290  0.260498  1
  Mn  Mn10  1  0.515247  0.393767  0.737829  1
  Mn  Mn11  1  0.271277  0.877314  0.972140  1
  Mn  Mn12  1  0.753206  0.871890  0.482979  1
  Mn  Mn13  1  0.984753  0.606233  0.762171  1
  B  B14  1  0.015687  0.038639  0.245183  1
  B  B15  1  0.234424  0.467675  0.483864  1
  B  B16  1  0.734909  0.459235  0.030241  1
  B  B17  1  0.484313  0.961361  0.254817  1
  B  B18  1  0.515433  0.054183  0.741283  1
  B  B19  1  0.265576  0.532325  0.016136  1
  B  B20  1  0.765091  0.540765  0.469759  1
  B  B21  1  0.984567  0.945817  0.758717  1
  O  O22  1  0.097450  0.158165  0.227595  1
  O  O23  1  0.112494  0.562158  0.054846  1
  O  O24  1  0.084844  0.899777  0.212280  1
  O  O25  1  0.152737  0.354669  0.466484  1
  O  O26  1  0.415156  0.100223  0.287720  1
  O  O27  1  0.168796  0.603379  0.526444  1
  O  O28  1  0.387506  0.437843  0.445154  1
  O  O29  1  0.138270  0.921847  0.697559  1
  O  O30  1  0.646730  0.350131  0.032778  1
  O  O31  1  0.402550  0.841835  0.272405  1
  O  O32  1  0.361730  0.078153  0.802441  1
  O  O33  1  0.676603  0.602249  0.057585  1
  O  O34  1  0.331204  0.396621  0.973556  1
  O  O35  1  0.634436  0.938752  0.188847  1
  O  O36  1  0.598795  0.171115  0.724714  1
  O  O37  1  0.347263  0.645331  0.033516  1
  O  O38  1  0.865564  0.061248  0.311153  1
  O  O39  1  0.611622  0.573287  0.515972  1
  O  O40  1  0.823397  0.397751  0.442415  1
  O  O41  1  0.578567  0.914652  0.712549  1
  O  O42  1  0.853270  0.649869  0.467222  1
  O  O43  1  0.921433  0.085348  0.787451  1
  O  O44  1  0.888378  0.426712  0.984028  1
  O  O45  1  0.901205  0.828885  0.775286  1
