# generated using pymatgen
data_NaCa2Al2P2H5O11F4
_symmetry_space_group_name_H-M   'P 1'
_cell_length_a   9.58467935
_cell_length_b   10.78899110
_cell_length_c   5.53061396
_cell_angle_alpha   90.00000000
_cell_angle_beta   105.55072816
_cell_angle_gamma   90.00000000
_symmetry_Int_Tables_number   1
_chemical_formula_structural   NaCa2Al2P2H5O11F4
_chemical_formula_sum   'Na2 Ca4 Al4 P4 H10 O22 F8'
_cell_volume   550.97953294
_cell_formula_units_Z   2
loop_
 _symmetry_equiv_pos_site_id
 _symmetry_equiv_pos_as_xyz
  1  'x, y, z'
loop_
 _atom_site_type_symbol
 _atom_site_label
 _atom_site_symmetry_multiplicity
 _atom_site_fract_x
 _atom_site_fract_y
 _atom_site_fract_z
 _atom_site_occupancy
  Na  Na0  1  0.686479  0.250000  0.206987  1
  Na  Na1  1  0.313521  0.750000  0.793013  1
  Ca  Ca2  1  0.143429  0.915924  0.238397  1
  Ca  Ca3  1  0.856571  0.415924  0.761603  1
  Ca  Ca4  1  0.856571  0.084076  0.761603  1
  Ca  Ca5  1  0.143429  0.584076  0.238397  1
  Al  Al6  1  0.258064  0.094607  0.771537  1
  Al  Al7  1  0.741936  0.594607  0.228463  1
  Al  Al8  1  0.741936  0.905393  0.228463  1
  Al  Al9  1  0.258064  0.405393  0.771537  1
  P  P10  1  0.043950  0.250000  0.372393  1
  P  P11  1  0.956050  0.750000  0.627607  1
  P  P12  1  0.508632  0.250000  0.641670  1
  P  P13  1  0.491368  0.750000  0.358330  1
  H  H14  1  0.152003  0.250000  0.981455  1
  H  H15  1  0.847997  0.750000  0.018545  1
  H  H16  1  0.436920  0.518803  0.172754  1
  H  H17  1  0.563080  0.018803  0.827246  1
  H  H18  1  0.563080  0.481197  0.827246  1
  H  H19  1  0.436920  0.981197  0.172754  1
  H  H20  1  0.391410  0.378365  0.226124  1
  H  H21  1  0.608590  0.878365  0.773876  1
  H  H22  1  0.608590  0.621635  0.773876  1
  H  H23  1  0.391410  0.121635  0.226124  1
  O  O24  1  0.972088  0.250000  0.087282  1
  O  O25  1  0.027912  0.750000  0.912718  1
  O  O26  1  0.231362  0.250000  0.898417  1
  O  O27  1  0.768638  0.750000  0.101583  1
  O  O28  1  0.674962  0.250000  0.762118  1
  O  O29  1  0.325038  0.750000  0.237882  1
  O  O30  1  0.470369  0.250000  0.354123  1
  O  O31  1  0.529631  0.750000  0.645877  1
  O  O32  1  0.928992  0.250000  0.523991  1
  O  O33  1  0.071008  0.750000  0.476009  1
  O  O34  1  0.354333  0.457831  0.130209  1
  O  O35  1  0.645667  0.957831  0.869791  1
  O  O36  1  0.645667  0.542169  0.869791  1
  O  O37  1  0.354333  0.042169  0.130209  1
  O  O38  1  0.444042  0.366701  0.738933  1
  O  O39  1  0.555958  0.866701  0.261067  1
  O  O40  1  0.555958  0.633299  0.261067  1
  O  O41  1  0.444042  0.133299  0.738933  1
  O  O42  1  0.143659  0.367688  0.442735  1
  O  O43  1  0.856341  0.867688  0.557265  1
  O  O44  1  0.856341  0.632312  0.557265  1
  O  O45  1  0.143659  0.132312  0.442735  1
  F  F46  1  0.096159  0.466610  0.857722  1
  F  F47  1  0.903841  0.966610  0.142278  1
  F  F48  1  0.903841  0.533390  0.142278  1
  F  F49  1  0.096159  0.033390  0.857722  1
  F  F50  1  0.716808  0.442061  0.344419  1
  F  F51  1  0.283192  0.942061  0.655581  1
  F  F52  1  0.283192  0.557939  0.655581  1
  F  F53  1  0.716808  0.057939  0.344419  1
