# generated using pymatgen
data_LiMnOF2
_symmetry_space_group_name_H-M   'P 1'
_cell_length_a   10.44455558
_cell_length_b   8.95343556
_cell_length_c   5.24271752
_cell_angle_alpha   90.00000000
_cell_angle_beta   76.68795371
_cell_angle_gamma   90.00000000
_symmetry_Int_Tables_number   1
_chemical_formula_structural   LiMnOF2
_chemical_formula_sum   'Li8 Mn8 O8 F16'
_cell_volume   477.09757940
_cell_formula_units_Z   8
loop_
 _symmetry_equiv_pos_site_id
 _symmetry_equiv_pos_as_xyz
  1  'x, y, z'
loop_
 _atom_site_type_symbol
 _atom_site_label
 _atom_site_symmetry_multiplicity
 _atom_site_fract_x
 _atom_site_fract_y
 _atom_site_fract_z
 _atom_site_occupancy
  Li  Li0  1  0.058531  0.164614  0.747873  1
  Li  Li1  1  0.058531  0.335386  0.247873  1
  Li  Li2  1  0.423887  0.339854  0.855943  1
  Li  Li3  1  0.423887  0.160146  0.355943  1
  Li  Li4  1  0.543353  0.839452  0.673280  1
  Li  Li5  1  0.543353  0.660548  0.173280  1
  Li  Li6  1  0.967829  0.655326  0.739929  1
  Li  Li7  1  0.967829  0.844674  0.239929  1
  Mn  Mn8  1  0.254722  0.656903  0.933188  1
  Mn  Mn9  1  0.254716  0.991749  0.931362  1
  Mn  Mn10  1  0.254722  0.843097  0.433188  1
  Mn  Mn11  1  0.254716  0.508251  0.431362  1
  Mn  Mn12  1  0.743786  0.552880  0.555398  1
  Mn  Mn13  1  0.742572  0.160039  0.549468  1
  Mn  Mn14  1  0.743786  0.947120  0.055398  1
  Mn  Mn15  1  0.742572  0.339961  0.049468  1
  O  O16  1  0.156883  0.978249  0.665393  1
  O  O17  1  0.160011  0.665035  0.647688  1
  O  O18  1  0.156883  0.521751  0.165393  1
  O  O19  1  0.160011  0.834965  0.147688  1
  O  O20  1  0.346591  0.511587  0.708417  1
  O  O21  1  0.349954  0.831769  0.724812  1
  O  O22  1  0.346591  0.988413  0.208417  1
  O  O23  1  0.349954  0.668231  0.224812  1
  F  F24  1  0.133969  0.345649  0.566745  1
  F  F25  1  0.133969  0.154351  0.066745  1
  F  F26  1  0.374965  0.142169  0.738033  1
  F  F27  1  0.374965  0.357831  0.238033  1
  F  F28  1  0.608153  0.673971  0.816461  1
  F  F29  1  0.624130  0.338029  0.761093  1
  F  F30  1  0.635257  0.996332  0.783103  1
  F  F31  1  0.608153  0.826029  0.316461  1
  F  F32  1  0.624130  0.161971  0.261093  1
  F  F33  1  0.635257  0.503668  0.283103  1
  F  F34  1  0.890086  0.797594  0.964958  1
  F  F35  1  0.863163  0.157147  0.829486  1
  F  F36  1  0.867442  0.479777  0.807371  1
  F  F37  1  0.890086  0.702406  0.464958  1
  F  F38  1  0.863163  0.342853  0.329486  1
  F  F39  1  0.867442  0.020223  0.307371  1
