# generated using pymatgen
data_LiFe2(BO3)2
_symmetry_space_group_name_H-M   'P 1'
_cell_length_a   5.28081752
_cell_length_b   9.03417895
_cell_length_c   11.28320577
_cell_angle_alpha   113.18386588
_cell_angle_beta   77.88852939
_cell_angle_gamma   90.38081789
_symmetry_Int_Tables_number   1
_chemical_formula_structural   LiFe2(BO3)2
_chemical_formula_sum   'Li4 Fe8 B8 O24'
_cell_volume   482.08302526
_cell_formula_units_Z   4
loop_
 _symmetry_equiv_pos_site_id
 _symmetry_equiv_pos_as_xyz
  1  'x, y, z'
loop_
 _atom_site_type_symbol
 _atom_site_label
 _atom_site_symmetry_multiplicity
 _atom_site_fract_x
 _atom_site_fract_y
 _atom_site_fract_z
 _atom_site_occupancy
  Li  Li0  1  0.172852  0.161297  0.342438  1
  Li  Li1  1  0.355497  0.298417  0.601218  1
  Li  Li2  1  0.604906  0.044602  0.082512  1
  Li  Li3  1  0.918455  0.436188  0.850497  1
  Fe  Fe4  1  0.406612  0.258834  0.865798  1
  Fe  Fe5  1  0.092109  0.237347  0.123876  1
  Fe  Fe6  1  0.841575  0.129781  0.612137  1
  Fe  Fe7  1  0.662106  0.358178  0.377767  1
  Fe  Fe8  1  0.348766  0.652681  0.630672  1
  Fe  Fe9  1  0.152257  0.839973  0.360680  1
  Fe  Fe10  1  0.902041  0.782231  0.867115  1
  Fe  Fe11  1  0.606508  0.715256  0.120571  1
  B  B12  1  0.636560  0.019882  0.373037  1
  B  B13  1  0.881346  0.115889  0.877908  1
  B  B14  1  0.160620  0.516546  0.373475  1
  B  B15  1  0.412175  0.592440  0.864327  1
  B  B16  1  0.859148  0.482645  0.628871  1
  B  B17  1  0.614287  0.381428  0.116176  1
  B  B18  1  0.342405  0.976930  0.618900  1
  B  B19  1  0.091184  0.903432  0.126824  1
  O  O20  1  0.112135  0.152684  0.923069  1
  O  O21  1  0.441639  0.132663  0.667412  1
  O  O22  1  0.216859  0.046699  0.139684  1
  O  O23  1  0.501722  0.162307  0.394161  1
  O  O24  1  0.886078  0.027709  0.402347  1
  O  O25  1  0.790558  0.219261  0.826038  1
  O  O26  1  0.289487  0.451109  0.856543  1
  O  O27  1  0.064457  0.360297  0.321131  1
  O  O28  1  0.711816  0.271142  0.160880  1
  O  O29  1  0.617181  0.472228  0.592623  1
  O  O30  1  0.979791  0.350793  0.632022  1
  O  O31  1  0.389308  0.338580  0.065834  1
  O  O32  1  0.646286  0.616724  0.903053  1
  O  O33  1  0.364301  0.528788  0.434552  1
  O  O34  1  0.294589  0.700304  0.828556  1
  O  O35  1  0.972483  0.629017  0.660215  1
  O  O36  1  0.737638  0.509739  0.113472  1
  O  O37  1  0.204461  0.794832  0.163390  1
  O  O38  1  0.136205  0.964585  0.557978  1
  O  O39  1  0.448828  0.854365  0.636331  1
  O  O40  1  0.051487  0.640356  0.357436  1
  O  O41  1  0.746934  0.995197  0.892998  1
  O  O42  1  0.526656  0.874536  0.330550  1
  O  O43  1  0.859786  0.882868  0.086439  1
