# generated using pymatgen
data_Li2Mn5Si5O16
_symmetry_space_group_name_H-M   'P 1'
_cell_length_a   7.06640963
_cell_length_b   10.49473806
_cell_length_c   5.13969525
_cell_angle_alpha   90.13202025
_cell_angle_beta   90.19210365
_cell_angle_gamma   89.16678778
_symmetry_Int_Tables_number   1
_chemical_formula_structural   Li2Mn5Si5O16
_chemical_formula_sum   'Li2 Mn5 Si5 O16'
_cell_volume   381.11699153
_cell_formula_units_Z   1
loop_
 _symmetry_equiv_pos_site_id
 _symmetry_equiv_pos_as_xyz
  1  'x, y, z'
loop_
 _atom_site_type_symbol
 _atom_site_label
 _atom_site_symmetry_multiplicity
 _atom_site_fract_x
 _atom_site_fract_y
 _atom_site_fract_z
 _atom_site_occupancy
  Li  Li0  1  0.497160  0.663068  0.355923  1
  Li  Li1  1  0.001080  0.856227  0.820893  1
  Mn  Mn2  1  0.989115  0.141450  0.180064  1
  Mn  Mn3  1  0.480242  0.150519  0.188441  1
  Mn  Mn4  1  0.504698  0.356630  0.692312  1
  Mn  Mn5  1  0.501771  0.847494  0.833984  1
  Mn  Mn6  1  0.003680  0.341198  0.678557  1
  Si  Si7  1  0.009726  0.664094  0.300667  1
  Si  Si8  1  0.231851  0.413953  0.177667  1
  Si  Si9  1  0.256794  0.893514  0.342930  1
  Si  Si10  1  0.770023  0.597156  0.795283  1
  Si  Si11  1  0.745185  0.088519  0.682332  1
  O  O12  1  0.050530  0.333409  0.279546  1
  O  O13  1  0.069064  0.809138  0.219933  1
  O  O14  1  0.245814  0.405948  0.860488  1
  O  O15  1  0.237565  0.040653  0.233408  1
  O  O16  1  0.242615  0.881955  0.654777  1
  O  O17  1  0.196941  0.567827  0.269356  1
  O  O18  1  0.428516  0.353934  0.297506  1
  O  O19  1  0.447491  0.827304  0.227087  1
  O  O20  1  0.568476  0.659760  0.721790  1
  O  O21  1  0.556378  0.165989  0.798741  1
  O  O22  1  0.833460  0.627321  0.104699  1
  O  O23  1  0.736006  0.109087  0.363403  1
  O  O24  1  0.762029  0.444519  0.753979  1
  O  O25  1  0.753255  0.941259  0.775779  1
  O  O26  1  0.940174  0.659010  0.606337  1
  O  O27  1  0.940362  0.159063  0.784116  1
