# generated using pymatgen
data_MnH12C2NCl3O2
_symmetry_space_group_name_H-M   'P 1'
_cell_length_a   11.73707210
_cell_length_b   11.73707210
_cell_length_c   11.79853687
_cell_angle_alpha   90.00000000
_cell_angle_beta   90.00000000
_cell_angle_gamma   110.37383303
_symmetry_Int_Tables_number   1
_chemical_formula_structural   MnH12C2NCl3O2
_chemical_formula_sum   'Mn4 H48 C8 N4 Cl12 O8'
_cell_volume   1523.67268571
_cell_formula_units_Z   4
loop_
 _symmetry_equiv_pos_site_id
 _symmetry_equiv_pos_as_xyz
  1  'x, y, z'
loop_
 _atom_site_type_symbol
 _atom_site_label
 _atom_site_symmetry_multiplicity
 _atom_site_fract_x
 _atom_site_fract_y
 _atom_site_fract_z
 _atom_site_occupancy
  Mn  Mn0  1  0.378950  0.378950  0.614379  1
  Mn  Mn1  1  0.621050  0.621050  0.385621  1
  Mn  Mn2  1  0.121050  0.121050  0.114379  1
  Mn  Mn3  1  0.878950  0.878950  0.885621  1
  H  H4  1  0.778445  0.817807  0.724215  1
  H  H5  1  0.182193  0.221555  0.275785  1
  H  H6  1  0.682193  0.721555  0.224215  1
  H  H7  1  0.278445  0.317807  0.775785  1
  H  H8  1  0.221555  0.182193  0.275785  1
  H  H9  1  0.817807  0.778445  0.724215  1
  H  H10  1  0.317807  0.278445  0.775785  1
  H  H11  1  0.721555  0.682193  0.224215  1
  H  H12  1  0.252129  0.508202  0.009210  1
  H  H13  1  0.491798  0.747871  0.990790  1
  H  H14  1  0.991798  0.247871  0.509210  1
  H  H15  1  0.752129  0.008202  0.490790  1
  H  H16  1  0.747871  0.491798  0.990790  1
  H  H17  1  0.508202  0.252129  0.009210  1
  H  H18  1  0.008202  0.752129  0.490790  1
  H  H19  1  0.247871  0.991798  0.509210  1
  H  H20  1  0.340067  0.598096  0.564395  1
  H  H21  1  0.401904  0.659933  0.435605  1
  H  H22  1  0.901904  0.159933  0.064395  1
  H  H23  1  0.840067  0.098096  0.935605  1
  H  H24  1  0.659933  0.401904  0.435605  1
  H  H25  1  0.598096  0.340067  0.564395  1
  H  H26  1  0.098096  0.840067  0.935605  1
  H  H27  1  0.159933  0.901904  0.064395  1
  H  H28  1  0.969953  0.307671  0.915986  1
  H  H29  1  0.692329  0.030047  0.084014  1
  H  H30  1  0.192329  0.530047  0.415986  1
  H  H31  1  0.469953  0.807671  0.584014  1
  H  H32  1  0.030047  0.692329  0.084014  1
  H  H33  1  0.307671  0.969953  0.915986  1
  H  H34  1  0.807671  0.469953  0.584014  1
  H  H35  1  0.530047  0.192329  0.415986  1
  H  H36  1  0.816079  0.293501  0.884283  1
  H  H37  1  0.706499  0.183921  0.115717  1
  H  H38  1  0.206499  0.683921  0.384283  1
  H  H39  1  0.316079  0.793501  0.615717  1
  H  H40  1  0.183921  0.706499  0.115717  1
  H  H41  1  0.293501  0.816079  0.884283  1
  H  H42  1  0.793501  0.316079  0.615717  1
  H  H43  1  0.683921  0.206499  0.384283  1
  H  H44  1  0.146839  0.618285  0.518515  1
  H  H45  1  0.381715  0.853161  0.481485  1
  H  H46  1  0.881715  0.353161  0.018515  1
  H  H47  1  0.646839  0.118285  0.981485  1
  H  H48  1  0.853161  0.381715  0.481485  1
  H  H49  1  0.618285  0.146839  0.518515  1
  H  H50  1  0.118285  0.646839  0.981485  1
  H  H51  1  0.353161  0.881715  0.018515  1
  C  C52  1  0.878793  0.287286  0.951437  1
  C  C53  1  0.712714  0.121207  0.048563  1
  C  C54  1  0.212714  0.621207  0.451437  1
  C  C55  1  0.378793  0.787286  0.548563  1
  C  C56  1  0.121207  0.712714  0.048563  1
  C  C57  1  0.287286  0.878793  0.951437  1
  C  C58  1  0.787286  0.378793  0.548563  1
  C  C59  1  0.621207  0.212714  0.451437  1
  N  N60  1  0.337119  0.662881  0.500000  1
  N  N61  1  0.837119  0.162881  0.000000  1
  N  N62  1  0.662881  0.337119  0.500000  1
  N  N63  1  0.162881  0.837119  0.000000  1
  Cl  Cl64  1  0.146870  0.146870  0.930760  1
  Cl  Cl65  1  0.853130  0.853130  0.069240  1
  Cl  Cl66  1  0.353130  0.353130  0.430760  1
  Cl  Cl67  1  0.646870  0.646870  0.569240  1
  Cl  Cl68  1  0.263387  0.513254  0.900541  1
  Cl  Cl69  1  0.486746  0.736613  0.099459  1
  Cl  Cl70  1  0.986746  0.236613  0.400541  1
  Cl  Cl71  1  0.763387  0.013254  0.599459  1
  Cl  Cl72  1  0.736613  0.486746  0.099459  1
  Cl  Cl73  1  0.513254  0.263387  0.900541  1
  Cl  Cl74  1  0.013254  0.763387  0.599459  1
  Cl  Cl75  1  0.236613  0.986746  0.400541  1
  O  O76  1  0.007178  0.170616  0.154024  1
  O  O77  1  0.829384  0.992822  0.845976  1
  O  O78  1  0.329384  0.492822  0.654024  1
  O  O79  1  0.507178  0.670616  0.345976  1
  O  O80  1  0.992822  0.829384  0.845976  1
  O  O81  1  0.170616  0.007178  0.154024  1
  O  O82  1  0.670616  0.507178  0.345976  1
  O  O83  1  0.492822  0.329384  0.654024  1
