# generated using pymatgen
data_K2H2RhCl5O
_symmetry_space_group_name_H-M   'P 1'
_cell_length_a   8.05557255
_cell_length_b   9.77299196
_cell_length_c   14.60279355
_cell_angle_alpha   90.00000000
_cell_angle_beta   90.00000000
_cell_angle_gamma   90.00000000
_symmetry_Int_Tables_number   1
_chemical_formula_structural   K2H2RhCl5O
_chemical_formula_sum   'K8 H8 Rh4 Cl20 O4'
_cell_volume   1149.63479610
_cell_formula_units_Z   4
loop_
 _symmetry_equiv_pos_site_id
 _symmetry_equiv_pos_as_xyz
  1  'x, y, z'
loop_
 _atom_site_type_symbol
 _atom_site_label
 _atom_site_symmetry_multiplicity
 _atom_site_fract_x
 _atom_site_fract_y
 _atom_site_fract_z
 _atom_site_occupancy
  K  K0  1  0.802154  0.005758  0.169038  1
  K  K1  1  0.697846  0.494242  0.669038  1
  K  K2  1  0.197846  0.505758  0.830962  1
  K  K3  1  0.302154  0.994242  0.330962  1
  K  K4  1  0.197846  0.994242  0.830962  1
  K  K5  1  0.302154  0.505758  0.330962  1
  K  K6  1  0.802154  0.494242  0.169038  1
  K  K7  1  0.697846  0.005758  0.669038  1
  H  H8  1  0.337764  0.046757  0.558024  1
  H  H9  1  0.162236  0.453243  0.058024  1
  H  H10  1  0.662236  0.546757  0.441976  1
  H  H11  1  0.837764  0.953243  0.941976  1
  H  H12  1  0.662236  0.953243  0.441976  1
  H  H13  1  0.837764  0.546757  0.941976  1
  H  H14  1  0.337764  0.453243  0.558024  1
  H  H15  1  0.162236  0.046757  0.058024  1
  Rh  Rh16  1  0.701746  0.250000  0.895108  1
  Rh  Rh17  1  0.798254  0.250000  0.395108  1
  Rh  Rh18  1  0.298254  0.750000  0.104892  1
  Rh  Rh19  1  0.201746  0.750000  0.604892  1
  Cl  Cl20  1  0.893323  0.250000  0.764672  1
  Cl  Cl21  1  0.606677  0.250000  0.264672  1
  Cl  Cl22  1  0.106677  0.750000  0.235328  1
  Cl  Cl23  1  0.393323  0.750000  0.735328  1
  Cl  Cl24  1  0.464495  0.250000  0.791606  1
  Cl  Cl25  1  0.035505  0.250000  0.291606  1
  Cl  Cl26  1  0.535505  0.750000  0.208394  1
  Cl  Cl27  1  0.964495  0.750000  0.708394  1
  Cl  Cl28  1  0.947654  0.250000  0.992216  1
  Cl  Cl29  1  0.552346  0.250000  0.492216  1
  Cl  Cl30  1  0.052346  0.750000  0.007784  1
  Cl  Cl31  1  0.447654  0.750000  0.507784  1
  Cl  Cl32  1  0.697652  0.916736  0.906533  1
  Cl  Cl33  1  0.802348  0.583264  0.406533  1
  Cl  Cl34  1  0.302348  0.416736  0.093467  1
  Cl  Cl35  1  0.197652  0.083264  0.593467  1
  Cl  Cl36  1  0.302348  0.083264  0.093467  1
  Cl  Cl37  1  0.197652  0.416736  0.593467  1
  Cl  Cl38  1  0.697652  0.583264  0.906533  1
  Cl  Cl39  1  0.802348  0.916736  0.406533  1
  O  O40  1  0.575808  0.250000  0.993925  1
  O  O41  1  0.924192  0.250000  0.493925  1
  O  O42  1  0.424192  0.750000  0.006075  1
  O  O43  1  0.075808  0.750000  0.506075  1
