# generated using pymatgen
data_Li7Mn4(PO4)6
_symmetry_space_group_name_H-M   'P 1'
_cell_length_a   8.46204417
_cell_length_b   8.53935301
_cell_length_c   8.98024265
_cell_angle_alpha   89.25471170
_cell_angle_beta   64.18738902
_cell_angle_gamma   120.68566537
_symmetry_Int_Tables_number   1
_chemical_formula_structural   Li7Mn4(PO4)6
_chemical_formula_sum   'Li7 Mn4 P6 O24'
_cell_volume   478.62408067
_cell_formula_units_Z   1
loop_
 _symmetry_equiv_pos_site_id
 _symmetry_equiv_pos_as_xyz
  1  'x, y, z'
loop_
 _atom_site_type_symbol
 _atom_site_label
 _atom_site_symmetry_multiplicity
 _atom_site_fract_x
 _atom_site_fract_y
 _atom_site_fract_z
 _atom_site_occupancy
  Li  Li0  1  0.933712  0.269553  0.145656  1
  Li  Li1  1  0.596528  0.666597  0.139498  1
  Li  Li2  1  0.907850  0.459351  0.630820  1
  Li  Li3  1  0.807445  0.075544  0.862733  1
  Li  Li4  1  0.192694  0.921913  0.139541  1
  Li  Li5  1  0.399872  0.330178  0.863151  1
  Li  Li6  1  0.059940  0.730906  0.862507  1
  Mn  Mn7  1  0.305842  0.652195  0.043077  1
  Mn  Mn8  1  0.677400  0.337251  0.978753  1
  Mn  Mn9  1  0.301060  0.152337  0.557926  1
  Mn  Mn10  1  0.703536  0.848429  0.438744  1
  P  P11  1  0.797213  0.545680  0.250279  1
  P  P12  1  0.204482  0.246772  0.253872  1
  P  P13  1  0.501553  0.044504  0.742447  1
  P  P14  1  0.502828  0.950940  0.251620  1
  P  P15  1  0.794791  0.754085  0.743959  1
  P  P16  1  0.206140  0.461773  0.749170  1
  O  O17  1  0.979227  0.130098  0.276084  1
  O  O18  1  0.697465  0.137210  0.097350  1
  O  O19  1  0.969007  0.503522  0.200859  1
  O  O20  1  0.759348  0.552477  0.094510  1
  O  O21  1  0.342765  0.200757  0.102372  1
  O  O22  1  0.604247  0.001842  0.579418  1
  O  O23  1  0.883157  0.748802  0.268590  1
  O  O24  1  0.590849  0.393123  0.416532  1
  O  O25  1  0.303154  0.463857  0.200533  1
  O  O26  1  0.672438  0.181818  0.787457  1
  O  O27  1  0.191307  0.190778  0.424067  1
  O  O28  1  0.603247  0.848494  0.276700  1
  O  O29  1  0.394054  0.144013  0.725077  1
  O  O30  1  0.811896  0.818918  0.575169  1
  O  O31  1  0.341387  0.820805  0.192341  1
  O  O32  1  0.712274  0.539893  0.782531  1
  O  O33  1  0.416052  0.603495  0.584137  1
  O  O34  1  0.119625  0.253952  0.745528  1
  O  O35  1  0.383266  0.987379  0.411822  1
  O  O36  1  0.645477  0.787381  0.900772  1
  O  O37  1  0.240574  0.465145  0.912423  1
  O  O38  1  0.036534  0.503229  0.784541  1
  O  O39  1  0.310369  0.858680  0.902461  1
  O  O40  1  0.018706  0.875856  0.726086  1
