# generated using pymatgen
data_Li8Cr(FeO4)3
_symmetry_space_group_name_H-M   'P 1'
_cell_length_a   4.99697424
_cell_length_b   4.95696237
_cell_length_c   8.53103914
_cell_angle_alpha   90.01041486
_cell_angle_beta   89.99792263
_cell_angle_gamma   90.23129256
_symmetry_Int_Tables_number   1
_chemical_formula_structural   Li8Cr(FeO4)3
_chemical_formula_sum   'Li8 Cr1 Fe3 O12'
_cell_volume   211.31052115
_cell_formula_units_Z   1
loop_
 _symmetry_equiv_pos_site_id
 _symmetry_equiv_pos_as_xyz
  1  'x, y, z'
loop_
 _atom_site_type_symbol
 _atom_site_label
 _atom_site_symmetry_multiplicity
 _atom_site_fract_x
 _atom_site_fract_y
 _atom_site_fract_z
 _atom_site_occupancy
  Li  Li0  1  0.499990  0.999996  0.233182  1
  Li  Li1  1  0.500012  0.000043  0.919516  1
  Li  Li2  1  0.999999  0.000010  0.255043  1
  Li  Li3  1  0.000008  0.000028  0.567101  1
  Li  Li4  1  0.499999  0.499983  0.066808  1
  Li  Li5  1  0.499987  0.499973  0.755808  1
  Li  Li6  1  0.999991  0.499985  0.417662  1
  Li  Li7  1  0.999991  0.499974  0.731160  1
  Cr  Cr8  1  0.999995  0.999789  0.902628  1
  Fe  Fe9  1  0.499950  0.000028  0.585494  1
  Fe  Fe10  1  0.499965  0.499948  0.401313  1
  Fe  Fe11  1  0.999972  0.499968  0.083745  1
  O  O12  1  0.241834  0.148168  0.747735  1
  O  O13  1  0.279834  0.181619  0.414967  1
  O  O14  1  0.214534  0.173459  0.067017  1
  O  O15  1  0.780462  0.322950  0.917077  1
  O  O16  1  0.719074  0.321271  0.569815  1
  O  O17  1  0.749133  0.353122  0.241776  1
  O  O18  1  0.250818  0.646882  0.241752  1
  O  O19  1  0.280934  0.678740  0.569812  1
  O  O20  1  0.219570  0.677148  0.917093  1
  O  O21  1  0.785436  0.826539  0.067087  1
  O  O22  1  0.720110  0.818441  0.415017  1
  O  O23  1  0.758398  0.851931  0.747830  1
