# generated using pymatgen
data_Ta9PO25
_symmetry_space_group_name_H-M   'P 1'
_cell_length_a   3.87951125
_cell_length_b   11.29572312
_cell_length_c   11.29572312
_cell_angle_alpha   91.68986411
_cell_angle_beta   99.88811941
_cell_angle_gamma   80.11188059
_symmetry_Int_Tables_number   1
_chemical_formula_structural   Ta9PO25
_chemical_formula_sum   'Ta9 P1 O25'
_cell_volume   480.40262090
_cell_formula_units_Z   1
loop_
 _symmetry_equiv_pos_site_id
 _symmetry_equiv_pos_as_xyz
  1  'x, y, z'
loop_
 _atom_site_type_symbol
 _atom_site_label
 _atom_site_symmetry_multiplicity
 _atom_site_fract_x
 _atom_site_fract_y
 _atom_site_fract_z
 _atom_site_occupancy
  Ta  Ta0  1  0.000000  0.000000  0.000000  1
  Ta  Ta1  1  0.106365  0.115039  0.326650  1
  Ta  Ta2  1  0.887838  0.444250  0.211822  1
  Ta  Ta3  1  0.667913  0.211822  0.555750  1
  Ta  Ta4  1  0.220285  0.673350  0.115039  1
  Ta  Ta5  1  0.778595  0.326650  0.884961  1
  Ta  Ta6  1  0.323984  0.788178  0.444250  1
  Ta  Ta7  1  0.120266  0.555750  0.788178  1
  Ta  Ta8  1  0.894755  0.884961  0.673350  1
  P  P9  1  0.750000  0.500000  0.500000  1
  O  O10  1  0.500000  0.000000  0.000000  1
  O  O11  1  0.049404  0.065070  0.168157  1
  O  O12  1  0.823085  0.393210  0.044479  1
  O  O13  1  0.614539  0.140326  0.366453  1
  O  O14  1  0.994378  0.290191  0.270912  1
  O  O15  1  0.783705  0.044479  0.606790  1
  O  O16  1  0.351149  0.489300  0.198248  1
  O  O17  1  0.159552  0.198248  0.510700  1
  O  O18  1  0.751913  0.633547  0.140326  1
  O  O19  1  0.584723  0.383431  0.488253  1
  O  O20  1  0.903531  0.511747  0.383431  1
  O  O21  1  0.118752  0.831843  0.065070  1
  O  O22  1  0.715432  0.270912  0.709809  1
  O  O23  1  0.276535  0.729088  0.290191  1
  O  O24  1  0.885525  0.168157  0.934930  1
  O  O25  1  0.031846  0.488253  0.616569  1
  O  O26  1  0.479900  0.616569  0.511747  1
  O  O27  1  0.245134  0.366453  0.859674  1
  O  O28  1  0.847099  0.801752  0.489300  1
  O  O29  1  0.642201  0.510700  0.801752  1
  O  O30  1  0.221396  0.955521  0.393210  1
  O  O31  1  0.013656  0.709809  0.729088  1
  O  O32  1  0.388412  0.859674  0.633547  1
  O  O33  1  0.171814  0.606790  0.955521  1
  O  O34  1  0.946318  0.934930  0.831843  1
