# generated using pymatgen
data_ScRe4H8NO20
_symmetry_space_group_name_H-M   'P 1'
_cell_length_a   12.22472889
_cell_length_b   12.22472889
_cell_length_c   6.20531452
_cell_angle_alpha   90.00000000
_cell_angle_beta   90.00000000
_cell_angle_gamma   90.00000000
_symmetry_Int_Tables_number   1
_chemical_formula_structural   ScRe4H8NO20
_chemical_formula_sum   'Sc2 Re8 H16 N2 O40'
_cell_volume   927.34700100
_cell_formula_units_Z   2
loop_
 _symmetry_equiv_pos_site_id
 _symmetry_equiv_pos_as_xyz
  1  'x, y, z'
loop_
 _atom_site_type_symbol
 _atom_site_label
 _atom_site_symmetry_multiplicity
 _atom_site_fract_x
 _atom_site_fract_y
 _atom_site_fract_z
 _atom_site_occupancy
  Sc  Sc0  1  0.000000  0.500000  0.250000  1
  Sc  Sc1  1  0.500000  0.000000  0.750000  1
  Re  Re2  1  0.275643  0.405114  0.978741  1
  Re  Re3  1  0.224357  0.905114  0.478741  1
  Re  Re4  1  0.594886  0.275643  0.021259  1
  Re  Re5  1  0.905114  0.775643  0.521259  1
  Re  Re6  1  0.724357  0.594886  0.978741  1
  Re  Re7  1  0.775643  0.094886  0.478741  1
  Re  Re8  1  0.405114  0.724357  0.021259  1
  Re  Re9  1  0.094886  0.224357  0.521259  1
  H  H10  1  0.214233  0.511176  0.430590  1
  H  H11  1  0.285767  0.011176  0.930590  1
  H  H12  1  0.488824  0.214233  0.569410  1
  H  H13  1  0.011176  0.714233  0.069410  1
  H  H14  1  0.785767  0.488824  0.430590  1
  H  H15  1  0.714233  0.988824  0.930590  1
  H  H16  1  0.511176  0.785767  0.569410  1
  H  H17  1  0.988824  0.285767  0.069410  1
  H  H18  1  0.167333  0.632052  0.462346  1
  H  H19  1  0.332667  0.132052  0.962346  1
  H  H20  1  0.367948  0.167333  0.537654  1
  H  H21  1  0.132052  0.667333  0.037654  1
  H  H22  1  0.832667  0.367948  0.462346  1
  H  H23  1  0.667333  0.867948  0.962346  1
  H  H24  1  0.632052  0.832667  0.537654  1
  H  H25  1  0.867948  0.332667  0.037654  1
  N  N26  1  0.500000  0.500000  0.500000  1
  N  N27  1  0.000000  0.000000  0.000000  1
  O  O28  1  0.138936  0.439247  0.045958  1
  O  O29  1  0.361064  0.939247  0.545958  1
  O  O30  1  0.560753  0.138936  0.954042  1
  O  O31  1  0.939247  0.638936  0.454042  1
  O  O32  1  0.861064  0.560753  0.045958  1
  O  O33  1  0.638936  0.060753  0.545958  1
  O  O34  1  0.439247  0.861064  0.954042  1
  O  O35  1  0.060753  0.361064  0.454042  1
  O  O36  1  0.296202  0.263765  0.011676  1
  O  O37  1  0.203798  0.763765  0.511676  1
  O  O38  1  0.736235  0.296202  0.988324  1
  O  O39  1  0.763765  0.796202  0.488324  1
  O  O40  1  0.703798  0.736235  0.011676  1
  O  O41  1  0.796202  0.236235  0.511676  1
  O  O42  1  0.263765  0.703798  0.988324  1
  O  O43  1  0.236235  0.203798  0.488324  1
  O  O44  1  0.298415  0.444520  0.712841  1
  O  O45  1  0.201585  0.944520  0.212841  1
  O  O46  1  0.555480  0.298415  0.287159  1
  O  O47  1  0.944520  0.798415  0.787159  1
  O  O48  1  0.701585  0.555480  0.712841  1
  O  O49  1  0.798415  0.055480  0.212841  1
  O  O50  1  0.444520  0.701585  0.287159  1
  O  O51  1  0.055480  0.201585  0.787159  1
  O  O52  1  0.359054  0.478357  0.155751  1
  O  O53  1  0.140946  0.978357  0.655751  1
  O  O54  1  0.521643  0.359054  0.844249  1
  O  O55  1  0.978357  0.859054  0.344249  1
  O  O56  1  0.640946  0.521643  0.155751  1
  O  O57  1  0.859054  0.021643  0.655751  1
  O  O58  1  0.478357  0.640946  0.844249  1
  O  O59  1  0.021643  0.140946  0.344249  1
  O  O60  1  0.146229  0.554607  0.430160  1
  O  O61  1  0.353771  0.054607  0.930160  1
  O  O62  1  0.445393  0.146229  0.569840  1
  O  O63  1  0.054607  0.646229  0.069840  1
  O  O64  1  0.853771  0.445393  0.430160  1
  O  O65  1  0.646229  0.945393  0.930160  1
  O  O66  1  0.554607  0.853771  0.569840  1
  O  O67  1  0.945393  0.353771  0.069840  1
