# generated using pymatgen
data_K2H2C2S2N2O
_symmetry_space_group_name_H-M   'P 1'
_cell_length_a   10.36120535
_cell_length_b   8.11829493
_cell_length_c   9.88007459
_cell_angle_alpha   90.00000000
_cell_angle_beta   90.00000000
_cell_angle_gamma   90.00000000
_symmetry_Int_Tables_number   1
_chemical_formula_structural   K2H2C2S2N2O
_chemical_formula_sum   'K8 H8 C8 S8 N8 O4'
_cell_volume   831.06564427
_cell_formula_units_Z   4
loop_
 _symmetry_equiv_pos_site_id
 _symmetry_equiv_pos_as_xyz
  1  'x, y, z'
loop_
 _atom_site_type_symbol
 _atom_site_label
 _atom_site_symmetry_multiplicity
 _atom_site_fract_x
 _atom_site_fract_y
 _atom_site_fract_z
 _atom_site_occupancy
  K  K0  1  0.665872  0.498916  0.766537  1
  K  K1  1  0.165872  0.001084  0.733463  1
  K  K2  1  0.334128  0.998916  0.233463  1
  K  K3  1  0.834128  0.501084  0.266537  1
  K  K4  1  0.334128  0.501084  0.233463  1
  K  K5  1  0.834128  0.998916  0.266537  1
  K  K6  1  0.665872  0.001084  0.766537  1
  K  K7  1  0.165872  0.498916  0.733463  1
  H  H8  1  0.994798  0.250000  0.490694  1
  H  H9  1  0.494798  0.250000  0.009306  1
  H  H10  1  0.005202  0.750000  0.509306  1
  H  H11  1  0.505202  0.750000  0.990694  1
  H  H12  1  0.044996  0.250000  0.338573  1
  H  H13  1  0.544996  0.250000  0.161427  1
  H  H14  1  0.955004  0.750000  0.661427  1
  H  H15  1  0.455004  0.750000  0.838573  1
  C  C16  1  0.432986  0.250000  0.613089  1
  C  C17  1  0.932986  0.250000  0.886911  1
  C  C18  1  0.567014  0.750000  0.386911  1
  C  C19  1  0.067014  0.750000  0.113089  1
  C  C20  1  0.589945  0.250000  0.443795  1
  C  C21  1  0.089945  0.250000  0.056205  1
  C  C22  1  0.410055  0.750000  0.556205  1
  C  C23  1  0.910055  0.750000  0.943795  1
  S  S24  1  0.304171  0.250000  0.502909  1
  S  S25  1  0.804171  0.250000  0.997091  1
  S  S26  1  0.695829  0.750000  0.497091  1
  S  S27  1  0.195829  0.750000  0.002909  1
  S  S28  1  0.406677  0.250000  0.785457  1
  S  S29  1  0.906677  0.250000  0.714543  1
  S  S30  1  0.593323  0.750000  0.214543  1
  S  S31  1  0.093323  0.750000  0.285457  1
  N  N32  1  0.558148  0.250000  0.570752  1
  N  N33  1  0.058148  0.250000  0.929248  1
  N  N34  1  0.441852  0.750000  0.429248  1
  N  N35  1  0.941852  0.750000  0.070752  1
  N  N36  1  0.631393  0.250000  0.331516  1
  N  N37  1  0.131393  0.250000  0.168484  1
  N  N38  1  0.368607  0.750000  0.668484  1
  N  N39  1  0.868607  0.750000  0.831516  1
  O  O40  1  0.966742  0.250000  0.395871  1
  O  O41  1  0.466742  0.250000  0.104129  1
  O  O42  1  0.033258  0.750000  0.604129  1
  O  O43  1  0.533258  0.750000  0.895871  1
