# generated using pymatgen
data_Li5V3P8O29
_symmetry_space_group_name_H-M   'P 1'
_cell_length_a   9.78497038
_cell_length_b   9.81264983
_cell_length_c   14.04449020
_cell_angle_alpha   89.86346407
_cell_angle_beta   90.07985163
_cell_angle_gamma   59.86091502
_symmetry_Int_Tables_number   1
_chemical_formula_structural   Li5V3P8O29
_chemical_formula_sum   'Li10 V6 P16 O58'
_cell_volume   1166.18880969
_cell_formula_units_Z   2
loop_
 _symmetry_equiv_pos_site_id
 _symmetry_equiv_pos_as_xyz
  1  'x, y, z'
loop_
 _atom_site_type_symbol
 _atom_site_label
 _atom_site_symmetry_multiplicity
 _atom_site_fract_x
 _atom_site_fract_y
 _atom_site_fract_z
 _atom_site_occupancy
  Li  Li0  1  0.772366  0.906878  0.555537  1
  Li  Li1  1  0.908505  0.319091  0.556628  1
  Li  Li2  1  0.763886  0.334361  0.060725  1
  Li  Li3  1  0.333598  0.897051  0.060253  1
  Li  Li4  1  0.680914  0.226140  0.438377  1
  Li  Li5  1  0.312863  0.773659  0.562759  1
  Li  Li6  1  0.671126  0.092969  0.940219  1
  Li  Li7  1  0.229872  0.091098  0.438483  1
  Li  Li8  1  0.100179  0.232457  0.943637  1
  Li  Li9  1  0.012572  0.929669  0.009426  1
  V  V10  1  0.564889  0.436643  0.251300  1
  V  V11  1  0.428161  0.569351  0.753419  1
  V  V12  1  0.567217  0.001238  0.749465  1
  V  V13  1  0.434021  0.998653  0.247683  1
  V  V14  1  0.998371  0.572873  0.247558  1
  V  V15  1  0.001038  0.438877  0.752782  1
  P  P16  1  0.916925  0.776468  0.843965  1
  P  P17  1  0.770998  0.911037  0.338393  1
  P  P18  1  0.913586  0.319712  0.341586  1
  P  P19  1  0.669258  0.663250  0.127576  1
  P  P20  1  0.665723  0.666394  0.631317  1
  P  P21  1  0.772807  0.315720  0.841151  1
  P  P22  1  0.680009  0.233692  0.658202  1
  P  P23  1  0.315629  0.913598  0.841218  1
  P  P24  1  0.684567  0.090367  0.156527  1
  P  P25  1  0.319370  0.769349  0.345380  1
  P  P26  1  0.222902  0.693358  0.162038  1
  P  P27  1  0.330530  0.331957  0.368825  1
  P  P28  1  0.334279  0.331993  0.870705  1
  P  P29  1  0.083435  0.687767  0.657411  1
  P  P30  1  0.228930  0.092373  0.658919  1
  P  P31  1  0.085345  0.230405  0.157925  1
  O  O32  1  0.989584  0.765588  0.570885  1
  O  O33  1  0.917207  0.743972  0.335322  1
  O  O34  1  0.773914  0.016706  0.066525  1
  O  O35  1  0.744076  0.916491  0.838296  1
  O  O36  1  0.917626  0.617396  0.829699  1
  O  O37  1  0.813087  0.670002  0.176332  1
  O  O38  1  0.904734  0.478145  0.322654  1
  O  O39  1  0.997825  0.229600  0.069362  1
  O  O40  1  0.921735  0.335486  0.839883  1
  O  O41  1  0.671708  0.814272  0.668419  1
  O  O42  1  0.620454  0.901129  0.320694  1
  O  O43  1  0.815568  0.515650  0.679257  1
  O  O44  1  0.678906  0.658843  0.021563  1
  O  O45  1  0.680663  0.651040  0.525556  1
  O  O46  1  0.679847  0.509064  0.167968  1
  O  O47  1  0.472027  0.911160  0.828720  1
  O  O48  1  0.513333  0.809496  0.164984  1
  O  O49  1  0.748340  0.335701  0.342616  1
  O  O50  1  0.794488  0.208310  0.748365  1
  O  O51  1  0.757788  0.244017  0.568027  1
  O  O52  1  0.775141  0.226996  0.929837  1
  O  O53  1  0.622276  0.473474  0.827726  1
  O  O54  1  0.513215  0.672524  0.669514  1
  O  O55  1  0.657789  0.260456  0.164089  1
  O  O56  1  0.480480  0.620122  0.321880  1
  O  O57  1  0.337847  0.917490  0.338221  1
  O  O58  1  0.792993  0.001437  0.248791  1
  O  O59  1  0.758841  0.999112  0.428250  1
  O  O60  1  0.240024  0.003883  0.569412  1
  O  O61  1  0.662622  0.085216  0.657884  1
  O  O62  1  0.521495  0.383845  0.677293  1
  O  O63  1  0.340302  0.745929  0.835549  1
  O  O64  1  0.484032  0.329211  0.332092  1
  O  O65  1  0.380106  0.539320  0.167427  1
  O  O66  1  0.204744  0.801213  0.080802  1
  O  O67  1  0.253328  0.758172  0.438124  1
  O  O68  1  0.202314  0.789872  0.259376  1
  O  O69  1  0.250697  0.665515  0.659222  1
  O  O70  1  0.490014  0.187241  0.831678  1
  O  O71  1  0.529236  0.090765  0.168459  1
  O  O72  1  0.323462  0.482322  0.828199  1
  O  O73  1  0.323367  0.323439  0.976285  1
  O  O74  1  0.322676  0.332409  0.474756  1
  O  O75  1  0.184688  0.477937  0.319391  1
  O  O76  1  0.378318  0.103009  0.677542  1
  O  O77  1  0.327675  0.183495  0.328086  1
  O  O78  1  0.081746  0.662508  0.164346  1
  O  O79  1  0.999325  0.794965  0.749828  1
  O  O80  1  0.998974  0.784862  0.929927  1
  O  O81  1  0.093739  0.525411  0.679334  1
  O  O82  1  0.185997  0.322286  0.825993  1
  O  O83  1  0.087225  0.384763  0.170614  1
  O  O84  1  0.254211  0.084519  0.157758  1
  O  O85  1  0.228093  0.997166  0.930717  1
  O  O86  1  0.205671  0.003988  0.749384  1
  O  O87  1  0.079257  0.259139  0.659557  1
  O  O88  1  0.004143  0.240462  0.431005  1
  O  O89  1  0.002265  0.207306  0.251037  1
