# generated using pymatgen
data_Na2P2H4N2O5
_symmetry_space_group_name_H-M   'P 1'
_cell_length_a   5.23904497
_cell_length_b   11.48396896
_cell_length_c   11.60888784
_cell_angle_alpha   94.45487119
_cell_angle_beta   103.15069834
_cell_angle_gamma   76.85997075
_symmetry_Int_Tables_number   1
_chemical_formula_structural   Na2P2H4N2O5
_chemical_formula_sum   'Na8 P8 H16 N8 O20'
_cell_volume   662.07653720
_cell_formula_units_Z   4
loop_
 _symmetry_equiv_pos_site_id
 _symmetry_equiv_pos_as_xyz
  1  'x, y, z'
loop_
 _atom_site_type_symbol
 _atom_site_label
 _atom_site_symmetry_multiplicity
 _atom_site_fract_x
 _atom_site_fract_y
 _atom_site_fract_z
 _atom_site_occupancy
  Na  Na0  1  0.440642  0.910747  0.101854  1
  Na  Na1  1  0.827746  0.898003  0.405099  1
  Na  Na2  1  0.309712  0.601455  0.094576  1
  Na  Na3  1  0.248762  0.589855  0.397228  1
  Na  Na4  1  0.752306  0.409737  0.601360  1
  Na  Na5  1  0.690715  0.397639  0.905198  1
  Na  Na6  1  0.187062  0.100593  0.594921  1
  Na  Na7  1  0.560343  0.090107  0.897729  1
  P  P8  1  0.843217  0.925941  0.689248  1
  P  P9  1  0.895399  0.814611  0.921971  1
  P  P10  1  0.784818  0.685471  0.576670  1
  P  P11  1  0.080386  0.574722  0.809684  1
  P  P12  1  0.919800  0.425193  0.189405  1
  P  P13  1  0.216657  0.313360  0.421800  1
  P  P14  1  0.108723  0.185403  0.077745  1
  P  P15  1  0.154946  0.074625  0.309721  1
  H  H16  1  0.221251  0.868224  0.842670  1
  H  H17  1  0.468045  0.841099  0.638801  1
  H  H18  1  0.955874  0.812109  0.157000  1
  H  H19  1  0.362489  0.787047  0.283181  1
  H  H20  1  0.869213  0.711951  0.211083  1
  H  H21  1  0.608312  0.689702  0.341434  1
  H  H22  1  0.672899  0.657228  0.865758  1
  H  H23  1  0.244634  0.632887  0.656428  1
  H  H24  1  0.756147  0.368939  0.343230  1
  H  H25  1  0.329592  0.342994  0.136206  1
  H  H26  1  0.387577  0.310844  0.656942  1
  H  H27  1  0.131702  0.285790  0.788003  1
  H  H28  1  0.637031  0.213284  0.709925  1
  H  H29  1  0.046908  0.185423  0.844147  1
  H  H30  1  0.536231  0.157521  0.359980  1
  H  H31  1  0.779609  0.130679  0.153792  1
  N  N32  1  0.016550  0.876049  0.825031  1
  N  N33  1  0.662134  0.824390  0.627835  1
  N  N34  1  0.858008  0.676015  0.870627  1
  N  N35  1  0.065627  0.624603  0.673739  1
  N  N36  1  0.935844  0.374568  0.324988  1
  N  N37  1  0.142282  0.325004  0.127431  1
  N  N38  1  0.339659  0.175697  0.368633  1
  N  N39  1  0.984392  0.123682  0.173336  1
  O  O40  1  0.354194  0.957480  0.298942  1
  O  O41  1  0.050707  0.925680  0.617145  1
  O  O42  1  0.615998  0.885197  0.927272  1
  O  O43  1  0.108781  0.804118  0.036727  1
  O  O44  1  0.844882  0.799736  0.212234  1
  O  O45  1  0.431703  0.699623  0.284550  1
  O  O46  1  0.872173  0.696564  0.461798  1
  O  O47  1  0.571591  0.614611  0.571290  1
  O  O48  1  0.360599  0.574009  0.881431  1
  O  O49  1  0.014795  0.541963  0.201633  1
  O  O50  1  0.982880  0.458362  0.797438  1
  O  O51  1  0.639446  0.424279  0.117833  1
  O  O52  1  0.429314  0.384837  0.427312  1
  O  O53  1  0.128587  0.301617  0.536182  1
  O  O54  1  0.565675  0.300327  0.713020  1
  O  O55  1  0.152163  0.198270  0.786377  1
  O  O56  1  0.896664  0.195211  0.962484  1
  O  O57  1  0.388804  0.114871  0.073693  1
  O  O58  1  0.946849  0.076134  0.381903  1
  O  O59  1  0.642578  0.042103  0.701750  1
