# generated using pymatgen
data_Sn2P2O7
_symmetry_space_group_name_H-M   'P 1'
_cell_length_a   7.65419372
_cell_length_b   9.54389221
_cell_length_c   9.66416237
_cell_angle_alpha   90.00000000
_cell_angle_beta   112.59907991
_cell_angle_gamma   90.00000000
_symmetry_Int_Tables_number   1
_chemical_formula_structural   Sn2P2O7
_chemical_formula_sum   'Sn8 P8 O28'
_cell_volume   651.76749635
_cell_formula_units_Z   4
loop_
 _symmetry_equiv_pos_site_id
 _symmetry_equiv_pos_as_xyz
  1  'x, y, z'
loop_
 _atom_site_type_symbol
 _atom_site_label
 _atom_site_symmetry_multiplicity
 _atom_site_fract_x
 _atom_site_fract_y
 _atom_site_fract_z
 _atom_site_occupancy
  Sn  Sn0  1  0.124908  0.948801  0.888676  1
  Sn  Sn1  1  0.118569  0.551557  0.873096  1
  Sn  Sn2  1  0.381431  0.051557  0.626904  1
  Sn  Sn3  1  0.375092  0.448801  0.611324  1
  Sn  Sn4  1  0.624908  0.551199  0.388676  1
  Sn  Sn5  1  0.618569  0.948443  0.373096  1
  Sn  Sn6  1  0.881431  0.448443  0.126904  1
  Sn  Sn7  1  0.875092  0.051199  0.111324  1
  P  P8  1  0.436772  0.259870  0.940330  1
  P  P9  1  0.063228  0.759870  0.559670  1
  P  P10  1  0.698046  0.752091  0.801809  1
  P  P11  1  0.801954  0.252091  0.698191  1
  P  P12  1  0.198046  0.747909  0.301809  1
  P  P13  1  0.301954  0.247909  0.198191  1
  P  P14  1  0.936772  0.240130  0.440330  1
  P  P15  1  0.563228  0.740130  0.059670  1
  O  O16  1  0.359063  0.746549  0.947054  1
  O  O17  1  0.376209  0.122710  0.847862  1
  O  O18  1  0.389152  0.394541  0.842082  1
  O  O19  1  0.110848  0.894541  0.657918  1
  O  O20  1  0.123791  0.622710  0.652138  1
  O  O21  1  0.703134  0.723314  0.971180  1
  O  O22  1  0.140937  0.246549  0.552946  1
  O  O23  1  0.586663  0.255840  0.668610  1
  O  O24  1  0.203134  0.776686  0.471180  1
  O  O25  1  0.607356  0.894503  0.753452  1
  O  O26  1  0.896733  0.127309  0.795678  1
  O  O27  1  0.603267  0.627309  0.704322  1
  O  O28  1  0.892644  0.394503  0.746548  1
  O  O29  1  0.913337  0.755840  0.831390  1
  O  O30  1  0.086663  0.244160  0.168610  1
  O  O31  1  0.107356  0.605497  0.253452  1
  O  O32  1  0.396733  0.372691  0.295678  1
  O  O33  1  0.103267  0.872691  0.204322  1
  O  O34  1  0.392644  0.105497  0.246548  1
  O  O35  1  0.796866  0.223314  0.528820  1
  O  O36  1  0.413337  0.744160  0.331390  1
  O  O37  1  0.859063  0.753451  0.447054  1
  O  O38  1  0.296866  0.276686  0.028820  1
  O  O39  1  0.876209  0.377290  0.347862  1
  O  O40  1  0.889152  0.105459  0.342082  1
  O  O41  1  0.610848  0.605459  0.157918  1
  O  O42  1  0.623791  0.877290  0.152138  1
  O  O43  1  0.640937  0.253451  0.052946  1
