# generated using pymatgen
data_Mg(GaO2)2
_symmetry_space_group_name_H-M   'P 1'
_cell_length_a   5.96041989
_cell_length_b   5.96041989
_cell_length_c   5.94650229
_cell_angle_alpha   59.92254772
_cell_angle_beta   59.92254772
_cell_angle_gamma   60.00000000
_symmetry_Int_Tables_number   1
_chemical_formula_structural   Mg(GaO2)2
_chemical_formula_sum   'Mg2 Ga4 O8'
_cell_volume   149.20757943
_cell_formula_units_Z   2
loop_
 _symmetry_equiv_pos_site_id
 _symmetry_equiv_pos_as_xyz
  1  'x, y, z'
loop_
 _atom_site_type_symbol
 _atom_site_label
 _atom_site_symmetry_multiplicity
 _atom_site_fract_x
 _atom_site_fract_y
 _atom_site_fract_z
 _atom_site_occupancy
  Mg  Mg0  1  0.121301  0.121301  0.136098  1
  Mg  Mg1  1  0.498086  0.498086  0.005742  1
  Ga  Ga2  1  0.497063  0.010235  0.495638  1
  Ga  Ga3  1  0.010235  0.497063  0.495638  1
  Ga  Ga4  1  0.497063  0.497063  0.495638  1
  Ga  Ga5  1  0.880123  0.880123  0.859632  1
  O  O6  1  0.718354  0.254920  0.271806  1
  O  O7  1  0.254920  0.254920  0.271806  1
  O  O8  1  0.254920  0.718354  0.271806  1
  O  O9  1  0.258063  0.258063  0.725810  1
  O  O10  1  0.744930  0.744930  0.265209  1
  O  O11  1  0.746083  0.272773  0.735059  1
  O  O12  1  0.746083  0.746083  0.735059  1
  O  O13  1  0.272773  0.746083  0.735059  1
