# generated using pymatgen
data_LiNiBO3
_symmetry_space_group_name_H-M   'P 1'
_cell_length_a   5.11292573
_cell_length_b   5.11228074
_cell_length_c   10.00421535
_cell_angle_alpha   89.19086724
_cell_angle_beta   90.81461298
_cell_angle_gamma   62.29734852
_symmetry_Int_Tables_number   1
_chemical_formula_structural   LiNiBO3
_chemical_formula_sum   'Li4 Ni4 B4 O12'
_cell_volume   231.43553607
_cell_formula_units_Z   4
loop_
 _symmetry_equiv_pos_site_id
 _symmetry_equiv_pos_as_xyz
  1  'x, y, z'
loop_
 _atom_site_type_symbol
 _atom_site_label
 _atom_site_symmetry_multiplicity
 _atom_site_fract_x
 _atom_site_fract_y
 _atom_site_fract_z
 _atom_site_occupancy
  Li  Li0  1  0.351030  0.663296  0.833804  1
  Li  Li1  1  0.336776  0.648935  0.333766  1
  Li  Li2  1  0.654501  0.337246  0.584688  1
  Li  Li3  1  0.662810  0.345572  0.084652  1
  Ni  Ni4  1  0.020317  0.320030  0.369875  1
  Ni  Ni5  1  0.329570  0.016930  0.118814  1
  Ni  Ni6  1  0.679905  0.979738  0.869848  1
  Ni  Ni7  1  0.983183  0.670538  0.618845  1
  B  B8  1  0.000994  0.333642  0.873212  1
  B  B9  1  0.339493  0.000728  0.624027  1
  B  B10  1  0.666415  0.999017  0.373243  1
  B  B11  1  0.999291  0.660597  0.123989  1
  O  O12  1  0.973146  0.408741  0.162112  1
  O  O13  1  0.088564  0.250296  0.577560  1
  O  O14  1  0.257417  0.077286  0.910435  1
  O  O15  1  0.418524  0.977942  0.327157  1
  O  O16  1  0.269902  0.655371  0.134092  1
  O  O17  1  0.344713  0.730074  0.634137  1
  O  O18  1  0.653911  0.272309  0.385374  1
  O  O19  1  0.727771  0.346133  0.885331  1
  O  O20  1  0.591327  0.026887  0.662116  1
  O  O21  1  0.749732  0.911544  0.077530  1
  O  O22  1  0.922788  0.742583  0.410457  1
  O  O23  1  0.022082  0.581578  0.827166  1
