# generated using pymatgen
data_V2Si2O7
_symmetry_space_group_name_H-M   'P 1'
_cell_length_a   5.28860053
_cell_length_b   5.28860053
_cell_length_c   4.68882541
_cell_angle_alpha   82.94683074
_cell_angle_beta   97.05316926
_cell_angle_gamma   73.75505573
_symmetry_Int_Tables_number   1
_chemical_formula_structural   V2Si2O7
_chemical_formula_sum   'V2 Si2 O7'
_cell_volume   123.24333589
_cell_formula_units_Z   1
loop_
 _symmetry_equiv_pos_site_id
 _symmetry_equiv_pos_as_xyz
  1  'x, y, z'
loop_
 _atom_site_type_symbol
 _atom_site_label
 _atom_site_symmetry_multiplicity
 _atom_site_fract_x
 _atom_site_fract_y
 _atom_site_fract_z
 _atom_site_occupancy
  V  V0  1  0.686706  0.686706  0.000000  1
  V  V1  1  0.313294  0.313294  0.000000  1
  Si  Si2  1  0.229660  0.770340  0.404761  1
  Si  Si3  1  0.770340  0.229660  0.595239  1
  O  O4  1  0.078159  0.600119  0.209290  1
  O  O5  1  0.399881  0.921841  0.209290  1
  O  O6  1  0.398026  0.601974  0.724926  1
  O  O7  1  0.000000  0.000000  0.500000  1
  O  O8  1  0.601974  0.398026  0.275074  1
  O  O9  1  0.600119  0.078159  0.790710  1
  O  O10  1  0.921841  0.399881  0.790710  1
