# generated using pymatgen
data_LiSn2(PO4)3
_symmetry_space_group_name_H-M   'P 1'
_cell_length_a   8.76623223
_cell_length_b   12.22419464
_cell_length_c   8.87448049
_cell_angle_alpha   90.00000000
_cell_angle_beta   90.00000000
_cell_angle_gamma   90.00000000
_symmetry_Int_Tables_number   1
_chemical_formula_structural   LiSn2(PO4)3
_chemical_formula_sum   'Li4 Sn8 P12 O48'
_cell_volume   950.99047446
_cell_formula_units_Z   4
loop_
 _symmetry_equiv_pos_site_id
 _symmetry_equiv_pos_as_xyz
  1  'x, y, z'
loop_
 _atom_site_type_symbol
 _atom_site_label
 _atom_site_symmetry_multiplicity
 _atom_site_fract_x
 _atom_site_fract_y
 _atom_site_fract_z
 _atom_site_occupancy
  Li  Li0  1  0.216124  0.822671  0.728672  1
  Li  Li1  1  0.283876  0.322671  0.271328  1
  Li  Li2  1  0.716124  0.322671  0.771328  1
  Li  Li3  1  0.783876  0.822671  0.228672  1
  Sn  Sn4  1  0.247801  0.117669  0.464985  1
  Sn  Sn5  1  0.254412  0.879573  0.052076  1
  Sn  Sn6  1  0.245588  0.379573  0.947924  1
  Sn  Sn7  1  0.252199  0.617669  0.535015  1
  Sn  Sn8  1  0.754412  0.379573  0.447924  1
  Sn  Sn9  1  0.747801  0.617669  0.035015  1
  Sn  Sn10  1  0.745588  0.879573  0.552076  1
  Sn  Sn11  1  0.752199  0.117669  0.964985  1
  P  P12  1  0.043988  0.501097  0.245969  1
  P  P13  1  0.107961  0.147203  0.103054  1
  P  P14  1  0.100953  0.852936  0.396845  1
  P  P15  1  0.399047  0.352936  0.603155  1
  P  P16  1  0.392039  0.647203  0.896946  1
  P  P17  1  0.456012  0.001097  0.754031  1
  P  P18  1  0.543988  0.001097  0.254031  1
  P  P19  1  0.600953  0.352936  0.103155  1
  P  P20  1  0.607961  0.647203  0.396946  1
  P  P21  1  0.899047  0.852936  0.896845  1
  P  P22  1  0.892039  0.147203  0.603054  1
  P  P23  1  0.956012  0.501097  0.745969  1
  O  O24  1  0.049284  0.420960  0.844259  1
  O  O25  1  0.053736  0.574030  0.644575  1
  O  O26  1  0.066783  0.162711  0.598943  1
  O  O27  1  0.075195  0.839507  0.902616  1
  O  O28  1  0.149457  0.027120  0.077747  1
  O  O29  1  0.146405  0.970374  0.432649  1
  O  O30  1  0.167410  0.184929  0.261963  1
  O  O31  1  0.149667  0.816708  0.238441  1
  O  O32  1  0.184589  0.219446  0.982149  1
  O  O33  1  0.175100  0.779566  0.520955  1
  O  O34  1  0.144404  0.576095  0.342169  1
  O  O35  1  0.152519  0.424136  0.155121  1
  O  O36  1  0.355596  0.076095  0.657831  1
  O  O37  1  0.347481  0.924136  0.844879  1
  O  O38  1  0.315411  0.719446  0.017851  1
  O  O39  1  0.324900  0.279566  0.479045  1
  O  O40  1  0.332590  0.684929  0.738037  1
  O  O41  1  0.350333  0.316708  0.761559  1
  O  O42  1  0.353595  0.470374  0.567351  1
  O  O43  1  0.350543  0.527120  0.922253  1
  O  O44  1  0.424805  0.339507  0.097384  1
  O  O45  1  0.433217  0.662711  0.401057  1
  O  O46  1  0.446264  0.074030  0.355425  1
  O  O47  1  0.450716  0.920960  0.155741  1
  O  O48  1  0.549284  0.920960  0.655741  1
  O  O49  1  0.553736  0.074030  0.855425  1
  O  O50  1  0.575195  0.339507  0.597384  1
  O  O51  1  0.566783  0.662711  0.901057  1
  O  O52  1  0.646405  0.470374  0.067351  1
  O  O53  1  0.649457  0.527120  0.422253  1
  O  O54  1  0.649667  0.316708  0.261559  1
  O  O55  1  0.667410  0.684929  0.238037  1
  O  O56  1  0.684589  0.719446  0.517851  1
  O  O57  1  0.675100  0.279566  0.979045  1
  O  O58  1  0.644404  0.076095  0.157831  1
  O  O59  1  0.652519  0.924136  0.344879  1
  O  O60  1  0.847481  0.424136  0.655121  1
  O  O61  1  0.855596  0.576095  0.842169  1
  O  O62  1  0.815411  0.219446  0.482149  1
  O  O63  1  0.824900  0.779566  0.020955  1
  O  O64  1  0.832590  0.184929  0.761963  1
  O  O65  1  0.850333  0.816708  0.738441  1
  O  O66  1  0.850543  0.027120  0.577747  1
  O  O67  1  0.853595  0.970374  0.932649  1
  O  O68  1  0.933217  0.162711  0.098943  1
  O  O69  1  0.924805  0.839507  0.402616  1
  O  O70  1  0.950716  0.420960  0.344259  1
  O  O71  1  0.946264  0.574030  0.144575  1
