# generated using pymatgen
data_Li24Ti5Cr7O36
_symmetry_space_group_name_H-M   'P 1'
_cell_length_a   5.05823437
_cell_length_b   13.40285359
_cell_length_c   9.79399005
_cell_angle_alpha   97.15466234
_cell_angle_beta   94.81454635
_cell_angle_gamma   100.68910394
_symmetry_Int_Tables_number   1
_chemical_formula_structural   Li24Ti5Cr7O36
_chemical_formula_sum   'Li24 Ti5 Cr7 O36'
_cell_volume   643.46707560
_cell_formula_units_Z   1
loop_
 _symmetry_equiv_pos_site_id
 _symmetry_equiv_pos_as_xyz
  1  'x, y, z'
loop_
 _atom_site_type_symbol
 _atom_site_label
 _atom_site_symmetry_multiplicity
 _atom_site_fract_x
 _atom_site_fract_y
 _atom_site_fract_z
 _atom_site_occupancy
  Li  Li0  1  0.824855  0.167840  0.001023  1
  Li  Li1  1  0.954377  0.386892  0.999572  1
  Li  Li2  1  0.999635  0.751088  0.251065  1
  Li  Li3  1  0.668837  0.082835  0.250949  1
  Li  Li4  1  0.951780  0.886867  0.499611  1
  Li  Li5  1  0.623283  0.220693  0.499872  1
  Li  Li6  1  0.833815  0.666858  0.498385  1
  Li  Li7  1  0.495435  0.000623  0.500520  1
  Li  Li8  1  0.713329  0.444441  0.497431  1
  Li  Li9  1  0.666601  0.583086  0.750366  1
  Li  Li10  1  0.491999  0.500003  0.002037  1
  Li  Li11  1  0.716438  0.947769  0.002602  1
  Li  Li12  1  0.385182  0.280054  0.001038  1
  Li  Li13  1  0.616660  0.719630  0.001510  1
  Li  Li14  1  0.285343  0.053195  0.998104  1
  Li  Li15  1  0.333860  0.417441  0.249613  1
  Li  Li16  1  0.292072  0.555074  0.501276  1
  Li  Li17  1  0.156063  0.334102  0.500311  1
  Li  Li18  1  0.380512  0.778581  0.499576  1
  Li  Li19  1  0.053720  0.114246  0.501565  1
  Li  Li20  1  0.335847  0.916501  0.750519  1
  Li  Li21  1  0.172420  0.833103  0.997273  1
  Li  Li22  1  0.001036  0.251243  0.749641  1
  Li  Li23  1  0.047455  0.612802  0.997830  1
  Ti  Ti24  1  0.892501  0.028096  0.753180  1
  Ti  Ti25  1  0.881826  0.526301  0.242291  1
  Ti  Ti26  1  0.777715  0.805958  0.752164  1
  Ti  Ti27  1  0.546478  0.359689  0.742583  1
  Ti  Ti28  1  0.224917  0.192248  0.253301  1
  Cr  Cr29  1  0.782081  0.306148  0.249770  1
  Cr  Cr30  1  0.449518  0.140301  0.750538  1
  Cr  Cr31  1  0.562563  0.864863  0.253029  1
  Cr  Cr32  1  0.437260  0.641482  0.251372  1
  Cr  Cr33  1  0.227941  0.692695  0.750827  1
  Cr  Cr34  1  0.100976  0.473491  0.750172  1
  Cr  Cr35  1  0.109993  0.968477  0.248787  1
  O  O36  1  0.001833  0.069219  0.137637  1
  O  O37  1  0.931598  0.213276  0.366349  1
  O  O38  1  0.997027  0.566833  0.637647  1
  O  O39  1  0.852227  0.355452  0.635942  1
  O  O40  1  0.728933  0.119596  0.635808  1
  O  O41  1  0.660562  0.405250  0.133941  1
  O  O42  1  0.933012  0.713020  0.864040  1
  O  O43  1  0.817859  0.477323  0.862719  1
  O  O44  1  0.599018  0.047250  0.866872  1
  O  O45  1  0.866794  0.859033  0.138250  1
  O  O46  1  0.734625  0.620268  0.135202  1
  O  O47  1  0.528110  0.190929  0.138380  1
  O  O48  1  0.663957  0.258993  0.861602  1
  O  O49  1  0.803146  0.974139  0.363067  1
  O  O50  1  0.595657  0.550149  0.364312  1
  O  O51  1  0.480937  0.310829  0.361213  1
  O  O52  1  0.669421  0.765088  0.362925  1
  O  O53  1  0.333823  0.093084  0.362578  1
  O  O54  1  0.668882  0.904360  0.636392  1
  O  O55  1  0.327582  0.238671  0.634766  1
  O  O56  1  0.515293  0.688165  0.637395  1
  O  O57  1  0.401014  0.453192  0.635082  1
  O  O58  1  0.194056  0.024649  0.638804  1
  O  O59  1  0.336275  0.736648  0.140479  1
  O  O60  1  0.480957  0.810585  0.864863  1
  O  O61  1  0.261531  0.383648  0.863877  1
  O  O62  1  0.148121  0.145129  0.861573  1
  O  O63  1  0.409056  0.947472  0.135630  1
  O  O64  1  0.186398  0.522830  0.135730  1
  O  O65  1  0.062094  0.285623  0.135250  1
  O  O66  1  0.336955  0.599281  0.861705  1
  O  O67  1  0.257008  0.883878  0.364747  1
  O  O68  1  0.150587  0.644186  0.362925  1
  O  O69  1  0.996607  0.425485  0.361141  1
  O  O70  1  0.071967  0.782812  0.636165  1
  O  O71  1  0.002756  0.928936  0.865290  1
