# generated using pymatgen
data_Li3V3(BO5)2
_symmetry_space_group_name_H-M   'P 1'
_cell_length_a   9.11794735
_cell_length_b   12.39028247
_cell_length_c   3.06455631
_cell_angle_alpha   89.96301226
_cell_angle_beta   89.99870337
_cell_angle_gamma   89.99774360
_symmetry_Int_Tables_number   1
_chemical_formula_structural   Li3V3(BO5)2
_chemical_formula_sum   'Li6 V6 B4 O20'
_cell_volume   346.21493778
_cell_formula_units_Z   2
loop_
 _symmetry_equiv_pos_site_id
 _symmetry_equiv_pos_as_xyz
  1  'x, y, z'
loop_
 _atom_site_type_symbol
 _atom_site_label
 _atom_site_symmetry_multiplicity
 _atom_site_fract_x
 _atom_site_fract_y
 _atom_site_fract_z
 _atom_site_occupancy
  Li  Li0  1  0.985026  0.000175  0.999962  1
  Li  Li1  1  0.993193  0.497665  0.499764  1
  Li  Li2  1  0.514883  0.500087  0.999952  1
  Li  Li3  1  0.506791  0.997743  0.499853  1
  Li  Li4  1  0.734386  0.394644  0.499908  1
  Li  Li5  1  0.765556  0.894699  0.499907  1
  V  V6  1  0.990225  0.291223  0.000113  1
  V  V7  1  0.236757  0.111297  0.500187  1
  V  V8  1  0.263238  0.611337  0.500218  1
  V  V9  1  0.509820  0.791233  0.000244  1
  V  V10  1  0.510205  0.219095  0.999831  1
  V  V11  1  0.989759  0.719126  0.999802  1
  B  B12  1  0.222810  0.861238  0.499835  1
  B  B13  1  0.277198  0.361234  0.499906  1
  B  B14  1  0.717030  0.635567  0.500172  1
  B  B15  1  0.783010  0.135540  0.500114  1
  O  O16  1  0.108294  0.157670  0.000221  1
  O  O17  1  0.117309  0.585366  0.000181  1
  O  O18  1  0.123986  0.348476  0.499868  1
  O  O19  1  0.141233  0.761875  0.499426  1
  O  O20  1  0.154991  0.956544  0.500410  1
  O  O21  1  0.345020  0.456548  0.500485  1
  O  O22  1  0.358755  0.261863  0.499581  1
  O  O23  1  0.376020  0.848463  0.499950  1
  O  O24  1  0.382718  0.085335  0.000176  1
  O  O25  1  0.391746  0.657669  0.000272  1
  O  O26  1  0.592695  0.341270  0.999746  1
  O  O27  1  0.602409  0.913666  0.999900  1
  O  O28  1  0.625234  0.149952  0.500103  1
  O  O29  1  0.635851  0.733977  0.500447  1
  O  O30  1  0.654523  0.540247  0.499731  1
  O  O31  1  0.845474  0.040312  0.499732  1
  O  O32  1  0.864181  0.233989  0.500343  1
  O  O33  1  0.874778  0.649941  0.500137  1
  O  O34  1  0.897581  0.413642  0.999878  1
  O  O35  1  0.907314  0.841290  0.999646  1
