# generated using pymatgen
data_Na6Ca3MnC6(O9F)2
_symmetry_space_group_name_H-M   'P 1'
_cell_length_a   8.06451399
_cell_length_b   8.96280573
_cell_length_c   7.09652576
_cell_angle_alpha   85.11357742
_cell_angle_beta   100.98597268
_cell_angle_gamma   116.84695847
_symmetry_Int_Tables_number   1
_chemical_formula_structural   Na6Ca3MnC6(O9F)2
_chemical_formula_sum   'Na6 Ca3 Mn1 C6 O18 F2'
_cell_volume   449.26747435
_cell_formula_units_Z   1
loop_
 _symmetry_equiv_pos_site_id
 _symmetry_equiv_pos_as_xyz
  1  'x, y, z'
loop_
 _atom_site_type_symbol
 _atom_site_label
 _atom_site_symmetry_multiplicity
 _atom_site_fract_x
 _atom_site_fract_y
 _atom_site_fract_z
 _atom_site_occupancy
  Na  Na0  1  0.248445  0.655521  0.516831  1
  Na  Na1  1  0.173918  0.229051  0.680140  1
  Na  Na2  1  0.169284  0.216124  0.183223  1
  Na  Na3  1  0.595157  0.347393  0.018342  1
  Na  Na4  1  0.950081  0.781693  0.681103  1
  Na  Na5  1  0.942638  0.771078  0.181144  1
  Ca  Ca6  1  0.250288  0.618945  0.030172  1
  Ca  Ca7  1  0.682066  0.979823  0.845038  1
  Ca  Ca8  1  0.703020  0.023601  0.346733  1
  Mn  Mn9  1  0.628648  0.377708  0.534934  1
  C  C10  1  0.318784  0.993561  0.994765  1
  C  C11  1  0.556440  0.609619  0.804509  1
  C  C12  1  0.552140  0.611915  0.307986  1
  C  C13  1  0.333868  0.012713  0.496599  1
  C  C14  1  0.933751  0.382853  0.799065  1
  C  C15  1  0.938692  0.390057  0.313279  1
  O  O16  1  0.176956  0.844855  0.974060  1
  O  O17  1  0.170070  0.886721  0.466715  1
  O  O18  1  0.009826  0.533909  0.228643  1
  O  O19  1  0.061204  0.345715  0.900808  1
  O  O20  1  0.040760  0.316888  0.388780  1
  O  O21  1  0.485180  0.989203  0.545624  1
  O  O22  1  0.450593  0.687131  0.803087  1
  O  O23  1  0.293196  0.125380  0.968191  1
  O  O24  1  0.494556  0.727027  0.304983  1
  O  O25  1  0.484234  0.465295  0.719717  1
  O  O26  1  0.447645  0.478473  0.204518  1
  O  O27  1  0.351953  0.165830  0.477728  1
  O  O28  1  0.728544  0.679963  0.890696  1
  O  O29  1  0.711334  0.630761  0.412767  1
  O  O30  1  0.490813  0.005936  0.043596  1
  O  O31  1  0.754450  0.277256  0.785900  1
  O  O32  1  0.755844  0.313703  0.319917  1
  O  O33  1  0.980063  0.524921  0.710226  1
  F  F34  1  0.866598  0.997965  0.136165  1
  F  F35  1  0.869405  0.001415  0.635240  1
