# generated using pymatgen
data_Ti5Ni(PO4)6
_symmetry_space_group_name_H-M   'P 1'
_cell_length_a   8.40320768
_cell_length_b   8.40320752
_cell_length_c   8.40320783
_cell_angle_alpha   62.48676292
_cell_angle_beta   62.48676268
_cell_angle_gamma   62.48676280
_symmetry_Int_Tables_number   1
_chemical_formula_structural   Ti5Ni(PO4)6
_chemical_formula_sum   'Ti5 Ni1 P6 O24'
_cell_volume   442.84028489
_cell_formula_units_Z   1
loop_
 _symmetry_equiv_pos_site_id
 _symmetry_equiv_pos_as_xyz
  1  'x, y, z'
loop_
 _atom_site_type_symbol
 _atom_site_label
 _atom_site_symmetry_multiplicity
 _atom_site_fract_x
 _atom_site_fract_y
 _atom_site_fract_z
 _atom_site_occupancy
  Ti  Ti0  1  0.000205  0.000205  0.000205  1
  Ti  Ti1  1  0.499236  0.499236  0.499236  1
  Ti  Ti2  1  0.140692  0.140692  0.140692  1
  Ti  Ti3  1  0.358298  0.358298  0.358298  1
  Ti  Ti4  1  0.640893  0.640893  0.640893  1
  Ni  Ni5  1  0.857206  0.857206  0.857206  1
  P  P6  1  0.043446  0.750764  0.459140  1
  P  P7  1  0.459140  0.043446  0.750764  1
  P  P8  1  0.246877  0.545484  0.956692  1
  P  P9  1  0.545484  0.956692  0.246877  1
  P  P10  1  0.956692  0.246877  0.545484  1
  P  P11  1  0.750764  0.459140  0.043446  1
  O  O12  1  0.112195  0.327023  0.493803  1
  O  O13  1  0.327023  0.493803  0.112195  1
  O  O14  1  0.057438  0.903551  0.255679  1
  O  O15  1  0.493803  0.112195  0.327023  1
  O  O16  1  0.013716  0.819830  0.608941  1
  O  O17  1  0.244507  0.594316  0.435014  1
  O  O18  1  0.255679  0.057438  0.903551  1
  O  O19  1  0.435014  0.244507  0.594316  1
  O  O20  1  0.177058  0.386279  0.999574  1
  O  O21  1  0.594316  0.435014  0.244507  1
  O  O22  1  0.098856  0.744100  0.946317  1
  O  O23  1  0.386279  0.999574  0.177058  1
  O  O24  1  0.608941  0.013716  0.819830  1
  O  O25  1  0.903551  0.255679  0.057438  1
  O  O26  1  0.403847  0.556299  0.757645  1
  O  O27  1  0.819830  0.608941  0.013716  1
  O  O28  1  0.556299  0.757645  0.403847  1
  O  O29  1  0.744100  0.946317  0.098856  1
  O  O30  1  0.757645  0.403847  0.556299  1
  O  O31  1  0.999574  0.177058  0.386279  1
  O  O32  1  0.500824  0.885488  0.678770  1
  O  O33  1  0.946317  0.098856  0.744100  1
  O  O34  1  0.678770  0.500824  0.885488  1
  O  O35  1  0.885488  0.678770  0.500824  1
