# generated using pymatgen
data_Fe4O7F
_symmetry_space_group_name_H-M   'P 1'
_cell_length_a   4.60446537
_cell_length_b   7.56669293
_cell_length_c   7.56669293
_cell_angle_alpha   74.97430299
_cell_angle_beta   91.17038193
_cell_angle_gamma   88.82961807
_symmetry_Int_Tables_number   1
_chemical_formula_structural   Fe4O7F
_chemical_formula_sum   'Fe8 O14 F2'
_cell_volume   254.47096040
_cell_formula_units_Z   2
loop_
 _symmetry_equiv_pos_site_id
 _symmetry_equiv_pos_as_xyz
  1  'x, y, z'
loop_
 _atom_site_type_symbol
 _atom_site_label
 _atom_site_symmetry_multiplicity
 _atom_site_fract_x
 _atom_site_fract_y
 _atom_site_fract_z
 _atom_site_occupancy
  Fe  Fe0  1  0.498511  0.122807  0.629125  1
  Fe  Fe1  1  0.515819  0.386727  0.866724  1
  Fe  Fe2  1  0.498511  0.870875  0.377193  1
  Fe  Fe3  1  0.515819  0.633276  0.113273  1
  Fe  Fe4  1  0.006404  0.753944  0.746056  1
  Fe  Fe5  1  0.993257  0.502925  0.509063  1
  Fe  Fe6  1  0.969832  0.233732  0.266268  1
  Fe  Fe7  1  0.993257  0.990937  0.997075  1
  O  O8  1  0.814377  0.776200  0.961074  1
  O  O9  1  0.804694  0.283809  0.480158  1
  O  O10  1  0.814377  0.538926  0.723800  1
  O  O11  1  0.804694  0.019842  0.216191  1
  O  O12  1  0.703345  0.904449  0.595551  1
  O  O13  1  0.691737  0.155669  0.849635  1
  O  O14  1  0.688386  0.402238  0.097762  1
  O  O15  1  0.691737  0.650365  0.344331  1
  O  O16  1  0.306993  0.601330  0.898670  1
  O  O17  1  0.305878  0.348844  0.656128  1
  O  O18  1  0.305878  0.843872  0.151156  1
  O  O19  1  0.307865  0.094520  0.405480  1
  O  O20  1  0.191827  0.721225  0.529554  1
  O  O21  1  0.191827  0.970446  0.778775  1
  F  F22  1  0.192486  0.222793  0.029750  1
  F  F23  1  0.192486  0.470250  0.277207  1
