# generated using pymatgen
data_MoSO6
_symmetry_space_group_name_H-M   'P 1'
_cell_length_a   8.79989896
_cell_length_b   12.37557689
_cell_length_c   25.44496491
_cell_angle_alpha   90.00000000
_cell_angle_beta   90.00000000
_cell_angle_gamma   90.00000000
_symmetry_Int_Tables_number   1
_chemical_formula_structural   MoSO6
_chemical_formula_sum   'Mo24 S24 O144'
_cell_volume   2771.05403632
_cell_formula_units_Z   24
loop_
 _symmetry_equiv_pos_site_id
 _symmetry_equiv_pos_as_xyz
  1  'x, y, z'
loop_
 _atom_site_type_symbol
 _atom_site_label
 _atom_site_symmetry_multiplicity
 _atom_site_fract_x
 _atom_site_fract_y
 _atom_site_fract_z
 _atom_site_occupancy
  Mo  Mo0  1  0.499523  0.745330  0.338384  1
  Mo  Mo1  1  0.015927  0.238647  0.491732  1
  Mo  Mo2  1  0.479839  0.490305  0.171537  1
  Mo  Mo3  1  0.001277  0.489833  0.321196  1
  Mo  Mo4  1  0.009616  0.478838  0.004866  1
  Mo  Mo5  1  0.000477  0.745330  0.838384  1
  Mo  Mo6  1  0.023357  0.248953  0.845628  1
  Mo  Mo7  1  0.976643  0.748953  0.154372  1
  Mo  Mo8  1  0.984073  0.738647  0.508268  1
  Mo  Mo9  1  0.498723  0.489833  0.821196  1
  Mo  Mo10  1  0.490384  0.478838  0.504866  1
  Mo  Mo11  1  0.979839  0.990305  0.328463  1
  Mo  Mo12  1  0.509616  0.978838  0.495134  1
  Mo  Mo13  1  0.990384  0.978838  0.995134  1
  Mo  Mo14  1  0.515927  0.738647  0.008268  1
  Mo  Mo15  1  0.998723  0.989833  0.678804  1
  Mo  Mo16  1  0.501277  0.989833  0.178804  1
  Mo  Mo17  1  0.523357  0.748953  0.654372  1
  Mo  Mo18  1  0.500477  0.245330  0.661616  1
  Mo  Mo19  1  -0.000477  0.245330  0.161616  1
  Mo  Mo20  1  0.520161  0.990305  0.828463  1
  Mo  Mo21  1  0.476643  0.248953  0.345628  1
  Mo  Mo22  1  0.020161  0.490305  0.671537  1
  Mo  Mo23  1  0.484073  0.238647  0.991732  1
  S  S24  1  0.879514  0.226808  0.976798  1
  S  S25  1  0.093007  0.738402  0.366988  1
  S  S26  1  0.138330  0.736619  0.706045  1
  S  S27  1  0.883880  0.488816  0.463338  1
  S  S28  1  0.616120  0.488816  0.963338  1
  S  S29  1  0.403434  0.996614  0.690534  1
  S  S30  1  0.638330  0.236619  0.793955  1
  S  S31  1  0.861670  0.236619  0.293955  1
  S  S32  1  0.865691  0.503039  0.131813  1
  S  S33  1  0.903434  0.496614  0.809466  1
  S  S34  1  0.120486  0.726808  0.023202  1
  S  S35  1  0.383880  0.988816  0.036662  1
  S  S36  1  0.593007  0.238402  0.133012  1
  S  S37  1  0.361670  0.736619  0.206045  1
  S  S38  1  0.365691  0.003039  0.368187  1
  S  S39  1  0.379514  0.726808  0.523202  1
  S  S40  1  0.620486  0.226808  0.476798  1
  S  S41  1  0.906993  0.238402  0.633012  1
  S  S42  1  0.116120  0.988816  0.536662  1
  S  S43  1  0.096566  0.996614  0.190534  1
  S  S44  1  0.406993  0.738402  0.866988  1
  S  S45  1  0.596566  0.496614  0.309466  1
  S  S46  1  0.134309  0.003039  0.868187  1
  S  S47  1  0.634309  0.503039  0.631813  1
  O  O48  1  0.798873  0.773050  0.498390  1
  O  O49  1  0.648492  0.256537  0.737371  1
  O  O50  1  0.429307  0.824908  0.492685  1
  O  O51  1  0.494932  0.227937  0.925156  1
  O  O52  1  0.593327  0.745245  0.716768  1
  O  O53  1  0.032509  0.077778  0.508467  1
  O  O54  1  0.851508  0.256537  0.237371  1
  O  O55  1  0.497840  0.504448  0.754702  1
  O  O56  1  0.083282  0.889595  0.504059  1
  O  O57  1  0.581877  0.335557  0.822449  1
  O  O58  1  0.696525  0.962795  0.804396  1
  O  O59  1  0.866923  0.251714  0.920746  1
  O  O60  1  0.005068  0.227937  0.425156  1
  O  O61  1  0.780067  0.510063  0.963780  1
  O  O62  1  0.479588  0.650470  0.195050  1
  O  O63  1  0.148492  0.756537  0.762629  1
  O  O64  1  0.496718  0.144323  0.486326  1
  O  O65  1  0.665366  0.489901  0.575523  1
  O  O66  1  0.633077  0.251714  0.420746  1
  O  O67  1  0.104134  0.476875  0.946393  1
  O  O68  1  0.351508  0.756537  0.262629  1
  O  O69  1  0.918123  0.335557  0.322449  1
  O  O70  1  0.395866  0.476875  0.446393  1
  O  O71  1  0.071004  0.900768  0.845459  1
  O  O72  1  0.906673  0.745245  0.216768  1
  O  O73  1  0.262939  0.688023  0.000240  1
  O  O74  1  0.737061  0.188023  0.999760  1
  O  O75  1  0.053405  0.504884  0.606042  1
  O  O76  1  0.345165  0.266891  0.700110  1
  O  O77  1  0.418123  0.835557  0.177551  1
  O  O78  1  0.003282  0.144323  0.986326  1
  O  O79  1  0.762939  0.188023  0.499760  1
  O  O80  1  0.916718  0.389595  0.495941  1
  O  O81  1  0.943357  0.403471  0.845263  1
  O  O82  1  0.181100  0.268455  0.883291  1
  O  O83  1  0.443357  0.903471  0.654737  1
  O  O84  1  0.818900  0.768455  0.116709  1
  O  O85  1  0.024574  0.753527  0.418615  1
  O  O86  1  0.845165  0.766891  0.799890  1
  O  O87  1  0.219933  0.010063  0.036220  1
  O  O88  1  0.165366  0.989901  0.924477  1
  O  O89  1  0.349469  0.460723  0.549986  1
  O  O90  1  0.604134  0.976875  0.553607  1
  O  O91  1  0.237061  0.688023  0.500240  1
  O  O92  1  0.946595  0.004884  0.393958  1
  O  O93  1  0.895866  0.976875  0.053607  1
  O  O94  1  0.253321  0.036094  0.675086  1
  O  O95  1  0.196525  0.462795  0.695604  1
  O  O96  1  0.834634  0.489901  0.075523  1
  O  O97  1  0.744395  0.213670  0.630610  1
  O  O98  1  0.150531  0.460723  0.049986  1
  O  O99  1  0.020735  0.582921  0.820529  1
  O  O100  1  0.784161  0.205070  0.816362  1
  O  O101  1  0.731117  0.535496  0.161672  1
  O  O102  1  0.701127  0.773050  0.998390  1
  O  O103  1  0.967491  0.577778  0.491533  1
  O  O104  1  0.931345  0.337113  0.666568  1
  O  O105  1  0.086998  0.962405  0.245330  1
  O  O106  1  0.186327  0.461659  0.335304  1
  O  O107  1  0.284161  0.705070  0.683638  1
  O  O108  1  0.246679  0.036094  0.175086  1
  O  O109  1  0.490118  0.085339  0.359810  1
  O  O110  1  0.255605  0.713670  0.369390  1
  O  O111  1  0.576806  0.727392  0.399191  1
  O  O112  1  0.571004  0.400768  0.654541  1
  O  O113  1  0.556643  0.403471  0.345263  1
  O  O114  1  0.586998  0.462405  0.254670  1
  O  O115  1  0.945331  0.476051  0.410594  1
  O  O116  1  0.081877  0.835557  0.677551  1
  O  O117  1  0.979588  0.150470  0.304950  1
  O  O118  1  0.849469  0.960723  0.950014  1
  O  O119  1  0.244395  0.713670  0.869390  1
  O  O120  1  0.553405  0.004884  0.893958  1
  O  O121  1  0.568655  0.337113  0.166568  1
  O  O122  1  0.406673  0.245245  0.283232  1
  O  O123  1  0.997840  0.004448  0.745298  1
  O  O124  1  0.681100  0.768455  0.616709  1
  O  O125  1  0.431345  0.837113  0.833432  1
  O  O126  1  0.215839  0.705070  0.183638  1
  O  O127  1  0.423194  0.227392  0.600809  1
  O  O128  1  0.508098  0.151115  0.161991  1
  O  O129  1  0.991902  0.151115  0.661991  1
  O  O130  1  0.996718  0.644323  0.013674  1
  O  O131  1  0.928996  0.400768  0.154541  1
  O  O132  1  0.505068  0.727937  0.074844  1
  O  O133  1  0.803475  0.962795  0.304396  1
  O  O134  1  0.929307  0.324908  0.007315  1
  O  O135  1  0.002160  0.504448  0.254702  1
  O  O136  1  0.979265  0.082921  0.179471  1
  O  O137  1  0.054669  0.976051  0.589406  1
  O  O138  1  0.746679  0.536094  0.324914  1
  O  O139  1  0.366923  0.751714  0.579254  1
  O  O140  1  0.509882  0.585339  0.640190  1
  O  O141  1  0.467491  0.077778  0.008467  1
  O  O142  1  0.318900  0.268455  0.383291  1
  O  O143  1  0.093327  0.245245  0.783232  1
  O  O144  1  0.070693  0.824908  0.992685  1
  O  O145  1  0.753321  0.536094  0.824914  1
  O  O146  1  0.654835  0.766891  0.299890  1
  O  O147  1  0.201127  0.273050  0.501610  1
  O  O148  1  0.133077  0.751714  0.079254  1
  O  O149  1  0.715839  0.205070  0.316362  1
  O  O150  1  0.154835  0.266891  0.200110  1
  O  O151  1  0.990118  0.585339  0.140190  1
  O  O152  1  0.520735  0.082921  0.679471  1
  O  O153  1  0.650531  0.960723  0.450014  1
  O  O154  1  0.280067  0.010063  0.536220  1
  O  O155  1  0.768883  0.535496  0.661672  1
  O  O156  1  0.994932  0.727937  0.574844  1
  O  O157  1  0.416718  0.889595  0.004059  1
  O  O158  1  0.491902  0.651115  0.838009  1
  O  O159  1  0.686327  0.961659  0.164696  1
  O  O160  1  0.502160  0.004448  0.245298  1
  O  O161  1  0.719933  0.510063  0.463780  1
  O  O162  1  0.020412  0.650470  0.695050  1
  O  O163  1  0.755605  0.213670  0.130610  1
  O  O164  1  0.975426  0.253527  0.581385  1
  O  O165  1  0.554669  0.476051  0.910594  1
  O  O166  1  0.475426  0.753527  0.918615  1
  O  O167  1  0.303475  0.462795  0.195604  1
  O  O168  1  0.570693  0.324908  0.507315  1
  O  O169  1  0.813673  0.961659  0.664696  1
  O  O170  1  0.008098  0.651115  0.338009  1
  O  O171  1  0.413002  0.962405  0.745330  1
  O  O172  1  0.479265  0.582921  0.320529  1
  O  O173  1  0.445331  0.976051  0.089406  1
  O  O174  1  0.520412  0.150470  0.804950  1
  O  O175  1  0.913002  0.462405  0.754670  1
  O  O176  1  0.076806  0.227392  0.100809  1
  O  O177  1  0.334634  0.989901  0.424477  1
  O  O178  1  0.524574  0.253527  0.081385  1
  O  O179  1  0.231117  0.035496  0.338328  1
  O  O180  1  0.313673  0.461659  0.835304  1
  O  O181  1  0.056643  0.903471  0.154737  1
  O  O182  1  0.532509  0.577778  0.991533  1
  O  O183  1  0.923194  0.727392  0.899191  1
  O  O184  1  0.268883  0.035496  0.838328  1
  O  O185  1  0.428996  0.900768  0.345459  1
  O  O186  1  0.298873  0.273050  0.001610  1
  O  O187  1  0.068655  0.837113  0.333432  1
  O  O188  1  0.503282  0.644323  0.513674  1
  O  O189  1  0.009882  0.085339  0.859810  1
  O  O190  1  0.446595  0.504884  0.106042  1
  O  O191  1  0.583282  0.389595  0.995941  1
