# generated using pymatgen
data_RbFe5O8
_symmetry_space_group_name_H-M   'P 1'
_cell_length_a   8.01839942
_cell_length_b   10.30179318
_cell_length_c   10.51667740
_cell_angle_alpha   90.00000000
_cell_angle_beta   110.31090033
_cell_angle_gamma   90.00000000
_symmetry_Int_Tables_number   1
_chemical_formula_structural   RbFe5O8
_chemical_formula_sum   'Rb4 Fe20 O32'
_cell_volume   814.70410500
_cell_formula_units_Z   4
loop_
 _symmetry_equiv_pos_site_id
 _symmetry_equiv_pos_as_xyz
  1  'x, y, z'
loop_
 _atom_site_type_symbol
 _atom_site_label
 _atom_site_symmetry_multiplicity
 _atom_site_fract_x
 _atom_site_fract_y
 _atom_site_fract_z
 _atom_site_occupancy
  Rb  Rb0  1  0.250681  0.486853  0.535354  1
  Rb  Rb1  1  0.250681  0.013147  0.035354  1
  Rb  Rb2  1  0.749319  0.986853  0.964646  1
  Rb  Rb3  1  0.749319  0.513147  0.464646  1
  Fe  Fe4  1  0.067500  0.352662  0.855684  1
  Fe  Fe5  1  0.137257  0.638871  0.903210  1
  Fe  Fe6  1  0.067500  0.147338  0.355684  1
  Fe  Fe7  1  0.252997  0.123274  0.707996  1
  Fe  Fe8  1  0.137257  0.861129  0.403210  1
  Fe  Fe9  1  0.360545  0.807718  0.740769  1
  Fe  Fe10  1  0.252997  0.376726  0.207996  1
  Fe  Fe11  1  0.461267  0.147655  0.480333  1
  Fe  Fe12  1  0.538733  0.647655  0.019667  1
  Fe  Fe13  1  0.639455  0.307718  0.759231  1
  Fe  Fe14  1  0.360545  0.692282  0.240769  1
  Fe  Fe15  1  0.461267  0.352345  0.980333  1
  Fe  Fe16  1  0.538733  0.852345  0.519667  1
  Fe  Fe17  1  0.747003  0.623274  0.792004  1
  Fe  Fe18  1  0.639455  0.192282  0.259231  1
  Fe  Fe19  1  0.862743  0.138871  0.596790  1
  Fe  Fe20  1  0.747003  0.876726  0.292004  1
  Fe  Fe21  1  0.932500  0.852662  0.644316  1
  Fe  Fe22  1  0.862743  0.361129  0.096790  1
  Fe  Fe23  1  0.932500  0.647338  0.144316  1
  O  O24  1  0.940368  0.688017  0.960892  1
  O  O25  1  0.040682  0.014236  0.711892  1
  O  O26  1  0.940368  0.811983  0.460892  1
  O  O27  1  0.263821  0.243223  0.852756  1
  O  O28  1  0.140498  0.751822  0.757715  1
  O  O29  1  0.040682  0.485764  0.211892  1
  O  O30  1  0.318420  0.503561  0.923985  1
  O  O31  1  0.405157  0.980178  0.786469  1
  O  O32  1  0.263821  0.256777  0.352756  1
  O  O33  1  0.438972  0.211915  0.644820  1
  O  O34  1  0.140498  0.748178  0.257715  1
  O  O35  1  0.661365  0.273448  0.944850  1
  O  O36  1  0.338635  0.773448  0.555150  1
  O  O37  1  0.318420  0.996439  0.423985  1
  O  O38  1  0.561028  0.711915  0.855180  1
  O  O39  1  0.405157  0.519822  0.286469  1
  O  O40  1  0.594843  0.480178  0.713531  1
  O  O41  1  0.438972  0.288085  0.144820  1
  O  O42  1  0.681580  0.003561  0.576015  1
  O  O43  1  0.661365  0.226552  0.444850  1
  O  O44  1  0.338635  0.726552  0.055150  1
  O  O45  1  0.859502  0.251822  0.742285  1
  O  O46  1  0.561028  0.788085  0.355180  1
  O  O47  1  0.736179  0.743223  0.647244  1
  O  O48  1  0.594843  0.019822  0.213531  1
  O  O49  1  0.681580  0.496439  0.076015  1
  O  O50  1  0.959318  0.514236  0.788108  1
  O  O51  1  0.859502  0.248178  0.242285  1
  O  O52  1  0.736179  0.756777  0.147244  1
  O  O53  1  0.059632  0.188017  0.539108  1
  O  O54  1  0.959318  0.985764  0.288108  1
  O  O55  1  0.059632  0.311983  0.039108  1
