# generated using pymatgen
data_Mn3OF5
_symmetry_space_group_name_H-M   'P 1'
_cell_length_a   10.99957984
_cell_length_b   6.96456699
_cell_length_c   3.22821637
_cell_angle_alpha   90.00000000
_cell_angle_beta   90.00000000
_cell_angle_gamma   108.65769048
_symmetry_Int_Tables_number   1
_chemical_formula_structural   Mn3OF5
_chemical_formula_sum   'Mn6 O2 F10'
_cell_volume   234.30829970
_cell_formula_units_Z   2
loop_
 _symmetry_equiv_pos_site_id
 _symmetry_equiv_pos_as_xyz
  1  'x, y, z'
loop_
 _atom_site_type_symbol
 _atom_site_label
 _atom_site_symmetry_multiplicity
 _atom_site_fract_x
 _atom_site_fract_y
 _atom_site_fract_z
 _atom_site_occupancy
  Mn  Mn0  1  0.993753  0.013364  0.000000  1
  Mn  Mn1  1  0.330325  0.164845  0.500000  1
  Mn  Mn2  1  0.005836  0.483115  0.500000  1
  Mn  Mn3  1  0.669486  0.334796  0.000000  1
  Mn  Mn4  1  0.350521  0.675620  0.000000  1
  Mn  Mn5  1  0.653917  0.826212  0.500000  1
  O  O6  1  0.002149  0.309968  0.000000  1
  O  O7  1  0.467297  0.733497  0.500000  1
  F  F8  1  0.124055  0.056958  0.500000  1
  F  F9  1  0.329103  0.360567  0.000000  1
  F  F10  1  0.002046  0.692757  0.000000  1
  F  F11  1  0.666875  0.027684  0.000000  1
  F  F12  1  0.535878  0.267562  0.500000  1
  F  F13  1  0.218076  0.612217  0.500000  1
  F  F14  1  0.799439  0.407183  0.500000  1
  F  F15  1  0.665761  0.638869  0.000000  1
  F  F16  1  0.329716  0.968825  0.000000  1
  F  F17  1  0.855768  0.925958  0.500000  1
