# generated using pymatgen
data_Li3Fe(Si2O5)3
_symmetry_space_group_name_H-M   'P 1'
_cell_length_a   11.14834399
_cell_length_b   11.14834399
_cell_length_c   10.15298854
_cell_angle_alpha   90.00000000
_cell_angle_beta   90.00000000
_cell_angle_gamma   80.13206398
_symmetry_Int_Tables_number   1
_chemical_formula_structural   Li3Fe(Si2O5)3
_chemical_formula_sum   'Li12 Fe4 Si24 O60'
_cell_volume   1243.20112661
_cell_formula_units_Z   4
loop_
 _symmetry_equiv_pos_site_id
 _symmetry_equiv_pos_as_xyz
  1  'x, y, z'
loop_
 _atom_site_type_symbol
 _atom_site_label
 _atom_site_symmetry_multiplicity
 _atom_site_fract_x
 _atom_site_fract_y
 _atom_site_fract_z
 _atom_site_occupancy
  Li  Li0  1  0.240587  0.759413  0.000000  1
  Li  Li1  1  0.487025  0.987025  0.250000  1
  Li  Li2  1  0.012975  0.512975  0.750000  1
  Li  Li3  1  0.259413  0.740587  0.500000  1
  Li  Li4  1  0.432175  0.432175  0.283271  1
  Li  Li5  1  0.567825  0.567825  0.716729  1
  Li  Li6  1  0.067825  0.067825  0.783271  1
  Li  Li7  1  0.932175  0.932175  0.216729  1
  Li  Li8  1  0.740587  0.259413  0.500000  1
  Li  Li9  1  0.512975  0.012975  0.750000  1
  Li  Li10  1  0.987025  0.487025  0.250000  1
  Li  Li11  1  0.759413  0.240587  0.000000  1
  Fe  Fe12  1  0.158623  0.658623  0.250000  1
  Fe  Fe13  1  0.341377  0.841377  0.750000  1
  Fe  Fe14  1  0.841377  0.341377  0.750000  1
  Fe  Fe15  1  0.658623  0.158623  0.250000  1
  Si  Si16  1  0.184314  0.958563  0.194284  1
  Si  Si17  1  0.041437  0.815686  0.805716  1
  Si  Si18  1  0.315686  0.541437  0.694284  1
  Si  Si19  1  0.458563  0.684314  0.305716  1
  Si  Si20  1  0.763679  0.980092  0.513771  1
  Si  Si21  1  0.019908  0.236321  0.486229  1
  Si  Si22  1  0.263679  0.480092  0.986229  1
  Si  Si23  1  0.519908  0.736321  0.013771  1
  Si  Si24  1  0.703401  0.919222  0.046863  1
  Si  Si25  1  0.203401  0.419222  0.453137  1
  Si  Si26  1  0.080778  0.296599  0.953137  1
  Si  Si27  1  0.580778  0.796599  0.546863  1
  Si  Si28  1  0.419222  0.203401  0.453137  1
  Si  Si29  1  0.919222  0.703401  0.046863  1
  Si  Si30  1  0.296599  0.080778  0.953137  1
  Si  Si31  1  0.796599  0.580778  0.546863  1
  Si  Si32  1  0.736321  0.519908  0.013771  1
  Si  Si33  1  0.236321  0.019908  0.486229  1
  Si  Si34  1  0.980092  0.763679  0.513771  1
  Si  Si35  1  0.480092  0.263679  0.986229  1
  Si  Si36  1  0.541437  0.315686  0.694284  1
  Si  Si37  1  0.684314  0.458563  0.305716  1
  Si  Si38  1  0.958563  0.184314  0.194284  1
  Si  Si39  1  0.815686  0.041437  0.805716  1
  O  O40  1  0.272374  0.994446  0.077548  1
  O  O41  1  0.005554  0.727626  0.922452  1
  O  O42  1  0.258310  0.974649  0.330952  1
  O  O43  1  0.025351  0.741690  0.669048  1
  O  O44  1  0.149671  0.827052  0.165829  1
  O  O45  1  0.172948  0.850329  0.834171  1
  O  O46  1  0.095425  0.743500  0.417846  1
  O  O47  1  0.256500  0.904575  0.582154  1
  O  O48  1  0.645031  0.992365  0.173588  1
  O  O49  1  0.145031  0.492365  0.326412  1
  O  O50  1  0.007635  0.354969  0.826412  1
  O  O51  1  0.507635  0.854969  0.673588  1
  O  O52  1  0.243500  0.595425  0.082154  1
  O  O53  1  0.404575  0.756500  0.917846  1
  O  O54  1  0.350329  0.672948  0.665829  1
  O  O55  1  0.327052  0.649671  0.334171  1
  O  O56  1  0.474649  0.758310  0.169048  1
  O  O57  1  0.241690  0.525351  0.830952  1
  O  O58  1  0.227626  0.505554  0.577548  1
  O  O59  1  0.494446  0.772374  0.422452  1
  O  O60  1  0.114015  0.331483  0.512965  1
  O  O61  1  0.168517  0.385985  0.012965  1
  O  O62  1  0.668517  0.885985  0.487035  1
  O  O63  1  0.614015  0.831483  0.987035  1
  O  O64  1  0.597962  0.597962  0.992965  1
  O  O65  1  0.338610  0.338610  0.410423  1
  O  O66  1  0.947675  0.947675  0.801243  1
  O  O67  1  0.552325  0.552325  0.301243  1
  O  O68  1  0.052325  0.052325  0.198757  1
  O  O69  1  0.097962  0.097962  0.507035  1
  O  O70  1  0.902038  0.902038  0.492965  1
  O  O71  1  0.161390  0.161390  0.910423  1
  O  O72  1  0.447675  0.447675  0.698757  1
  O  O73  1  0.402038  0.402038  0.007035  1
  O  O74  1  0.838610  0.838610  0.089577  1
  O  O75  1  0.661390  0.661390  0.589577  1
  O  O76  1  0.885985  0.668517  0.487035  1
  O  O77  1  0.331483  0.114015  0.512965  1
  O  O78  1  0.385985  0.168517  0.012965  1
  O  O79  1  0.831483  0.614015  0.987035  1
  O  O80  1  0.772374  0.494446  0.422452  1
  O  O81  1  0.505554  0.227626  0.577548  1
  O  O82  1  0.525351  0.241690  0.830952  1
  O  O83  1  0.758310  0.474649  0.169048  1
  O  O84  1  0.649671  0.327052  0.334171  1
  O  O85  1  0.672948  0.350329  0.665829  1
  O  O86  1  0.756500  0.404575  0.917846  1
  O  O87  1  0.595425  0.243500  0.082154  1
  O  O88  1  0.992365  0.645031  0.173588  1
  O  O89  1  0.354969  0.007635  0.826412  1
  O  O90  1  0.492365  0.145031  0.326412  1
  O  O91  1  0.854969  0.507635  0.673588  1
  O  O92  1  0.743500  0.095425  0.417846  1
  O  O93  1  0.904575  0.256500  0.582154  1
  O  O94  1  0.827052  0.149671  0.165829  1
  O  O95  1  0.850329  0.172948  0.834171  1
  O  O96  1  0.974649  0.258310  0.330952  1
  O  O97  1  0.741690  0.025351  0.669048  1
  O  O98  1  0.727626  0.005554  0.922452  1
  O  O99  1  0.994446  0.272374  0.077548  1
