# generated using pymatgen
data_Li10Ti11Nb6O42
_symmetry_space_group_name_H-M   'P 1'
_cell_length_a   5.17763955
_cell_length_b   5.17763644
_cell_length_c   33.00673628
_cell_angle_alpha   90.00043827
_cell_angle_beta   89.99975991
_cell_angle_gamma   120.00051294
_symmetry_Int_Tables_number   1
_chemical_formula_structural   Li10Ti11Nb6O42
_chemical_formula_sum   'Li10 Ti11 Nb6 O42'
_cell_volume   766.29207679
_cell_formula_units_Z   1
loop_
 _symmetry_equiv_pos_site_id
 _symmetry_equiv_pos_as_xyz
  1  'x, y, z'
loop_
 _atom_site_type_symbol
 _atom_site_label
 _atom_site_symmetry_multiplicity
 _atom_site_fract_x
 _atom_site_fract_y
 _atom_site_fract_z
 _atom_site_occupancy
  Li  Li0  1  0.333330  0.666672  0.193012  1
  Li  Li1  1  0.000006  0.999998  0.055486  1
  Li  Li2  1  0.000004  -0.000000  0.554409  1
  Li  Li3  1  0.999999  0.000000  0.740219  1
  Li  Li4  1  0.000002  0.000004  0.946858  1
  Li  Li5  1  0.333346  0.666671  0.874257  1
  Li  Li6  1  0.333349  0.666674  0.693918  1
  Li  Li7  1  0.666659  0.333325  0.804591  1
  Li  Li8  1  0.666657  0.333320  0.627666  1
  Li  Li9  1  0.666684  0.333337  0.127024  1
  Ti  Ti10  1  0.333334  0.666664  0.990125  1
  Ti  Ti11  1  0.333333  0.666660  0.081674  1
  Ti  Ti12  1  0.333323  0.666663  0.490655  1
  Ti  Ti13  1  0.333330  0.666652  0.581869  1
  Ti  Ti14  1  0.333349  0.666687  0.278371  1
  Ti  Ti15  1  0.333343  0.666680  0.369222  1
  Ti  Ti16  1  0.666665  0.333331  0.715233  1
  Ti  Ti17  1  0.666669  0.333327  0.511012  1
  Ti  Ti18  1  0.666657  0.333352  0.425557  1
  Ti  Ti19  1  0.666661  0.333335  0.010475  1
  Ti  Ti20  1  0.666677  0.333339  0.920449  1
  Nb  Nb21  1  0.000009  0.999997  0.646529  1
  Nb  Nb22  1  0.000005  -0.000001  0.147081  1
  Nb  Nb23  1  0.999999  0.999992  0.855673  1
  Nb  Nb24  1  0.000005  0.000008  0.351575  1
  Nb  Nb25  1  0.333332  0.666665  0.784043  1
  Nb  Nb26  1  0.666664  0.333348  0.218424  1
  O  O27  1  0.038801  0.710495  0.107292  1
  O  O28  1  0.010823  0.622395  0.249304  1
  O  O29  1  0.041448  0.701762  0.821507  1
  O  O30  1  0.022494  0.631810  0.534106  1
  O  O31  1  0.292879  0.963684  0.607138  1
  O  O32  1  0.996564  0.377974  0.749118  1
  O  O33  1  0.281924  0.923966  0.325509  1
  O  O34  1  0.022061  0.389946  0.033861  1
  O  O35  1  0.036308  0.329194  0.607141  1
  O  O36  1  0.076043  0.357940  0.325507  1
  O  O37  1  0.367869  0.977937  0.033861  1
  O  O38  1  0.609328  0.977513  0.534106  1
  O  O39  1  0.298231  0.339698  0.821508  1
  O  O40  1  0.289493  0.328296  0.107293  1
  O  O41  1  0.338448  0.331499  0.391876  1
  O  O42  1  0.368189  0.390681  0.534105  1
  O  O43  1  0.660295  0.958532  0.821510  1
  O  O44  1  0.377597  0.388438  0.249303  1
  O  O45  1  0.339149  0.291442  0.679067  1
  O  O46  1  0.671688  0.961182  0.107294  1
  O  O47  1  0.391289  0.369633  0.964833  1
  O  O48  1  0.610048  0.632122  0.033862  1
  O  O49  1  0.329543  0.038191  0.892573  1
  O  O50  1  0.642065  0.718090  0.325506  1
  O  O51  1  0.622020  0.618597  0.749117  1
  O  O52  1  0.344274  0.043656  0.177975  1
  O  O53  1  0.604638  0.582352  0.464068  1
  O  O54  1  0.670797  0.707104  0.607142  1
  O  O55  1  0.708643  0.670455  0.892573  1
  O  O56  1  0.381419  0.003452  0.749120  1
  O  O57  1  0.699366  0.655695  0.177973  1
  O  O58  1  0.417652  0.022281  0.464068  1
  O  O59  1  0.630370  0.021649  0.964835  1
  O  O60  1  0.952322  0.660881  0.679070  1
  O  O61  1  0.611568  0.989167  0.249300  1
  O  O62  1  0.993058  0.661547  0.391877  1
  O  O63  1  0.978345  0.608716  0.964833  1
  O  O64  1  0.708583  0.047713  0.679068  1
  O  O65  1  0.668504  0.006936  0.391877  1
  O  O66  1  0.977706  0.395361  0.464069  1
  O  O67  1  0.956313  0.300601  0.177974  1
  O  O68  1  0.961811  0.291362  0.892572  1
