# generated using pymatgen
data_Li5Fe8(BO3)8
_symmetry_space_group_name_H-M   'P 1'
_cell_length_a   5.28798792
_cell_length_b   9.03423756
_cell_length_c   11.37632703
_cell_angle_alpha   113.56815626
_cell_angle_beta   78.00363447
_cell_angle_gamma   89.84956770
_symmetry_Int_Tables_number   1
_chemical_formula_structural   Li5Fe8(BO3)8
_chemical_formula_sum   'Li5 Fe8 B8 O24'
_cell_volume   485.03425508
_cell_formula_units_Z   1
loop_
 _symmetry_equiv_pos_site_id
 _symmetry_equiv_pos_as_xyz
  1  'x, y, z'
loop_
 _atom_site_type_symbol
 _atom_site_label
 _atom_site_symmetry_multiplicity
 _atom_site_fract_x
 _atom_site_fract_y
 _atom_site_fract_z
 _atom_site_occupancy
  Li  Li0  1  0.167019  0.167402  0.345116  1
  Li  Li1  1  0.361948  0.294383  0.589025  1
  Li  Li2  1  0.614436  0.047770  0.091830  1
  Li  Li3  1  0.109480  0.549405  0.094431  1
  Li  Li4  1  0.425955  0.931265  0.838215  1
  Fe  Fe5  1  0.399055  0.282899  0.872676  1
  Fe  Fe6  1  0.097774  0.228128  0.116556  1
  Fe  Fe7  1  0.847239  0.139116  0.624726  1
  Fe  Fe8  1  0.664247  0.359312  0.364031  1
  Fe  Fe9  1  0.343321  0.644547  0.622323  1
  Fe  Fe10  1  0.155450  0.841884  0.361771  1
  Fe  Fe11  1  0.910024  0.765726  0.873907  1
  Fe  Fe12  1  0.607657  0.719737  0.120473  1
  B  B13  1  0.635638  0.022063  0.374352  1
  B  B14  1  0.896472  0.096406  0.871704  1
  B  B15  1  0.155465  0.514096  0.369756  1
  B  B16  1  0.399367  0.613467  0.874243  1
  B  B17  1  0.854037  0.471629  0.620428  1
  B  B18  1  0.606892  0.389965  0.119845  1
  B  B19  1  0.347057  0.981342  0.618072  1
  B  B20  1  0.099786  0.899996  0.131210  1
  O  O21  1  0.134528  0.122794  0.907945  1
  O  O22  1  0.467277  0.126457  0.646946  1
  O  O23  1  0.236733  0.031686  0.142224  1
  O  O24  1  0.506983  0.162102  0.389952  1
  O  O25  1  0.881803  0.025908  0.407711  1
  O  O26  1  0.801036  0.188414  0.812415  1
  O  O27  1  0.261834  0.488059  0.879021  1
  O  O28  1  0.054545  0.363910  0.327895  1
  O  O29  1  0.695632  0.274385  0.159938  1
  O  O30  1  0.612063  0.467169  0.589373  1
  O  O31  1  0.980151  0.328874  0.608643  1
  O  O32  1  0.371200  0.371295  0.079887  1
  O  O33  1  0.617835  0.648974  0.924189  1
  O  O34  1  0.361195  0.532670  0.431604  1
  O  O35  1  0.311879  0.717599  0.821349  1
  O  O36  1  0.972154  0.613625  0.659505  1
  O  O37  1  0.750862  0.513912  0.118126  1
  O  O38  1  0.193730  0.779384  0.166053  1
  O  O39  1  0.130300  0.970074  0.562544  1
  O  O40  1  0.430292  0.860989  0.646378  1
  O  O41  1  0.056272  0.640213  0.350504  1
  O  O42  1  0.747932  0.981634  0.893735  1
  O  O43  1  0.525856  0.875347  0.332884  1
  O  O44  1  0.868488  0.881828  0.090920  1
