# generated using pymatgen
data_Mn12O7F17
_symmetry_space_group_name_H-M   'P 1'
_cell_length_a   5.05790236
_cell_length_b   5.68325141
_cell_length_c   15.35984027
_cell_angle_alpha   92.62109620
_cell_angle_beta   88.73274974
_cell_angle_gamma   93.75399822
_symmetry_Int_Tables_number   1
_chemical_formula_structural   Mn12O7F17
_chemical_formula_sum   'Mn12 O7 F17'
_cell_volume   440.03441931
_cell_formula_units_Z   1
loop_
 _symmetry_equiv_pos_site_id
 _symmetry_equiv_pos_as_xyz
  1  'x, y, z'
loop_
 _atom_site_type_symbol
 _atom_site_label
 _atom_site_symmetry_multiplicity
 _atom_site_fract_x
 _atom_site_fract_y
 _atom_site_fract_z
 _atom_site_occupancy
  Mn  Mn0  1  0.029720  0.910472  0.001740  1
  Mn  Mn1  1  0.969883  0.613807  0.167109  1
  Mn  Mn2  1  0.017108  0.933980  0.339920  1
  Mn  Mn3  1  0.985077  0.456613  0.503451  1
  Mn  Mn4  1  0.030011  0.886306  0.669472  1
  Mn  Mn5  1  0.052929  0.481442  0.820605  1
  Mn  Mn6  1  0.463530  0.118689  0.171062  1
  Mn  Mn7  1  0.486039  0.384756  0.994992  1
  Mn  Mn8  1  0.467395  0.565420  0.658607  1
  Mn  Mn9  1  0.494174  0.100306  0.511255  1
  Mn  Mn10  1  0.483075  0.556535  0.319024  1
  Mn  Mn11  1  0.509914  0.014641  0.831730  1
  O  O12  1  0.190979  0.884403  0.112684  1
  O  O13  1  0.278996  0.122195  0.941519  1
  O  O14  1  0.290599  0.772918  0.747817  1
  O  O15  1  0.177138  0.684208  0.268205  1
  O  O16  1  0.180039  0.661610  0.590098  1
  O  O17  1  0.649486  0.384272  0.569763  1
  O  O18  1  0.677280  0.405743  0.219254  1
  F  F19  1  0.215925  0.186899  0.268616  1
  F  F20  1  0.163069  0.154000  0.581505  1
  F  F21  1  0.334874  0.866064  0.421395  1
  F  F22  1  0.245719  0.381724  0.099691  1
  F  F23  1  0.252736  0.621678  0.933609  1
  F  F24  1  0.349990  0.294478  0.755150  1
  F  F25  1  0.311200  0.368123  0.426886  1
  F  F26  1  0.738501  0.338581  0.896202  1
  F  F27  1  0.768424  0.627582  0.053079  1
  F  F28  1  0.808417  0.640145  0.401624  1
  F  F29  1  0.785694  0.599957  0.731192  1
  F  F30  1  0.823637  0.142599  0.429547  1
  F  F31  1  0.702458  0.123032  0.065135  1
  F  F32  1  0.861884  0.097908  0.752201  1
  F  F33  1  0.696785  0.881708  0.597306  1
  F  F34  1  0.803971  0.843760  0.899396  1
  F  F35  1  0.703343  0.893449  0.249158  1
