# generated using pymatgen
data_SmZrF7
_symmetry_space_group_name_H-M   'P 1'
_cell_length_a   5.91887875
_cell_length_b   6.22291793
_cell_length_c   8.45211617
_cell_angle_alpha   102.88665545
_cell_angle_beta   90.00000000
_cell_angle_gamma   90.00000000
_symmetry_Int_Tables_number   1
_chemical_formula_structural   SmZrF7
_chemical_formula_sum   'Sm2 Zr2 F14'
_cell_volume   303.47321078
_cell_formula_units_Z   2
loop_
 _symmetry_equiv_pos_site_id
 _symmetry_equiv_pos_as_xyz
  1  'x, y, z'
loop_
 _atom_site_type_symbol
 _atom_site_label
 _atom_site_symmetry_multiplicity
 _atom_site_fract_x
 _atom_site_fract_y
 _atom_site_fract_z
 _atom_site_occupancy
  F  F0  1  0.444880  0.961717  0.982869  1
  F  F1  1  0.944880  0.038283  0.017131  1
  F  F2  1  0.481429  0.556702  0.735667  1
  F  F3  1  0.981429  0.443298  0.264333  1
  F  F4  1  0.737974  0.733543  0.521375  1
  F  F5  1  0.237974  0.266457  0.478625  1
  F  F6  1  0.008292  0.562477  0.745767  1
  F  F7  1  0.508292  0.437523  0.254233  1
  F  F8  1  0.508602  0.098893  0.708773  1
  F  F9  1  0.008602  0.901107  0.291227  1
  F  F10  1  0.505170  0.926260  0.291085  1
  F  F11  1  0.005170  0.073740  0.708915  1
  F  F12  1  0.747603  0.641943  0.028904  1
  F  F13  1  0.247603  0.358057  0.971096  1
  Zr  Zr14  1  0.243728  0.314879  0.725145  1
  Zr  Zr15  1  0.743728  0.685121  0.274855  1
  Sm  Sm16  1  0.236782  0.153631  0.188147  1
  Sm  Sm17  1  0.736782  0.846369  0.811853  1
