# generated using pymatgen
data_Li4B4Sb2SO16
_symmetry_space_group_name_H-M   'P 1'
_cell_length_a   9.74520991
_cell_length_b   9.46974855
_cell_length_c   9.74520949
_cell_angle_alpha   61.57726851
_cell_angle_beta   94.29901947
_cell_angle_gamma   61.57726645
_symmetry_Int_Tables_number   1
_chemical_formula_structural   Li4B4Sb2SO16
_chemical_formula_sum   'Li8 B8 Sb4 S2 O32'
_cell_volume   640.55955366
_cell_formula_units_Z   2
loop_
 _symmetry_equiv_pos_site_id
 _symmetry_equiv_pos_as_xyz
  1  'x, y, z'
loop_
 _atom_site_type_symbol
 _atom_site_label
 _atom_site_symmetry_multiplicity
 _atom_site_fract_x
 _atom_site_fract_y
 _atom_site_fract_z
 _atom_site_occupancy
  Li  Li0  1  0.074816  0.850368  0.824816  1
  Li  Li1  1  0.076638  0.250000  0.826638  1
  Li  Li2  1  0.326638  0.750000  0.576638  1
  Li  Li3  1  0.324816  0.350368  0.574816  1
  Li  Li4  1  0.675184  0.649632  0.425184  1
  Li  Li5  1  0.673362  0.250000  0.423362  1
  Li  Li6  1  0.923362  0.750000  0.173362  1
  Li  Li7  1  0.925184  0.149632  0.175184  1
  B  B8  1  0.352416  0.934529  0.771575  1
  B  B9  1  0.271575  0.434529  0.852416  1
  B  B10  1  0.713056  0.934529  0.793896  1
  B  B11  1  0.706104  0.565471  0.786944  1
  B  B12  1  0.293896  0.434529  0.213056  1
  B  B13  1  0.286944  0.065471  0.206104  1
  B  B14  1  0.728425  0.565471  0.147584  1
  B  B15  1  0.647584  0.065471  0.228425  1
  Sb  Sb16  1  0.000000  0.500000  0.000000  1
  Sb  Sb17  1  0.500000  0.000000  0.500000  1
  Sb  Sb18  1  0.500000  0.500000  0.000000  1
  Sb  Sb19  1  0.500000  0.000000  0.000000  1
  S  S20  1  0.125000  0.750000  0.375000  1
  S  S21  1  0.875000  0.250000  0.625000  1
  O  O22  1  0.349513  0.787391  0.901344  1
  O  O23  1  0.069662  0.882509  0.432532  1
  O  O24  1  0.358266  0.945749  0.626433  1
  O  O25  1  0.126433  0.445749  0.858266  1
  O  O26  1  0.695985  0.945749  0.927818  1
  O  O27  1  0.291034  0.572482  0.847998  1
  O  O28  1  0.047828  0.882509  0.184959  1
  O  O29  1  0.067468  0.617491  0.430338  1
  O  O30  1  0.420480  0.927518  0.363516  1
  O  O31  1  0.572182  0.554251  0.804015  1
  O  O32  1  0.401344  0.287391  0.849513  1
  O  O33  1  0.315041  0.617491  0.452172  1
  O  O34  1  0.863095  0.787391  0.811265  1
  O  O35  1  0.688735  0.712609  0.636905  1
  O  O36  1  0.347998  0.072482  0.791034  1
  O  O37  1  0.136484  0.572482  0.079520  1
  O  O38  1  0.863516  0.427518  0.920480  1
  O  O39  1  0.652002  0.927518  0.208966  1
  O  O40  1  0.311265  0.287391  0.363095  1
  O  O41  1  0.136905  0.212609  0.188735  1
  O  O42  1  0.684959  0.382509  0.547828  1
  O  O43  1  0.598656  0.712609  0.150487  1
  O  O44  1  0.427818  0.445749  0.195985  1
  O  O45  1  0.579520  0.072482  0.636484  1
  O  O46  1  0.932532  0.382509  0.569662  1
  O  O47  1  0.952172  0.117491  0.815041  1
  O  O48  1  0.708966  0.427518  0.152002  1
  O  O49  1  0.304015  0.054251  0.072182  1
  O  O50  1  0.873567  0.554251  0.141734  1
  O  O51  1  0.641734  0.054251  0.373567  1
  O  O52  1  0.930338  0.117491  0.567468  1
  O  O53  1  0.650487  0.212609  0.098656  1
