# generated using pymatgen
data_Li2VO2F
_symmetry_space_group_name_H-M   'P 1'
_cell_length_a   3.02510869
_cell_length_b   9.10220006
_cell_length_c   8.92976466
_cell_angle_alpha   109.58286987
_cell_angle_beta   90.02878479
_cell_angle_gamma   90.23785567
_symmetry_Int_Tables_number   1
_chemical_formula_structural   Li2VO2F
_chemical_formula_sum   'Li8 V4 O8 F4'
_cell_volume   231.65749562
_cell_formula_units_Z   4
loop_
 _symmetry_equiv_pos_site_id
 _symmetry_equiv_pos_as_xyz
  1  'x, y, z'
loop_
 _atom_site_type_symbol
 _atom_site_label
 _atom_site_symmetry_multiplicity
 _atom_site_fract_x
 _atom_site_fract_y
 _atom_site_fract_z
 _atom_site_occupancy
  Li  Li0  1  0.000348  0.098019  0.256319  1
  Li  Li1  1  0.000323  0.580652  0.718089  1
  Li  Li2  1  0.997889  0.409642  0.274828  1
  Li  Li3  1  0.999753  0.904198  0.745558  1
  Li  Li4  1  0.500881  0.367424  0.497723  1
  Li  Li5  1  0.500251  0.155850  0.002416  1
  Li  Li6  1  0.502787  0.632918  0.502416  1
  Li  Li7  1  0.499902  0.855831  0.999284  1
  V  V8  1  0.003782  0.755419  0.263129  1
  V  V9  1  0.007541  0.249406  0.745817  1
  V  V10  1  0.493943  0.480975  0.000458  1
  V  V11  1  0.491694  0.002643  0.500732  1
  O  O12  1  0.999062  0.154790  0.506406  1
  O  O13  1  0.005769  0.337336  0.995739  1
  O  O14  1  0.985168  0.847439  0.496724  1
  O  O15  1  0.002198  0.500461  0.496563  1
  O  O16  1  0.484675  0.908265  0.253327  1
  O  O17  1  0.510918  0.599794  0.229469  1
  O  O18  1  0.499830  0.093943  0.745150  1
  O  O19  1  0.514089  0.409774  0.765417  1
  F  F20  1  0.999260  0.658460  0.999891  1
  F  F21  1  0.999232  0.997993  0.999925  1
  F  F22  1  0.501058  0.239402  0.237996  1
  F  F23  1  0.499566  0.759365  0.766624  1
