# generated using pymatgen
data_Ba3LaZnReWO12
_symmetry_space_group_name_H-M   'P 1'
_cell_length_a   9.82892811
_cell_length_b   9.82892856
_cell_length_c   9.82892897
_cell_angle_alpha   33.95260724
_cell_angle_beta   33.95260330
_cell_angle_gamma   33.95260353
_symmetry_Int_Tables_number   1
_chemical_formula_structural   Ba3LaZnReWO12
_chemical_formula_sum   'Ba3 La1 Zn1 Re1 W1 O12'
_cell_volume   263.99909014
_cell_formula_units_Z   1
loop_
 _symmetry_equiv_pos_site_id
 _symmetry_equiv_pos_as_xyz
  1  'x, y, z'
loop_
 _atom_site_type_symbol
 _atom_site_label
 _atom_site_symmetry_multiplicity
 _atom_site_fract_x
 _atom_site_fract_y
 _atom_site_fract_z
 _atom_site_occupancy
  Ba  Ba0  1  0.291546  0.291546  0.291546  1
  Ba  Ba1  1  0.708830  0.708830  0.708830  1
  Ba  Ba2  1  0.869035  0.869035  0.869035  1
  La  La3  1  0.127328  0.127328  0.127328  1
  Zn  Zn4  1  0.000684  0.000684  0.000684  1
  Re  Re5  1  0.577951  0.577951  0.577951  1
  W  W6  1  0.422151  0.422151  0.422151  1
  O  O7  1  0.215201  0.710053  0.215201  1
  O  O8  1  0.215201  0.215201  0.710053  1
  O  O9  1  0.710053  0.215201  0.215201  1
  O  O10  1  0.130704  0.621010  0.621010  1
  O  O11  1  0.621010  0.621010  0.130704  1
  O  O12  1  0.621010  0.130704  0.621010  1
  O  O13  1  0.383515  0.859924  0.383515  1
  O  O14  1  0.383515  0.383515  0.859924  1
  O  O15  1  0.859924  0.383515  0.383515  1
  O  O16  1  0.306906  0.777718  0.777718  1
  O  O17  1  0.777718  0.777718  0.306906  1
  O  O18  1  0.777718  0.306906  0.777718  1
