# generated using pymatgen
data_Ba2GeO4
_symmetry_space_group_name_H-M   'P 1'
_cell_length_a   15.34467416
_cell_length_b   6.20371598
_cell_length_c   10.57701216
_cell_angle_alpha   90.00000000
_cell_angle_beta   90.00000000
_cell_angle_gamma   90.00000000
_symmetry_Int_Tables_number   1
_chemical_formula_structural   Ba2GeO4
_chemical_formula_sum   'Ba16 Ge8 O32'
_cell_volume   1006.86809867
_cell_formula_units_Z   8
loop_
 _symmetry_equiv_pos_site_id
 _symmetry_equiv_pos_as_xyz
  1  'x, y, z'
loop_
 _atom_site_type_symbol
 _atom_site_label
 _atom_site_symmetry_multiplicity
 _atom_site_fract_x
 _atom_site_fract_y
 _atom_site_fract_z
 _atom_site_occupancy
  Ba  Ba0  1  0.042441  0.730709  0.783474  1
  Ba  Ba1  1  0.120179  0.706336  0.410486  1
  Ba  Ba2  1  0.130195  0.225955  0.009321  1
  Ba  Ba3  1  0.205463  0.211701  0.634103  1
  Ba  Ba4  1  0.294537  0.711702  0.134103  1
  Ba  Ba5  1  0.369805  0.725955  0.509321  1
  Ba  Ba6  1  0.379821  0.206336  0.910486  1
  Ba  Ba7  1  0.457559  0.230709  0.283474  1
  Ba  Ba8  1  0.542441  0.769291  0.783474  1
  Ba  Ba9  1  0.620179  0.793664  0.410486  1
  Ba  Ba10  1  0.630195  0.274045  0.009321  1
  Ba  Ba11  1  0.705463  0.288299  0.634103  1
  Ba  Ba12  1  0.794537  0.788298  0.134103  1
  Ba  Ba13  1  0.869805  0.774045  0.509321  1
  Ba  Ba14  1  0.879821  0.293664  0.910486  1
  Ba  Ba15  1  0.957559  0.269291  0.283474  1
  Ge  Ge16  1  0.019416  0.771401  0.125574  1
  Ge  Ge17  1  0.236713  0.222354  0.292914  1
  Ge  Ge18  1  0.263287  0.722354  0.792914  1
  Ge  Ge19  1  0.480584  0.271401  0.625574  1
  Ge  Ge20  1  0.519416  0.728599  0.125574  1
  Ge  Ge21  1  0.736713  0.277646  0.292914  1
  Ge  Ge22  1  0.763287  0.777646  0.792914  1
  Ge  Ge23  1  0.980584  0.228599  0.625574  1
  O  O24  1  0.004481  0.548619  0.020844  1
  O  O25  1  0.027619  0.989956  0.557795  1
  O  O26  1  0.039025  0.282096  0.769269  1
  O  O27  1  0.127812  0.309475  0.265908  1
  O  O28  1  0.130751  0.823733  0.159600  1
  O  O29  1  0.207356  0.654221  0.649072  1
  O  O30  1  0.207237  0.960713  0.848293  1
  O  O31  1  0.251471  0.512483  0.906184  1
  O  O32  1  0.248529  0.012483  0.406184  1
  O  O33  1  0.292763  0.460713  0.348293  1
  O  O34  1  0.292644  0.154221  0.149072  1
  O  O35  1  0.369249  0.323733  0.659600  1
  O  O36  1  0.372188  0.809475  0.765908  1
  O  O37  1  0.460975  0.782096  0.269269  1
  O  O38  1  0.472381  0.489956  0.057795  1
  O  O39  1  0.495519  0.048619  0.520844  1
  O  O40  1  0.504481  0.951381  0.020844  1
  O  O41  1  0.527619  0.510044  0.557795  1
  O  O42  1  0.539025  0.217904  0.769269  1
  O  O43  1  0.627812  0.190525  0.265908  1
  O  O44  1  0.630751  0.676267  0.159600  1
  O  O45  1  0.707356  0.845779  0.649072  1
  O  O46  1  0.707237  0.539287  0.848293  1
  O  O47  1  0.751471  0.987517  0.906184  1
  O  O48  1  0.748529  0.487517  0.406184  1
  O  O49  1  0.792763  0.039287  0.348293  1
  O  O50  1  0.792644  0.345779  0.149072  1
  O  O51  1  0.869249  0.176267  0.659600  1
  O  O52  1  0.872188  0.690525  0.765908  1
  O  O53  1  0.960975  0.717904  0.269269  1
  O  O54  1  0.972381  0.010044  0.057795  1
  O  O55  1  0.995519  0.451381  0.520844  1
