# generated using pymatgen
data_LiV3O5F3
_symmetry_space_group_name_H-M   'P 1'
_cell_length_a   7.20267887
_cell_length_b   7.20267887
_cell_length_c   5.09511347
_cell_angle_alpha   89.23130704
_cell_angle_beta   90.76869296
_cell_angle_gamma   78.52229106
_symmetry_Int_Tables_number   1
_chemical_formula_structural   LiV3O5F3
_chemical_formula_sum   'Li2 V6 O10 F6'
_cell_volume   258.98308934
_cell_formula_units_Z   2
loop_
 _symmetry_equiv_pos_site_id
 _symmetry_equiv_pos_as_xyz
  1  'x, y, z'
loop_
 _atom_site_type_symbol
 _atom_site_label
 _atom_site_symmetry_multiplicity
 _atom_site_fract_x
 _atom_site_fract_y
 _atom_site_fract_z
 _atom_site_occupancy
  Li  Li0  1  0.158973  0.171898  0.747235  1
  Li  Li1  1  0.828102  0.841027  0.247235  1
  V  V2  1  0.195054  0.691889  0.738884  1
  V  V3  1  0.308111  0.804946  0.238884  1
  V  V4  1  0.684555  0.668766  0.778370  1
  V  V5  1  0.331234  0.315445  0.278370  1
  V  V6  1  0.661299  0.174967  0.779312  1
  V  V7  1  0.825033  0.338701  0.279312  1
  O  O8  1  0.193706  0.906459  0.566530  1
  O  O9  1  0.093541  0.806294  0.066530  1
  O  O10  1  0.432002  0.690451  0.913560  1
  O  O11  1  0.309549  0.567998  0.413560  1
  O  O12  1  0.681909  0.936267  0.870722  1
  O  O13  1  0.063733  0.318091  0.370722  1
  O  O14  1  0.428874  0.203686  0.566457  1
  O  O15  1  0.796314  0.571126  0.066457  1
  O  O16  1  0.698654  0.423045  0.594572  1
  O  O17  1  0.576955  0.301346  0.094572  1
  F  F18  1  0.203160  0.432400  0.915861  1
  F  F19  1  0.567600  0.796840  0.415861  1
  F  F20  1  0.927936  0.687487  0.592337  1
  F  F21  1  0.312513  0.072064  0.092337  1
  F  F22  1  0.914196  0.193004  0.936160  1
  F  F23  1  0.806996  0.085804  0.436160  1
