# generated using pymatgen
data_Ba4(PtO3)3
_symmetry_space_group_name_H-M   'P 1'
_cell_length_a   10.24044008
_cell_length_b   10.19561688
_cell_length_c   8.76169565
_cell_angle_alpha   90.18576195
_cell_angle_beta   89.94473689
_cell_angle_gamma   119.43524625
_symmetry_Int_Tables_number   1
_chemical_formula_structural   Ba4(PtO3)3
_chemical_formula_sum   'Ba12 Pt9 O27'
_cell_volume   796.69483433
_cell_formula_units_Z   3
loop_
 _symmetry_equiv_pos_site_id
 _symmetry_equiv_pos_as_xyz
  1  'x, y, z'
loop_
 _atom_site_type_symbol
 _atom_site_label
 _atom_site_symmetry_multiplicity
 _atom_site_fract_x
 _atom_site_fract_y
 _atom_site_fract_z
 _atom_site_occupancy
  Ba  Ba0  1  0.003933  0.677889  0.747776  1
  Ba  Ba1  1  0.992898  0.359509  0.998981  1
  Ba  Ba2  1  0.992175  0.340486  0.494517  1
  Ba  Ba3  1  0.302536  0.321631  0.750270  1
  Ba  Ba4  1  0.660886  0.975617  0.748481  1
  Ba  Ba5  1  0.325575  0.297894  0.249532  1
  Ba  Ba6  1  0.643151  0.645881  0.000201  1
  Ba  Ba7  1  0.659255  0.665305  0.496870  1
  Ba  Ba8  1  0.329490  0.993215  0.503072  1
  Ba  Ba9  1  0.340540  0.993352  0.997893  1
  Ba  Ba10  1  0.979069  0.672579  0.251728  1
  Ba  Ba11  1  0.666948  0.003135  0.252078  1
  Pt  Pt12  1  0.258742  0.588554  0.245747  1
  Pt  Pt13  1  0.003100  0.000786  0.663114  1
  Pt  Pt14  1  0.002054  0.000147  0.340975  1
  Pt  Pt15  1  0.336639  0.665382  0.906878  1
  Pt  Pt16  1  0.335203  0.662929  0.584061  1
  Pt  Pt17  1  0.593044  0.265331  0.752453  1
  Pt  Pt18  1  0.670437  0.343656  0.091730  1
  Pt  Pt19  1  0.669102  0.340298  0.414569  1
  Pt  Pt20  1  0.923868  0.000093  0.003083  1
  O  O21  1  0.996036  0.850979  0.502395  1
  O  O22  1  0.172496  0.990735  0.228234  1
  O  O23  1  0.190305  0.667291  0.428290  1
  O  O24  1  0.192672  0.672889  0.063930  1
  O  O25  1  0.170395  0.509998  0.744121  1
  O  O26  1  0.337246  0.811854  0.745414  1
  O  O27  1  0.000061  0.149439  0.184717  1
  O  O28  1  0.326113  0.507578  0.060446  1
  O  O29  1  0.147744  0.148405  0.501425  1
  O  O30  1  0.326733  0.508306  0.428547  1
  O  O31  1  0.509883  0.833932  0.022070  1
  O  O32  1  0.176526  0.999310  0.773476  1
  O  O33  1  0.509322  0.828427  0.471427  1
  O  O34  1  0.478098  0.649824  0.745214  1
  O  O35  1  0.515293  0.334770  0.567329  1
  O  O36  1  0.512467  0.332760  0.939445  1
  O  O37  1  0.656329  0.485376  0.255801  1
  O  O38  1  0.518432  0.179391  0.250202  1
  O  O39  1  0.844416  0.853805  0.188922  1
  O  O40  1  0.851663  0.851457  0.817040  1
  O  O41  1  0.838199  0.522142  0.978453  1
  O  O42  1  0.837624  0.510213  0.529998  1
  O  O43  1  0.674627  0.198356  0.933471  1
  O  O44  1  0.670819  0.194052  0.571085  1
  O  O45  1  0.817455  0.340364  0.252605  1
  O  O46  1  0.849209  0.005636  0.500516  1
  O  O47  1  0.998489  0.147940  0.821421  1
