# generated using pymatgen
data_K4Zr3Mn(PO4)6
_symmetry_space_group_name_H-M   'P 1'
_cell_length_a   10.37655241
_cell_length_b   10.38096061
_cell_length_c   10.36498149
_cell_angle_alpha   90.00000000
_cell_angle_beta   90.00000000
_cell_angle_gamma   89.96424286
_symmetry_Int_Tables_number   1
_chemical_formula_structural   K4Zr3Mn(PO4)6
_chemical_formula_sum   'K8 Zr6 Mn2 P12 O48'
_cell_volume   1116.50088949
_cell_formula_units_Z   2
loop_
 _symmetry_equiv_pos_site_id
 _symmetry_equiv_pos_as_xyz
  1  'x, y, z'
loop_
 _atom_site_type_symbol
 _atom_site_label
 _atom_site_symmetry_multiplicity
 _atom_site_fract_x
 _atom_site_fract_y
 _atom_site_fract_z
 _atom_site_occupancy
  K  K0  1  0.059955  0.438499  0.563618  1
  K  K1  1  0.193925  0.790746  0.299115  1
  K  K2  1  0.306075  0.209254  0.799115  1
  K  K3  1  0.440045  0.561501  0.063618  1
  K  K4  1  0.572248  0.071057  0.431234  1
  K  K5  1  0.706761  0.691074  0.700446  1
  K  K6  1  0.793239  0.308926  0.200446  1
  K  K7  1  0.927752  0.928943  0.931234  1
  Zr  Zr8  1  0.082174  0.584918  0.915598  1
  Zr  Zr9  1  0.143490  0.146428  0.143908  1
  Zr  Zr10  1  0.356510  0.853572  0.643908  1
  Zr  Zr11  1  0.417826  0.415082  0.415598  1
  Zr  Zr12  1  0.588786  0.913593  0.086504  1
  Zr  Zr13  1  0.911214  0.086407  0.586504  1
  Mn  Mn14  1  0.649414  0.355233  0.851832  1
  Mn  Mn15  1  0.850586  0.644767  0.351832  1
  P  P16  1  0.036625  0.769769  0.625630  1
  P  P17  1  0.126975  0.463356  0.231359  1
  P  P18  1  0.230102  0.126554  0.461988  1
  P  P19  1  0.269898  0.873446  0.961988  1
  P  P20  1  0.373025  0.536644  0.731359  1
  P  P21  1  0.463375  0.230231  0.125630  1
  P  P22  1  0.540328  0.731918  0.375561  1
  P  P23  1  0.623022  0.040396  0.768907  1
  P  P24  1  0.732847  0.377150  0.539043  1
  P  P25  1  0.767153  0.622849  0.039043  1
  P  P26  1  0.876978  0.959604  0.268907  1
  P  P27  1  0.959672  0.268082  0.875561  1
  O  O28  1  0.006421  0.408750  0.852258  1
  O  O29  1  0.023711  0.697378  0.757026  1
  O  O30  1  0.029123  0.547742  0.298854  1
  O  O31  1  0.054843  0.202760  0.973453  1
  O  O32  1  0.084191  0.318559  0.231408  1
  O  O33  1  0.089554  0.148708  0.506057  1
  O  O34  1  0.150826  0.504695  0.088608  1
  O  O35  1  0.181586  0.770189  0.583967  1
  O  O36  1  0.193034  0.747213  0.979817  1
  O  O37  1  0.203174  0.976024  0.047686  1
  O  O38  1  0.232594  0.080862  0.319607  1
  O  O39  1  0.242235  0.524838  0.804240  1
  O  O40  1  0.257765  0.475162  0.304240  1
  O  O41  1  0.267406  0.919138  0.819607  1
  O  O42  1  0.296826  0.023976  0.547686  1
  O  O43  1  0.306966  0.252787  0.479817  1
  O  O44  1  0.318414  0.229811  0.083967  1
  O  O45  1  0.349174  0.495305  0.588608  1
  O  O46  1  0.410446  0.851292  0.006057  1
  O  O47  1  0.415809  0.681441  0.731408  1
  O  O48  1  0.445157  0.797240  0.473453  1
  O  O49  1  0.470877  0.452258  0.798854  1
  O  O50  1  0.476289  0.302622  0.257026  1
  O  O51  1  0.493579  0.591250  0.352258  1
  O  O52  1  0.505197  0.088012  0.149818  1
  O  O53  1  0.520811  0.807761  0.247035  1
  O  O54  1  0.524706  0.946270  0.703145  1
  O  O55  1  0.546025  0.298109  0.026545  1
  O  O56  1  0.572723  0.177078  0.761888  1
  O  O57  1  0.589431  0.351569  0.494666  1
  O  O58  1  0.646599  0.993219  0.909583  1
  O  O59  1  0.676911  0.739663  0.426629  1
  O  O60  1  0.696589  0.757526  0.025306  1
  O  O61  1  0.700572  0.531740  0.945699  1
  O  O62  1  0.737425  0.423950  0.678149  1
  O  O63  1  0.747883  0.979971  0.193816  1
  O  O64  1  0.752117  0.020029  0.693816  1
  O  O65  1  0.762575  0.576050  0.178149  1
  O  O66  1  0.799428  0.468260  0.445699  1
  O  O67  1  0.803411  0.242474  0.525306  1
  O  O68  1  0.823089  0.260337  0.926629  1
  O  O69  1  0.853401  0.006781  0.409583  1
  O  O70  1  0.910569  0.648431  0.994666  1
  O  O71  1  0.927277  0.822922  0.261888  1
  O  O72  1  0.953975  0.701891  0.526545  1
  O  O73  1  0.975294  0.053730  0.203145  1
  O  O74  1  0.979189  0.192239  0.747035  1
  O  O75  1  0.994803  0.911988  0.649818  1
