# generated using pymatgen
data_Li2BPCO7
_symmetry_space_group_name_H-M   'P 1'
_cell_length_a   9.42849548
_cell_length_b   5.05941610
_cell_length_c   5.40887044
_cell_angle_alpha   90.00000000
_cell_angle_beta   101.91409499
_cell_angle_gamma   90.00000000
_symmetry_Int_Tables_number   1
_chemical_formula_structural   Li2BPCO7
_chemical_formula_sum   'Li4 B2 P2 C2 O14'
_cell_volume   252.45946901
_cell_formula_units_Z   2
loop_
 _symmetry_equiv_pos_site_id
 _symmetry_equiv_pos_as_xyz
  1  'x, y, z'
loop_
 _atom_site_type_symbol
 _atom_site_label
 _atom_site_symmetry_multiplicity
 _atom_site_fract_x
 _atom_site_fract_y
 _atom_site_fract_z
 _atom_site_occupancy
  Li  Li0  1  0.204964  0.501543  0.311198  1
  Li  Li1  1  0.204964  0.998457  0.311198  1
  Li  Li2  1  0.795036  0.498457  0.688802  1
  Li  Li3  1  0.795036  0.001543  0.688802  1
  B  B4  1  0.334264  0.750000  0.937785  1
  B  B5  1  0.665736  0.250000  0.062215  1
  P  P6  1  0.419717  0.250000  0.707691  1
  P  P7  1  0.580283  0.750000  0.292309  1
  C  C8  1  0.075782  0.750000  0.731448  1
  C  C9  1  0.924218  0.250000  0.268552  1
  O  O10  1  0.053450  0.250000  0.238025  1
  O  O11  1  0.179031  0.750000  0.955138  1
  O  O12  1  0.117392  0.750000  0.523774  1
  O  O13  1  0.363951  0.997538  0.816851  1
  O  O14  1  0.363951  0.502462  0.816851  1
  O  O15  1  0.409553  0.750000  0.207986  1
  O  O16  1  0.366920  0.250000  0.424809  1
  O  O17  1  0.633080  0.750000  0.575191  1
  O  O18  1  0.590447  0.250000  0.792014  1
  O  O19  1  0.636049  0.497538  0.183149  1
  O  O20  1  0.636049  0.002462  0.183149  1
  O  O21  1  0.882608  0.250000  0.476226  1
  O  O22  1  0.820969  0.250000  0.044862  1
  O  O23  1  0.946550  0.750000  0.761975  1
