# generated using pymatgen
data_V6O7F5
_symmetry_space_group_name_H-M   'P 1'
_cell_length_a   4.67792358
_cell_length_b   7.79968981
_cell_length_c   5.61981486
_cell_angle_alpha   93.62944293
_cell_angle_beta   89.96276395
_cell_angle_gamma   90.27574119
_symmetry_Int_Tables_number   1
_chemical_formula_structural   V6O7F5
_chemical_formula_sum   'V6 O7 F5'
_cell_volume   204.63291054
_cell_formula_units_Z   1
loop_
 _symmetry_equiv_pos_site_id
 _symmetry_equiv_pos_as_xyz
  1  'x, y, z'
loop_
 _atom_site_type_symbol
 _atom_site_label
 _atom_site_symmetry_multiplicity
 _atom_site_fract_x
 _atom_site_fract_y
 _atom_site_fract_z
 _atom_site_occupancy
  V  V0  1  0.543041  0.658550  0.173582  1
  V  V1  1  0.487650  0.000037  0.500075  1
  V  V2  1  0.515728  0.342103  0.821055  1
  V  V3  1  0.977115  0.683599  0.661819  1
  V  V4  1  0.974994  0.319302  0.353626  1
  V  V5  1  0.990542  0.985936  0.996712  1
  O  O6  1  0.808802  0.437758  0.626951  1
  O  O7  1  0.808094  0.101095  0.296904  1
  O  O8  1  0.795389  0.768847  0.969892  1
  O  O9  1  0.693070  0.774200  0.466557  1
  O  O10  1  0.711993  0.422944  0.133281  1
  O  O11  1  0.295550  0.242387  0.531414  1
  O  O12  1  0.196791  0.906643  0.707030  1
  F  F13  1  0.697905  0.104846  0.796200  1
  F  F14  1  0.300631  0.569901  0.869320  1
  F  F15  1  0.300162  0.887224  0.199575  1
  F  F16  1  0.204655  0.226961  0.033323  1
  F  F17  1  0.197884  0.567668  0.362683  1
