# generated using pymatgen
data_Li3Ti2CuO6
_symmetry_space_group_name_H-M   'P 1'
_cell_length_a   15.70789987
_cell_length_b   10.00827126
_cell_length_c   10.00827113
_cell_angle_alpha   16.95443895
_cell_angle_beta   16.62543031
_cell_angle_gamma   16.62543533
_symmetry_Int_Tables_number   1
_chemical_formula_structural   Li3Ti2CuO6
_chemical_formula_sum   'Li3 Ti2 Cu1 O6'
_cell_volume   113.75102167
_cell_formula_units_Z   1
loop_
 _symmetry_equiv_pos_site_id
 _symmetry_equiv_pos_as_xyz
  1  'x, y, z'
loop_
 _atom_site_type_symbol
 _atom_site_label
 _atom_site_symmetry_multiplicity
 _atom_site_fract_x
 _atom_site_fract_y
 _atom_site_fract_z
 _atom_site_occupancy
  Li  Li0  1  0.166667  0.500000  0.500000  1
  Li  Li1  1  0.508362  0.495033  0.495033  1
  Li  Li2  1  0.824971  0.504967  0.504967  1
  Ti  Ti3  1  0.035207  0.976120  0.976120  1
  Ti  Ti4  1  0.298126  0.023880  0.023880  1
  Cu  Cu5  1  0.666667  0.000000  0.000000  1
  O  O6  1  0.196355  0.292611  0.292611  1
  O  O7  1  0.568077  0.270180  0.270180  1
  O  O8  1  0.136978  0.707389  0.707389  1
  O  O9  1  0.958358  0.220023  0.220023  1
  O  O10  1  0.374975  0.779977  0.779977  1
  O  O11  1  0.765257  0.729820  0.729820  1
