# generated using pymatgen
data_HOs7C20O19
_symmetry_space_group_name_H-M   'P 1'
_cell_length_a   9.95824415
_cell_length_b   20.77934368
_cell_length_c   15.55633518
_cell_angle_alpha   90.00000000
_cell_angle_beta   91.06533618
_cell_angle_gamma   90.00000000
_symmetry_Int_Tables_number   1
_chemical_formula_structural   HOs7C20O19
_chemical_formula_sum   'H4 Os28 C80 O76'
_cell_volume   3218.45032968
_cell_formula_units_Z   4
loop_
 _symmetry_equiv_pos_site_id
 _symmetry_equiv_pos_as_xyz
  1  'x, y, z'
loop_
 _atom_site_type_symbol
 _atom_site_label
 _atom_site_symmetry_multiplicity
 _atom_site_fract_x
 _atom_site_fract_y
 _atom_site_fract_z
 _atom_site_occupancy
  H  H0  1  0.523996  0.565323  0.602737  1
  H  H1  1  0.023996  0.934677  0.102737  1
  H  H2  1  0.476004  0.434677  0.397263  1
  H  H3  1  0.976004  0.065323  0.897263  1
  Os  Os4  1  0.505800  0.639202  0.655655  1
  Os  Os5  1  0.005800  0.860798  0.155655  1
  Os  Os6  1  0.494200  0.360798  0.344345  1
  Os  Os7  1  0.994200  0.139202  0.844345  1
  Os  Os8  1  0.428109  0.699068  0.895808  1
  Os  Os9  1  0.928109  0.800932  0.395808  1
  Os  Os10  1  0.571891  0.300932  0.104192  1
  Os  Os11  1  0.071891  0.199068  0.604192  1
  Os  Os12  1  0.791542  0.611851  0.720184  1
  Os  Os13  1  0.291542  0.888149  0.220184  1
  Os  Os14  1  0.208458  0.388149  0.279816  1
  Os  Os15  1  0.708458  0.111851  0.779816  1
  Os  Os16  1  0.497558  0.770371  0.737515  1
  Os  Os17  1  0.997558  0.729629  0.237515  1
  Os  Os18  1  0.502442  0.229629  0.262485  1
  Os  Os19  1  0.002442  0.270371  0.762485  1
  Os  Os20  1  0.706202  0.708584  0.849684  1
  Os  Os21  1  0.206202  0.791416  0.349684  1
  Os  Os22  1  0.293798  0.291416  0.150316  1
  Os  Os23  1  0.793798  0.208584  0.650316  1
  Os  Os24  1  0.600442  0.508505  0.685605  1
  Os  Os25  1  0.100442  0.991495  0.185605  1
  Os  Os26  1  0.399558  0.491495  0.314395  1
  Os  Os27  1  0.899558  0.008505  0.814395  1
  Os  Os28  1  0.565694  0.590515  0.823322  1
  Os  Os29  1  0.065694  0.909485  0.323322  1
  Os  Os30  1  0.434306  0.409485  0.176678  1
  Os  Os31  1  0.934306  0.090515  0.676678  1
  C  C32  1  0.501864  0.671356  0.541021  1
  C  C33  1  0.001864  0.828644  0.041021  1
  C  C34  1  0.498136  0.328644  0.458979  1
  C  C35  1  0.998136  0.171356  0.958979  1
  C  C36  1  0.322853  0.622230  0.656015  1
  C  C37  1  0.822853  0.877770  0.156015  1
  C  C38  1  0.677147  0.377770  0.343985  1
  C  C39  1  0.177147  0.122230  0.843985  1
  C  C40  1  0.248035  0.676568  0.871757  1
  C  C41  1  0.748035  0.823432  0.371757  1
  C  C42  1  0.751965  0.323432  0.128243  1
  C  C43  1  0.251965  0.176568  0.628243  1
  C  C44  1  0.366258  0.778354  0.943203  1
  C  C45  1  0.866258  0.721646  0.443203  1
  C  C46  1  0.633742  0.221646  0.056797  1
  C  C47  1  0.133742  0.278354  0.556797  1
  C  C48  1  0.447358  0.651915  0.002373  1
  C  C49  1  0.947358  0.848085  0.502373  1
  C  C50  1  0.552642  0.348085  0.997627  1
  C  C51  1  0.052642  0.151915  0.497627  1
  C  C52  1  0.857043  0.567422  0.621081  1
  C  C53  1  0.357043  0.932578  0.121081  1
  C  C54  1  0.142957  0.432578  0.378919  1
  C  C55  1  0.642957  0.067422  0.878919  1
  C  C56  1  0.904451  0.565349  0.796309  1
  C  C57  1  0.404451  0.934651  0.296309  1
  C  C58  1  0.095549  0.434651  0.203691  1
  C  C59  1  0.595549  0.065349  0.703691  1
  C  C60  1  0.916063  0.678234  0.690949  1
  C  C61  1  0.416063  0.821766  0.190949  1
  C  C62  1  0.083937  0.321766  0.309051  1
  C  C63  1  0.583937  0.178234  0.809051  1
  C  C64  1  0.600632  0.795914  0.641250  1
  C  C65  1  0.100632  0.704086  0.141250  1
  C  C66  1  0.399368  0.204086  0.358750  1
  C  C67  1  0.899368  0.295914  0.858750  1
  C  C68  1  0.326862  0.790722  0.685611  1
  C  C69  1  0.826862  0.709278  0.185611  1
  C  C70  1  0.673138  0.209278  0.314389  1
  C  C71  1  0.173138  0.290722  0.814389  1
  C  C72  1  0.509562  0.852443  0.795586  1
  C  C73  1  0.009562  0.647557  0.295586  1
  C  C74  1  0.490438  0.147557  0.204414  1
  C  C75  1  0.990438  0.352443  0.704414  1
  C  C76  1  0.827491  0.664035  0.926369  1
  C  C77  1  0.327491  0.835965  0.426369  1
  C  C78  1  0.172509  0.335965  0.073631  1
  C  C79  1  0.672509  0.164035  0.573631  1
  C  C80  1  0.822249  0.773537  0.805577  1
  C  C81  1  0.322249  0.726463  0.305577  1
  C  C82  1  0.177751  0.226463  0.194423  1
  C  C83  1  0.677751  0.273537  0.694423  1
  C  C84  1  0.666292  0.764824  0.943177  1
  C  C85  1  0.166292  0.735176  0.443177  1
  C  C86  1  0.333708  0.235176  0.056823  1
  C  C87  1  0.833708  0.264824  0.556823  1
  C  C88  1  0.443115  0.457363  0.678590  1
  C  C89  1  0.943115  0.042637  0.178590  1
  C  C90  1  0.556885  0.542636  0.321410  1
  C  C91  1  0.056885  0.957364  0.821410  1
  C  C92  1  0.667344  0.467876  0.586003  1
  C  C93  1  0.167344  0.032124  0.086003  1
  C  C94  1  0.332656  0.532124  0.413997  1
  C  C95  1  0.832656  0.967876  0.913997  1
  C  C96  1  0.693085  0.453700  0.763939  1
  C  C97  1  0.193085  0.046300  0.263939  1
  C  C98  1  0.306915  0.546300  0.236061  1
  C  C99  1  0.806915  0.953700  0.736061  1
  C  C100  1  0.404709  0.541196  0.830372  1
  C  C101  1  0.904709  0.958804  0.330372  1
  C  C102  1  0.595291  0.458805  0.169628  1
  C  C103  1  0.095291  0.041196  0.669628  1
  C  C104  1  0.643908  0.543943  0.918160  1
  C  C105  1  0.143908  0.956057  0.418160  1
  C  C106  1  0.356092  0.456057  0.081840  1
  C  C107  1  0.856092  0.043943  0.581840  1
  C  C108  1  0.525142  0.679264  0.778327  1
  C  C109  1  0.025142  0.820736  0.278327  1
  C  C110  1  0.474858  0.320736  0.221673  1
  C  C111  1  0.974858  0.179264  0.721673  1
  O  O112  1  0.496036  0.693730  0.472064  1
  O  O113  1  0.996036  0.806270  0.972064  1
  O  O114  1  0.503964  0.306270  0.527936  1
  O  O115  1  0.003964  0.193730  0.027936  1
  O  O116  1  0.209631  0.609012  0.663257  1
  O  O117  1  0.709631  0.890988  0.163257  1
  O  O118  1  0.790369  0.390988  0.336743  1
  O  O119  1  0.290369  0.109012  0.836743  1
  O  O120  1  0.136321  0.664434  0.855698  1
  O  O121  1  0.636321  0.835566  0.355698  1
  O  O122  1  0.863679  0.335566  0.144302  1
  O  O123  1  0.363679  0.164434  0.644302  1
  O  O124  1  0.324042  0.825148  0.973575  1
  O  O125  1  0.824042  0.674852  0.473575  1
  O  O126  1  0.675958  0.174852  0.026425  1
  O  O127  1  0.175958  0.325148  0.526425  1
  O  O128  1  0.460109  0.625109  0.067469  1
  O  O129  1  0.960109  0.874891  0.567469  1
  O  O130  1  0.539891  0.374891  0.932531  1
  O  O131  1  0.039891  0.125109  0.432531  1
  O  O132  1  0.914323  0.544472  0.564429  1
  O  O133  1  0.414323  0.955528  0.064429  1
  O  O134  1  0.085677  0.455528  0.435571  1
  O  O135  1  0.585677  0.044472  0.935571  1
  O  O136  1  0.971864  0.534330  0.842068  1
  O  O137  1  0.471864  0.965670  0.342068  1
  O  O138  1  0.028136  0.465670  0.157932  1
  O  O139  1  0.528136  0.034330  0.657932  1
  O  O140  1  0.996203  0.714820  0.668149  1
  O  O141  1  0.496203  0.785180  0.168149  1
  O  O142  1  0.003797  0.285180  0.331851  1
  O  O143  1  0.503797  0.214820  0.831851  1
  O  O144  1  0.664267  0.808682  0.581674  1
  O  O145  1  0.164267  0.691318  0.081674  1
  O  O146  1  0.335733  0.191318  0.418326  1
  O  O147  1  0.835733  0.308682  0.918326  1
  O  O148  1  0.223676  0.802624  0.653256  1
  O  O149  1  0.723676  0.697376  0.153256  1
  O  O150  1  0.776324  0.197376  0.346744  1
  O  O151  1  0.276324  0.302624  0.846744  1
  O  O152  1  0.517837  0.901819  0.830404  1
  O  O153  1  0.017837  0.598181  0.330404  1
  O  O154  1  0.482163  0.098181  0.169596  1
  O  O155  1  0.982163  0.401819  0.669596  1
  O  O156  1  0.900056  0.639724  0.975770  1
  O  O157  1  0.400056  0.860276  0.475770  1
  O  O158  1  0.099944  0.360276  0.024230  1
  O  O159  1  0.599944  0.139724  0.524230  1
  O  O160  1  0.892766  0.814774  0.783575  1
  O  O161  1  0.392766  0.685226  0.283575  1
  O  O162  1  0.107234  0.185226  0.216425  1
  O  O163  1  0.607234  0.314774  0.716425  1
  O  O164  1  0.665116  0.801203  0.000308  1
  O  O165  1  0.165116  0.698797  0.500308  1
  O  O166  1  0.334884  0.198797  0.999692  1
  O  O167  1  0.834884  0.301203  0.499692  1
  O  O168  1  0.345938  0.426378  0.675933  1
  O  O169  1  0.845938  0.073622  0.175933  1
  O  O170  1  0.654062  0.573622  0.324067  1
  O  O171  1  0.154062  0.926378  0.824067  1
  O  O172  1  0.711535  0.442380  0.526300  1
  O  O173  1  0.211535  0.057620  0.026300  1
  O  O174  1  0.288465  0.557620  0.473700  1
  O  O175  1  0.788465  0.942380  0.973700  1
  O  O176  1  0.752796  0.420449  0.810917  1
  O  O177  1  0.252796  0.079551  0.310917  1
  O  O178  1  0.247204  0.579551  0.189083  1
  O  O179  1  0.747204  0.920449  0.689083  1
  O  O180  1  0.302753  0.513945  0.834012  1
  O  O181  1  0.802753  0.986055  0.334012  1
  O  O182  1  0.697247  0.486055  0.165988  1
  O  O183  1  0.197247  0.013945  0.665988  1
  O  O184  1  0.691147  0.516033  0.976270  1
  O  O185  1  0.191147  0.983967  0.476270  1
  O  O186  1  0.308853  0.483967  0.023730  1
  O  O187  1  0.808853  0.016033  0.523730  1
