# generated using pymatgen
data_Mn6O7F5
_symmetry_space_group_name_H-M   'P 1'
_cell_length_a   7.32999858
_cell_length_b   5.58187997
_cell_length_c   5.58187997
_cell_angle_alpha   71.35577763
_cell_angle_beta   72.55314243
_cell_angle_gamma   72.55314243
_symmetry_Int_Tables_number   1
_chemical_formula_structural   Mn6O7F5
_chemical_formula_sum   'Mn6 O7 F5'
_cell_volume   201.11870772
_cell_formula_units_Z   1
loop_
 _symmetry_equiv_pos_site_id
 _symmetry_equiv_pos_as_xyz
  1  'x, y, z'
loop_
 _atom_site_type_symbol
 _atom_site_label
 _atom_site_symmetry_multiplicity
 _atom_site_fract_x
 _atom_site_fract_y
 _atom_site_fract_z
 _atom_site_occupancy
  Mn  Mn0  1  0.827094  0.698359  0.698359  1
  Mn  Mn1  1  0.673161  0.337666  0.337666  1
  Mn  Mn2  1  0.317376  0.648174  0.648174  1
  Mn  Mn3  1  0.180503  0.314508  0.314508  1
  Mn  Mn4  1  0.494680  0.997503  0.997503  1
  Mn  Mn5  1  0.000596  0.005443  0.005443  1
  O  O6  1  0.665473  0.034795  0.647200  1
  O  O7  1  0.332810  0.350217  0.955299  1
  O  O8  1  0.966874  0.229243  0.229243  1
  O  O9  1  0.023376  0.782970  0.782970  1
  O  O10  1  0.378863  0.422340  0.422340  1
  O  O11  1  0.332810  0.955299  0.350217  1
  O  O12  1  0.665473  0.647200  0.034795  1
  F  F13  1  0.294736  0.880718  0.880718  1
  F  F14  1  0.640028  0.577793  0.577793  1
  F  F15  1  0.707756  0.101256  0.101256  1
  F  F16  1  0.999195  0.323278  0.693239  1
  F  F17  1  0.999195  0.693239  0.323278  1
