# generated using pymatgen
data_Li4Ti2Fe3O10
_symmetry_space_group_name_H-M   'P 1'
_cell_length_a   7.93492206
_cell_length_b   6.68051140
_cell_length_c   8.01820436
_cell_angle_alpha   115.18851612
_cell_angle_beta   83.91239183
_cell_angle_gamma   90.31119354
_symmetry_Int_Tables_number   1
_chemical_formula_structural   Li4Ti2Fe3O10
_chemical_formula_sum   'Li8 Ti4 Fe6 O20'
_cell_volume   382.08227135
_cell_formula_units_Z   2
loop_
 _symmetry_equiv_pos_site_id
 _symmetry_equiv_pos_as_xyz
  1  'x, y, z'
loop_
 _atom_site_type_symbol
 _atom_site_label
 _atom_site_symmetry_multiplicity
 _atom_site_fract_x
 _atom_site_fract_y
 _atom_site_fract_z
 _atom_site_occupancy
  Li  Li0  1  0.155430  0.058410  0.404547  1
  Li  Li1  1  0.046176  0.351408  0.791121  1
  Li  Li2  1  0.995465  0.499506  0.490636  1
  Li  Li3  1  0.504535  0.000494  0.509364  1
  Li  Li4  1  0.453824  0.148592  0.208879  1
  Li  Li5  1  0.344570  0.441590  0.595453  1
  Li  Li6  1  0.664689  0.566406  0.403407  1
  Li  Li7  1  0.835311  0.933594  0.596593  1
  Ti  Ti8  1  0.292240  0.601325  0.308677  1
  Ti  Ti9  1  0.207760  0.898675  0.691323  1
  Ti  Ti10  1  0.810587  0.085552  0.312175  1
  Ti  Ti11  1  0.689413  0.414448  0.687825  1
  Fe  Fe12  1  0.093597  0.216405  0.106814  1
  Fe  Fe13  1  0.406403  0.283595  0.893186  1
  Fe  Fe14  1  0.250000  0.750000  0.000000  1
  Fe  Fe15  1  0.750000  0.250000  0.000000  1
  Fe  Fe16  1  0.604346  0.705560  0.108123  1
  Fe  Fe17  1  0.895654  0.794440  0.891877  1
  O  O18  1  0.307121  0.031864  0.939819  1
  O  O19  1  0.276311  0.163658  0.665876  1
  O  O20  1  0.223689  0.336342  0.334124  1
  O  O21  1  0.127464  0.649734  0.760816  1
  O  O22  1  0.192879  0.468136  0.060181  1
  O  O23  1  0.099376  0.782516  0.467200  1
  O  O24  1  0.632477  0.159105  0.758230  1
  O  O25  1  0.017620  0.945424  0.148070  1
  O  O26  1  0.593499  0.282062  0.462075  1
  O  O27  1  0.482380  0.554576  0.851930  1
  O  O28  1  0.515749  0.437503  0.148852  1
  O  O29  1  0.400624  0.717484  0.532800  1
  O  O30  1  0.984251  0.062497  0.851148  1
  O  O31  1  0.372536  0.850266  0.239184  1
  O  O32  1  0.906501  0.217938  0.537925  1
  O  O33  1  0.812431  0.528750  0.928454  1
  O  O34  1  0.867523  0.340895  0.241770  1
  O  O35  1  0.784861  0.660906  0.658101  1
  O  O36  1  0.715139  0.839094  0.341899  1
  O  O37  1  0.687569  0.971250  0.071546  1
