# generated using pymatgen
data_Li5Cr2Co5O12
_symmetry_space_group_name_H-M   'P 1'
_cell_length_a   5.14431691
_cell_length_b   5.14431681
_cell_length_c   9.85505943
_cell_angle_alpha   84.89024170
_cell_angle_beta   95.10976290
_cell_angle_gamma   59.45210234
_symmetry_Int_Tables_number   1
_chemical_formula_structural   Li5Cr2Co5O12
_chemical_formula_sum   'Li5 Cr2 Co5 O12'
_cell_volume   220.95294432
_cell_formula_units_Z   1
loop_
 _symmetry_equiv_pos_site_id
 _symmetry_equiv_pos_as_xyz
  1  'x, y, z'
loop_
 _atom_site_type_symbol
 _atom_site_label
 _atom_site_symmetry_multiplicity
 _atom_site_fract_x
 _atom_site_fract_y
 _atom_site_fract_z
 _atom_site_occupancy
  Li  Li0  1  0.171226  0.670843  0.504844  1
  Li  Li1  1  0.324597  0.825412  0.991329  1
  Li  Li2  1  0.670843  0.171226  0.995156  1
  Li  Li3  1  0.825412  0.324597  0.508671  1
  Li  Li4  1  0.913489  0.913489  0.750000  1
  Cr  Cr5  1  0.247011  0.247011  0.750000  1
  Cr  Cr6  1  0.755215  0.755215  0.250000  1
  Co  Co7  1  0.085682  0.085682  0.250000  1
  Co  Co8  1  0.996235  0.508519  0.993779  1
  Co  Co9  1  0.508519  0.996235  0.506221  1
  Co  Co10  1  0.422196  0.422196  0.250000  1
  Co  Co11  1  0.577631  0.577631  0.750000  1
  O  O12  1  0.952099  0.232668  0.869201  1
  O  O13  1  0.232668  0.952099  0.630799  1
  O  O14  1  0.135331  0.386573  0.365100  1
  O  O15  1  0.386573  0.135331  0.134900  1
  O  O16  1  0.295659  0.526391  0.866263  1
  O  O17  1  0.526391  0.295659  0.633737  1
  O  O18  1  0.472274  0.709650  0.365370  1
  O  O19  1  0.709650  0.472274  0.134630  1
  O  O20  1  0.603045  0.867479  0.865500  1
  O  O21  1  0.867479  0.603045  0.634500  1
  O  O22  1  0.780887  0.039890  0.370849  1
  O  O23  1  0.039890  0.780887  0.129151  1
