# generated using pymatgen
data_Cs2H4RuNCl5O3
_symmetry_space_group_name_H-M   'P 1'
_cell_length_a   11.94429154
_cell_length_b   7.07213960
_cell_length_c   16.43605584
_cell_angle_alpha   90.00000000
_cell_angle_beta   103.48518038
_cell_angle_gamma   90.00000000
_symmetry_Int_Tables_number   1
_chemical_formula_structural   Cs2H4RuNCl5O3
_chemical_formula_sum   'Cs8 H16 Ru4 N4 Cl20 O12'
_cell_volume   1350.10422563
_cell_formula_units_Z   4
loop_
 _symmetry_equiv_pos_site_id
 _symmetry_equiv_pos_as_xyz
  1  'x, y, z'
loop_
 _atom_site_type_symbol
 _atom_site_label
 _atom_site_symmetry_multiplicity
 _atom_site_fract_x
 _atom_site_fract_y
 _atom_site_fract_z
 _atom_site_occupancy
  Cs  Cs0  1  0.448669  0.038265  0.661341  1
  Cs  Cs1  1  0.551331  0.538265  0.838659  1
  Cs  Cs2  1  0.551331  0.961735  0.338659  1
  Cs  Cs3  1  0.448669  0.461735  0.161341  1
  Cs  Cs4  1  0.842113  0.158260  0.924217  1
  Cs  Cs5  1  0.157887  0.658260  0.575783  1
  Cs  Cs6  1  0.157887  0.841740  0.075783  1
  Cs  Cs7  1  0.842113  0.341740  0.424217  1
  H  H8  1  0.414273  0.136424  0.922022  1
  H  H9  1  0.585727  0.636424  0.577978  1
  H  H10  1  0.585727  0.863576  0.077978  1
  H  H11  1  0.414273  0.363576  0.422022  1
  H  H12  1  0.369637  0.114676  0.007435  1
  H  H13  1  0.630363  0.614676  0.492565  1
  H  H14  1  0.630363  0.885324  0.992565  1
  H  H15  1  0.369637  0.385324  0.507435  1
  H  H16  1  0.728184  0.247368  0.701271  1
  H  H17  1  0.271816  0.747368  0.798729  1
  H  H18  1  0.271816  0.752632  0.298729  1
  H  H19  1  0.728184  0.252632  0.201271  1
  H  H20  1  0.778978  0.439397  0.728406  1
  H  H21  1  0.221022  0.939397  0.771594  1
  H  H22  1  0.221022  0.560603  0.271594  1
  H  H23  1  0.778978  0.060603  0.228406  1
  Ru  Ru24  1  0.204462  0.340219  0.900409  1
  Ru  Ru25  1  0.795538  0.840219  0.599591  1
  Ru  Ru26  1  0.795538  0.659781  0.099591  1
  Ru  Ru27  1  0.204462  0.159781  0.400409  1
  N  N28  1  0.913986  0.980144  0.640595  1
  N  N29  1  0.086014  0.480144  0.859405  1
  N  N30  1  0.086014  0.019856  0.359405  1
  N  N31  1  0.913986  0.519856  0.140595  1
  Cl  Cl32  1  0.164203  0.168736  0.537078  1
  Cl  Cl33  1  0.835797  0.668736  0.962922  1
  Cl  Cl34  1  0.835797  0.831264  0.462922  1
  Cl  Cl35  1  0.164203  0.331264  0.037078  1
  Cl  Cl36  1  0.264474  0.326530  0.771824  1
  Cl  Cl37  1  0.735526  0.826530  0.728176  1
  Cl  Cl38  1  0.735526  0.673470  0.228176  1
  Cl  Cl39  1  0.264474  0.173470  0.271824  1
  Cl  Cl40  1  0.674819  0.112261  0.557452  1
  Cl  Cl41  1  0.325181  0.612261  0.942548  1
  Cl  Cl42  1  0.325181  0.887739  0.442548  1
  Cl  Cl43  1  0.674819  0.387739  0.057452  1
  Cl  Cl44  1  0.899013  0.547242  0.632386  1
  Cl  Cl45  1  0.100987  0.047242  0.867614  1
  Cl  Cl46  1  0.100987  0.452758  0.367614  1
  Cl  Cl47  1  0.899013  0.952758  0.132386  1
  Cl  Cl48  1  0.447003  0.530633  0.618359  1
  Cl  Cl49  1  0.552997  0.030633  0.881641  1
  Cl  Cl50  1  0.552997  0.469367  0.381641  1
  Cl  Cl51  1  0.447003  0.969367  0.118359  1
  O  O52  1  0.352492  0.176549  0.951207  1
  O  O53  1  0.647508  0.676549  0.548793  1
  O  O54  1  0.647508  0.823451  0.048793  1
  O  O55  1  0.352492  0.323451  0.451207  1
  O  O56  1  0.992635  0.077560  0.667214  1
  O  O57  1  0.007365  0.577560  0.832786  1
  O  O58  1  0.007365  0.922440  0.332786  1
  O  O59  1  0.992635  0.422440  0.167214  1
  O  O60  1  0.740707  0.333482  0.749178  1
  O  O61  1  0.259293  0.833482  0.750822  1
  O  O62  1  0.259293  0.666518  0.250821  1
  O  O63  1  0.740707  0.166518  0.249178  1
