# generated using pymatgen
data_Li4CoNi5O12
_symmetry_space_group_name_H-M   'P 1'
_cell_length_a   4.98136162
_cell_length_b   4.91539606
_cell_length_c   9.96988036
_cell_angle_alpha   89.35220644
_cell_angle_beta   88.71514569
_cell_angle_gamma   59.57018605
_symmetry_Int_Tables_number   1
_chemical_formula_structural   Li4CoNi5O12
_chemical_formula_sum   'Li4 Co1 Ni5 O12'
_cell_volume   210.43629541
_cell_formula_units_Z   1
loop_
 _symmetry_equiv_pos_site_id
 _symmetry_equiv_pos_as_xyz
  1  'x, y, z'
loop_
 _atom_site_type_symbol
 _atom_site_label
 _atom_site_symmetry_multiplicity
 _atom_site_fract_x
 _atom_site_fract_y
 _atom_site_fract_z
 _atom_site_occupancy
  Li  Li0  1  0.145646  0.520073  0.751469  1
  Li  Li1  1  0.339862  0.510555  0.248375  1
  Li  Li2  1  0.662932  0.480415  0.752511  1
  Li  Li3  1  0.850426  0.494660  0.249186  1
  Co  Co4  1  -0.000059  0.001322  0.999044  1
  Ni  Ni5  1  0.168778  0.666936  0.500911  1
  Ni  Ni6  1  0.661384  0.678240  0.998752  1
  Ni  Ni7  1  0.332550  0.336099  0.998793  1
  Ni  Ni8  1  0.838835  0.327223  0.501066  1
  Ni  Ni9  1  0.500234  0.003795  0.501344  1
  O  O10  1  0.022070  0.661016  0.105958  1
  O  O11  1  0.317925  0.661688  0.892122  1
  O  O12  1  0.176437  0.358213  0.390955  1
  O  O13  1  0.505113  0.650640  0.397506  1
  O  O14  1  0.469202  0.357492  0.610726  1
  O  O15  1  0.170924  0.996411  0.598093  1
  O  O16  1  0.848498  0.650647  0.604317  1
  O  O17  1  0.654734  0.341641  0.099518  1
  O  O18  1  0.323086  0.008403  0.096552  1
  O  O19  1  0.004359  0.341684  0.898350  1
  O  O20  1  0.670312  0.008749  0.900847  1
  O  O21  1  0.836844  0.996568  0.404448  1
