# generated using pymatgen
data_SmHIClO13
_symmetry_space_group_name_H-M   'P 1'
_cell_length_a   10.99715884
_cell_length_b   7.26620020
_cell_length_c   13.19668619
_cell_angle_alpha   90.00000000
_cell_angle_beta   95.18419403
_cell_angle_gamma   90.00000000
_symmetry_Int_Tables_number   1
_chemical_formula_structural   SmHIClO13
_chemical_formula_sum   'Sm4 H4 I4 Cl4 O52'
_cell_volume   1050.20132616
_cell_formula_units_Z   4
loop_
 _symmetry_equiv_pos_site_id
 _symmetry_equiv_pos_as_xyz
  1  'x, y, z'
loop_
 _atom_site_type_symbol
 _atom_site_label
 _atom_site_symmetry_multiplicity
 _atom_site_fract_x
 _atom_site_fract_y
 _atom_site_fract_z
 _atom_site_occupancy
  Sm  Sm0  1  0.022148  0.859526  0.819052  1
  Sm  Sm1  1  0.022148  0.640474  0.319052  1
  Sm  Sm2  1  0.977852  0.359526  0.680948  1
  Sm  Sm3  1  0.977852  0.140474  0.180948  1
  H  H4  1  0.289776  0.307164  0.989110  1
  H  H5  1  0.289776  0.192836  0.489110  1
  H  H6  1  0.710224  0.807164  0.510890  1
  H  H7  1  0.710224  0.692836  0.010890  1
  I  I8  1  0.074645  0.366111  0.939597  1
  I  I9  1  0.074645  0.133889  0.439597  1
  I  I10  1  0.925355  0.866111  0.560403  1
  I  I11  1  0.925355  0.633889  0.060403  1
  Cl  Cl12  1  0.447384  0.732124  0.616054  1
  Cl  Cl13  1  0.552616  0.232124  0.883946  1
  Cl  Cl14  1  0.447384  0.767876  0.116054  1
  Cl  Cl15  1  0.552616  0.267876  0.383946  1
  O  O16  1  0.027989  0.190354  0.838349  1
  O  O17  1  0.060686  0.533157  0.828777  1
  O  O18  1  0.027989  0.309646  0.338349  1
  O  O19  1  0.082811  0.307044  0.542339  1
  O  O20  1  0.224036  0.885995  0.914165  1
  O  O21  1  0.060686  0.966843  0.328777  1
  O  O22  1  0.097441  0.922703  0.536786  1
  O  O23  1  0.245111  0.363940  0.928259  1
  O  O24  1  0.239186  0.908866  0.818574  1
  O  O25  1  0.294020  0.260465  0.694865  1
  O  O26  1  0.082811  0.192956  0.042339  1
  O  O27  1  0.224036  0.614005  0.414165  1
  O  O28  1  0.097441  0.577297  0.036786  1
  O  O29  1  0.245111  0.136060  0.428259  1
  O  O30  1  0.239186  0.591134  0.318574  1
  O  O31  1  0.294020  0.239535  0.194865  1
  O  O32  1  0.342328  0.676903  0.667637  1
  O  O33  1  0.463988  0.086024  0.883724  1
  O  O34  1  0.365952  0.224385  0.631960  1
  O  O35  1  0.496613  0.398745  0.838242  1
  O  O36  1  0.405528  0.786507  0.509804  1
  O  O37  1  0.342328  0.823097  0.167637  1
  O  O38  1  0.594472  0.286507  0.990196  1
  O  O39  1  0.503387  0.898745  0.661758  1
  O  O40  1  0.463988  0.413976  0.383724  1
  O  O41  1  0.365952  0.275615  0.131960  1
  O  O42  1  0.634048  0.724385  0.868040  1
  O  O43  1  0.536012  0.586024  0.616276  1
  O  O44  1  0.496613  0.101255  0.338242  1
  O  O45  1  0.405528  0.713493  0.009805  1
  O  O46  1  0.657672  0.176903  0.832363  1
  O  O47  1  0.594472  0.213493  0.490196  1
  O  O48  1  0.503387  0.601255  0.161758  1
  O  O49  1  0.634048  0.775615  0.368040  1
  O  O50  1  0.536012  0.913976  0.116276  1
  O  O51  1  0.657672  0.323097  0.332363  1
  O  O52  1  0.705980  0.760465  0.805135  1
  O  O53  1  0.760814  0.408866  0.681426  1
  O  O54  1  0.754889  0.863940  0.571741  1
  O  O55  1  0.902559  0.422703  0.963214  1
  O  O56  1  0.775964  0.385995  0.585835  1
  O  O57  1  0.917189  0.807044  0.957661  1
  O  O58  1  0.705980  0.739535  0.305135  1
  O  O59  1  0.760814  0.091134  0.181426  1
  O  O60  1  0.754889  0.636060  0.071741  1
  O  O61  1  0.902559  0.077297  0.463214  1
  O  O62  1  0.939314  0.033157  0.671223  1
  O  O63  1  0.775964  0.114005  0.085835  1
  O  O64  1  0.917189  0.692956  0.457661  1
  O  O65  1  0.972011  0.690354  0.661651  1
  O  O66  1  0.939314  0.466843  0.171223  1
  O  O67  1  0.972011  0.809646  0.161651  1
