# generated using pymatgen
data_LiMnF4
_symmetry_space_group_name_H-M   'P 1'
_cell_length_a   5.29789092
_cell_length_b   8.82994450
_cell_length_c   6.97704178
_cell_angle_alpha   90.00000000
_cell_angle_beta   90.00000000
_cell_angle_gamma   90.00000000
_symmetry_Int_Tables_number   1
_chemical_formula_structural   LiMnF4
_chemical_formula_sum   'Li4 Mn4 F16'
_cell_volume   326.38659210
_cell_formula_units_Z   4
loop_
 _symmetry_equiv_pos_site_id
 _symmetry_equiv_pos_as_xyz
  1  'x, y, z'
loop_
 _atom_site_type_symbol
 _atom_site_label
 _atom_site_symmetry_multiplicity
 _atom_site_fract_x
 _atom_site_fract_y
 _atom_site_fract_z
 _atom_site_occupancy
  Li  Li0  1  0.185902  0.250000  0.750000  1
  Li  Li1  1  0.314098  0.750000  0.750000  1
  Li  Li2  1  0.685902  0.250000  0.250000  1
  Li  Li3  1  0.814098  0.750000  0.250000  1
  Mn  Mn4  1  0.250000  0.000000  0.130197  1
  Mn  Mn5  1  0.250000  0.500000  0.369803  1
  Mn  Mn6  1  0.750000  0.000000  0.869803  1
  Mn  Mn7  1  0.750000  0.500000  0.630197  1
  F  F8  1  0.066724  0.898846  0.312402  1
  F  F9  1  0.066724  0.601154  0.187598  1
  F  F10  1  0.103391  0.871417  0.932657  1
  F  F11  1  0.103391  0.628583  0.567343  1
  F  F12  1  0.396609  0.128583  0.932657  1
  F  F13  1  0.396609  0.371417  0.567343  1
  F  F14  1  0.433276  0.398846  0.187598  1
  F  F15  1  0.433276  0.101154  0.312402  1
  F  F16  1  0.566724  0.601154  0.812402  1
  F  F17  1  0.566724  0.898846  0.687598  1
  F  F18  1  0.603391  0.871417  0.067343  1
  F  F19  1  0.603391  0.628583  0.432657  1
  F  F20  1  0.896609  0.128583  0.067343  1
  F  F21  1  0.896609  0.371417  0.432657  1
  F  F22  1  0.933276  0.398846  0.812402  1
  F  F23  1  0.933276  0.101154  0.687598  1
