# generated using pymatgen
data_Li2TiNi3O8
_symmetry_space_group_name_H-M   'P 1'
_cell_length_a   7.98478583
_cell_length_b   8.16497206
_cell_length_c   8.42009193
_cell_angle_alpha   90.01344584
_cell_angle_beta   89.99027855
_cell_angle_gamma   89.99803093
_symmetry_Int_Tables_number   1
_chemical_formula_structural   Li2TiNi3O8
_chemical_formula_sum   'Li8 Ti4 Ni12 O32'
_cell_volume   548.95252865
_cell_formula_units_Z   4
loop_
 _symmetry_equiv_pos_site_id
 _symmetry_equiv_pos_as_xyz
  1  'x, y, z'
loop_
 _atom_site_type_symbol
 _atom_site_label
 _atom_site_symmetry_multiplicity
 _atom_site_fract_x
 _atom_site_fract_y
 _atom_site_fract_z
 _atom_site_occupancy
  Li  Li0  1  0.993748  0.994573  0.004286  1
  Li  Li1  1  0.257839  0.257125  0.250182  1
  Li  Li2  1  0.242034  0.743004  0.750315  1
  Li  Li3  1  0.506134  0.005301  0.504184  1
  Li  Li4  1  0.493754  0.505523  0.995684  1
  Li  Li5  1  0.757844  0.242933  0.749805  1
  Li  Li6  1  0.742021  0.757011  0.249692  1
  Li  Li7  1  0.006173  0.494515  0.495778  1
  Ti  Ti8  1  0.135505  0.884167  0.375190  1
  Ti  Ti9  1  0.364256  0.115670  0.875379  1
  Ti  Ti10  1  0.635636  0.615855  0.624680  1
  Ti  Ti11  1  0.864100  0.384414  0.124637  1
  Ni  Ni12  1  0.124775  0.128918  0.621180  1
  Ni  Ni13  1  0.124419  0.378034  0.875677  1
  Ni  Ni14  1  0.126534  0.624390  0.127694  1
  Ni  Ni15  1  0.373503  0.375664  0.627811  1
  Ni  Ni16  1  0.375610  0.621978  0.375664  1
  Ni  Ni17  1  0.375308  0.870971  0.121176  1
  Ni  Ni18  1  0.624669  0.371123  0.378786  1
  Ni  Ni19  1  0.624399  0.121908  0.124413  1
  Ni  Ni20  1  0.626588  0.875546  0.872361  1
  Ni  Ni21  1  0.873446  0.124371  0.372185  1
  Ni  Ni22  1  0.875677  0.878083  0.624359  1
  Ni  Ni23  1  0.875358  0.628948  0.878817  1
  O  O24  1  0.108951  0.114857  0.369410  1
  O  O25  1  0.110385  0.889524  0.610557  1
  O  O26  1  0.110428  0.619477  0.903651  1
  O  O27  1  0.132025  0.133924  0.872523  1
  O  O28  1  0.118859  0.395502  0.117483  1
  O  O29  1  0.139732  0.359651  0.635169  1
  O  O30  1  0.141108  0.632428  0.353627  1
  O  O31  1  0.137802  0.856515  0.137155  1
  O  O32  1  0.362309  0.143551  0.637175  1
  O  O33  1  0.358902  0.367523  0.853613  1
  O  O34  1  0.360219  0.640297  0.134940  1
  O  O35  1  0.381218  0.604564  0.617877  1
  O  O36  1  0.367994  0.865727  0.372460  1
  O  O37  1  0.389524  0.380843  0.403616  1
  O  O38  1  0.389771  0.110445  0.110659  1
  O  O39  1  0.391132  0.885145  0.869347  1
  O  O40  1  0.608986  0.385172  0.630506  1
  O  O41  1  0.610331  0.610573  0.389437  1
  O  O42  1  0.610357  0.880324  0.096370  1
  O  O43  1  0.631918  0.366290  0.127560  1
  O  O44  1  0.619013  0.104486  0.882753  1
  O  O45  1  0.639629  0.140318  0.364733  1
  O  O46  1  0.641231  0.867606  0.646443  1
  O  O47  1  0.637861  0.643466  0.862792  1
  O  O48  1  0.862153  0.356462  0.362822  1
  O  O49  1  0.858836  0.132520  0.146363  1
  O  O50  1  0.860302  0.859611  0.865089  1
  O  O51  1  0.881173  0.895459  0.382193  1
  O  O52  1  0.868106  0.634204  0.627517  1
  O  O53  1  0.889576  0.119253  0.596370  1
  O  O54  1  0.889775  0.389483  0.889371  1
  O  O55  1  0.891064  0.614916  0.130629  1
