# generated using pymatgen
data_Fe2O3F
_symmetry_space_group_name_H-M   'P 1'
_cell_length_a   3.01180647
_cell_length_b   4.74961601
_cell_length_c   9.90007761
_cell_angle_alpha   90.15982895
_cell_angle_beta   90.00028960
_cell_angle_gamma   89.99708765
_symmetry_Int_Tables_number   1
_chemical_formula_structural   Fe2O3F
_chemical_formula_sum   'Fe4 O6 F2'
_cell_volume   141.61930883
_cell_formula_units_Z   2
loop_
 _symmetry_equiv_pos_site_id
 _symmetry_equiv_pos_as_xyz
  1  'x, y, z'
loop_
 _atom_site_type_symbol
 _atom_site_label
 _atom_site_symmetry_multiplicity
 _atom_site_fract_x
 _atom_site_fract_y
 _atom_site_fract_z
 _atom_site_occupancy
  Fe  Fe0  1  0.250564  0.475353  0.856619  1
  Fe  Fe1  1  0.250563  0.025259  0.356067  1
  Fe  Fe2  1  0.750485  0.971495  0.642584  1
  Fe  Fe3  1  0.750589  0.526269  0.140996  1
  O  O4  1  0.250510  0.185177  0.715238  1
  O  O5  1  0.250507  0.827191  0.537197  1
  O  O6  1  0.250573  0.313392  0.213482  1
  O  O7  1  0.250605  0.673989  0.036452  1
  O  O8  1  0.750579  0.677413  0.781827  1
  O  O9  1  0.750564  0.822512  0.280560  1
  F  F10  1  0.750635  0.251212  0.954621  1
  F  F11  1  0.750532  0.250737  0.453233  1
