# generated using pymatgen
data_LiMo2P3O13
_symmetry_space_group_name_H-M   'P 1'
_cell_length_a   6.48859181
_cell_length_b   18.77440470
_cell_length_c   9.64801370
_cell_angle_alpha   90.00000000
_cell_angle_beta   107.44675242
_cell_angle_gamma   90.00000000
_symmetry_Int_Tables_number   1
_chemical_formula_structural   LiMo2P3O13
_chemical_formula_sum   'Li4 Mo8 P12 O52'
_cell_volume   1121.24648252
_cell_formula_units_Z   4
loop_
 _symmetry_equiv_pos_site_id
 _symmetry_equiv_pos_as_xyz
  1  'x, y, z'
loop_
 _atom_site_type_symbol
 _atom_site_label
 _atom_site_symmetry_multiplicity
 _atom_site_fract_x
 _atom_site_fract_y
 _atom_site_fract_z
 _atom_site_occupancy
  Li  Li0  1  0.237960  0.155542  0.031910  1
  Li  Li1  1  0.815070  0.439089  0.381954  1
  Li  Li2  1  0.184930  0.939089  0.618046  1
  Li  Li3  1  0.762040  0.655542  0.968090  1
  Mo  Mo4  1  0.868823  0.996831  0.924920  1
  Mo  Mo5  1  0.370521  0.820332  0.939246  1
  Mo  Mo6  1  0.439145  0.530931  0.619369  1
  Mo  Mo7  1  0.629479  0.320332  0.060754  1
  Mo  Mo8  1  0.131177  0.496831  0.075080  1
  Mo  Mo9  1  0.066640  0.788534  0.394376  1
  Mo  Mo10  1  0.560855  0.030931  0.380631  1
  Mo  Mo11  1  0.933360  0.288534  0.605624  1
  P  P12  1  0.476846  0.253325  0.693796  1
  P  P13  1  0.255258  0.627231  0.308524  1
  P  P14  1  0.753490  0.191828  0.298205  1
  P  P15  1  0.908217  0.829555  0.031024  1
  P  P16  1  0.977822  0.565105  0.700939  1
  P  P17  1  0.408136  0.989457  0.022818  1
  P  P18  1  0.591864  0.489457  0.977182  1
  P  P19  1  0.246510  0.691828  0.701795  1
  P  P20  1  0.523154  0.753325  0.306204  1
  P  P21  1  0.091783  0.329555  0.968976  1
  P  P22  1  0.744742  0.127231  0.691476  1
  P  P23  1  0.022178  0.065105  0.299061  1
  O  O24  1  0.853074  0.102587  0.849800  1
  O  O25  1  0.175006  0.757450  0.607273  1
  O  O26  1  0.436547  0.509583  0.064617  1
  O  O27  1  0.760687  0.761440  0.395233  1
  O  O28  1  0.400181  0.643356  0.655330  1
  O  O29  1  0.317530  0.304394  0.064545  1
  O  O30  1  0.379437  0.791599  0.382103  1
  O  O31  1  0.446907  0.440884  0.596721  1
  O  O32  1  0.704480  0.374578  0.213713  1
  O  O33  1  0.682470  0.804394  0.935455  1
  O  O34  1  0.599819  0.143356  0.344670  1
  O  O35  1  0.651096  0.215911  0.138998  1
  O  O36  1  0.119590  0.525865  0.624011  1
  O  O37  1  0.549488  0.539034  0.843124  1
  O  O38  1  0.563453  0.009583  0.935383  1
  O  O39  1  0.620563  0.291599  0.617897  1
  O  O40  1  0.475284  0.668506  0.311830  1
  O  O41  1  0.983790  0.049501  0.138680  1
  O  O42  1  0.198210  0.445421  0.228361  1
  O  O43  1  0.016210  0.549501  0.861320  1
  O  O44  1  0.239313  0.261440  0.604767  1
  O  O45  1  0.348904  0.715911  0.861002  1
  O  O46  1  0.880410  0.025865  0.375989  1
  O  O47  1  0.524716  0.168506  0.688170  1
  O  O48  1  0.522896  0.271043  0.854411  1
  O  O49  1  0.450512  0.039034  0.156876  1
  O  O50  1  0.672576  0.061664  0.595514  1
  O  O51  1  0.935259  0.304126  0.051793  1
  O  O52  1  0.974571  0.149743  0.306843  1
  O  O53  1  0.575324  0.410658  0.929424  1
  O  O54  1  0.920917  0.910052  0.062293  1
  O  O55  1  0.106277  0.677134  0.357405  1
  O  O56  1  0.893723  0.177134  0.642595  1
  O  O57  1  0.477104  0.771043  0.145589  1
  O  O58  1  0.956539  0.788838  0.175847  1
  O  O59  1  0.182217  0.009760  0.920274  1
  O  O60  1  0.064741  0.804126  0.948207  1
  O  O61  1  0.327424  0.561664  0.404486  1
  O  O62  1  0.257507  0.055520  0.393606  1
  O  O63  1  0.553093  0.940884  0.403279  1
  O  O64  1  0.801790  0.945421  0.771639  1
  O  O65  1  0.077916  0.877026  0.447967  1
  O  O66  1  0.424676  0.910658  0.070576  1
  O  O67  1  0.043461  0.288838  0.824153  1
  O  O68  1  0.025429  0.649743  0.693157  1
  O  O69  1  0.079083  0.410052  0.937707  1
  O  O70  1  0.824994  0.257450  0.392727  1
  O  O71  1  0.146926  0.602588  0.150200  1
  O  O72  1  0.817783  0.509760  0.079726  1
  O  O73  1  0.295520  0.874578  0.786287  1
  O  O74  1  0.922084  0.377026  0.552033  1
  O  O75  1  0.742493  0.555520  0.606394  1
