# generated using pymatgen
data_LiCoF3
_symmetry_space_group_name_H-M   'P 1'
_cell_length_a   5.14309481
_cell_length_b   5.12429942
_cell_length_c   7.54737850
_cell_angle_alpha   89.66693439
_cell_angle_beta   89.86276657
_cell_angle_gamma   119.75830971
_symmetry_Int_Tables_number   1
_chemical_formula_structural   LiCoF3
_chemical_formula_sum   'Li3 Co3 F9'
_cell_volume   172.67241758
_cell_formula_units_Z   3
loop_
 _symmetry_equiv_pos_site_id
 _symmetry_equiv_pos_as_xyz
  1  'x, y, z'
loop_
 _atom_site_type_symbol
 _atom_site_label
 _atom_site_symmetry_multiplicity
 _atom_site_fract_x
 _atom_site_fract_y
 _atom_site_fract_z
 _atom_site_occupancy
  Li  Li0  1  0.002940  0.004549  0.345194  1
  Li  Li1  1  0.336252  0.671378  0.263815  1
  Li  Li2  1  0.996121  0.992738  0.658830  1
  Co  Co3  1  0.330791  0.666227  0.675864  1
  Co  Co4  1  0.667947  0.336547  0.345302  1
  Co  Co5  1  0.000246  0.004425  0.995764  1
  F  F6  1  0.034093  0.717623  0.818930  1
  F  F7  1  0.277871  0.308787  0.814783  1
  F  F8  1  0.682439  0.954037  0.816520  1
  F  F9  1  0.319842  0.304772  0.191605  1
  F  F10  1  0.660995  0.679085  0.487690  1
  F  F11  1  0.323208  0.983140  0.487783  1
  F  F12  1  0.986216  0.689010  0.190995  1
  F  F13  1  0.702856  0.021091  0.190677  1
  F  F14  1  0.015684  0.339453  0.488649  1
