# generated using pymatgen
data_Ni17(AsO4)12
_symmetry_space_group_name_H-M   'P 1'
_cell_length_a   9.74442662
_cell_length_b   10.47168497
_cell_length_c   9.74996469
_cell_angle_alpha   89.78309487
_cell_angle_beta   90.46619096
_cell_angle_gamma   117.72802151
_symmetry_Int_Tables_number   1
_chemical_formula_structural   Ni17(AsO4)12
_chemical_formula_sum   'Ni17 As12 O48'
_cell_volume   880.61552405
_cell_formula_units_Z   1
loop_
 _symmetry_equiv_pos_site_id
 _symmetry_equiv_pos_as_xyz
  1  'x, y, z'
loop_
 _atom_site_type_symbol
 _atom_site_label
 _atom_site_symmetry_multiplicity
 _atom_site_fract_x
 _atom_site_fract_y
 _atom_site_fract_z
 _atom_site_occupancy
  Ni  Ni0  1  0.771968  0.545869  0.000939  1
  Ni  Ni1  1  0.623355  0.751514  0.002875  1
  Ni  Ni2  1  0.627747  0.250196  0.247371  1
  Ni  Ni3  1  0.773391  0.046780  0.750000  1
  Ni  Ni4  1  0.272829  0.045658  0.250000  1
  Ni  Ni5  1  0.727771  0.955543  0.250000  1
  Ni  Ni6  1  0.222844  0.451757  0.001329  1
  Ni  Ni7  1  0.728912  0.451757  0.498671  1
  Ni  Ni8  1  0.623979  0.249124  0.751750  1
  Ni  Ni9  1  0.122448  0.250196  0.252629  1
  Ni  Ni10  1  0.628159  0.751514  0.497125  1
  Ni  Ni11  1  0.511840  0.523679  0.750000  1
  Ni  Ni12  1  0.273901  0.545869  0.499061  1
  Ni  Ni13  1  0.124004  0.749670  0.496107  1
  Ni  Ni14  1  0.125145  0.249124  0.748250  1
  Ni  Ni15  1  0.226917  0.953834  0.750000  1
  Ni  Ni16  1  0.125666  0.749670  0.003893  1
  As  As17  1  0.825645  0.249241  0.047202  1
  As  As18  1  0.923596  0.249241  0.452798  1
  As  As19  1  0.921905  0.750679  0.297682  1
  As  As20  1  0.498594  0.497188  0.250000  1
  As  As21  1  0.000013  0.000763  0.001112  1
  As  As22  1  0.500750  0.000763  0.498888  1
  As  As23  1  0.830379  0.753683  0.701195  1
  As  As24  1  0.328774  0.750679  0.202318  1
  As  As25  1  0.329247  0.247563  0.549361  1
  As  As26  1  0.418316  0.247563  0.950639  1
  As  As27  1  0.423304  0.753683  0.798805  1
  As  As28  1  0.001452  0.502904  0.750000  1
  O  O29  1  0.918303  0.115676  0.343547  1
  O  O30  1  0.780714  0.382482  0.105113  1
  O  O31  1  0.697374  0.115676  0.156453  1
  O  O32  1  0.937352  0.705381  0.131380  1
  O  O33  1  0.821813  0.912406  0.077764  1
  O  O34  1  0.939765  0.207393  0.620385  1
  O  O35  1  0.441154  0.211157  0.117595  1
  O  O36  1  0.778796  0.293474  0.414075  1
  O  O37  1  0.617832  0.585563  0.114378  1
  O  O38  1  0.914907  0.617675  0.409635  1
  O  O39  1  0.967099  0.086905  0.864152  1
  O  O40  1  0.592412  0.410025  0.326331  1
  O  O41  1  0.466966  0.091378  0.365468  1
  O  O42  1  0.776294  0.793637  0.335044  1
  O  O43  1  0.517343  0.793637  0.164956  1
  O  O44  1  0.619806  0.086905  0.635848  1
  O  O45  1  0.821098  0.413903  0.674569  1
  O  O46  1  0.124412  0.091378  0.134532  1
  O  O47  1  0.317613  0.410025  0.173669  1
  O  O48  1  0.202768  0.617675  0.090365  1
  O  O49  1  0.689159  0.605808  0.604502  1
  O  O50  1  0.467732  0.585563  0.385622  1
  O  O51  1  0.967183  0.589764  0.886416  1
  O  O52  1  0.767628  0.207393  0.879615  1
  O  O53  1  0.014677  0.293474  0.085925  1
  O  O54  1  0.519628  0.295509  0.588182  1
  O  O55  1  0.270002  0.211157  0.382405  1
  O  O56  1  0.590592  0.912406  0.422236  1
  O  O57  1  0.788658  0.885553  0.639370  1
  O  O58  1  0.286465  0.885040  0.140507  1
  O  O59  1  0.745697  0.691485  0.861348  1
  O  O60  1  0.268030  0.705381  0.368620  1
  O  O61  1  0.583554  0.395865  0.878218  1
  O  O62  1  0.416583  0.114245  0.846013  1
  O  O63  1  0.101768  0.382482  0.394887  1
  O  O64  1  0.312310  0.395865  0.621782  1
  O  O65  1  0.197663  0.114245  0.653987  1
  O  O66  1  0.445788  0.691485  0.638652  1
  O  O67  1  0.098573  0.885040  0.359493  1
  O  O68  1  0.596896  0.885553  0.860630  1
  O  O69  1  0.322205  0.907136  0.577265  1
  O  O70  1  0.275881  0.295509  0.911818  1
  O  O71  1  0.122582  0.589764  0.613584  1
  O  O72  1  0.416649  0.605808  0.895498  1
  O  O73  1  0.092805  0.413903  0.825431  1
  O  O74  1  0.274422  0.789689  0.835009  1
  O  O75  1  0.015268  0.789689  0.664991  1
  O  O76  1  0.084931  0.907136  0.922735  1
