# generated using pymatgen
data_Fe6O7F5
_symmetry_space_group_name_H-M   'P 1'
_cell_length_a   4.69450738
_cell_length_b   7.74748068
_cell_length_c   5.63354235
_cell_angle_alpha   94.13525966
_cell_angle_beta   88.87379283
_cell_angle_gamma   90.43484450
_symmetry_Int_Tables_number   1
_chemical_formula_structural   Fe6O7F5
_chemical_formula_sum   'Fe6 O7 F5'
_cell_volume   204.31852842
_cell_formula_units_Z   1
loop_
 _symmetry_equiv_pos_site_id
 _symmetry_equiv_pos_as_xyz
  1  'x, y, z'
loop_
 _atom_site_type_symbol
 _atom_site_label
 _atom_site_symmetry_multiplicity
 _atom_site_fract_x
 _atom_site_fract_y
 _atom_site_fract_z
 _atom_site_occupancy
  Fe  Fe0  1  0.523509  0.664601  0.159998  1
  Fe  Fe1  1  0.460603  0.014451  0.479286  1
  Fe  Fe2  1  0.526072  0.336740  0.823715  1
  Fe  Fe3  1  0.993819  0.676045  0.673766  1
  Fe  Fe4  1  0.966234  0.322887  0.349396  1
  Fe  Fe5  1  0.015643  0.982909  0.013854  1
  O  O6  1  0.807527  0.447573  0.631108  1
  O  O7  1  0.805481  0.765367  0.962266  1
  O  O8  1  0.803539  0.093202  0.295749  1
  O  O9  1  0.691596  0.436233  0.129325  1
  O  O10  1  0.305470  0.240722  0.540150  1
  O  O11  1  0.312049  0.885995  0.201393  1
  O  O12  1  0.192843  0.899381  0.700448  1
  F  F13  1  0.702436  0.100846  0.796168  1
  F  F14  1  0.692453  0.770100  0.466344  1
  F  F15  1  0.298625  0.563284  0.871000  1
  F  F16  1  0.202119  0.230988  0.037490  1
  F  F17  1  0.199983  0.568676  0.368546  1
