# generated using pymatgen
data_Li2AgF5
_symmetry_space_group_name_H-M   'P 1'
_cell_length_a   6.12254725
_cell_length_b   10.00859524
_cell_length_c   8.05305052
_cell_angle_alpha   90.00000000
_cell_angle_beta   109.02955310
_cell_angle_gamma   90.00000000
_symmetry_Int_Tables_number   1
_chemical_formula_structural   Li2AgF5
_chemical_formula_sum   'Li8 Ag4 F20'
_cell_volume   466.50742870
_cell_formula_units_Z   4
loop_
 _symmetry_equiv_pos_site_id
 _symmetry_equiv_pos_as_xyz
  1  'x, y, z'
loop_
 _atom_site_type_symbol
 _atom_site_label
 _atom_site_symmetry_multiplicity
 _atom_site_fract_x
 _atom_site_fract_y
 _atom_site_fract_z
 _atom_site_occupancy
  Li  Li0  1  0.102782  0.270383  0.537008  1
  Li  Li1  1  0.384307  0.678857  0.980947  1
  Li  Li2  1  0.102782  0.229617  0.037008  1
  Li  Li3  1  0.384307  0.821143  0.480947  1
  Li  Li4  1  0.615693  0.178857  0.519053  1
  Li  Li5  1  0.897218  0.770383  0.962992  1
  Li  Li6  1  0.615693  0.321143  0.019053  1
  Li  Li7  1  0.897218  0.729617  0.462992  1
  Ag  Ag8  1  0.337999  0.010674  0.773036  1
  Ag  Ag9  1  0.337999  0.489326  0.273036  1
  Ag  Ag10  1  0.662001  0.510674  0.726964  1
  Ag  Ag11  1  0.662001  0.989326  0.226964  1
  F  F12  1  0.118193  0.121318  0.846761  1
  F  F13  1  0.126401  0.849506  0.538363  1
  F  F14  1  0.319563  0.872370  0.944750  1
  F  F15  1  0.118193  0.378682  0.346761  1
  F  F16  1  0.422334  0.413388  0.793248  1
  F  F17  1  0.375627  0.161134  0.622155  1
  F  F18  1  0.126401  0.650494  0.038363  1
  F  F19  1  0.319563  0.627630  0.444750  1
  F  F20  1  0.624373  0.661134  0.877845  1
  F  F21  1  0.577666  0.913388  0.706752  1
  F  F22  1  0.422334  0.086612  0.293248  1
  F  F23  1  0.375627  0.338866  0.122155  1
  F  F24  1  0.680437  0.372370  0.555250  1
  F  F25  1  0.873599  0.349506  0.961637  1
  F  F26  1  0.624373  0.838866  0.377845  1
  F  F27  1  0.577666  0.586612  0.206752  1
  F  F28  1  0.881807  0.621318  0.653239  1
  F  F29  1  0.680437  0.127630  0.055250  1
  F  F30  1  0.873599  0.150494  0.461637  1
  F  F31  1  0.881807  0.878682  0.153239  1
