# generated using pymatgen
data_Fe4O7F
_symmetry_space_group_name_H-M   'P 1'
_cell_length_a   4.64560350
_cell_length_b   7.54737513
_cell_length_c   7.59231027
_cell_angle_alpha   75.75270737
_cell_angle_beta   91.58467769
_cell_angle_gamma   89.08634999
_symmetry_Int_Tables_number   1
_chemical_formula_structural   Fe4O7F
_chemical_formula_sum   'Fe8 O14 F2'
_cell_volume   257.84492565
_cell_formula_units_Z   2
loop_
 _symmetry_equiv_pos_site_id
 _symmetry_equiv_pos_as_xyz
  1  'x, y, z'
loop_
 _atom_site_type_symbol
 _atom_site_label
 _atom_site_symmetry_multiplicity
 _atom_site_fract_x
 _atom_site_fract_y
 _atom_site_fract_z
 _atom_site_occupancy
  Fe  Fe0  1  0.496635  0.123408  0.629171  1
  Fe  Fe1  1  0.524261  0.386711  0.865312  1
  Fe  Fe2  1  0.503365  0.876592  0.370829  1
  Fe  Fe3  1  0.475739  0.613289  0.134688  1
  Fe  Fe4  1  0.017684  0.754522  0.735934  1
  Fe  Fe5  1  0.000000  0.500000  0.500000  1
  Fe  Fe6  1  0.982316  0.245478  0.264066  1
  Fe  Fe7  1  0.000000  0.000000  0.000000  1
  O  O8  1  0.803473  0.284410  0.481549  1
  O  O9  1  0.819950  0.533233  0.712361  1
  O  O10  1  0.812191  0.030486  0.219076  1
  O  O11  1  0.693282  0.904775  0.595519  1
  O  O12  1  0.692701  0.153451  0.850582  1
  O  O13  1  0.690721  0.403015  0.096789  1
  O  O14  1  0.690790  0.654846  0.341024  1
  O  O15  1  0.309279  0.596985  0.903211  1
  O  O16  1  0.309210  0.345154  0.658977  1
  O  O17  1  0.307299  0.846549  0.149418  1
  O  O18  1  0.306718  0.095225  0.404481  1
  O  O19  1  0.196527  0.715590  0.518451  1
  O  O20  1  0.187809  0.969514  0.780924  1
  O  O21  1  0.180050  0.466767  0.287639  1
  F  F22  1  0.800303  0.771256  0.971309  1
  F  F23  1  0.199697  0.228744  0.028691  1
