# generated using pymatgen
data_Y2Bi2O7
_symmetry_space_group_name_H-M   'P 1'
_cell_length_a   7.73363701
_cell_length_b   7.73373538
_cell_length_c   7.73375012
_cell_angle_alpha   60.00542959
_cell_angle_beta   60.00493959
_cell_angle_gamma   60.00493440
_symmetry_Int_Tables_number   1
_chemical_formula_structural   Y2Bi2O7
_chemical_formula_sum   'Y4 Bi4 O14'
_cell_volume   327.11349001
_cell_formula_units_Z   2
loop_
 _symmetry_equiv_pos_site_id
 _symmetry_equiv_pos_as_xyz
  1  'x, y, z'
loop_
 _atom_site_type_symbol
 _atom_site_label
 _atom_site_symmetry_multiplicity
 _atom_site_fract_x
 _atom_site_fract_y
 _atom_site_fract_z
 _atom_site_occupancy
  Y  Y0  1  0.500000  -0.000000  0.500001  1
  Y  Y1  1  0.500000  0.500001  0.000001  1
  Y  Y2  1  1.000000  0.500002  0.500000  1
  Y  Y3  1  0.500001  0.500000  0.500000  1
  Bi  Bi4  1  0.000001  1.000000  0.000000  1
  Bi  Bi5  1  0.500001  0.999999  0.000001  1
  Bi  Bi6  1  -0.000000  0.000000  0.500000  1
  Bi  Bi7  1  0.000000  0.499999  0.000001  1
  O  O8  1  0.647030  0.102919  0.102922  1
  O  O9  1  0.897120  0.352863  0.352863  1
  O  O10  1  0.102907  0.102914  0.647030  1
  O  O11  1  0.647139  0.647118  0.102890  1
  O  O12  1  0.375006  0.375009  0.375008  1
  O  O13  1  0.647136  0.102890  0.647117  1
  O  O14  1  0.102909  0.647030  0.102912  1
  O  O15  1  0.352864  0.897111  0.352881  1
  O  O16  1  0.897091  0.897087  0.352969  1
  O  O17  1  0.352862  0.352882  0.897110  1
  O  O18  1  0.624997  0.624992  0.624989  1
  O  O19  1  0.897091  0.352968  0.897090  1
  O  O20  1  0.102879  0.647134  0.647136  1
  O  O21  1  0.352967  0.897081  0.897078  1
