# generated using pymatgen
data_Li4Ti2Mn3O10
_symmetry_space_group_name_H-M   'P 1'
_cell_length_a   5.19924586
_cell_length_b   5.25324281
_cell_length_c   8.06691490
_cell_angle_alpha   110.32544859
_cell_angle_beta   97.92073361
_cell_angle_gamma   102.13290850
_symmetry_Int_Tables_number   1
_chemical_formula_structural   Li4Ti2Mn3O10
_chemical_formula_sum   'Li4 Ti2 Mn3 O10'
_cell_volume   196.58402653
_cell_formula_units_Z   1
loop_
 _symmetry_equiv_pos_site_id
 _symmetry_equiv_pos_as_xyz
  1  'x, y, z'
loop_
 _atom_site_type_symbol
 _atom_site_label
 _atom_site_symmetry_multiplicity
 _atom_site_fract_x
 _atom_site_fract_y
 _atom_site_fract_z
 _atom_site_occupancy
  Li  Li0  1  0.236128  0.888259  0.399282  1
  Li  Li1  1  0.383392  0.323581  0.754261  1
  Li  Li2  1  0.616608  0.676393  0.245761  1
  Li  Li3  1  0.763848  0.111716  0.600717  1
  Ti  Ti4  1  0.090272  0.725840  0.677012  1
  Ti  Ti5  1  0.909715  0.274139  0.322976  1
  Mn  Mn6  1  0.000039  0.499999  0.999939  1
  Mn  Mn7  1  0.323493  0.106452  0.118901  1
  Mn  Mn8  1  0.676506  0.893594  0.881125  1
  O  O9  1  0.003589  0.071711  0.826043  1
  O  O10  1  0.109298  0.330393  0.549899  1
  O  O11  1  0.334818  0.723437  0.927482  1
  O  O12  1  0.224864  0.456333  0.219195  1
  O  O13  1  0.415795  0.929252  0.662304  1
  O  O14  1  0.584205  0.070732  0.337704  1
  O  O15  1  0.775091  0.543679  0.780779  1
  O  O16  1  0.665205  0.276592  0.072539  1
  O  O17  1  0.890682  0.669602  0.450107  1
  O  O18  1  0.996447  0.928296  0.173976  1
