# generated using pymatgen
data_NaPrPCO7
_symmetry_space_group_name_H-M   'P 1'
_cell_length_a   9.79634197
_cell_length_b   7.20851245
_cell_length_c   5.36373732
_cell_angle_alpha   90.00000000
_cell_angle_beta   89.23822931
_cell_angle_gamma   90.00000000
_symmetry_Int_Tables_number   1
_chemical_formula_structural   NaPrPCO7
_chemical_formula_sum   'Na2 Pr2 P2 C2 O14'
_cell_volume   378.73784633
_cell_formula_units_Z   2
loop_
 _symmetry_equiv_pos_site_id
 _symmetry_equiv_pos_as_xyz
  1  'x, y, z'
loop_
 _atom_site_type_symbol
 _atom_site_label
 _atom_site_symmetry_multiplicity
 _atom_site_fract_x
 _atom_site_fract_y
 _atom_site_fract_z
 _atom_site_occupancy
  Na  Na0  1  0.228536  0.466709  0.230431  1
  Na  Na1  1  0.771464  0.966709  0.769569  1
  Pr  Pr2  1  0.371754  0.777774  0.780264  1
  Pr  Pr3  1  0.628246  0.277774  0.219736  1
  P  P4  1  0.416182  0.269929  0.716843  1
  P  P5  1  0.583818  0.769929  0.283157  1
  C  C6  1  0.069458  0.723552  0.723154  1
  C  C7  1  0.930542  0.223552  0.276846  1
  O  O8  1  0.055864  0.257479  0.308993  1
  O  O9  1  0.117877  0.715240  0.945662  1
  O  O10  1  0.154322  0.702854  0.538851  1
  O  O11  1  0.336746  0.093113  0.787533  1
  O  O12  1  0.354120  0.443673  0.843029  1
  O  O13  1  0.430080  0.749174  0.205065  1
  O  O14  1  0.419960  0.298353  0.428300  1
  O  O15  1  0.580040  0.798353  0.571700  1
  O  O16  1  0.569920  0.249174  0.794935  1
  O  O17  1  0.645880  0.943673  0.156971  1
  O  O18  1  0.663254  0.593113  0.212467  1
  O  O19  1  0.845678  0.202854  0.461149  1
  O  O20  1  0.882123  0.215240  0.054338  1
  O  O21  1  0.944136  0.757479  0.691007  1
