# generated using pymatgen
data_Ni3(P2O7)2
_symmetry_space_group_name_H-M   'P 1'
_cell_length_a   9.00388340
_cell_length_b   12.59342009
_cell_length_c   10.26396539
_cell_angle_alpha   90.00000000
_cell_angle_beta   90.00000000
_cell_angle_gamma   90.00000000
_symmetry_Int_Tables_number   1
_chemical_formula_structural   Ni3(P2O7)2
_chemical_formula_sum   'Ni12 P16 O56'
_cell_volume   1163.82781369
_cell_formula_units_Z   4
loop_
 _symmetry_equiv_pos_site_id
 _symmetry_equiv_pos_as_xyz
  1  'x, y, z'
loop_
 _atom_site_type_symbol
 _atom_site_label
 _atom_site_symmetry_multiplicity
 _atom_site_fract_x
 _atom_site_fract_y
 _atom_site_fract_z
 _atom_site_occupancy
  Ni  Ni0  1  0.245961  0.750000  0.620770  1
  Ni  Ni1  1  0.247932  0.016491  0.118937  1
  Ni  Ni2  1  0.247932  0.483509  0.118937  1
  Ni  Ni3  1  0.252068  0.516491  0.618937  1
  Ni  Ni4  1  0.252068  0.983509  0.618937  1
  Ni  Ni5  1  0.254039  0.250000  0.120770  1
  Ni  Ni6  1  0.745961  0.750000  0.879230  1
  Ni  Ni7  1  0.747932  0.016491  0.381063  1
  Ni  Ni8  1  0.747932  0.483509  0.381063  1
  Ni  Ni9  1  0.752068  0.516491  0.881063  1
  Ni  Ni10  1  0.752068  0.983509  0.881063  1
  Ni  Ni11  1  0.754039  0.250000  0.379230  1
  P  P12  1  0.073299  0.629444  0.366247  1
  P  P13  1  0.073299  0.870556  0.366247  1
  P  P14  1  0.085731  0.635341  0.880520  1
  P  P15  1  0.085731  0.864659  0.880520  1
  P  P16  1  0.414269  0.364659  0.380520  1
  P  P17  1  0.414269  0.135341  0.380520  1
  P  P18  1  0.426701  0.129444  0.866246  1
  P  P19  1  0.426701  0.370556  0.866246  1
  P  P20  1  0.573299  0.870556  0.133754  1
  P  P21  1  0.573299  0.629444  0.133754  1
  P  P22  1  0.585731  0.864659  0.619480  1
  P  P23  1  0.585731  0.635341  0.619480  1
  P  P24  1  0.914269  0.135341  0.119480  1
  P  P25  1  0.914269  0.364659  0.119480  1
  P  P26  1  0.926701  0.129444  0.633754  1
  P  P27  1  0.926701  0.370556  0.633754  1
  O  O28  1  0.045987  0.750000  0.318187  1
  O  O29  1  0.077660  0.418928  0.607508  1
  O  O30  1  0.077660  0.081072  0.607508  1
  O  O31  1  0.085463  0.135025  0.129460  1
  O  O32  1  0.085463  0.364975  0.129460  1
  O  O33  1  0.130424  0.750000  0.941067  1
  O  O34  1  0.144836  0.550410  0.968214  1
  O  O35  1  0.144836  0.949590  0.968214  1
  O  O36  1  0.154338  0.573365  0.257277  1
  O  O37  1  0.154338  0.926635  0.257277  1
  O  O38  1  0.156490  0.631547  0.743377  1
  O  O39  1  0.156490  0.868453  0.743377  1
  O  O40  1  0.166902  0.635359  0.492131  1
  O  O41  1  0.166902  0.864641  0.492131  1
  O  O42  1  0.333098  0.135359  0.992131  1
  O  O43  1  0.333098  0.364640  0.992131  1
  O  O44  1  0.343510  0.131547  0.243377  1
  O  O45  1  0.343510  0.368453  0.243377  1
  O  O46  1  0.345662  0.073365  0.757277  1
  O  O47  1  0.345662  0.426635  0.757277  1
  O  O48  1  0.355164  0.050410  0.468214  1
  O  O49  1  0.355164  0.449590  0.468214  1
  O  O50  1  0.369576  0.250000  0.441067  1
  O  O51  1  0.414537  0.635025  0.629460  1
  O  O52  1  0.414537  0.864975  0.629460  1
  O  O53  1  0.422340  0.581072  0.107508  1
  O  O54  1  0.422340  0.918928  0.107508  1
  O  O55  1  0.454013  0.250000  0.818187  1
  O  O56  1  0.545987  0.750000  0.181813  1
  O  O57  1  0.577660  0.081072  0.892492  1
  O  O58  1  0.577660  0.418928  0.892492  1
  O  O59  1  0.585463  0.135025  0.370540  1
  O  O60  1  0.585463  0.364975  0.370540  1
  O  O61  1  0.630424  0.750000  0.558933  1
  O  O62  1  0.644836  0.550410  0.531786  1
  O  O63  1  0.644836  0.949590  0.531786  1
  O  O64  1  0.654338  0.573365  0.242723  1
  O  O65  1  0.654338  0.926635  0.242723  1
  O  O66  1  0.656490  0.868453  0.756623  1
  O  O67  1  0.656490  0.631547  0.756623  1
  O  O68  1  0.666902  0.864641  0.007869  1
  O  O69  1  0.666902  0.635359  0.007869  1
  O  O70  1  0.833098  0.135359  0.507869  1
  O  O71  1  0.833098  0.364640  0.507869  1
  O  O72  1  0.843510  0.131547  0.256623  1
  O  O73  1  0.843510  0.368453  0.256623  1
  O  O74  1  0.845662  0.073365  0.742723  1
  O  O75  1  0.845662  0.426635  0.742723  1
  O  O76  1  0.855164  0.050410  0.031786  1
  O  O77  1  0.855164  0.449590  0.031786  1
  O  O78  1  0.869576  0.250000  0.058933  1
  O  O79  1  0.914537  0.635025  0.870540  1
  O  O80  1  0.914537  0.864975  0.870540  1
  O  O81  1  0.922340  0.918928  0.392492  1
  O  O82  1  0.922340  0.581072  0.392492  1
  O  O83  1  0.954013  0.250000  0.681813  1
