# generated using pymatgen
data_Al2NiO4
_symmetry_space_group_name_H-M   'P 1'
_cell_length_a   5.76069239
_cell_length_b   5.76545323
_cell_length_c   28.66334403
_cell_angle_alpha   59.81165064
_cell_angle_beta   59.75783045
_cell_angle_gamma   59.96945922
_symmetry_Int_Tables_number   1
_chemical_formula_structural   Al2NiO4
_chemical_formula_sum   'Al20 Ni10 O40'
_cell_volume   670.80979101
_cell_formula_units_Z   10
loop_
 _symmetry_equiv_pos_site_id
 _symmetry_equiv_pos_as_xyz
  1  'x, y, z'
loop_
 _atom_site_type_symbol
 _atom_site_label
 _atom_site_symmetry_multiplicity
 _atom_site_fract_x
 _atom_site_fract_y
 _atom_site_fract_z
 _atom_site_occupancy
  Al  Al0  1  0.496859  0.496125  0.002195  1
  Al  Al1  1  0.493325  0.497423  0.100498  1
  Al  Al2  1  0.493314  0.006809  0.100513  1
  Al  Al3  1  0.492751  0.497785  0.202345  1
  Al  Al4  1  0.129500  0.116445  0.427536  1
  Al  Al5  1  0.492966  0.499755  0.300586  1
  Al  Al6  1  0.856462  0.881897  0.175969  1
  Al  Al7  1  0.493007  0.004366  0.300598  1
  Al  Al8  1  0.134286  0.117519  0.626120  1
  Al  Al9  1  0.500213  0.500142  0.499786  1
  Al  Al10  1  0.864783  0.884796  0.373175  1
  Al  Al11  1  0.500184  0.000679  0.499792  1
  Al  Al12  1  0.143217  0.117216  0.824444  1
  Al  Al13  1  0.503123  0.500214  0.699254  1
  Al  Al14  1  0.503095  0.000268  0.699255  1
  Al  Al15  1  0.868619  0.883175  0.573011  1
  Al  Al16  1  0.508364  0.497625  0.898477  1
  Al  Al17  1  0.871429  0.882244  0.772797  1
  Al  Al18  1  0.508400  0.001538  0.898471  1
  Al  Al19  1  0.862932  0.878099  0.976161  1
  Ni  Ni20  1  0.130559  0.126849  0.023173  1
  Ni  Ni21  1  0.120196  0.121478  0.227387  1
  Ni  Ni22  1  0.001024  0.498691  0.100327  1
  Ni  Ni23  1  0.498296  0.501746  0.399657  1
  Ni  Ni24  1  0.996872  0.499846  0.300709  1
  Ni  Ni25  1  0.500589  0.500311  0.599745  1
  Ni  Ni26  1  0.999790  0.500112  0.500017  1
  Ni  Ni27  1  0.009020  0.498011  0.898978  1
  Ni  Ni28  1  0.504702  0.498515  0.799635  1
  Ni  Ni29  1  0.002059  0.500234  0.699493  1
  O  O30  1  0.282731  0.251208  0.050349  1
  O  O31  1  0.282740  0.714413  0.050341  1
  O  O32  1  0.279449  0.250789  0.143812  1
  O  O33  1  0.711882  0.260927  0.053254  1
  O  O34  1  0.280014  0.252899  0.251366  1
  O  O35  1  0.260373  0.746725  0.149252  1
  O  O36  1  0.721638  0.271624  0.150729  1
  O  O37  1  0.724069  0.752879  0.054040  1
  O  O38  1  0.279991  0.710320  0.251361  1
  O  O39  1  0.260642  0.244019  0.350277  1
  O  O40  1  0.699352  0.265663  0.253856  1
  O  O41  1  0.721674  0.753114  0.150729  1
  O  O42  1  0.264825  0.232581  0.453613  1
  O  O43  1  0.255879  0.758548  0.345429  1
  O  O44  1  0.723841  0.754275  0.253522  1
  O  O45  1  0.730963  0.265204  0.346578  1
  O  O46  1  0.269998  0.245426  0.547833  1
  O  O47  1  0.264802  0.734586  0.453617  1
  O  O48  1  0.736578  0.245979  0.454298  1
  O  O49  1  0.731023  0.771022  0.346582  1
  O  O50  1  0.260447  0.753962  0.546326  1
  O  O51  1  0.266775  0.231810  0.653080  1
  O  O52  1  0.729108  0.754690  0.452307  1
  O  O53  1  0.733874  0.264133  0.546916  1
  O  O54  1  0.275508  0.246433  0.746313  1
  O  O55  1  0.266764  0.735937  0.653083  1
  O  O56  1  0.733837  0.767432  0.546923  1
  O  O57  1  0.741717  0.245312  0.653511  1
  O  O58  1  0.271509  0.228790  0.852282  1
  O  O59  1  0.263083  0.752872  0.746219  1
  O  O60  1  0.736369  0.263374  0.746660  1
  O  O61  1  0.730886  0.754151  0.652141  1
  O  O62  1  0.300219  0.252379  0.938988  1
  O  O63  1  0.271503  0.738165  0.852284  1
  O  O64  1  0.756327  0.240684  0.852440  1
  O  O65  1  0.736318  0.766889  0.746667  1
  O  O66  1  0.269148  0.741379  0.949607  1
  O  O67  1  0.730243  0.269247  0.950450  1
  O  O68  1  0.733696  0.752058  0.852417  1
  O  O69  1  0.730269  0.748192  0.950447  1
