# generated using pymatgen
data_SiPH18C6INCl
_symmetry_space_group_name_H-M   'P 1'
_cell_length_a   13.25926044
_cell_length_b   13.25926044
_cell_length_c   13.25926044
_cell_angle_alpha   108.78407785
_cell_angle_beta   88.40147271
_cell_angle_gamma   134.90176011
_symmetry_Int_Tables_number   1
_chemical_formula_structural   SiPH18C6INCl
_chemical_formula_sum   'Si4 P4 H72 C24 I4 N4 Cl4'
_cell_volume   1492.49857207
_cell_formula_units_Z   4
loop_
 _symmetry_equiv_pos_site_id
 _symmetry_equiv_pos_as_xyz
  1  'x, y, z'
loop_
 _atom_site_type_symbol
 _atom_site_label
 _atom_site_symmetry_multiplicity
 _atom_site_fract_x
 _atom_site_fract_y
 _atom_site_fract_z
 _atom_site_occupancy
  Si  Si0  1  0.729681  0.148571  0.235506  1
  Si  Si1  1  0.913065  0.494175  0.764494  1
  Si  Si2  1  0.229681  0.994175  0.581110  1
  Si  Si3  1  0.413065  0.648571  0.418890  1
  P  P4  1  0.587546  0.874124  0.997879  1
  P  P5  1  0.876245  0.589667  0.002121  1
  P  P6  1  0.087546  0.089667  0.713422  1
  P  P7  1  0.376245  0.374124  0.286578  1
  H  H8  1  0.710319  0.803188  0.952424  1
  H  H9  1  0.850764  0.757895  0.047576  1
  H  H10  1  0.210319  0.257895  0.907131  1
  H  H11  1  0.350764  0.303188  0.092869  1
  H  H12  1  0.839638  0.006381  0.049352  1
  H  H13  1  0.957029  0.790285  0.950648  1
  H  H14  1  0.339638  0.290285  0.833256  1
  H  H15  1  0.457029  0.506381  0.166744  1
  H  H16  1  0.717835  0.852800  0.096639  1
  H  H17  1  0.756161  0.621196  0.903361  1
  H  H18  1  0.217835  0.121196  0.865035  1
  H  H19  1  0.256161  0.352800  0.134965  1
  H  H20  1  0.548019  0.783099  0.799098  1
  H  H21  1  0.984001  0.748921  0.200902  1
  H  H22  1  0.048019  0.248921  0.764920  1
  H  H23  1  0.484001  0.283099  0.235080  1
  H  H24  1  0.515380  0.898189  0.849817  1
  H  H25  1  0.048372  0.665563  0.150183  1
  H  H26  1  0.015380  0.165563  0.617191  1
  H  H27  1  0.548372  0.398189  0.382809  1
  H  H28  1  0.702680  0.994598  0.872302  1
  H  H29  1  0.122296  0.830378  0.127698  1
  H  H30  1  0.202680  0.330378  0.708082  1
  H  H31  1  0.622296  0.494598  0.291918  1
  H  H32  1  0.899532  0.367357  0.178489  1
  H  H33  1  0.188868  0.721043  0.821511  1
  H  H34  1  0.399532  0.221043  0.532175  1
  H  H35  1  0.688868  0.867357  0.467825  1
  H  H36  1  0.779688  0.369798  0.241642  1
  H  H37  1  0.128157  0.538046  0.758358  1
  H  H38  1  0.279688  0.038046  0.409889  1
  H  H39  1  0.628157  0.869798  0.590111  1
  H  H40  1  0.936358  0.440091  0.326249  1
  H  H41  1  0.113842  0.610109  0.673751  1
  H  H42  1  0.436358  0.110109  0.496267  1
  H  H43  1  0.613842  0.940091  0.503733  1
  H  H44  1  0.673168  0.202163  0.413263  1
  H  H45  1  0.788900  0.259905  0.586737  1
  H  H46  1  0.173168  0.759905  0.471005  1
  H  H47  1  0.288900  0.702163  0.528995  1
  H  H48  1  0.523912  0.097580  0.296690  1
  H  H49  1  0.800889  0.227222  0.703310  1
  H  H50  1  0.023912  0.727222  0.426333  1
  H  H51  1  0.300889  0.597580  0.573667  1
  H  H52  1  0.546524  0.995650  0.333397  1
  H  H53  1  0.662253  0.213127  0.666603  1
  H  H54  1  0.046524  0.713127  0.550874  1
  H  H55  1  0.162253  0.495650  0.449126  1
  H  H56  1  0.400415  0.591411  0.906271  1
  H  H57  1  0.685139  0.494143  0.093729  1
  H  H58  1  0.900415  0.994143  0.809004  1
  H  H59  1  0.185139  0.091411  0.190996  1
  H  H60  1  0.410057  0.660260  0.050092  1
  H  H61  1  0.610167  0.359964  0.949908  1
  H  H62  1  0.910057  0.859964  0.749797  1
  H  H63  1  0.110167  0.160260  0.250203  1
  H  H64  1  0.318253  0.656272  0.950984  1
  H  H65  1  0.705288  0.367269  0.049016  1
  H  H66  1  0.818253  0.867269  0.661981  1
  H  H67  1  0.205288  0.156272  0.338019  1
  H  H68  1  0.936584  0.243832  0.365509  1
  H  H69  1  0.878323  0.571075  0.634491  1
  H  H70  1  0.436584  0.071075  0.692752  1
  H  H71  1  0.378323  0.743832  0.307248  1
  H  H72  1  0.796483  0.035180  0.293989  1
  H  H73  1  0.741192  0.502495  0.706011  1
  H  H74  1  0.296483  0.002495  0.761303  1
  H  H75  1  0.241192  0.535180  0.238697  1
  H  H76  1  0.922683  0.155437  0.226864  1
  H  H77  1  0.928572  0.695819  0.773136  1
  H  H78  1  0.422683  0.195819  0.767246  1
  H  H79  1  0.428572  0.655437  0.232754  1
  C  C80  1  0.728530  0.886326  0.028129  1
  C  C81  1  0.858198  0.700401  0.971871  1
  C  C82  1  0.228530  0.200401  0.842203  1
  C  C83  1  0.358198  0.386326  0.157797  1
  C  C84  1  0.588255  0.888488  0.866406  1
  C  C85  1  0.022082  0.721849  0.133594  1
  C  C86  1  0.088255  0.221849  0.699767  1
  C  C87  1  0.522082  0.388488  0.300233  1
  C  C88  1  0.847530  0.350875  0.246125  1
  C  C89  1  0.104750  0.601404  0.753875  1
  C  C90  1  0.347530  0.101404  0.496655  1
  C  C91  1  0.604750  0.850875  0.503345  1
  C  C92  1  0.606679  0.106592  0.328482  1
  C  C93  1  0.778110  0.278197  0.671518  1
  C  C94  1  0.106679  0.778197  0.500088  1
  C  C95  1  0.278110  0.606592  0.499912  1
  C  C96  1  0.411917  0.676350  0.973541  1
  C  C97  1  0.702809  0.438376  0.026459  1
  C  C98  1  0.911917  0.938376  0.735567  1
  C  C99  1  0.202809  0.176350  0.264433  1
  C  C100  1  0.856968  0.143102  0.283935  1
  C  C101  1  0.859168  0.573033  0.716065  1
  C  C102  1  0.356968  0.073033  0.713865  1
  C  C103  1  0.359168  0.643102  0.286135  1
  I  I104  1  0.450142  0.009263  0.047805  1
  I  I105  1  0.961458  0.402337  0.952195  1
  I  I106  1  0.950142  0.902337  0.440879  1
  I  I107  1  0.461458  0.509263  0.559121  1
  N  N108  1  0.613928  0.008039  0.096376  1
  N  N109  1  0.911663  0.517552  0.903624  1
  N  N110  1  0.113928  0.017552  0.605889  1
  N  N111  1  0.411663  0.508039  0.394111  1
  Cl  Cl112  1  0.266920  0.019498  0.995680  1
  Cl  Cl113  1  0.023818  0.271240  0.004320  1
  Cl  Cl114  1  0.766920  0.771240  0.247422  1
  Cl  Cl115  1  0.523818  0.519498  0.752578  1
