# generated using pymatgen
data_Cs4SiO4
_symmetry_space_group_name_H-M   'P 1'
_cell_length_a   11.57055220
_cell_length_b   7.08369578
_cell_length_c   11.37783552
_cell_angle_alpha   90.00000000
_cell_angle_beta   111.49274400
_cell_angle_gamma   90.00000000
_symmetry_Int_Tables_number   1
_chemical_formula_structural   Cs4SiO4
_chemical_formula_sum   'Cs16 Si4 O16'
_cell_volume   867.70720065
_cell_formula_units_Z   4
loop_
 _symmetry_equiv_pos_site_id
 _symmetry_equiv_pos_as_xyz
  1  'x, y, z'
loop_
 _atom_site_type_symbol
 _atom_site_label
 _atom_site_symmetry_multiplicity
 _atom_site_fract_x
 _atom_site_fract_y
 _atom_site_fract_z
 _atom_site_occupancy
  Cs  Cs0  1  0.064701  0.409304  0.701321  1
  Cs  Cs1  1  0.152109  0.883019  0.583369  1
  Cs  Cs2  1  0.064701  0.090696  0.201321  1
  Cs  Cs3  1  0.368454  0.663722  0.892861  1
  Cs  Cs4  1  0.152109  0.616981  0.083369  1
  Cs  Cs5  1  0.419825  0.172549  0.791606  1
  Cs  Cs6  1  0.368454  0.836278  0.392861  1
  Cs  Cs7  1  0.580175  0.672549  0.708394  1
  Cs  Cs8  1  0.419825  0.327451  0.291606  1
  Cs  Cs9  1  0.631546  0.163722  0.607139  1
  Cs  Cs10  1  0.580175  0.827451  0.208394  1
  Cs  Cs11  1  0.847891  0.383019  0.916631  1
  Cs  Cs12  1  0.631546  0.336278  0.107139  1
  Cs  Cs13  1  0.935299  0.909304  0.798679  1
  Cs  Cs14  1  0.847891  0.116981  0.416631  1
  Cs  Cs15  1  0.935299  0.590696  0.298679  1
  Si  Si16  1  0.241145  0.126931  0.990765  1
  Si  Si17  1  0.241145  0.373069  0.490765  1
  Si  Si18  1  0.758855  0.626931  0.509235  1
  Si  Si19  1  0.758855  0.873069  0.009235  1
  O  O20  1  0.105655  0.224105  0.978618  1
  O  O21  1  0.220247  0.001316  0.859065  1
  O  O22  1  0.105655  0.275895  0.478618  1
  O  O23  1  0.294899  0.513378  0.618992  1
  O  O24  1  0.220247  0.498684  0.359065  1
  O  O25  1  0.344942  0.199213  0.505047  1
  O  O26  1  0.294899  0.986622  0.118992  1
  O  O27  1  0.655058  0.699213  0.994953  1
  O  O28  1  0.344942  0.300787  0.005047  1
  O  O29  1  0.705101  0.013378  0.881008  1
  O  O30  1  0.655058  0.800787  0.494953  1
  O  O31  1  0.779753  0.501316  0.640935  1
  O  O32  1  0.705101  0.486622  0.381008  1
  O  O33  1  0.894345  0.724105  0.521382  1
  O  O34  1  0.779753  0.998684  0.140935  1
  O  O35  1  0.894345  0.775895  0.021382  1
