# generated using pymatgen
data_BaLi2NiO3
_symmetry_space_group_name_H-M   'P 1'
_cell_length_a   10.71134401
_cell_length_b   13.75532410
_cell_length_c   5.43754326
_cell_angle_alpha   90.00000000
_cell_angle_beta   99.42437518
_cell_angle_gamma   90.00000000
_symmetry_Int_Tables_number   1
_chemical_formula_structural   BaLi2NiO3
_chemical_formula_sum   'Ba8 Li16 Ni8 O24'
_cell_volume   790.34325240
_cell_formula_units_Z   8
loop_
 _symmetry_equiv_pos_site_id
 _symmetry_equiv_pos_as_xyz
  1  'x, y, z'
loop_
 _atom_site_type_symbol
 _atom_site_label
 _atom_site_symmetry_multiplicity
 _atom_site_fract_x
 _atom_site_fract_y
 _atom_site_fract_z
 _atom_site_occupancy
  Ba  Ba0  1  0.074396  0.606455  0.766563  1
  Ba  Ba1  1  0.178281  0.800235  0.225993  1
  Ba  Ba2  1  0.321719  0.300235  0.274007  1
  Ba  Ba3  1  0.425604  0.106455  0.733437  1
  Ba  Ba4  1  0.574396  0.893545  0.266563  1
  Ba  Ba5  1  0.678281  0.699765  0.725993  1
  Ba  Ba6  1  0.821719  0.199765  0.774007  1
  Ba  Ba7  1  0.925604  0.393545  0.233437  1
  Li  Li8  1  0.089438  0.332271  0.838460  1
  Li  Li9  1  0.019602  0.008389  0.252494  1
  Li  Li10  1  0.124398  0.142601  0.896474  1
  Li  Li11  1  0.183323  0.936264  0.689050  1
  Li  Li12  1  0.316677  0.436264  0.810950  1
  Li  Li13  1  0.375602  0.642601  0.603526  1
  Li  Li14  1  0.410562  0.832271  0.661540  1
  Li  Li15  1  0.519602  0.491611  0.752494  1
  Li  Li16  1  0.480398  0.508389  0.247506  1
  Li  Li17  1  0.589438  0.167730  0.338460  1
  Li  Li18  1  0.624398  0.357399  0.396474  1
  Li  Li19  1  0.683323  0.563736  0.189050  1
  Li  Li20  1  0.816677  0.063736  0.310950  1
  Li  Li21  1  0.875602  0.857399  0.103526  1
  Li  Li22  1  0.980398  0.991611  0.747506  1
  Li  Li23  1  0.910562  0.667729  0.161540  1
  Ni  Ni24  1  0.082678  0.191315  0.427037  1
  Ni  Ni25  1  0.211278  0.523630  0.279837  1
  Ni  Ni26  1  0.288722  0.023630  0.220163  1
  Ni  Ni27  1  0.417322  0.691315  0.072963  1
  Ni  Ni28  1  0.582678  0.308685  0.927037  1
  Ni  Ni29  1  0.711278  0.976370  0.779837  1
  Ni  Ni30  1  0.788722  0.476370  0.720163  1
  Ni  Ni31  1  0.917322  0.808685  0.572963  1
  O  O32  1  0.028083  0.896854  0.474298  1
  O  O33  1  0.059478  0.239898  0.106464  1
  O  O34  1  0.210352  0.235376  0.681067  1
  O  O35  1  0.089260  0.617852  0.293252  1
  O  O36  1  0.145548  0.000704  0.986974  1
  O  O37  1  0.180704  0.445645  0.997847  1
  O  O38  1  0.289648  0.735376  0.818933  1
  O  O39  1  0.319296  0.945645  0.502153  1
  O  O40  1  0.354452  0.500704  0.513026  1
  O  O41  1  0.410740  0.117852  0.206748  1
  O  O42  1  0.528083  0.603146  0.974298  1
  O  O43  1  0.440522  0.739898  0.393536  1
  O  O44  1  0.559478  0.260102  0.606464  1
  O  O45  1  0.471917  0.396854  0.025702  1
  O  O46  1  0.589260  0.882148  0.793252  1
  O  O47  1  0.645548  0.499296  0.486974  1
  O  O48  1  0.680704  0.054355  0.497847  1
  O  O49  1  0.710352  0.264624  0.181067  1
  O  O50  1  0.819296  0.554355  0.002153  1
  O  O51  1  0.854452  0.999296  0.013026  1
  O  O52  1  0.910740  0.382148  0.706748  1
  O  O53  1  0.789648  0.764624  0.318933  1
  O  O54  1  0.940522  0.760102  0.893536  1
  O  O55  1  0.971917  0.103146  0.525702  1
