# generated using pymatgen
data_NaDyO2
_symmetry_space_group_name_H-M   'P 1'
_cell_length_a   8.33764252
_cell_length_b   8.33764252
_cell_length_c   6.09461887
_cell_angle_alpha   59.66376420
_cell_angle_beta   120.33623580
_cell_angle_gamma   74.25454789
_symmetry_Int_Tables_number   1
_chemical_formula_structural   NaDyO2
_chemical_formula_sum   'Na4 Dy4 O8'
_cell_volume   223.27057673
_cell_formula_units_Z   4
loop_
 _symmetry_equiv_pos_site_id
 _symmetry_equiv_pos_as_xyz
  1  'x, y, z'
loop_
 _atom_site_type_symbol
 _atom_site_label
 _atom_site_symmetry_multiplicity
 _atom_site_fract_x
 _atom_site_fract_y
 _atom_site_fract_z
 _atom_site_occupancy
  Na  Na0  1  0.694146  0.694146  0.750000  1
  Na  Na1  1  0.930356  0.930356  0.750000  1
  Na  Na2  1  0.069644  0.069644  0.250000  1
  Na  Na3  1  0.305854  0.305854  0.250000  1
  Dy  Dy4  1  0.182833  0.182833  0.750000  1
  Dy  Dy5  1  0.443114  0.443114  0.750000  1
  Dy  Dy6  1  0.817167  0.817167  0.250000  1
  Dy  Dy7  1  0.556886  0.556886  0.250000  1
  O  O8  1  0.208824  0.667468  0.749213  1
  O  O9  1  0.437276  0.935898  0.794983  1
  O  O10  1  0.332532  0.791176  0.249213  1
  O  O11  1  0.064102  0.562724  0.294983  1
  O  O12  1  0.935898  0.437276  0.705017  1
  O  O13  1  0.667468  0.208824  0.750787  1
  O  O14  1  0.562724  0.064102  0.205017  1
  O  O15  1  0.791176  0.332532  0.250787  1
