# generated using pymatgen
data_Li3Fe8(BO3)8
_symmetry_space_group_name_H-M   'P 1'
_cell_length_a   5.21961134
_cell_length_b   9.11582627
_cell_length_c   11.38124315
_cell_angle_alpha   66.79844118
_cell_angle_beta   76.80117898
_cell_angle_gamma   89.46624356
_symmetry_Int_Tables_number   1
_chemical_formula_structural   Li3Fe8(BO3)8
_chemical_formula_sum   'Li3 Fe8 B8 O24'
_cell_volume   482.61515965
_cell_formula_units_Z   1
loop_
 _symmetry_equiv_pos_site_id
 _symmetry_equiv_pos_as_xyz
  1  'x, y, z'
loop_
 _atom_site_type_symbol
 _atom_site_label
 _atom_site_symmetry_multiplicity
 _atom_site_fract_x
 _atom_site_fract_y
 _atom_site_fract_z
 _atom_site_occupancy
  Li  Li0  1  0.707338  0.723483  0.914196  1
  Li  Li1  1  0.021117  0.998021  0.658372  1
  Li  Li2  1  0.239086  0.252279  0.156056  1
  Fe  Fe3  1  0.974723  0.648334  0.375061  1
  Fe  Fe4  1  0.739571  0.073244  0.879209  1
  Fe  Fe5  1  0.538841  0.837929  0.621437  1
  Fe  Fe6  1  0.746803  0.443996  0.139904  1
  Fe  Fe7  1  0.229496  0.556904  0.874740  1
  Fe  Fe8  1  0.490039  0.145647  0.382317  1
  Fe  Fe9  1  0.019364  0.357773  0.630603  1
  Fe  Fe10  1  0.264440  0.928032  0.123305  1
  B  B11  1  0.980584  0.315078  0.381305  1
  B  B12  1  0.727465  0.405082  0.875600  1
  B  B13  1  0.518150  0.183847  0.627005  1
  B  B14  1  0.761796  0.102922  0.132791  1
  B  B15  1  0.474059  0.814412  0.369312  1
  B  B16  1  0.229176  0.883989  0.880206  1
  B  B17  1  0.038244  0.688140  0.627231  1
  B  B18  1  0.265288  0.604057  0.124076  1
  O  O19  1  0.980805  0.904885  0.857517  1
  O  O20  1  0.876260  0.309399  0.822143  1
  O  O21  1  0.850862  0.507845  0.915399  1
  O  O22  1  0.908546  0.818438  0.628232  1
  O  O23  1  0.959658  0.588565  0.572353  1
  O  O24  1  0.766012  0.168348  0.659369  1
  O  O25  1  0.738740  0.321338  0.349428  1
  O  O26  1  0.460571  0.397232  0.894400  1
  O  O27  1  0.380293  0.769941  0.847808  1
  O  O28  1  0.534841  0.923937  0.418407  1
  O  O29  1  0.628715  0.694697  0.371051  1
  O  O30  1  0.344845  0.973115  0.931817  1
  O  O31  1  0.632823  0.016236  0.083365  1
  O  O32  1  0.362103  0.298164  0.639793  1
  O  O33  1  0.427941  0.071411  0.584311  1
  O  O34  1  0.614462  0.208345  0.178664  1
  O  O35  1  0.532219  0.622934  0.103706  1
  O  O36  1  0.256598  0.651046  0.681370  1
  O  O37  1  0.243575  0.829377  0.322541  1
  O  O38  1  0.048489  0.422889  0.430739  1
  O  O39  1  0.150956  0.208696  0.358830  1
  O  O40  1  0.148282  0.491518  0.091632  1
  O  O41  1  0.106600  0.703092  0.172900  1
  O  O42  1  0.023791  0.090204  0.132902  1
