# generated using pymatgen
data_Li6V3P8O29
_symmetry_space_group_name_H-M   'P 1'
_cell_length_a   9.83320616
_cell_length_b   9.80992338
_cell_length_c   13.96832558
_cell_angle_alpha   90.40489074
_cell_angle_beta   90.72448573
_cell_angle_gamma   59.99955202
_symmetry_Int_Tables_number   1
_chemical_formula_structural   Li6V3P8O29
_chemical_formula_sum   'Li12 V6 P16 O58'
_cell_volume   1166.80666146
_cell_formula_units_Z   2
loop_
 _symmetry_equiv_pos_site_id
 _symmetry_equiv_pos_as_xyz
  1  'x, y, z'
loop_
 _atom_site_type_symbol
 _atom_site_label
 _atom_site_symmetry_multiplicity
 _atom_site_fract_x
 _atom_site_fract_y
 _atom_site_fract_z
 _atom_site_occupancy
  Li  Li0  1  0.675221  0.664160  0.389705  1
  Li  Li1  1  0.677439  0.668036  0.887508  1
  Li  Li2  1  0.775368  0.307136  0.060847  1
  Li  Li3  1  0.309879  0.913085  0.061298  1
  Li  Li4  1  0.662426  0.235313  0.440749  1
  Li  Li5  1  0.323262  0.766373  0.564312  1
  Li  Li6  1  0.683917  0.090095  0.935711  1
  Li  Li7  1  0.226835  0.677491  0.941870  1
  Li  Li8  1  0.099427  0.666178  0.439575  1
  Li  Li9  1  0.230522  0.101245  0.444781  1
  Li  Li10  1  0.097052  0.228048  0.937402  1
  Li  Li11  1  0.957538  0.024783  0.509284  1
  V  V12  1  0.569514  0.429477  0.249541  1
  V  V13  1  0.434187  0.565448  0.750236  1
  V  V14  1  0.569012  0.998612  0.747081  1
  V  V15  1  0.434249  0.004070  0.251692  1
  V  V16  1  0.002512  0.567679  0.247462  1
  V  V17  1  0.998557  0.435965  0.744317  1
  P  P18  1  0.912864  0.772648  0.839023  1
  P  P19  1  0.780124  0.913323  0.338209  1
  P  P20  1  0.913708  0.311511  0.341063  1
  P  P21  1  0.664080  0.667644  0.129591  1
  P  P22  1  0.664587  0.667529  0.629249  1
  P  P23  1  0.772361  0.321093  0.841344  1
  P  P24  1  0.684388  0.228156  0.657734  1
  P  P25  1  0.324936  0.907591  0.843182  1
  P  P26  1  0.680073  0.084795  0.153017  1
  P  P27  1  0.320048  0.773011  0.344077  1
  P  P28  1  0.231829  0.679951  0.160268  1
  P  P29  1  0.335722  0.333153  0.373483  1
  P  P30  1  0.332048  0.333893  0.870694  1
  P  P31  1  0.082864  0.688482  0.653803  1
  P  P32  1  0.227122  0.084630  0.658931  1
  P  P33  1  0.084048  0.233149  0.155517  1
  O  O34  1  0.012215  0.772584  0.561131  1
  O  O35  1  0.922305  0.741473  0.340751  1
  O  O36  1  0.745739  0.009809  0.060147  1
  O  O37  1  0.744661  0.919357  0.841267  1
  O  O38  1  0.891486  0.626563  0.826493  1
  O  O39  1  0.809271  0.669490  0.173331  1
  O  O40  1  0.902170  0.474079  0.333793  1
  O  O41  1  0.997887  0.249770  0.062881  1
  O  O42  1  0.922181  0.333052  0.843725  1
  O  O43  1  0.673049  0.809731  0.671628  1
  O  O44  1  0.628512  0.900204  0.332508  1
  O  O45  1  0.810496  0.516498  0.672186  1
  O  O46  1  0.656520  0.671609  0.022296  1
  O  O47  1  0.661736  0.666206  0.521841  1
  O  O48  1  0.668495  0.513345  0.165813  1
  O  O49  1  0.490323  0.885259  0.826976  1
  O  O50  1  0.512367  0.817043  0.171460  1
  O  O51  1  0.742406  0.340300  0.341661  1
  O  O52  1  0.792431  0.212275  0.749915  1
  O  O53  1  0.770559  0.215022  0.567019  1
  O  O54  1  0.751326  0.247091  0.929699  1
  O  O55  1  0.630192  0.489318  0.823756  1
  O  O56  1  0.509576  0.675018  0.666766  1
  O  O57  1  0.668701  0.249202  0.162543  1
  O  O58  1  0.485079  0.627905  0.329710  1
  O  O59  1  0.334754  0.922165  0.345783  1
  O  O60  1  0.799066  0.982808  0.238962  1
  O  O61  1  0.789881  0.009271  0.418868  1
  O  O62  1  0.223329  0.996913  0.569812  1
  O  O63  1  0.655937  0.088778  0.666572  1
  O  O64  1  0.530015  0.386132  0.669095  1
  O  O65  1  0.340327  0.743031  0.845935  1
  O  O66  1  0.489562  0.323253  0.335515  1
  O  O67  1  0.382895  0.519978  0.181743  1
  O  O68  1  0.249487  0.751975  0.070174  1
  O  O69  1  0.235896  0.763466  0.431225  1
  O  O70  1  0.213529  0.792246  0.250162  1
  O  O71  1  0.249648  0.667751  0.665013  1
  O  O72  1  0.481326  0.185042  0.831674  1
  O  O73  1  0.518992  0.101450  0.175805  1
  O  O74  1  0.334357  0.484077  0.830766  1
  O  O75  1  0.323700  0.337903  0.977297  1
  O  O76  1  0.336901  0.322691  0.479956  1
  O  O77  1  0.190562  0.485866  0.333479  1
  O  O78  1  0.383334  0.083023  0.670747  1
  O  O79  1  0.328309  0.184883  0.329216  1
  O  O80  1  0.087085  0.660491  0.161646  1
  O  O81  1  0.984150  0.798845  0.741536  1
  O  O82  1  0.011509  0.765056  0.922256  1
  O  O83  1  0.088540  0.529891  0.665722  1
  O  O84  1  0.181734  0.337736  0.825219  1
  O  O85  1  0.097690  0.380317  0.179102  1
  O  O86  1  0.246738  0.084064  0.158833  1
  O  O87  1  0.247208  0.001950  0.931733  1
  O  O88  1  0.214473  0.992638  0.751761  1
  O  O89  1  0.086610  0.249654  0.662088  1
  O  O90  1  0.007606  0.205219  0.421645  1
  O  O91  1  0.983405  0.218868  0.240795  1
