# generated using pymatgen
data_V3Cr2Ni(PO4)6
_symmetry_space_group_name_H-M   'P 1'
_cell_length_a   8.46129040
_cell_length_b   8.60490963
_cell_length_c   8.60490931
_cell_angle_alpha   60.00000007
_cell_angle_beta   59.43691275
_cell_angle_gamma   59.43690806
_symmetry_Int_Tables_number   1
_chemical_formula_structural   V3Cr2Ni(PO4)6
_chemical_formula_sum   'V3 Cr2 Ni1 P6 O24'
_cell_volume   439.20267491
_cell_formula_units_Z   1
loop_
 _symmetry_equiv_pos_site_id
 _symmetry_equiv_pos_as_xyz
  1  'x, y, z'
loop_
 _atom_site_type_symbol
 _atom_site_label
 _atom_site_symmetry_multiplicity
 _atom_site_fract_x
 _atom_site_fract_y
 _atom_site_fract_z
 _atom_site_occupancy
  V  V0  1  0.064969  0.645010  0.645010  1
  V  V1  1  0.428867  0.857044  0.857044  1
  V  V2  1  0.931896  0.356034  0.356034  1
  Cr  Cr3  1  0.995754  0.001416  0.001416  1
  Cr  Cr4  1  0.496677  0.501108  0.501108  1
  Ni  Ni5  1  0.568652  0.143783  0.143783  1
  P  P6  1  0.250776  0.248001  0.545492  1
  P  P7  1  0.250776  0.955731  0.248001  1
  P  P8  1  0.250776  0.545492  0.955731  1
  P  P9  1  0.751102  0.454443  0.044178  1
  P  P10  1  0.751102  0.044178  0.750277  1
  P  P11  1  0.751102  0.750277  0.454443  1
  O  O12  1  0.065620  0.113731  0.316580  1
  O  O13  1  0.065620  0.504069  0.113731  1
  O  O14  1  0.065620  0.316580  0.504069  1
  O  O15  1  0.216040  0.092270  0.749701  1
  O  O16  1  0.437371  0.182380  0.395708  1
  O  O17  1  0.265412  0.410606  0.569864  1
  O  O18  1  0.216040  0.941988  0.092270  1
  O  O19  1  0.265412  0.754117  0.410606  1
  O  O20  1  0.568229  0.610096  0.004672  1
  O  O21  1  0.265412  0.569864  0.754117  1
  O  O22  1  0.789063  0.254959  0.051385  1
  O  O23  1  0.568229  0.004672  0.817003  1
  O  O24  1  0.437371  0.984540  0.182380  1
  O  O25  1  0.216040  0.749701  0.941988  1
  O  O26  1  0.726961  0.439571  0.243991  1
  O  O27  1  0.437371  0.395708  0.984540  1
  O  O28  1  0.726961  0.243991  0.589475  1
  O  O29  1  0.789063  0.051385  0.904593  1
  O  O30  1  0.726961  0.589475  0.439571  1
  O  O31  1  0.568229  0.817003  0.610096  1
  O  O32  1  0.789063  0.904593  0.254959  1
  O  O33  1  0.933820  0.673043  0.505633  1
  O  O34  1  0.933820  0.505633  0.887504  1
  O  O35  1  0.933820  0.887504  0.673043  1
