# generated using pymatgen
data_USi2
_symmetry_space_group_name_H-M   'P 1'
_cell_length_a   3.90175337
_cell_length_b   3.90175337
_cell_length_c   7.57403232
_cell_angle_alpha   104.92618303
_cell_angle_beta   104.92618304
_cell_angle_gamma   90.00000002
_symmetry_Int_Tables_number   1
_chemical_formula_structural   USi2
_chemical_formula_sum   'U2 Si4'
_cell_volume   107.38266500
_cell_formula_units_Z   2
loop_
 _symmetry_equiv_pos_site_id
 _symmetry_equiv_pos_as_xyz
  1  'x, y, z'
loop_
 _atom_site_type_symbol
 _atom_site_label
 _atom_site_symmetry_multiplicity
 _atom_site_fract_x
 _atom_site_fract_y
 _atom_site_fract_z
 _atom_site_occupancy
  Si  Si0  1  0.706851  0.956851  0.913702  1
  Si  Si1  1  0.456851  0.206851  0.413702  1
  Si  Si2  1  0.543149  0.793149  0.586298  1
  Si  Si3  1  0.293149  0.043149  0.086298  1
  U  U4  1  0.875000  0.625000  0.250000  1
  U  U5  1  0.125000  0.375000  0.750000  1
