# generated using pymatgen
data_TiMnCr(PO4)3
_symmetry_space_group_name_H-M   'P 1'
_cell_length_a   8.64397278
_cell_length_b   8.64397287
_cell_length_c   8.64397309
_cell_angle_alpha   59.80551787
_cell_angle_beta   59.80551752
_cell_angle_gamma   59.80551833
_symmetry_Int_Tables_number   1
_chemical_formula_structural   TiMnCr(PO4)3
_chemical_formula_sum   'Ti2 Mn2 Cr2 P6 O24'
_cell_volume   454.67768870
_cell_formula_units_Z   2
loop_
 _symmetry_equiv_pos_site_id
 _symmetry_equiv_pos_as_xyz
  1  'x, y, z'
loop_
 _atom_site_type_symbol
 _atom_site_label
 _atom_site_symmetry_multiplicity
 _atom_site_fract_x
 _atom_site_fract_y
 _atom_site_fract_z
 _atom_site_occupancy
  Ti  Ti0  1  0.144896  0.144896  0.144896  1
  Ti  Ti1  1  0.644896  0.644896  0.644896  1
  Mn  Mn2  1  0.998797  0.998797  0.998797  1
  Mn  Mn3  1  0.498797  0.498797  0.498797  1
  Cr  Cr4  1  0.357051  0.357051  0.357051  1
  Cr  Cr5  1  0.857051  0.857051  0.857051  1
  P  P6  1  0.042666  0.749632  0.459902  1
  P  P7  1  0.459902  0.042666  0.749632  1
  P  P8  1  0.749632  0.459902  0.042666  1
  P  P9  1  0.249632  0.542666  0.959902  1
  P  P10  1  0.542666  0.959902  0.249632  1
  P  P11  1  0.959902  0.249632  0.542666  1
  O  O12  1  0.117164  0.306388  0.506148  1
  O  O13  1  0.306388  0.506148  0.117164  1
  O  O14  1  0.056700  0.914791  0.264345  1
  O  O15  1  0.506148  0.117164  0.306388  1
  O  O16  1  0.006148  0.806388  0.617164  1
  O  O17  1  0.235314  0.585054  0.441247  1
  O  O18  1  0.264345  0.056700  0.914791  1
  O  O19  1  0.441247  0.235314  0.585054  1
  O  O20  1  0.193048  0.377451  0.999406  1
  O  O21  1  0.585054  0.441247  0.235314  1
  O  O22  1  0.085054  0.735314  0.941247  1
  O  O23  1  0.377451  0.999406  0.193048  1
  O  O24  1  0.617164  0.006148  0.806388  1
  O  O25  1  0.914791  0.264345  0.056700  1
  O  O26  1  0.414791  0.556700  0.764345  1
  O  O27  1  0.806388  0.617164  0.006148  1
  O  O28  1  0.556700  0.764345  0.414791  1
  O  O29  1  0.735314  0.941247  0.085054  1
  O  O30  1  0.764345  0.414791  0.556700  1
  O  O31  1  0.999406  0.193048  0.377451  1
  O  O32  1  0.499406  0.877451  0.693048  1
  O  O33  1  0.941247  0.085054  0.735314  1
  O  O34  1  0.693048  0.499406  0.877451  1
  O  O35  1  0.877451  0.693048  0.499406  1
