# generated using pymatgen
data_Li2Ti3SbO8
_symmetry_space_group_name_H-M   'P 1'
_cell_length_a   5.99747195
_cell_length_b   5.99705369
_cell_length_c   10.42422294
_cell_angle_alpha   90.00158140
_cell_angle_beta   89.99693993
_cell_angle_gamma   119.99887185
_symmetry_Int_Tables_number   1
_chemical_formula_structural   Li2Ti3SbO8
_chemical_formula_sum   'Li4 Ti6 Sb2 O16'
_cell_volume   324.70234233
_cell_formula_units_Z   2
loop_
 _symmetry_equiv_pos_site_id
 _symmetry_equiv_pos_as_xyz
  1  'x, y, z'
loop_
 _atom_site_type_symbol
 _atom_site_label
 _atom_site_symmetry_multiplicity
 _atom_site_fract_x
 _atom_site_fract_y
 _atom_site_fract_z
 _atom_site_occupancy
  Li  Li0  1  0.333330  0.666710  0.891636  1
  Li  Li1  1  0.000037  0.000013  0.994542  1
  Li  Li2  1  0.000001  0.999980  0.494529  1
  Li  Li3  1  0.666692  0.333391  0.391639  1
  Ti  Ti4  1  0.658413  0.829203  0.218537  1
  Ti  Ti5  1  0.341708  0.170846  0.718573  1
  Ti  Ti6  1  0.829180  0.170871  0.718581  1
  Ti  Ti7  1  0.170805  0.829225  0.218545  1
  Ti  Ti8  1  0.170797  0.341624  0.218550  1
  Ti  Ti9  1  0.829163  0.658348  0.718582  1
  Sb  Sb10  1  0.333283  0.666594  0.504053  1
  Sb  Sb11  1  0.666606  0.333266  0.004057  1
  O  O12  1  0.154625  0.845332  0.606342  1
  O  O13  1  0.025027  0.512525  0.321434  1
  O  O14  1  0.333365  0.666735  0.111950  1
  O  O15  1  0.999913  0.999932  0.312903  1
  O  O16  1  0.000029  0.000001  0.812909  1
  O  O17  1  0.154685  0.309363  0.606303  1
  O  O18  1  0.487482  0.975007  0.321324  1
  O  O19  1  0.487459  0.512503  0.321393  1
  O  O20  1  0.309279  0.154636  0.106350  1
  O  O21  1  0.690746  0.845357  0.606336  1
  O  O22  1  0.512531  0.487527  0.821345  1
  O  O23  1  0.512527  0.025031  0.821399  1
  O  O24  1  0.666667  0.333381  0.611912  1
  O  O25  1  0.845362  0.690725  0.106388  1
  O  O26  1  0.974961  0.487509  0.821383  1
  O  O27  1  0.845327  0.154665  0.106344  1
