# generated using pymatgen
data_Li2Co2(SiO3)3
_symmetry_space_group_name_H-M   'P 1'
_cell_length_a   12.40588740
_cell_length_b   9.63144413
_cell_length_c   6.15880099
_cell_angle_alpha   90.00000000
_cell_angle_beta   90.00000000
_cell_angle_gamma   90.00000000
_symmetry_Int_Tables_number   1
_chemical_formula_structural   Li2Co2(SiO3)3
_chemical_formula_sum   'Li8 Co8 Si12 O36'
_cell_volume   735.89426044
_cell_formula_units_Z   4
loop_
 _symmetry_equiv_pos_site_id
 _symmetry_equiv_pos_as_xyz
  1  'x, y, z'
loop_
 _atom_site_type_symbol
 _atom_site_label
 _atom_site_symmetry_multiplicity
 _atom_site_fract_x
 _atom_site_fract_y
 _atom_site_fract_z
 _atom_site_occupancy
  Li  Li0  1  0.087312  0.557251  0.148853  1
  Li  Li1  1  0.087312  0.942749  0.148853  1
  Li  Li2  1  0.412688  0.057251  0.648853  1
  Li  Li3  1  0.412688  0.442749  0.648853  1
  Li  Li4  1  0.587312  0.557251  0.351147  1
  Li  Li5  1  0.587312  0.942749  0.351147  1
  Li  Li6  1  0.912688  0.057251  0.851147  1
  Li  Li7  1  0.912688  0.442749  0.851147  1
  Co  Co8  1  0.164388  0.500059  0.700000  1
  Co  Co9  1  0.164388  -0.000059  0.700000  1
  Co  Co10  1  0.335612  0.000059  0.200000  1
  Co  Co11  1  0.335612  0.499941  0.200000  1
  Co  Co12  1  0.664388  0.500059  0.800000  1
  Co  Co13  1  0.664388  -0.000059  0.800000  1
  Co  Co14  1  0.835612  0.000059  0.300000  1
  Co  Co15  1  0.835612  0.499941  0.300000  1
  Si  Si16  1  0.038500  0.750000  0.542328  1
  Si  Si17  1  0.077714  0.250000  0.023580  1
  Si  Si18  1  0.211701  0.250000  0.424658  1
  Si  Si19  1  0.288299  0.750000  0.924658  1
  Si  Si20  1  0.422286  0.750000  0.523580  1
  Si  Si21  1  0.461500  0.250000  0.042328  1
  Si  Si22  1  0.538500  0.750000  0.957672  1
  Si  Si23  1  0.577714  0.250000  0.476420  1
  Si  Si24  1  0.711701  0.250000  0.075342  1
  Si  Si25  1  0.788299  0.750000  0.575342  1
  Si  Si26  1  0.922286  0.750000  0.976420  1
  Si  Si27  1  0.961500  0.250000  0.457672  1
  O  O28  1  0.029114  0.750000  0.811888  1
  O  O29  1  0.069481  0.101068  0.902917  1
  O  O30  1  0.069481  0.398932  0.902917  1
  O  O31  1  0.098223  0.608490  0.464469  1
  O  O32  1  0.098223  0.891510  0.464469  1
  O  O33  1  0.090594  0.250000  0.531372  1
  O  O34  1  0.228499  0.604085  0.991785  1
  O  O35  1  0.228499  0.895915  0.991785  1
  O  O36  1  0.193019  0.250000  0.160270  1
  O  O37  1  0.306981  0.750000  0.660270  1
  O  O38  1  0.271501  0.104085  0.491785  1
  O  O39  1  0.271501  0.395915  0.491785  1
  O  O40  1  0.409406  0.750000  0.031372  1
  O  O41  1  0.401777  0.108490  0.964469  1
  O  O42  1  0.401777  0.391510  0.964469  1
  O  O43  1  0.430519  0.601068  0.402917  1
  O  O44  1  0.430519  0.898932  0.402917  1
  O  O45  1  0.470886  0.250000  0.311888  1
  O  O46  1  0.529114  0.750000  0.688112  1
  O  O47  1  0.569481  0.101068  0.597083  1
  O  O48  1  0.569481  0.398932  0.597083  1
  O  O49  1  0.598223  0.608490  0.035531  1
  O  O50  1  0.598223  0.891510  0.035531  1
  O  O51  1  0.590594  0.250000  0.968628  1
  O  O52  1  0.728499  0.604085  0.508215  1
  O  O53  1  0.728499  0.895915  0.508215  1
  O  O54  1  0.693019  0.250000  0.339730  1
  O  O55  1  0.806981  0.750000  0.839730  1
  O  O56  1  0.771501  0.104085  0.008215  1
  O  O57  1  0.771501  0.395915  0.008215  1
  O  O58  1  0.909406  0.750000  0.468628  1
  O  O59  1  0.901777  0.108490  0.535531  1
  O  O60  1  0.901777  0.391510  0.535531  1
  O  O61  1  0.930519  0.601068  0.097083  1
  O  O62  1  0.930519  0.898932  0.097083  1
  O  O63  1  0.970886  0.250000  0.188112  1
