# generated using pymatgen
data_NaCa2V3Zn2O12
_symmetry_space_group_name_H-M   'P 1'
_cell_length_a   10.90971188
_cell_length_b   10.90971141
_cell_length_c   10.90971157
_cell_angle_alpha   109.47980250
_cell_angle_beta   109.45405253
_cell_angle_gamma   109.47980475
_symmetry_Int_Tables_number   1
_chemical_formula_structural   NaCa2V3Zn2O12
_chemical_formula_sum   'Na4 Ca8 V12 Zn8 O48'
_cell_volume   999.58081324
_cell_formula_units_Z   4
loop_
 _symmetry_equiv_pos_site_id
 _symmetry_equiv_pos_as_xyz
  1  'x, y, z'
loop_
 _atom_site_type_symbol
 _atom_site_label
 _atom_site_symmetry_multiplicity
 _atom_site_fract_x
 _atom_site_fract_y
 _atom_site_fract_z
 _atom_site_occupancy
  Na  Na0  1  0.125000  0.250000  0.375000  1
  Na  Na1  1  0.375000  0.750000  0.125000  1
  Na  Na2  1  0.625000  0.250000  0.875000  1
  Na  Na3  1  0.875000  0.750000  0.625000  1
  Ca  Ca4  1  0.126767  0.376767  0.750000  1
  Ca  Ca5  1  0.250000  0.876767  0.626767  1
  Ca  Ca6  1  0.626767  0.876767  0.750000  1
  Ca  Ca7  1  0.250000  0.376767  0.126767  1
  Ca  Ca8  1  0.373233  0.123233  0.250000  1
  Ca  Ca9  1  0.750000  0.623233  0.873233  1
  Ca  Ca10  1  0.873233  0.623233  0.250000  1
  Ca  Ca11  1  0.750000  0.123233  0.373233  1
  V  V12  1  0.125000  0.750000  0.875000  1
  V  V13  1  0.124553  0.874553  0.250000  1
  V  V14  1  0.250000  0.625447  0.375447  1
  V  V15  1  0.375447  0.625447  0.750000  1
  V  V16  1  0.250000  0.125447  0.875447  1
  V  V17  1  0.375000  0.250000  0.625000  1
  V  V18  1  0.625000  0.750000  0.375000  1
  V  V19  1  0.624553  0.374553  0.250000  1
  V  V20  1  0.750000  0.374553  0.624553  1
  V  V21  1  0.750000  0.874553  0.124553  1
  V  V22  1  0.875447  0.125447  0.750000  1
  V  V23  1  0.875000  0.250000  0.125000  1
  Zn  Zn24  1  0.000000  0.500000  0.500000  1
  Zn  Zn25  1  0.000000  0.000000  0.500000  1
  Zn  Zn26  1  0.000000  0.500000  0.000000  1
  Zn  Zn27  1  0.000000  0.000000  0.000000  1
  Zn  Zn28  1  0.500000  0.500000  0.500000  1
  Zn  Zn29  1  0.500000  0.000000  0.500000  1
  Zn  Zn30  1  0.500000  0.500000  0.000000  1
  Zn  Zn31  1  0.500000  0.000000  0.000000  1
  O  O32  1  0.105927  0.987975  0.693913  1
  O  O33  1  0.017720  0.308593  0.896910  1
  O  O34  1  0.113678  0.599243  0.904775  1
  O  O35  1  0.095225  0.708902  0.694467  1
  O  O36  1  0.088317  0.879190  0.396910  1
  O  O37  1  0.103090  0.620810  0.411683  1
  O  O38  1  0.193913  0.487975  0.605927  1
  O  O39  1  0.411683  0.808593  0.790873  1
  O  O40  1  0.382048  0.587986  0.894073  1
  O  O41  1  0.290873  0.308593  0.911683  1
  O  O42  1  0.306087  0.912014  0.294062  1
  O  O43  1  0.014435  0.208902  0.113678  1
  O  O44  1  0.194467  0.208902  0.595225  1
  O  O45  1  0.205938  0.587986  0.193913  1
  O  O46  1  0.396910  0.808593  0.517720  1
  O  O47  1  0.294062  0.487975  0.382048  1
  O  O48  1  0.305533  0.900757  0.014435  1
  O  O49  1  0.117952  0.012025  0.205938  1
  O  O50  1  0.394073  0.087986  0.882048  1
  O  O51  1  0.517720  0.620810  0.709127  1
  O  O52  1  0.514435  0.400757  0.805533  1
  O  O53  1  0.386322  0.291098  0.485565  1
  O  O54  1  0.595225  0.900757  0.386322  1
  O  O55  1  0.209127  0.120810  0.017720  1
  O  O56  1  0.790873  0.879190  0.982280  1
  O  O57  1  0.404775  0.099243  0.613678  1
  O  O58  1  0.613678  0.708902  0.514435  1
  O  O59  1  0.485565  0.599243  0.194467  1
  O  O60  1  0.482280  0.379190  0.290873  1
  O  O61  1  0.605927  0.912014  0.117952  1
  O  O62  1  0.882048  0.987975  0.794062  1
  O  O63  1  0.694467  0.099243  0.985565  1
  O  O64  1  0.705938  0.512025  0.617952  1
  O  O65  1  0.603090  0.191407  0.482280  1
  O  O66  1  0.794062  0.412014  0.806087  1
  O  O67  1  0.805533  0.791098  0.404775  1
  O  O68  1  0.985565  0.791098  0.886322  1
  O  O69  1  0.693913  0.087986  0.705938  1
  O  O70  1  0.709127  0.691407  0.088317  1
  O  O71  1  0.617952  0.412014  0.105927  1
  O  O72  1  0.588317  0.191407  0.209127  1
  O  O73  1  0.806087  0.512025  0.394073  1
  O  O74  1  0.896910  0.379190  0.588317  1
  O  O75  1  0.911683  0.120810  0.603090  1
  O  O76  1  0.904775  0.291098  0.305533  1
  O  O77  1  0.886322  0.400757  0.095225  1
  O  O78  1  0.982280  0.691407  0.103090  1
  O  O79  1  0.894073  0.012025  0.306087  1
