# generated using pymatgen
data_Li6FeS4
_symmetry_space_group_name_H-M   'P 1'
_cell_length_a   8.04344553
_cell_length_b   8.11080312
_cell_length_c   6.28647525
_cell_angle_alpha   89.63740283
_cell_angle_beta   90.36893134
_cell_angle_gamma   119.74595148
_symmetry_Int_Tables_number   1
_chemical_formula_structural   Li6FeS4
_chemical_formula_sum   'Li12 Fe2 S8'
_cell_volume   356.07221724
_cell_formula_units_Z   2
loop_
 _symmetry_equiv_pos_site_id
 _symmetry_equiv_pos_as_xyz
  1  'x, y, z'
loop_
 _atom_site_type_symbol
 _atom_site_label
 _atom_site_symmetry_multiplicity
 _atom_site_fract_x
 _atom_site_fract_y
 _atom_site_fract_z
 _atom_site_occupancy
  Li  Li0  1  0.151061  0.847347  0.526273  1
  Li  Li1  1  0.078229  0.542030  0.886692  1
  Li  Li2  1  0.460648  0.921618  0.876099  1
  Li  Li3  1  0.148293  0.296548  0.528278  1
  Li  Li4  1  0.463778  0.541806  0.887394  1
  Li  Li5  1  0.303830  0.152703  0.026132  1
  Li  Li6  1  0.696780  0.847646  0.526447  1
  Li  Li7  1  0.537050  0.457471  0.388469  1
  Li  Li8  1  0.851398  0.702924  0.027782  1
  Li  Li9  1  0.539995  0.079656  0.377000  1
  Li  Li10  1  0.920370  0.457251  0.387574  1
  Li  Li11  1  0.848551  0.152975  0.025456  1
  Fe  Fe12  1  0.333107  0.665833  0.253015  1
  Fe  Fe13  1  0.667110  0.334118  0.753170  1
  S  S14  1  0.181687  0.825979  0.133343  1
  S  S15  1  0.330708  0.660557  0.619348  1
  S  S16  1  0.178035  0.356639  0.136266  1
  S  S17  1  0.644266  0.826309  0.133539  1
  S  S18  1  0.355974  0.173842  0.633539  1
  S  S19  1  0.821657  0.643140  0.636076  1
  S  S20  1  0.669643  0.339731  0.119065  1
  S  S21  1  0.817929  0.174172  0.633642  1
