# generated using pymatgen
data_LiVCr(P2O7)2
_symmetry_space_group_name_H-M   'P 1'
_cell_length_a   13.63130013
_cell_length_b   8.06804883
_cell_length_c   7.16999824
_cell_angle_alpha   90.07404174
_cell_angle_beta   97.17036753
_cell_angle_gamma   90.12609871
_symmetry_Int_Tables_number   1
_chemical_formula_structural   LiVCr(P2O7)2
_chemical_formula_sum   'Li3 V3 Cr3 P12 O42'
_cell_volume   782.37228066
_cell_formula_units_Z   3
loop_
 _symmetry_equiv_pos_site_id
 _symmetry_equiv_pos_as_xyz
  1  'x, y, z'
loop_
 _atom_site_type_symbol
 _atom_site_label
 _atom_site_symmetry_multiplicity
 _atom_site_fract_x
 _atom_site_fract_y
 _atom_site_fract_z
 _atom_site_occupancy
  Li  Li0  1  0.166997  0.864222  0.841946  1
  Li  Li1  1  0.499677  0.362639  0.826827  1
  Li  Li2  1  0.833193  0.361642  0.162138  1
  V  V3  1  0.162530  0.495518  0.885555  1
  V  V4  1  0.495439  0.507915  0.225220  1
  V  V5  1  0.829993  0.507217  0.556424  1
  Cr  Cr6  1  0.171055  0.006401  0.442638  1
  Cr  Cr7  1  0.505392  0.997367  0.779215  1
  Cr  Cr8  1  0.836911  0.997942  0.114316  1
  P  P9  1  0.042988  0.782034  0.132025  1
  P  P10  1  0.042501  0.677931  0.520463  1
  P  P11  1  0.289871  0.282668  0.204741  1
  P  P12  1  0.293991  0.180478  0.816854  1
  P  P13  1  0.376211  0.783764  0.462251  1
  P  P14  1  0.374424  0.682627  0.849505  1
  P  P15  1  0.625508  0.177295  0.146796  1
  P  P16  1  0.623662  0.283192  0.534126  1
  P  P17  1  0.707715  0.681667  0.183869  1
  P  P18  1  0.710211  0.782438  0.795482  1
  P  P19  1  0.959929  0.176477  0.478590  1
  P  P20  1  0.955140  0.281477  0.866384  1
  O  O21  1  0.053359  0.647648  0.303277  1
  O  O22  1  0.106356  0.934842  0.187371  1
  O  O23  1  0.069310  0.180440  0.462090  1
  O  O24  1  0.085789  0.848112  0.577212  1
  O  O25  1  0.098967  0.538354  0.629915  1
  O  O26  1  0.227522  0.434692  0.132530  1
  O  O27  1  0.064691  0.331167  0.915781  1
  O  O28  1  0.283760  0.147725  0.035932  1
  O  O29  1  0.085640  0.687788  0.972259  1
  O  O30  1  0.256067  0.191001  0.366699  1
  O  O31  1  0.267698  0.824476  0.410860  1
  O  O32  1  0.232892  0.041202  0.716379  1
  O  O33  1  0.249052  0.352343  0.767978  1
  O  O34  1  0.262626  0.674747  0.870885  1
  O  O35  1  0.398794  0.338129  0.247906  1
  O  O36  1  0.414036  0.682763  0.303899  1
  O  O37  1  0.385240  0.645835  0.633437  1
  O  O38  1  0.439638  0.933121  0.525921  1
  O  O39  1  0.403302  0.182413  0.792440  1
  O  O40  1  0.569026  0.038475  0.042837  1
  O  O41  1  0.577445  0.348320  0.094917  1
  O  O42  1  0.414715  0.852680  0.902573  1
  O  O43  1  0.433096  0.540395  0.954447  1
  O  O44  1  0.597013  0.665557  0.207133  1
  O  O45  1  0.559463  0.436132  0.473410  1
  O  O46  1  0.615592  0.149559  0.367995  1
  O  O47  1  0.586034  0.198096  0.700140  1
  O  O48  1  0.601494  0.819977  0.741932  1
  O  O49  1  0.736173  0.184378  0.128911  1
  O  O50  1  0.746941  0.851882  0.236802  1
  O  O51  1  0.768131  0.540310  0.288118  1
  O  O52  1  0.732589  0.336139  0.580344  1
  O  O53  1  0.748653  0.681260  0.638086  1
  O  O54  1  0.917302  0.197356  0.032623  1
  O  O55  1  0.718155  0.644968  0.967382  1
  O  O56  1  0.934454  0.818783  0.077695  1
  O  O57  1  0.772764  0.932646  0.859322  1
  O  O58  1  0.900391  0.038966  0.376231  1
  O  O59  1  0.911282  0.348077  0.428437  1
  O  O60  1  0.930949  0.668016  0.538656  1
  O  O61  1  0.892908  0.436482  0.805960  1
  O  O62  1  0.947817  0.148475  0.700839  1
