# generated using pymatgen
data_LiMnPO4
_symmetry_space_group_name_H-M   'P 1'
_cell_length_a   10.84380780
_cell_length_b   10.84380796
_cell_length_c   12.68398819
_cell_angle_alpha   90.00000000
_cell_angle_beta   90.00000000
_cell_angle_gamma   120.00000257
_symmetry_Int_Tables_number   1
_chemical_formula_structural   LiMnPO4
_chemical_formula_sum   'Li12 Mn12 P12 O48'
_cell_volume   1291.66555514
_cell_formula_units_Z   12
loop_
 _symmetry_equiv_pos_site_id
 _symmetry_equiv_pos_as_xyz
  1  'x, y, z'
loop_
 _atom_site_type_symbol
 _atom_site_label
 _atom_site_symmetry_multiplicity
 _atom_site_fract_x
 _atom_site_fract_y
 _atom_site_fract_z
 _atom_site_occupancy
  Li  Li0  1  0.000000  0.500000  0.006072  1
  Li  Li1  1  0.000000  0.500000  0.660595  1
  Li  Li2  1  0.000000  0.500000  0.333333  1
  Li  Li3  1  0.000000  0.000000  0.166667  1
  Li  Li4  1  0.000000  0.000000  0.500000  1
  Li  Li5  1  0.000000  0.000000  0.833333  1
  Li  Li6  1  0.500000  0.500000  0.339405  1
  Li  Li7  1  0.500000  0.500000  0.666667  1
  Li  Li8  1  0.500000  0.500000  0.993928  1
  Li  Li9  1  0.500000  0.000000  0.327262  1
  Li  Li10  1  0.500000  0.000000  0.000000  1
  Li  Li11  1  0.500000  0.000000  0.672738  1
  Mn  Mn12  1  1.000000  0.749037  0.833333  1
  Mn  Mn13  1  0.000000  0.250963  0.833333  1
  Mn  Mn14  1  0.248820  0.751180  0.166667  1
  Mn  Mn15  1  0.248820  0.497638  0.500000  1
  Mn  Mn16  1  0.502362  0.751180  0.833333  1
  Mn  Mn17  1  0.250963  0.250963  0.166667  1
  Mn  Mn18  1  0.250963  0.000000  0.500000  1
  Mn  Mn19  1  0.749037  0.749037  0.166667  1
  Mn  Mn20  1  0.497638  0.248820  0.833333  1
  Mn  Mn21  1  0.751180  0.502362  0.500000  1
  Mn  Mn22  1  0.751180  0.248820  0.166667  1
  Mn  Mn23  1  0.749037  1.000000  0.500000  1
  P  P24  1  0.000000  0.756259  0.333333  1
  P  P25  1  0.247635  0.752365  0.666667  1
  P  P26  1  1.000000  0.243741  0.333333  1
  P  P27  1  0.247635  0.495270  0.000000  1
  P  P28  1  0.243741  0.243741  0.666667  1
  P  P29  1  0.504730  0.752365  0.333333  1
  P  P30  1  0.243741  1.000000  0.000000  1
  P  P31  1  0.495270  0.247635  0.333333  1
  P  P32  1  0.756259  0.756259  0.666667  1
  P  P33  1  0.752365  0.504730  0.000000  1
  P  P34  1  0.752365  0.247635  0.666667  1
  P  P35  1  0.756259  0.000000  0.000000  1
  O  O36  1  0.064055  0.873880  0.419881  1
  O  O37  1  0.126120  0.935945  0.913452  1
  O  O38  1  0.105702  0.699118  0.728259  1
  O  O39  1  0.109327  0.719125  0.284039  1
  O  O40  1  0.280875  0.890673  0.049294  1
  O  O41  1  0.300882  0.894298  0.605074  1
  O  O42  1  0.205625  0.624156  0.591796  1
  O  O43  1  0.105702  0.406584  0.938408  1
  O  O44  1  0.205625  0.581469  0.074870  1
  O  O45  1  0.109327  0.390202  0.382627  1
  O  O46  1  0.064055  0.190176  0.246785  1
  O  O47  1  0.375844  0.794375  0.741537  1
  O  O48  1  0.418531  0.794375  0.258463  1
  O  O49  1  0.126120  0.190176  0.753215  1
  O  O50  1  0.280875  0.390202  0.617373  1
  O  O51  1  0.375844  0.581469  0.925130  1
  O  O52  1  0.300882  0.406584  0.061592  1
  O  O53  1  0.418531  0.624156  0.408204  1
  O  O54  1  0.190176  0.126120  0.580119  1
  O  O55  1  0.190176  0.064055  0.086548  1
  O  O56  1  0.593416  0.894298  0.394926  1
  O  O57  1  0.609798  0.890673  0.950706  1
  O  O58  1  0.609798  0.719125  0.715961  1
  O  O59  1  0.406584  0.300882  0.271741  1
  O  O60  1  0.593416  0.699118  0.271741  1
  O  O61  1  0.390202  0.280875  0.715961  1
  O  O62  1  0.390202  0.109327  0.950706  1
  O  O63  1  0.406584  0.105702  0.394926  1
  O  O64  1  0.809824  0.935945  0.086548  1
  O  O65  1  0.809824  0.873880  0.580119  1
  O  O66  1  0.581469  0.375844  0.408204  1
  O  O67  1  0.699118  0.593416  0.061592  1
  O  O68  1  0.624156  0.418531  0.925130  1
  O  O69  1  0.719125  0.609798  0.617373  1
  O  O70  1  0.873880  0.809824  0.753215  1
  O  O71  1  0.581469  0.205625  0.258463  1
  O  O72  1  0.624156  0.205625  0.741537  1
  O  O73  1  0.935945  0.809824  0.246785  1
  O  O74  1  0.890673  0.609798  0.382627  1
  O  O75  1  0.794375  0.418531  0.074870  1
  O  O76  1  0.894298  0.593416  0.938408  1
  O  O77  1  0.794375  0.375844  0.591796  1
  O  O78  1  0.699118  0.105702  0.605074  1
  O  O79  1  0.719125  0.109327  0.049294  1
  O  O80  1  0.890673  0.280875  0.284039  1
  O  O81  1  0.894298  0.300882  0.728259  1
  O  O82  1  0.873880  0.064055  0.913452  1
  O  O83  1  0.935945  0.126120  0.419881  1
