# generated using pymatgen
data_Li3MnFe2(BO3)3
_symmetry_space_group_name_H-M   'P 1'
_cell_length_a   8.25182474
_cell_length_b   14.31751411
_cell_length_c   3.14540573
_cell_angle_alpha   90.00000000
_cell_angle_beta   90.00000000
_cell_angle_gamma   89.97877901
_symmetry_Int_Tables_number   1
_chemical_formula_structural   Li3MnFe2(BO3)3
_chemical_formula_sum   'Li6 Mn2 Fe4 B6 O18'
_cell_volume   371.61587557
_cell_formula_units_Z   2
loop_
 _symmetry_equiv_pos_site_id
 _symmetry_equiv_pos_as_xyz
  1  'x, y, z'
loop_
 _atom_site_type_symbol
 _atom_site_label
 _atom_site_symmetry_multiplicity
 _atom_site_fract_x
 _atom_site_fract_y
 _atom_site_fract_z
 _atom_site_occupancy
  Li  Li0  1  0.292918  0.991042  0.500000  1
  Li  Li1  1  0.341382  0.357220  0.500000  1
  Li  Li2  1  0.367048  0.651963  0.500000  1
  Li  Li3  1  0.794128  0.493096  0.500000  1
  Li  Li4  1  0.839824  0.857916  0.500000  1
  Li  Li5  1  0.865512  0.149918  0.500000  1
  Mn  Mn6  1  0.135030  0.506031  0.000000  1
  Mn  Mn7  1  0.674238  0.314316  0.000000  1
  Fe  Fe8  1  0.175895  0.816475  0.000000  1
  Fe  Fe9  1  0.187610  0.179339  0.000000  1
  Fe  Fe10  1  0.635947  0.003809  0.000000  1
  Fe  Fe11  1  0.686721  0.679506  0.000000  1
  B  B12  1  0.999289  0.668640  0.500000  1
  B  B13  1  0.999523  0.999870  0.000000  1
  B  B14  1  0.001225  0.331907  0.500000  1
  B  B15  1  0.497971  0.165208  0.500000  1
  B  B16  1  0.502180  0.500068  0.000000  1
  B  B17  1  0.500111  0.833591  0.500000  1
  O  O18  1  0.010928  0.429079  0.500000  1
  O  O19  1  0.017545  0.765365  0.500000  1
  O  O20  1  0.137354  0.611775  0.500000  1
  O  O21  1  0.142201  0.278460  0.500000  1
  O  O22  1  0.151475  0.957441  0.000000  1
  O  O23  1  0.343717  0.125682  0.500000  1
  O  O24  1  0.347994  0.791388  0.500000  1
  O  O25  1  0.365026  0.443501  0.000000  1
  O  O26  1  0.485572  0.597527  0.000000  1
  O  O27  1  0.512265  0.930430  0.500000  1
  O  O28  1  0.514249  0.262249  0.500000  1
  O  O29  1  0.635300  0.108593  0.500000  1
  O  O30  1  0.639343  0.778773  0.500000  1
  O  O31  1  0.655682  0.460683  0.000000  1
  O  O32  1  0.846162  0.628448  0.500000  1
  O  O33  1  0.851317  0.288585  0.500000  1
  O  O34  1  0.859997  0.945308  0.000000  1
  O  O35  1  0.987322  0.096800  0.000000  1
