# generated using pymatgen
data_H2Os5(CO)16
_symmetry_space_group_name_H-M   'P 1'
_cell_length_a   10.65953188
_cell_length_b   16.15844653
_cell_length_c   14.62982757
_cell_angle_alpha   90.00000000
_cell_angle_beta   90.00000000
_cell_angle_gamma   90.00000000
_symmetry_Int_Tables_number   1
_chemical_formula_structural   H2Os5(CO)16
_chemical_formula_sum   'H8 Os20 C64 O64'
_cell_volume   2519.86309308
_cell_formula_units_Z   4
loop_
 _symmetry_equiv_pos_site_id
 _symmetry_equiv_pos_as_xyz
  1  'x, y, z'
loop_
 _atom_site_type_symbol
 _atom_site_label
 _atom_site_symmetry_multiplicity
 _atom_site_fract_x
 _atom_site_fract_y
 _atom_site_fract_z
 _atom_site_occupancy
  H  H0  1  0.133145  0.205416  0.406835  1
  H  H1  1  0.366855  0.705416  0.093165  1
  H  H2  1  0.633145  0.794584  0.593165  1
  H  H3  1  0.866855  0.294584  0.906835  1
  H  H4  1  0.866855  0.794584  0.593165  1
  H  H5  1  0.633145  0.294584  0.906835  1
  H  H6  1  0.366855  0.205416  0.406835  1
  H  H7  1  0.133145  0.705416  0.093165  1
  Os  Os8  1  0.250000  0.099685  0.585539  1
  Os  Os9  1  0.250000  0.599685  0.914461  1
  Os  Os10  1  0.750000  0.900315  0.414461  1
  Os  Os11  1  0.750000  0.400315  0.085539  1
  Os  Os12  1  0.115748  0.251049  0.522576  1
  Os  Os13  1  0.384252  0.751049  0.977424  1
  Os  Os14  1  0.615748  0.748951  0.477424  1
  Os  Os15  1  0.884252  0.248951  0.022576  1
  Os  Os16  1  0.884252  0.748951  0.477424  1
  Os  Os17  1  0.615748  0.248951  0.022576  1
  Os  Os18  1  0.384252  0.251049  0.522576  1
  Os  Os19  1  0.115748  0.751049  0.977424  1
  Os  Os20  1  0.250000  0.266302  0.343324  1
  Os  Os21  1  0.250000  0.766302  0.156676  1
  Os  Os22  1  0.750000  0.733698  0.656676  1
  Os  Os23  1  0.750000  0.233698  0.843324  1
  Os  Os24  1  0.250000  0.399862  0.470092  1
  Os  Os25  1  0.250000  0.899862  0.029908  1
  Os  Os26  1  0.750000  0.600138  0.529908  1
  Os  Os27  1  0.750000  0.100138  0.970092  1
  C  C28  1  0.250000  0.150999  0.707063  1
  C  C29  1  0.250000  0.650999  0.792937  1
  C  C30  1  0.750000  0.849001  0.292937  1
  C  C31  1  0.750000  0.349002  0.207063  1
  C  C32  1  0.121358  0.023381  0.620834  1
  C  C33  1  0.378642  0.523381  0.879166  1
  C  C34  1  0.621358  0.976619  0.379166  1
  C  C35  1  0.878642  0.476619  0.120834  1
  C  C36  1  0.878642  0.976619  0.379166  1
  C  C37  1  0.621358  0.476619  0.120834  1
  C  C38  1  0.378642  0.023381  0.620834  1
  C  C39  1  0.121358  0.523381  0.879166  1
  C  C40  1  0.250000  0.058927  0.458707  1
  C  C41  1  0.250000  0.558927  0.041293  1
  C  C42  1  0.750000  0.941073  0.541293  1
  C  C43  1  0.750000  0.441073  0.958707  1
  C  C44  1  0.097816  0.292921  0.643563  1
  C  C45  1  0.402184  0.792921  0.856437  1
  C  C46  1  0.597816  0.707079  0.356437  1
  C  C47  1  0.902184  0.207079  0.143563  1
  C  C48  1  0.902184  0.707079  0.356437  1
  C  C49  1  0.597816  0.207079  0.143563  1
  C  C50  1  0.402184  0.292921  0.643563  1
  C  C51  1  0.097816  0.792921  0.856437  1
  C  C52  1  0.990168  0.326159  0.478660  1
  C  C53  1  0.509832  0.826159  0.021340  1
  C  C54  1  0.490168  0.673841  0.521340  1
  C  C55  1  0.009832  0.173841  0.978660  1
  C  C56  1  0.009832  0.673841  0.521340  1
  C  C57  1  0.490168  0.173841  0.978660  1
  C  C58  1  0.509832  0.326159  0.478660  1
  C  C59  1  0.990168  0.826159  0.021340  1
  C  C60  1  0.991036  0.166214  0.531726  1
  C  C61  1  0.508964  0.666214  0.968274  1
  C  C62  1  0.491036  0.833786  0.468274  1
  C  C63  1  0.008964  0.333786  0.031726  1
  C  C64  1  0.008964  0.833786  0.468274  1
  C  C65  1  0.491036  0.333786  0.031726  1
  C  C66  1  0.508964  0.166214  0.531726  1
  C  C67  1  0.991036  0.666214  0.968274  1
  C  C68  1  0.250000  0.173600  0.260362  1
  C  C69  1  0.250000  0.673600  0.239638  1
  C  C70  1  0.750000  0.826400  0.739638  1
  C  C71  1  0.750000  0.326400  0.760362  1
  C  C72  1  0.377942  0.326797  0.283109  1
  C  C73  1  0.122058  0.826797  0.216891  1
  C  C74  1  0.877942  0.673203  0.716891  1
  C  C75  1  0.622058  0.173203  0.783109  1
  C  C76  1  0.622058  0.673203  0.716891  1
  C  C77  1  0.877942  0.173203  0.783109  1
  C  C78  1  0.122058  0.326797  0.283109  1
  C  C79  1  0.377942  0.826797  0.216891  1
  C  C80  1  0.250000  0.451872  0.587551  1
  C  C81  1  0.250000  0.951872  0.912449  1
  C  C82  1  0.750000  0.548128  0.412449  1
  C  C83  1  0.750000  0.048128  0.087551  1
  C  C84  1  0.372638  0.469244  0.418491  1
  C  C85  1  0.127362  0.969244  0.081509  1
  C  C86  1  0.872638  0.530756  0.581509  1
  C  C87  1  0.627362  0.030756  0.918491  1
  C  C88  1  0.627362  0.530756  0.581509  1
  C  C89  1  0.872638  0.030756  0.918491  1
  C  C90  1  0.127362  0.469244  0.418491  1
  C  C91  1  0.372638  0.969244  0.081509  1
  O  O92  1  0.250000  0.177618  0.780395  1
  O  O93  1  0.250000  0.677618  0.719605  1
  O  O94  1  0.750000  0.822382  0.219605  1
  O  O95  1  0.750000  0.322382  0.280395  1
  O  O96  1  0.044281  0.976287  0.641454  1
  O  O97  1  0.455719  0.476287  0.858546  1
  O  O98  1  0.544281  0.023713  0.358546  1
  O  O99  1  0.955719  0.523713  0.141454  1
  O  O100  1  0.955719  0.023713  0.358546  1
  O  O101  1  0.544281  0.523713  0.141454  1
  O  O102  1  0.455719  0.976287  0.641454  1
  O  O103  1  0.044281  0.476287  0.858546  1
  O  O104  1  0.250000  0.029635  0.386782  1
  O  O105  1  0.250000  0.529635  0.113218  1
  O  O106  1  0.750000  0.970365  0.613218  1
  O  O107  1  0.750000  0.470365  0.886782  1
  O  O108  1  0.081342  0.320135  0.716268  1
  O  O109  1  0.418658  0.820135  0.783732  1
  O  O110  1  0.581342  0.679865  0.283732  1
  O  O111  1  0.918658  0.179865  0.216268  1
  O  O112  1  0.918658  0.679865  0.283732  1
  O  O113  1  0.581342  0.179865  0.216268  1
  O  O114  1  0.418658  0.320135  0.716268  1
  O  O115  1  0.081342  0.820135  0.783732  1
  O  O116  1  0.901839  0.363214  0.455740  1
  O  O117  1  0.598161  0.863214  0.044260  1
  O  O118  1  0.401839  0.636786  0.544260  1
  O  O119  1  0.098161  0.136786  0.955740  1
  O  O120  1  0.098161  0.636786  0.544260  1
  O  O121  1  0.401839  0.136786  0.955740  1
  O  O122  1  0.598161  0.363214  0.455740  1
  O  O123  1  0.901839  0.863214  0.044260  1
  O  O124  1  0.903752  0.122600  0.534422  1
  O  O125  1  0.596248  0.622600  0.965578  1
  O  O126  1  0.403752  0.877400  0.465578  1
  O  O127  1  0.096248  0.377400  0.034422  1
  O  O128  1  0.096248  0.877400  0.465578  1
  O  O129  1  0.403752  0.377400  0.034422  1
  O  O130  1  0.596248  0.122600  0.534422  1
  O  O131  1  0.903752  0.622600  0.965578  1
  O  O132  1  0.250000  0.124659  0.201870  1
  O  O133  1  0.250000  0.624659  0.298130  1
  O  O134  1  0.750000  0.875341  0.798130  1
  O  O135  1  0.750000  0.375341  0.701870  1
  O  O136  1  0.457352  0.363416  0.246162  1
  O  O137  1  0.042648  0.863416  0.253838  1
  O  O138  1  0.957352  0.636584  0.753838  1
  O  O139  1  0.542648  0.136584  0.746162  1
  O  O140  1  0.542648  0.636584  0.753838  1
  O  O141  1  0.957352  0.136584  0.746162  1
  O  O142  1  0.042648  0.363416  0.246162  1
  O  O143  1  0.457352  0.863416  0.253838  1
  O  O144  1  0.250000  0.484919  0.658214  1
  O  O145  1  0.250000  0.984919  0.841786  1
  O  O146  1  0.750000  0.515081  0.341786  1
  O  O147  1  0.750000  0.015081  0.158214  1
  O  O148  1  0.449499  0.512185  0.387254  1
  O  O149  1  0.050501  0.012185  0.112746  1
  O  O150  1  0.949499  0.487815  0.612746  1
  O  O151  1  0.550501  0.987815  0.887254  1
  O  O152  1  0.550501  0.487815  0.612746  1
  O  O153  1  0.949499  0.987815  0.887254  1
  O  O154  1  0.050501  0.512185  0.387254  1
  O  O155  1  0.449499  0.012185  0.112746  1
