# generated using pymatgen
data_K2Be2O3
_symmetry_space_group_name_H-M   'P 1'
_cell_length_a   4.95622946
_cell_length_b   8.18779843
_cell_length_c   6.43718525
_cell_angle_alpha   90.00000000
_cell_angle_beta   115.03416593
_cell_angle_gamma   90.00000000
_symmetry_Int_Tables_number   1
_chemical_formula_structural   K2Be2O3
_chemical_formula_sum   'K4 Be4 O6'
_cell_volume   236.68427846
_cell_formula_units_Z   2
loop_
 _symmetry_equiv_pos_site_id
 _symmetry_equiv_pos_as_xyz
  1  'x, y, z'
loop_
 _atom_site_type_symbol
 _atom_site_label
 _atom_site_symmetry_multiplicity
 _atom_site_fract_x
 _atom_site_fract_y
 _atom_site_fract_z
 _atom_site_occupancy
  K  K0  1  0.214537  0.645758  0.920685  1
  K  K1  1  0.214537  0.854242  0.420685  1
  K  K2  1  0.785463  0.145758  0.579315  1
  K  K3  1  0.785463  0.354242  0.079315  1
  Be  Be4  1  0.302827  0.490583  0.503822  1
  Be  Be5  1  0.697173  0.990583  0.996178  1
  Be  Be6  1  0.302827  0.009417  0.003822  1
  Be  Be7  1  0.697173  0.509417  0.496178  1
  O  O8  1  0.000000  0.500000  0.500000  1
  O  O9  1  0.000000  0.000000  0.000000  1
  O  O10  1  0.389155  0.041112  0.796936  1
  O  O11  1  0.610845  0.541112  0.703064  1
  O  O12  1  0.389155  0.458888  0.296936  1
  O  O13  1  0.610845  0.958888  0.203064  1
