# generated using pymatgen
data_Li2CoNiO4
_symmetry_space_group_name_H-M   'P 1'
_cell_length_a   5.11354391
_cell_length_b   4.00589701
_cell_length_c   4.00589701
_cell_angle_alpha   89.99998950
_cell_angle_beta   66.94000482
_cell_angle_gamma   66.94000482
_symmetry_Int_Tables_number   1
_chemical_formula_structural   Li2CoNiO4
_chemical_formula_sum   'Li2 Co1 Ni1 O4'
_cell_volume   68.31802477
_cell_formula_units_Z   1
loop_
 _symmetry_equiv_pos_site_id
 _symmetry_equiv_pos_as_xyz
  1  'x, y, z'
loop_
 _atom_site_type_symbol
 _atom_site_label
 _atom_site_symmetry_multiplicity
 _atom_site_fract_x
 _atom_site_fract_y
 _atom_site_fract_z
 _atom_site_occupancy
  Li  Li0  1  0.500000  0.750000  0.250000  1
  Li  Li1  1  0.000000  0.500000  0.500000  1
  Co  Co2  1  0.500000  0.250000  0.750000  1
  Ni  Ni3  1  0.000000  0.000000  0.000000  1
  O  O4  1  0.949148  0.025426  0.525426  1
  O  O5  1  0.473602  0.763199  0.763199  1
  O  O6  1  0.526398  0.236801  0.236801  1
  O  O7  1  0.050852  0.474574  0.974574  1
