# generated using pymatgen
data_TbCrO3
_symmetry_space_group_name_H-M   'P 1'
_cell_length_a   5.30962330
_cell_length_b   5.62956214
_cell_length_c   7.66118173
_cell_angle_alpha   90.00000000
_cell_angle_beta   90.00000000
_cell_angle_gamma   90.00000000
_symmetry_Int_Tables_number   1
_chemical_formula_structural   TbCrO3
_chemical_formula_sum   'Tb4 Cr4 O12'
_cell_volume   228.99926691
_cell_formula_units_Z   4
loop_
 _symmetry_equiv_pos_site_id
 _symmetry_equiv_pos_as_xyz
  1  'x, y, z'
loop_
 _atom_site_type_symbol
 _atom_site_label
 _atom_site_symmetry_multiplicity
 _atom_site_fract_x
 _atom_site_fract_y
 _atom_site_fract_z
 _atom_site_occupancy
  Tb  Tb0  1  0.019390  0.931268  0.750000  1
  Tb  Tb1  1  0.480610  0.431268  0.750000  1
  Tb  Tb2  1  0.519390  0.568732  0.250000  1
  Tb  Tb3  1  0.980610  0.068732  0.250000  1
  Cr  Cr4  1  0.000000  0.500000  0.000000  1
  Cr  Cr5  1  0.000000  0.500000  0.500000  1
  Cr  Cr6  1  0.500000  0.000000  0.000000  1
  Cr  Cr7  1  0.500000  0.000000  0.500000  1
  O  O8  1  0.109538  0.461863  0.250000  1
  O  O9  1  0.192572  0.197420  0.556113  1
  O  O10  1  0.192572  0.197420  0.943887  1
  O  O11  1  0.307428  0.697420  0.556113  1
  O  O12  1  0.307428  0.697420  0.943887  1
  O  O13  1  0.390462  0.961863  0.250000  1
  O  O14  1  0.609538  0.038137  0.750000  1
  O  O15  1  0.692572  0.302580  0.056113  1
  O  O16  1  0.692572  0.302580  0.443887  1
  O  O17  1  0.807428  0.802580  0.056113  1
  O  O18  1  0.807428  0.802580  0.443887  1
  O  O19  1  0.890462  0.538137  0.750000  1
