# generated using pymatgen
data_Li10Fe3Sb7O24
_symmetry_space_group_name_H-M   'P 1'
_cell_length_a   9.59382528
_cell_length_b   5.26019687
_cell_length_c   10.21601273
_cell_angle_alpha   90.45835934
_cell_angle_beta   89.44697130
_cell_angle_gamma   89.29904919
_symmetry_Int_Tables_number   1
_chemical_formula_structural   Li10Fe3Sb7O24
_chemical_formula_sum   'Li10 Fe3 Sb7 O24'
_cell_volume   515.47568327
_cell_formula_units_Z   1
loop_
 _symmetry_equiv_pos_site_id
 _symmetry_equiv_pos_as_xyz
  1  'x, y, z'
loop_
 _atom_site_type_symbol
 _atom_site_label
 _atom_site_symmetry_multiplicity
 _atom_site_fract_x
 _atom_site_fract_y
 _atom_site_fract_z
 _atom_site_occupancy
  Li  Li0  1  0.311982  0.441339  0.072880  1
  Li  Li1  1  0.310700  0.047548  0.599380  1
  Li  Li2  1  0.467881  0.971960  0.386327  1
  Li  Li3  1  0.551608  0.449743  0.912209  1
  Li  Li4  1  0.752160  0.004660  0.160708  1
  Li  Li5  1  0.748393  0.504446  0.680011  1
  Li  Li6  1  0.764764  0.558460  0.041103  1
  Li  Li7  1  0.763258  0.964742  0.557437  1
  Li  Li8  1  0.088937  0.924408  0.438907  1
  Li  Li9  1  0.066675  0.575360  0.932951  1
  Fe  Fe10  1  0.257984  0.459168  0.347317  1
  Fe  Fe11  1  0.249686  0.024771  0.855133  1
  Fe  Fe12  1  0.582233  0.005584  0.839660  1
  Sb  Sb13  1  0.080092  0.529249  0.635619  1
  Sb  Sb14  1  0.072369  0.987319  0.130996  1
  Sb  Sb15  1  0.421528  0.546329  0.626881  1
  Sb  Sb16  1  0.426060  0.940267  0.111913  1
  Sb  Sb17  1  0.606174  0.476706  0.345281  1
  Sb  Sb18  1  0.900202  0.046366  0.853677  1
  Sb  Sb19  1  0.924949  0.466175  0.365408  1
  O  O20  1  0.089078  0.651869  0.294958  1
  O  O21  1  0.073072  0.801789  0.774047  1
  O  O22  1  0.084018  0.284852  0.471714  1
  O  O23  1  0.069371  0.207505  0.949229  1
  O  O24  1  0.266525  0.192262  0.208938  1
  O  O25  1  0.247311  0.344825  0.710824  1
  O  O26  1  0.239902  0.714879  0.533135  1
  O  O27  1  0.259500  0.774722  0.017352  1
  O  O28  1  0.414624  0.197888  0.968888  1
  O  O29  1  0.395508  0.293006  0.474711  1
  O  O30  1  0.386548  0.689180  0.259340  1
  O  O31  1  0.405462  0.850493  0.739924  1
  O  O32  1  0.564853  0.085906  0.228496  1
  O  O33  1  0.560555  0.358761  0.724212  1
  O  O34  1  0.557812  0.728488  0.508383  1
  O  O35  1  0.572091  0.752065  0.008694  1
  O  O36  1  0.763894  0.304078  0.461078  1
  O  O37  1  0.748526  0.240872  0.940775  1
  O  O38  1  0.781613  0.681859  0.278593  1
  O  O39  1  0.764035  0.868611  0.744336  1
  O  O40  1  0.941240  0.715437  0.523010  1
  O  O41  1  0.914260  0.798690  0.003542  1
  O  O42  1  0.916987  0.214060  0.223013  1
  O  O43  1  0.931580  0.323305  0.717009  1
