# generated using pymatgen
data_Co3BiO8
_symmetry_space_group_name_H-M   'P 1'
_cell_length_a   8.34041039
_cell_length_b   8.36369762
_cell_length_c   8.33264916
_cell_angle_alpha   90.01756066
_cell_angle_beta   89.92291067
_cell_angle_gamma   90.01142686
_symmetry_Int_Tables_number   1
_chemical_formula_structural   Co3BiO8
_chemical_formula_sum   'Co12 Bi4 O32'
_cell_volume   581.25729660
_cell_formula_units_Z   4
loop_
 _symmetry_equiv_pos_site_id
 _symmetry_equiv_pos_as_xyz
  1  'x, y, z'
loop_
 _atom_site_type_symbol
 _atom_site_label
 _atom_site_symmetry_multiplicity
 _atom_site_fract_x
 _atom_site_fract_y
 _atom_site_fract_z
 _atom_site_occupancy
  Co  Co0  1  0.103046  0.145355  0.624345  1
  Co  Co1  1  0.125682  0.399018  0.851770  1
  Co  Co2  1  0.149953  0.625891  0.101878  1
  Co  Co3  1  0.353420  0.375024  0.601480  1
  Co  Co4  1  0.375679  0.603278  0.352542  1
  Co  Co5  1  0.399417  0.853053  0.124516  1
  Co  Co6  1  0.601730  0.350562  0.374060  1
  Co  Co7  1  0.625163  0.102730  0.147194  1
  Co  Co8  1  0.648283  0.876705  0.899243  1
  Co  Co9  1  0.850301  0.124355  0.398021  1
  Co  Co10  1  0.873692  0.898625  0.648686  1
  Co  Co11  1  0.896441  0.647843  0.875543  1
  Bi  Bi12  1  0.124534  0.874282  0.375298  1
  Bi  Bi13  1  0.375082  0.125558  0.874433  1
  Bi  Bi14  1  0.623862  0.625463  0.625934  1
  Bi  Bi15  1  0.874209  0.374397  0.123832  1
  O  O16  1  0.076236  0.134895  0.397911  1
  O  O17  1  0.099416  0.920854  0.636077  1
  O  O18  1  0.124084  0.619928  0.880151  1
  O  O19  1  0.112831  0.171795  0.851097  1
  O  O20  1  0.138970  0.397617  0.077864  1
  O  O21  1  0.132188  0.371759  0.631237  1
  O  O22  1  0.148562  0.613819  0.325941  1
  O  O23  1  0.171998  0.852274  0.110959  1
  O  O24  1  0.329090  0.148691  0.612829  1
  O  O25  1  0.352969  0.388370  0.828978  1
  O  O26  1  0.371200  0.630099  0.124820  1
  O  O27  1  0.363627  0.600527  0.578283  1
  O  O28  1  0.385781  0.828750  0.349637  1
  O  O29  1  0.379463  0.376026  0.378661  1
  O  O30  1  0.399522  0.076880  0.136425  1
  O  O31  1  0.422663  0.863315  0.898485  1
  O  O32  1  0.578008  0.362045  0.602524  1
  O  O33  1  0.601138  0.577293  0.363500  1
  O  O34  1  0.621947  0.875957  0.121852  1
  O  O35  1  0.613694  0.327440  0.149278  1
  O  O36  1  0.635635  0.100301  0.922475  1
  O  O37  1  0.628560  0.128955  0.374918  1
  O  O38  1  0.647316  0.889036  0.672036  1
  O  O39  1  0.671209  0.651708  0.886200  1
  O  O40  1  0.827135  0.351127  0.387319  1
  O  O41  1  0.851080  0.113376  0.173384  1
  O  O42  1  0.871006  0.874922  0.871442  1
  O  O43  1  0.860732  0.897907  0.422068  1
  O  O44  1  0.885253  0.673623  0.649071  1
  O  O45  1  0.875573  0.120356  0.620868  1
  O  O46  1  0.899504  0.422197  0.863306  1
  O  O47  1  0.923118  0.636157  0.101769  1
