# generated using pymatgen
data_Y(Bi3O5)4
_symmetry_space_group_name_H-M   'P 1'
_cell_length_a   8.97086580
_cell_length_b   8.97086580
_cell_length_c   8.97086580
_cell_angle_alpha   109.47256414
_cell_angle_beta   109.47145072
_cell_angle_gamma   109.46964705
_symmetry_Int_Tables_number   1
_chemical_formula_structural   Y(Bi3O5)4
_chemical_formula_sum   'Y1 Bi12 O20'
_cell_volume   555.75219836
_cell_formula_units_Z   1
loop_
 _symmetry_equiv_pos_site_id
 _symmetry_equiv_pos_as_xyz
  1  'x, y, z'
loop_
 _atom_site_type_symbol
 _atom_site_label
 _atom_site_symmetry_multiplicity
 _atom_site_fract_x
 _atom_site_fract_y
 _atom_site_fract_z
 _atom_site_occupancy
  Y  Y0  1  0.000000  0.000000  0.000000  1
  Bi  Bi1  1  0.817099  0.142128  0.311298  1
  Bi  Bi2  1  0.857887  0.674971  0.169179  1
  Bi  Bi3  1  0.494207  0.325029  0.182915  1
  Bi  Bi4  1  0.325017  0.182919  0.494212  1
  Bi  Bi5  1  0.674983  0.169195  0.857902  1
  Bi  Bi6  1  0.830831  0.505801  0.688702  1
  Bi  Bi7  1  0.182901  0.494199  0.325028  1
  Bi  Bi8  1  0.688707  0.830805  0.505788  1
  Bi  Bi9  1  0.311293  0.817081  0.142098  1
  Bi  Bi10  1  0.142113  0.311292  0.817085  1
  Bi  Bi11  1  0.505793  0.688708  0.830821  1
  Bi  Bi12  1  0.169169  0.857872  0.674972  1
  O  O13  1  0.648118  0.000001  -0.000004  1
  O  O14  1  0.753733  0.378199  0.113512  1
  O  O15  1  0.244239  0.999999  0.000003  1
  O  O16  1  0.624472  0.246260  0.359791  1
  O  O17  1  0.886469  0.264681  0.640209  1
  O  O18  1  0.999996  0.244234  -0.000004  1
  O  O19  1  0.000004  0.000001  0.244240  1
  O  O20  1  0.735313  0.621801  0.375533  1
  O  O21  1  0.351882  0.351878  0.351883  1
  O  O22  1  0.359803  0.624483  0.246263  1
  O  O23  1  0.640197  0.886459  0.264680  1
  O  O24  1  0.378221  0.113541  0.753737  1
  O  O25  1  0.621780  0.375517  0.735320  1
  O  O26  1  0.000005  0.648122  0.000004  1
  O  O27  1  0.999995  0.999999  0.648117  1
  O  O28  1  0.246267  0.359779  0.624467  1
  O  O29  1  0.755761  0.755766  0.755760  1
  O  O30  1  0.375528  0.735319  0.621788  1
  O  O31  1  0.113531  0.753740  0.378212  1
  O  O32  1  0.264687  0.640220  0.886488  1
