# generated using pymatgen
data_Li2CrPO6
_symmetry_space_group_name_H-M   'P 1'
_cell_length_a   10.27098051
_cell_length_b   4.68842970
_cell_length_c   8.70830121
_cell_angle_alpha   90.00000000
_cell_angle_beta   90.00000000
_cell_angle_gamma   90.00000000
_symmetry_Int_Tables_number   1
_chemical_formula_structural   Li2CrPO6
_chemical_formula_sum   'Li8 Cr4 P4 O24'
_cell_volume   419.34624248
_cell_formula_units_Z   4
loop_
 _symmetry_equiv_pos_site_id
 _symmetry_equiv_pos_as_xyz
  1  'x, y, z'
loop_
 _atom_site_type_symbol
 _atom_site_label
 _atom_site_symmetry_multiplicity
 _atom_site_fract_x
 _atom_site_fract_y
 _atom_site_fract_z
 _atom_site_occupancy
  Li  Li0  1  0.088206  0.022753  0.319040  1
  Li  Li1  1  0.134774  0.537754  0.622433  1
  Li  Li2  1  0.365226  0.037754  0.122433  1
  Li  Li3  1  0.411794  0.522753  0.819040  1
  Li  Li4  1  0.588206  0.477247  0.319040  1
  Li  Li5  1  0.634774  0.962246  0.622433  1
  Li  Li6  1  0.865226  0.462246  0.122433  1
  Li  Li7  1  0.911794  0.977247  0.819040  1
  Cr  Cr8  1  0.113807  0.482421  0.999800  1
  Cr  Cr9  1  0.386193  0.982421  0.499800  1
  Cr  Cr10  1  0.613807  0.017579  0.999800  1
  Cr  Cr11  1  0.886193  0.517579  0.499800  1
  P  P12  1  0.217222  0.085142  0.805732  1
  P  P13  1  0.282778  0.585142  0.305732  1
  P  P14  1  0.717222  0.414858  0.805732  1
  P  P15  1  0.782778  0.914858  0.305732  1
  O  O16  1  0.006845  0.294549  0.469181  1
  O  O17  1  0.055401  0.247517  0.125387  1
  O  O18  1  0.078807  0.229518  0.811352  1
  O  O19  1  0.215371  0.742176  0.443415  1
  O  O20  1  0.216759  0.760564  0.815910  1
  O  O21  1  0.218314  0.690599  0.153591  1
  O  O22  1  0.281686  0.190599  0.653592  1
  O  O23  1  0.283241  0.260564  0.315910  1
  O  O24  1  0.284629  0.242176  0.943415  1
  O  O25  1  0.421193  0.729518  0.311352  1
  O  O26  1  0.444599  0.747517  0.625387  1
  O  O27  1  0.493155  0.794549  0.969181  1
  O  O28  1  0.506845  0.205451  0.469181  1
  O  O29  1  0.555401  0.252483  0.125387  1
  O  O30  1  0.578807  0.270482  0.811352  1
  O  O31  1  0.715371  0.757824  0.443415  1
  O  O32  1  0.716759  0.739436  0.815910  1
  O  O33  1  0.718314  0.809401  0.153591  1
  O  O34  1  0.781686  0.309401  0.653592  1
  O  O35  1  0.783241  0.239436  0.315910  1
  O  O36  1  0.784629  0.257824  0.943415  1
  O  O37  1  0.921193  0.770482  0.311352  1
  O  O38  1  0.944599  0.752483  0.625387  1
  O  O39  1  0.993155  0.705451  0.969181  1
