# generated using pymatgen
data_La10Bi8O27
_symmetry_space_group_name_H-M   'P 1'
_cell_length_a   10.58311508
_cell_length_b   8.19940862
_cell_length_c   10.60182354
_cell_angle_alpha   78.77228202
_cell_angle_beta   69.45627716
_cell_angle_gamma   78.76750075
_symmetry_Int_Tables_number   1
_chemical_formula_structural   La10Bi8O27
_chemical_formula_sum   'La10 Bi8 O27'
_cell_volume   836.93467319
_cell_formula_units_Z   1
loop_
 _symmetry_equiv_pos_site_id
 _symmetry_equiv_pos_as_xyz
  1  'x, y, z'
loop_
 _atom_site_type_symbol
 _atom_site_label
 _atom_site_symmetry_multiplicity
 _atom_site_fract_x
 _atom_site_fract_y
 _atom_site_fract_z
 _atom_site_occupancy
  La  La0  1  0.334829  0.164326  0.009752  1
  La  La1  1  0.983548  0.838845  0.664989  1
  La  La2  1  0.329908  0.660627  0.025488  1
  La  La3  1  0.982084  0.336791  0.669121  1
  La  La4  1  0.990703  0.998287  0.012426  1
  La  La5  1  0.992854  0.500196  0.009982  1
  La  La6  1  0.021987  0.164133  0.331210  1
  La  La7  1  0.989957  0.663028  0.341589  1
  La  La8  1  0.661604  0.335523  0.008547  1
  La  La9  1  0.669978  0.835917  0.978984  1
  Bi  Bi10  1  0.681383  0.499317  0.318049  1
  Bi  Bi11  1  0.682026  0.000440  0.318215  1
  Bi  Bi12  1  0.322288  0.836217  0.324228  1
  Bi  Bi13  1  0.325602  0.337379  0.325815  1
  Bi  Bi14  1  0.674363  0.659242  0.676499  1
  Bi  Bi15  1  0.676661  0.166689  0.677355  1
  Bi  Bi16  1  0.323470  0.496993  0.685805  1
  Bi  Bi17  1  0.324918  0.998178  0.686242  1
  O  O18  1  0.895947  0.987572  0.271772  1
  O  O19  1  0.731100  0.570429  0.104162  1
  O  O20  1  0.730214  0.010819  0.104550  1
  O  O21  1  0.895471  0.429679  0.270259  1
  O  O22  1  0.416979  0.872261  0.105083  1
  O  O23  1  0.894410  0.629141  0.596211  1
  O  O24  1  0.899660  0.127895  0.585575  1
  O  O25  1  0.405006  0.368303  0.106097  1
  O  O26  1  0.601263  0.282313  0.270911  1
  O  O27  1  0.723411  0.717560  0.402552  1
  O  O28  1  0.098275  0.205873  0.080220  1
  O  O29  1  0.270863  0.112268  0.268167  1
  O  O30  1  0.270371  0.615782  0.271159  1
  O  O31  1  0.922158  0.794352  0.901613  1
  O  O32  1  0.076357  0.705349  0.100778  1
  O  O33  1  0.905780  0.293010  0.920081  1
  O  O34  1  0.732858  0.384031  0.732263  1
  O  O35  1  0.730055  0.886577  0.729464  1
  O  O36  1  0.382953  0.232836  0.686964  1
  O  O37  1  0.103330  0.864848  0.416094  1
  O  O38  1  0.580754  0.622889  0.906406  1
  O  O39  1  0.095311  0.377331  0.417225  1
  O  O40  1  0.585450  0.134897  0.896700  1
  O  O41  1  0.118919  0.535326  0.704720  1
  O  O42  1  0.120644  0.052617  0.703205  1
  O  O43  1  0.280560  0.939259  0.895074  1
  O  O44  1  0.278186  0.474501  0.894550  1
