# generated using pymatgen
data_Li4Ti2Mn7O18
_symmetry_space_group_name_H-M   'P 1'
_cell_length_a   9.04583430
_cell_length_b   25.01948317
_cell_length_c   2.94834832
_cell_angle_alpha   90.00005731
_cell_angle_beta   89.99999978
_cell_angle_gamma   90.17788509
_symmetry_Int_Tables_number   1
_chemical_formula_structural   Li4Ti2Mn7O18
_chemical_formula_sum   'Li8 Ti4 Mn14 O36'
_cell_volume   667.27316453
_cell_formula_units_Z   2
loop_
 _symmetry_equiv_pos_site_id
 _symmetry_equiv_pos_as_xyz
  1  'x, y, z'
loop_
 _atom_site_type_symbol
 _atom_site_label
 _atom_site_symmetry_multiplicity
 _atom_site_fract_x
 _atom_site_fract_y
 _atom_site_fract_z
 _atom_site_occupancy
  Li  Li0  1  0.190063  0.989211  0.999995  1
  Li  Li1  1  0.193504  0.206475  0.000003  1
  Li  Li2  1  0.306904  0.706501  0.000002  1
  Li  Li3  1  0.309837  0.489475  0.000001  1
  Li  Li4  1  0.690131  0.510730  0.000001  1
  Li  Li5  1  0.693691  0.293483  0.000002  1
  Li  Li6  1  0.806532  0.793436  0.000002  1
  Li  Li7  1  0.810120  0.010660  0.999996  1
  Ti  Ti8  1  0.003182  0.103989  0.999999  1
  Ti  Ti9  1  0.495844  0.603727  0.000002  1
  Ti  Ti10  1  0.504136  0.396228  0.000001  1
  Ti  Ti11  1  0.996762  0.895944  -0.000000  1
  Mn  Mn12  1  0.999793  0.500038  0.000000  1
  Mn  Mn13  1  0.023888  0.310115  0.000001  1
  Mn  Mn14  1  0.143333  0.586085  0.500000  1
  Mn  Mn15  1  0.147279  0.805935  0.499999  1
  Mn  Mn16  1  0.352935  0.306158  0.500003  1
  Mn  Mn17  1  0.355924  0.086071  0.499991  1
  Mn  Mn18  1  0.475987  0.810182  0.999997  1
  Mn  Mn19  1  0.499956  0.000038  0.000013  1
  Mn  Mn20  1  0.523963  0.189941  0.999998  1
  Mn  Mn21  1  0.643891  0.914025  0.499992  1
  Mn  Mn22  1  0.647310  0.693909  0.500001  1
  Mn  Mn23  1  0.852695  0.193930  0.500004  1
  Mn  Mn24  1  0.856286  0.413920  0.500000  1
  Mn  Mn25  1  0.975994  0.689653  0.000000  1
  O  O26  1  0.998466  0.423678  0.999995  1
  O  O27  1  0.000807  0.576320  0.000010  1
  O  O28  1  0.053981  0.940695  0.499999  1
  O  O29  1  0.049025  0.160586  0.499997  1
  O  O30  1  0.101004  0.661724  0.500001  1
  O  O31  1  0.105398  0.758523  0.000000  1
  O  O32  1  0.160308  0.508689  0.500003  1
  O  O33  1  0.148814  0.281373  0.500000  1
  O  O34  1  0.187996  0.854930  -0.000001  1
  O  O35  1  0.210029  0.087780  0.999962  1
  O  O36  1  0.291947  0.587958  0.999996  1
  O  O37  1  0.311897  0.354963  0.000000  1
  O  O38  1  0.351255  0.781350  0.499997  1
  O  O39  1  0.340345  0.008306  0.500001  1
  O  O40  1  0.394550  0.258671  0.999999  1
  O  O41  1  0.399055  0.161988  0.500000  1
  O  O42  1  0.451237  0.660778  0.500001  1
  O  O43  1  0.445930  0.440662  0.500001  1
  O  O44  1  0.497546  0.076793  0.000039  1
  O  O45  1  0.502192  0.923310  0.000025  1
  O  O46  1  0.554366  0.559290  0.500001  1
  O  O47  1  0.549096  0.339286  0.500000  1
  O  O48  1  0.600764  0.838171  0.499999  1
  O  O49  1  0.605772  0.741398  0.000001  1
  O  O50  1  0.659613  0.991660  0.500000  1
  O  O51  1  0.648853  0.218689  0.499998  1
  O  O52  1  0.688262  0.645122  0.000001  1
  O  O53  1  0.708221  0.412006  0.000005  1
  O  O54  1  0.789760  0.912317  0.999973  1
  O  O55  1  0.811870  0.144981  0.999998  1
  O  O56  1  0.851602  0.718503  0.500001  1
  O  O57  1  0.839548  0.491441  0.500001  1
  O  O58  1  0.894658  0.241372  0.000000  1
  O  O59  1  0.898955  0.338267  0.500000  1
  O  O60  1  0.950882  0.839333  0.499997  1
  O  O61  1  0.946053  0.059232  0.499997  1
