# generated using pymatgen
data_Li3Cr2(PO4)3
_symmetry_space_group_name_H-M   'P 1'
_cell_length_a   8.68440061
_cell_length_b   12.12361816
_cell_length_c   8.72633666
_cell_angle_alpha   90.00000000
_cell_angle_beta   90.00000000
_cell_angle_gamma   89.95785982
_symmetry_Int_Tables_number   1
_chemical_formula_structural   Li3Cr2(PO4)3
_chemical_formula_sum   'Li12 Cr8 P12 O48'
_cell_volume   918.76394785
_cell_formula_units_Z   4
loop_
 _symmetry_equiv_pos_site_id
 _symmetry_equiv_pos_as_xyz
  1  'x, y, z'
loop_
 _atom_site_type_symbol
 _atom_site_label
 _atom_site_symmetry_multiplicity
 _atom_site_fract_x
 _atom_site_fract_y
 _atom_site_fract_z
 _atom_site_occupancy
  Li  Li0  1  0.085355  0.696709  0.092100  1
  Li  Li1  1  0.081262  0.752690  0.710219  1
  Li  Li2  1  0.211367  0.177349  0.771562  1
  Li  Li3  1  0.288633  0.322651  0.271562  1
  Li  Li4  1  0.418738  0.747310  0.210219  1
  Li  Li5  1  0.414645  0.803291  0.592100  1
  Li  Li6  1  0.585355  0.196709  0.407900  1
  Li  Li7  1  0.581262  0.252690  0.789781  1
  Li  Li8  1  0.711367  0.677349  0.728438  1
  Li  Li9  1  0.788633  0.822651  0.228438  1
  Li  Li10  1  0.918738  0.247310  0.289781  1
  Li  Li11  1  0.914645  0.303291  0.907900  1
  Cr  Cr12  1  0.247810  0.113159  0.457199  1
  Cr  Cr13  1  0.251110  0.887939  0.036144  1
  Cr  Cr14  1  0.248890  0.612061  0.536144  1
  Cr  Cr15  1  0.252190  0.386841  0.957199  1
  Cr  Cr16  1  0.747810  0.613159  0.042801  1
  Cr  Cr17  1  0.751110  0.387939  0.463856  1
  Cr  Cr18  1  0.748890  0.112061  0.963856  1
  Cr  Cr19  1  0.752190  0.886841  0.542801  1
  P  P20  1  0.037441  0.494350  0.249281  1
  P  P21  1  0.103497  0.852125  0.390506  1
  P  P22  1  0.104534  0.147992  0.099840  1
  P  P23  1  0.395466  0.352008  0.599840  1
  P  P24  1  0.396503  0.647875  0.890506  1
  P  P25  1  0.462559  0.005650  0.749281  1
  P  P26  1  0.537441  0.994350  0.250719  1
  P  P27  1  0.603497  0.352125  0.109494  1
  P  P28  1  0.604534  0.647992  0.400160  1
  P  P29  1  0.895466  0.852008  0.900160  1
  P  P30  1  0.896503  0.147875  0.609494  1
  P  P31  1  0.962559  0.505650  0.750719  1
  O  O32  1  0.050337  0.425187  0.858100  1
  O  O33  1  0.070575  0.592525  0.678006  1
  O  O34  1  0.074470  0.837232  0.900762  1
  O  O35  1  0.072958  0.162797  0.595033  1
  O  O36  1  0.121224  0.567964  0.363445  1
  O  O37  1  0.147900  0.814313  0.225530  1
  O  O38  1  0.158477  0.426184  0.159351  1
  O  O39  1  0.154419  0.969693  0.419442  1
  O  O40  1  0.156175  0.032632  0.062218  1
  O  O41  1  0.153241  0.186357  0.263630  1
  O  O42  1  0.164991  0.230112  0.976172  1
  O  O43  1  0.183904  0.776533  0.513300  1
  O  O44  1  0.316096  0.723467  0.013300  1
  O  O45  1  0.335009  0.269888  0.476172  1
  O  O46  1  0.346759  0.313643  0.763630  1
  O  O47  1  0.343825  0.467368  0.562218  1
  O  O48  1  0.345581  0.530307  0.919442  1
  O  O49  1  0.341523  0.073816  0.659351  1
  O  O50  1  0.352100  0.685687  0.725530  1
  O  O51  1  0.378776  0.932036  0.863445  1
  O  O52  1  0.427042  0.337203  0.095033  1
  O  O53  1  0.425530  0.662768  0.400762  1
  O  O54  1  0.429425  0.907475  0.178006  1
  O  O55  1  0.449663  0.074813  0.358100  1
  O  O56  1  0.550337  0.925187  0.641900  1
  O  O57  1  0.570575  0.092525  0.821994  1
  O  O58  1  0.574470  0.337232  0.599238  1
  O  O59  1  0.572958  0.662797  0.904967  1
  O  O60  1  0.621224  0.067964  0.136555  1
  O  O61  1  0.647900  0.314313  0.274470  1
  O  O62  1  0.658477  0.926184  0.340649  1
  O  O63  1  0.654419  0.469693  0.080558  1
  O  O64  1  0.656175  0.532632  0.437782  1
  O  O65  1  0.653241  0.686357  0.236370  1
  O  O66  1  0.664991  0.730112  0.523828  1
  O  O67  1  0.683904  0.276533  0.986700  1
  O  O68  1  0.816096  0.223467  0.486700  1
  O  O69  1  0.835009  0.769888  0.023828  1
  O  O70  1  0.846759  0.813643  0.736370  1
  O  O71  1  0.843825  0.967368  0.937782  1
  O  O72  1  0.845581  0.030307  0.580558  1
  O  O73  1  0.841523  0.573816  0.840649  1
  O  O74  1  0.852100  0.185687  0.774470  1
  O  O75  1  0.878776  0.432036  0.636555  1
  O  O76  1  0.927042  0.837203  0.404967  1
  O  O77  1  0.925530  0.162768  0.099238  1
  O  O78  1  0.929425  0.407475  0.321994  1
  O  O79  1  0.949663  0.574813  0.141900  1
