# generated using pymatgen
data_MoH12Pd(NO)4
_symmetry_space_group_name_H-M   'P 1'
_cell_length_a   7.55335963
_cell_length_b   7.55335963
_cell_length_c   9.53451794
_cell_angle_alpha   113.33497270
_cell_angle_beta   113.33497270
_cell_angle_gamma   90.00000000
_symmetry_Int_Tables_number   1
_chemical_formula_structural   MoH12Pd(NO)4
_chemical_formula_sum   'Mo2 H24 Pd2 N8 O8'
_cell_volume   450.61373673
_cell_formula_units_Z   2
loop_
 _symmetry_equiv_pos_site_id
 _symmetry_equiv_pos_as_xyz
  1  'x, y, z'
loop_
 _atom_site_type_symbol
 _atom_site_label
 _atom_site_symmetry_multiplicity
 _atom_site_fract_x
 _atom_site_fract_y
 _atom_site_fract_z
 _atom_site_occupancy
  Mo  Mo0  1  0.625000  0.375000  0.250000  1
  Mo  Mo1  1  0.375000  0.625000  0.750000  1
  H  H2  1  0.753322  0.807467  0.114933  1
  H  H3  1  0.807467  0.753322  0.614933  1
  H  H4  1  0.807467  0.361611  0.614933  1
  H  H5  1  0.361611  0.807467  0.114933  1
  H  H6  1  0.246678  0.192533  0.885067  1
  H  H7  1  0.192533  0.246678  0.385067  1
  H  H8  1  0.192533  0.638389  0.385067  1
  H  H9  1  0.638389  0.192533  0.885067  1
  H  H10  1  0.817657  0.008825  0.298223  1
  H  H11  1  0.817657  0.789398  0.298223  1
  H  H12  1  0.008825  0.817657  0.798223  1
  H  H13  1  0.008825  0.480566  0.798223  1
  H  H14  1  0.480566  0.008825  0.298223  1
  H  H15  1  0.480566  0.789398  0.298223  1
  H  H16  1  0.789398  0.817657  0.798223  1
  H  H17  1  0.789398  0.480566  0.798223  1
  H  H18  1  0.182343  0.991175  0.701777  1
  H  H19  1  0.182343  0.210602  0.701777  1
  H  H20  1  0.991175  0.182343  0.201777  1
  H  H21  1  0.991175  0.519434  0.201777  1
  H  H22  1  0.519434  0.991175  0.701777  1
  H  H23  1  0.519434  0.210602  0.701777  1
  H  H24  1  0.210602  0.182343  0.201777  1
  H  H25  1  0.210602  0.519434  0.201777  1
  Pd  Pd26  1  0.125000  0.875000  0.250000  1
  Pd  Pd27  1  0.875000  0.125000  0.750000  1
  N  N28  1  0.847977  0.871542  0.243084  1
  N  N29  1  0.871542  0.847977  0.743084  1
  N  N30  1  0.871542  0.395107  0.743084  1
  N  N31  1  0.395107  0.871542  0.243084  1
  N  N32  1  0.152023  0.128458  0.756916  1
  N  N33  1  0.128458  0.152023  0.256916  1
  N  N34  1  0.128458  0.604893  0.256916  1
  N  N35  1  0.604893  0.128458  0.756916  1
  O  O36  1  0.689344  0.242427  0.378687  1
  O  O37  1  0.689344  0.636261  0.378687  1
  O  O38  1  0.242427  0.689344  0.878687  1
  O  O39  1  0.636261  0.689344  0.878687  1
  O  O40  1  0.310656  0.757573  0.621313  1
  O  O41  1  0.310656  0.363739  0.621313  1
  O  O42  1  0.757573  0.310656  0.121313  1
  O  O43  1  0.363739  0.310656  0.121313  1
