# generated using pymatgen
data_TbPt
_symmetry_space_group_name_H-M   'P 1'
_cell_length_a   4.95454448
_cell_length_b   4.95133633
_cell_length_c   7.05808481
_cell_angle_alpha   90.00000000
_cell_angle_beta   90.00000000
_cell_angle_gamma   90.00000000
_symmetry_Int_Tables_number   1
_chemical_formula_structural   TbPt
_chemical_formula_sum   'Tb4 Pt4'
_cell_volume   173.14622684
_cell_formula_units_Z   4
loop_
 _symmetry_equiv_pos_site_id
 _symmetry_equiv_pos_as_xyz
  1  'x, y, z'
loop_
 _atom_site_type_symbol
 _atom_site_label
 _atom_site_symmetry_multiplicity
 _atom_site_fract_x
 _atom_site_fract_y
 _atom_site_fract_z
 _atom_site_occupancy
  Tb  Tb0  1  0.250000  0.750001  0.999947  1
  Tb  Tb1  1  0.750000  0.249999  0.000053  1
  Tb  Tb2  1  0.750000  0.250001  0.500053  1
  Tb  Tb3  1  0.250000  0.749999  0.499947  1
  Pt  Pt4  1  0.250000  0.249944  0.248497  1
  Pt  Pt5  1  0.750000  0.750056  0.751503  1
  Pt  Pt6  1  0.750000  0.749944  0.251503  1
  Pt  Pt7  1  0.250000  0.250056  0.748497  1
