# generated using pymatgen
data_BaCaI4
_symmetry_space_group_name_H-M   'P 1'
_cell_length_a   7.31061419
_cell_length_b   4.82239451
_cell_length_c   8.51666725
_cell_angle_alpha   90.00000000
_cell_angle_beta   89.47057937
_cell_angle_gamma   90.00000000
_symmetry_Int_Tables_number   1
_chemical_formula_structural   BaCaI4
_chemical_formula_sum   'Ba1 Ca1 I4'
_cell_volume   300.23943963
_cell_formula_units_Z   1
loop_
 _symmetry_equiv_pos_site_id
 _symmetry_equiv_pos_as_xyz
  1  'x, y, z'
loop_
 _atom_site_type_symbol
 _atom_site_label
 _atom_site_symmetry_multiplicity
 _atom_site_fract_x
 _atom_site_fract_y
 _atom_site_fract_z
 _atom_site_occupancy
  Ba  Ba0  1  0.000000  0.500000  0.500000  1
  Ca  Ca1  1  0.000000  0.000000  0.000000  1
  I  I2  1  0.252861  0.000000  0.692974  1
  I  I3  1  0.236918  0.500000  0.142712  1
  I  I4  1  0.763082  0.500000  0.857288  1
  I  I5  1  0.747139  0.000000  0.307026  1
