# generated using pymatgen
data_Li12MnV7(PO4)12
_symmetry_space_group_name_H-M   'P 1'
_cell_length_a   8.73467500
_cell_length_b   12.16786685
_cell_length_c   8.74860854
_cell_angle_alpha   90.17214046
_cell_angle_beta   89.66432451
_cell_angle_gamma   90.84762701
_symmetry_Int_Tables_number   1
_chemical_formula_structural   Li12MnV7(PO4)12
_chemical_formula_sum   'Li12 Mn1 V7 P12 O48'
_cell_volume   929.70112068
_cell_formula_units_Z   1
loop_
 _symmetry_equiv_pos_site_id
 _symmetry_equiv_pos_as_xyz
  1  'x, y, z'
loop_
 _atom_site_type_symbol
 _atom_site_label
 _atom_site_symmetry_multiplicity
 _atom_site_fract_x
 _atom_site_fract_y
 _atom_site_fract_z
 _atom_site_occupancy
  Li  Li0  1  0.073177  0.697454  0.081261  1
  Li  Li1  1  0.080695  0.763438  0.697654  1
  Li  Li2  1  0.206845  0.174486  0.783660  1
  Li  Li3  1  0.292037  0.325836  0.281714  1
  Li  Li4  1  0.416394  0.737937  0.197756  1
  Li  Li5  1  0.427174  0.802566  0.580650  1
  Li  Li6  1  0.574259  0.196494  0.417794  1
  Li  Li7  1  0.583998  0.262634  0.802561  1
  Li  Li8  1  0.708983  0.675728  0.717653  1
  Li  Li9  1  0.791985  0.826613  0.218427  1
  Li  Li10  1  0.916234  0.236879  0.302563  1
  Li  Li11  1  0.926596  0.302486  0.919246  1
  Mn  Mn12  1  0.752993  0.891625  0.538961  1
  V  V13  1  0.246941  0.609958  0.530151  1
  V  V14  1  0.253343  0.890224  0.029278  1
  V  V15  1  0.246927  0.109057  0.462113  1
  V  V16  1  0.252884  0.389529  0.962036  1
  V  V17  1  0.747304  0.610282  0.037920  1
  V  V18  1  0.746626  0.108969  0.969672  1
  V  V19  1  0.753197  0.390603  0.470092  1
  P  P20  1  0.036374  0.493046  0.247917  1
  P  P21  1  0.103417  0.851278  0.382809  1
  P  P22  1  0.105144  0.148756  0.104802  1
  P  P23  1  0.394137  0.351370  0.604776  1
  P  P24  1  0.397352  0.648007  0.882613  1
  P  P25  1  0.462913  0.008056  0.747677  1
  P  P26  1  0.535582  0.993018  0.248631  1
  P  P27  1  0.602723  0.351934  0.117228  1
  P  P28  1  0.605851  0.649244  0.395715  1
  P  P29  1  0.895668  0.849845  0.897313  1
  P  P30  1  0.896544  0.147771  0.616816  1
  P  P31  1  0.964320  0.506826  0.752491  1
  O  O32  1  0.049352  0.433869  0.867080  1
  O  O33  1  0.074368  0.852112  0.888707  1
  O  O34  1  0.069981  0.596964  0.681763  1
  O  O35  1  0.070513  0.169336  0.594582  1
  O  O36  1  0.108025  0.571756  0.365649  1
  O  O37  1  0.143584  0.818058  0.215354  1
  O  O38  1  0.145859  0.972070  0.411712  1
  O  O39  1  0.144956  0.239245  0.982729  1
  O  O40  1  0.159589  0.187370  0.265813  1
  O  O41  1  0.169412  0.431445  0.168612  1
  O  O42  1  0.172932  0.042467  0.050969  1
  O  O43  1  0.194379  0.781528  0.501079  1
  O  O44  1  0.305181  0.718538  0.001090  1
  O  O45  1  0.326906  0.458073  0.551812  1
  O  O46  1  0.329845  0.069241  0.669415  1
  O  O47  1  0.339090  0.313456  0.765850  1
  O  O48  1  0.355398  0.527326  0.910666  1
  O  O49  1  0.358484  0.681360  0.714804  1
  O  O50  1  0.354444  0.260660  0.482650  1
  O  O51  1  0.392402  0.929158  0.865294  1
  O  O52  1  0.427570  0.903766  0.178754  1
  O  O53  1  0.427413  0.648028  0.386440  1
  O  O54  1  0.429393  0.330918  0.095386  1
  O  O55  1  0.450019  0.065736  0.366271  1
  O  O56  1  0.546923  0.933828  0.631225  1
  O  O57  1  0.570566  0.669495  0.903994  1
  O  O58  1  0.572742  0.352585  0.614692  1
  O  O59  1  0.569332  0.097621  0.817706  1
  O  O60  1  0.603782  0.074712  0.131469  1
  O  O61  1  0.645516  0.739762  0.519062  1
  O  O62  1  0.641158  0.318598  0.285182  1
  O  O63  1  0.644696  0.472527  0.088701  1
  O  O64  1  0.659976  0.686493  0.234420  1
  O  O65  1  0.668252  0.932260  0.322786  1
  O  O66  1  0.672900  0.541966  0.448039  1
  O  O67  1  0.695042  0.281278  0.999029  1
  O  O68  1  0.804957  0.217971  0.499340  1
  O  O69  1  0.827381  0.957698  0.948885  1
  O  O70  1  0.830775  0.568067  0.832261  1
  O  O71  1  0.843866  0.808470  0.738731  1
  O  O72  1  0.856274  0.760795  0.021703  1
  O  O73  1  0.859856  0.025406  0.591761  1
  O  O74  1  0.857872  0.182436  0.784658  1
  O  O75  1  0.892546  0.427843  0.634720  1
  O  O76  1  0.929395  0.829692  0.403152  1
  O  O77  1  0.930149  0.402657  0.318735  1
  O  O78  1  0.926440  0.147798  0.114347  1
  O  O79  1  0.951889  0.565613  0.132979  1
