# generated using pymatgen
data_Li2Cu3F8
_symmetry_space_group_name_H-M   'P 1'
_cell_length_a   6.05373348
_cell_length_b   5.82519787
_cell_length_c   6.28194348
_cell_angle_alpha   59.57874467
_cell_angle_beta   60.21945634
_cell_angle_gamma   60.92290551
_symmetry_Int_Tables_number   1
_chemical_formula_structural   Li2Cu3F8
_chemical_formula_sum   'Li2 Cu3 F8'
_cell_volume   157.45300423
_cell_formula_units_Z   1
loop_
 _symmetry_equiv_pos_site_id
 _symmetry_equiv_pos_as_xyz
  1  'x, y, z'
loop_
 _atom_site_type_symbol
 _atom_site_label
 _atom_site_symmetry_multiplicity
 _atom_site_fract_x
 _atom_site_fract_y
 _atom_site_fract_z
 _atom_site_occupancy
  Li  Li0  1  0.127286  0.162176  0.134846  1
  Li  Li1  1  0.872712  0.837822  0.865155  1
  Cu  Cu2  1  0.000004  0.500007  0.499997  1
  Cu  Cu3  1  0.500008  0.500007  0.999990  1
  Cu  Cu4  1  0.500006  0.999997  0.500008  1
  F  F5  1  0.138812  0.557238  0.058293  1
  F  F6  1  0.442973  0.907780  0.871036  1
  F  F7  1  0.381553  0.391474  0.438365  1
  F  F8  1  0.949998  0.882742  0.405067  1
  F  F9  1  0.050002  0.117256  0.594934  1
  F  F10  1  0.618450  0.608520  0.561635  1
  F  F11  1  0.557027  0.092218  0.128960  1
  F  F12  1  0.861178  0.442762  0.941708  1
