# generated using pymatgen
data_Li4V3Co2Sn3O16
_symmetry_space_group_name_H-M   'P 1'
_cell_length_a   6.09064606
_cell_length_b   6.13766851
_cell_length_c   9.85173564
_cell_angle_alpha   89.89836567
_cell_angle_beta   89.83318270
_cell_angle_gamma   119.45321039
_symmetry_Int_Tables_number   1
_chemical_formula_structural   Li4V3Co2Sn3O16
_chemical_formula_sum   'Li4 V3 Co2 Sn3 O16'
_cell_volume   320.68009176
_cell_formula_units_Z   1
loop_
 _symmetry_equiv_pos_site_id
 _symmetry_equiv_pos_as_xyz
  1  'x, y, z'
loop_
 _atom_site_type_symbol
 _atom_site_label
 _atom_site_symmetry_multiplicity
 _atom_site_fract_x
 _atom_site_fract_y
 _atom_site_fract_z
 _atom_site_occupancy
  Li  Li0  1  0.365016  0.679546  0.892219  1
  Li  Li1  1  0.962302  0.983937  0.992286  1
  Li  Li2  1  0.993576  0.002016  0.500323  1
  Li  Li3  1  0.674837  0.342894  0.395998  1
  V  V4  1  0.657962  0.833534  0.217352  1
  V  V5  1  0.872675  0.224737  0.734143  1
  V  V6  1  0.810604  0.677978  0.699097  1
  Co  Co7  1  0.320860  0.648991  0.495453  1
  Co  Co8  1  0.656330  0.329957  0.994396  1
  Sn  Sn9  1  0.164017  0.830320  0.213285  1
  Sn  Sn10  1  0.165860  0.336616  0.213633  1
  Sn  Sn11  1  0.344697  0.157093  0.714572  1
  O  O12  1  0.145481  0.827186  0.601962  1
  O  O13  1  0.031899  0.522195  0.338853  1
  O  O14  1  0.341491  0.670493  0.098953  1
  O  O15  1  0.987252  0.995578  0.318340  1
  O  O16  1  0.987286  0.994941  0.808949  1
  O  O17  1  0.150852  0.309311  0.604047  1
  O  O18  1  0.500649  0.966785  0.328676  1
  O  O19  1  0.484936  0.520635  0.334122  1
  O  O20  1  0.299887  0.145826  0.091893  1
  O  O21  1  0.671128  0.808904  0.598328  1
  O  O22  1  0.538326  0.485894  0.833339  1
  O  O23  1  0.546127  0.037227  0.832525  1
  O  O24  1  0.692913  0.341841  0.608199  1
  O  O25  1  0.814623  0.682337  0.108223  1
  O  O26  1  0.991993  0.491311  0.834034  1
  O  O27  1  0.826422  0.152214  0.104645  1
