# generated using pymatgen
data_Li2FeF5
_symmetry_space_group_name_H-M   'P 1'
_cell_length_a   6.41515711
_cell_length_b   6.20963174
_cell_length_c   8.93283494
_cell_angle_alpha   90.00000000
_cell_angle_beta   90.00082838
_cell_angle_gamma   90.00000000
_symmetry_Int_Tables_number   1
_chemical_formula_structural   Li2FeF5
_chemical_formula_sum   'Li8 Fe4 F20'
_cell_volume   355.84629742
_cell_formula_units_Z   4
loop_
 _symmetry_equiv_pos_site_id
 _symmetry_equiv_pos_as_xyz
  1  'x, y, z'
loop_
 _atom_site_type_symbol
 _atom_site_label
 _atom_site_symmetry_multiplicity
 _atom_site_fract_x
 _atom_site_fract_y
 _atom_site_fract_z
 _atom_site_occupancy
  Li  Li0  1  0.942808  0.762562  0.346406  1
  Li  Li1  1  0.939545  0.232432  0.340259  1
  Li  Li2  1  0.560454  0.232428  0.840257  1
  Li  Li3  1  0.557191  0.762567  0.846406  1
  Li  Li4  1  0.442809  0.262567  0.153594  1
  Li  Li5  1  0.439546  0.732428  0.159743  1
  Li  Li6  1  0.060455  0.732432  0.659741  1
  Li  Li7  1  0.057192  0.262562  0.653594  1
  Fe  Fe8  1  0.080373  0.994221  0.999945  1
  Fe  Fe9  1  0.419651  0.994234  0.499953  1
  Fe  Fe10  1  0.580349  0.494234  0.500047  1
  Fe  Fe11  1  0.919627  0.494221  0.000055  1
  F  F12  1  0.084453  0.993325  0.491103  1
  F  F13  1  0.059392  0.494213  0.803387  1
  F  F14  1  0.167426  0.700045  0.061375  1
  F  F15  1  0.166369  0.287985  0.062113  1
  F  F16  1  0.120663  0.996418  0.783491  1
  F  F17  1  0.379339  0.996416  0.283477  1
  F  F18  1  0.333632  0.287983  0.562109  1
  F  F19  1  0.332571  0.700053  0.561375  1
  F  F20  1  0.440607  0.494214  0.303388  1
  F  F21  1  0.415544  0.993323  0.991104  1
  F  F22  1  0.584456  0.493323  0.008896  1
  F  F23  1  0.559393  0.994214  0.696612  1
  F  F24  1  0.667429  0.200053  0.438625  1
  F  F25  1  0.666368  0.787983  0.437891  1
  F  F26  1  0.620661  0.496416  0.716523  1
  F  F27  1  0.879337  0.496418  0.216509  1
  F  F28  1  0.833631  0.787985  0.937887  1
  F  F29  1  0.832574  0.200045  0.938625  1
  F  F30  1  0.940608  0.994213  0.196613  1
  F  F31  1  0.915547  0.493325  0.508897  1
