# generated using pymatgen
data_Li4Mn2Fe3Cu3O16
_symmetry_space_group_name_H-M   'P 1'
_cell_length_a   5.85727760
_cell_length_b   5.86602341
_cell_length_c   9.42063535
_cell_angle_alpha   89.98708730
_cell_angle_beta   90.14618452
_cell_angle_gamma   120.08143442
_symmetry_Int_Tables_number   1
_chemical_formula_structural   Li4Mn2Fe3Cu3O16
_chemical_formula_sum   'Li4 Mn2 Fe3 Cu3 O16'
_cell_volume   280.08621062
_cell_formula_units_Z   1
loop_
 _symmetry_equiv_pos_site_id
 _symmetry_equiv_pos_as_xyz
  1  'x, y, z'
loop_
 _atom_site_type_symbol
 _atom_site_label
 _atom_site_symmetry_multiplicity
 _atom_site_fract_x
 _atom_site_fract_y
 _atom_site_fract_z
 _atom_site_occupancy
  Li  Li0  1  0.321418  0.660687  0.899171  1
  Li  Li1  1  0.003575  0.001944  0.994138  1
  Li  Li2  1  0.015776  0.007923  0.491195  1
  Li  Li3  1  0.663428  0.331725  0.397200  1
  Mn  Mn4  1  0.337517  0.668840  0.484850  1
  Mn  Mn5  1  0.664040  0.331933  0.984989  1
  Fe  Fe6  1  0.661868  0.830910  0.213201  1
  Fe  Fe7  1  0.830114  0.659980  0.712939  1
  Fe  Fe8  1  0.830096  0.170092  0.712922  1
  Cu  Cu9  1  0.171242  0.829655  0.212597  1
  Cu  Cu10  1  0.170867  0.341470  0.212133  1
  Cu  Cu11  1  0.341819  0.170916  0.711588  1
  O  O12  1  0.164327  0.824452  0.594031  1
  O  O13  1  0.042940  0.521745  0.348960  1
  O  O14  1  0.322308  0.661001  0.107860  1
  O  O15  1  0.014786  0.007589  0.301287  1
  O  O16  1  0.011840  0.005866  0.804410  1
  O  O17  1  0.164378  0.339763  0.594031  1
  O  O18  1  0.482016  0.960808  0.348399  1
  O  O19  1  0.482152  0.521316  0.348572  1
  O  O20  1  0.335274  0.167338  0.094629  1
  O  O21  1  0.664605  0.832339  0.596035  1
  O  O22  1  0.518458  0.481675  0.850103  1
  O  O23  1  0.518439  0.036926  0.850090  1
  O  O24  1  0.658902  0.329509  0.604483  1
  O  O25  1  0.825701  0.661209  0.095421  1
  O  O26  1  0.956607  0.478283  0.847291  1
  O  O27  1  0.825506  0.164405  0.095314  1
