# generated using pymatgen
data_SrLu2O4
_symmetry_space_group_name_H-M   'P 1'
_cell_length_a   3.31261407
_cell_length_b   5.71838176
_cell_length_c   11.02485635
_cell_angle_alpha   90.00167968
_cell_angle_beta   89.99922670
_cell_angle_gamma   106.83577363
_symmetry_Int_Tables_number   1
_chemical_formula_structural   SrLu2O4
_chemical_formula_sum   'Sr2 Lu4 O8'
_cell_volume   199.89036967
_cell_formula_units_Z   2
loop_
 _symmetry_equiv_pos_site_id
 _symmetry_equiv_pos_as_xyz
  1  'x, y, z'
loop_
 _atom_site_type_symbol
 _atom_site_label
 _atom_site_symmetry_multiplicity
 _atom_site_fract_x
 _atom_site_fract_y
 _atom_site_fract_z
 _atom_site_occupancy
  Sr  Sr0  1  0.111120  0.221823  0.250001  1
  Sr  Sr1  1  0.888887  0.778185  0.750001  1
  Lu  Lu2  1  0.634050  0.268349  0.928257  1
  Lu  Lu3  1  0.634126  0.268346  0.571764  1
  Lu  Lu4  1  0.365829  0.731656  0.071754  1
  Lu  Lu5  1  0.366027  0.731671  0.428235  1
  O  O6  1  0.999985  0.000002  0.999996  1
  O  O7  1  0.000003  0.999990  0.500000  1
  O  O8  1  0.554015  0.108141  0.750014  1
  O  O9  1  0.736485  0.472727  0.106844  1
  O  O10  1  0.736528  0.472716  0.393149  1
  O  O11  1  0.263487  0.527269  0.606859  1
  O  O12  1  0.263445  0.527273  0.893140  1
  O  O13  1  0.446015  0.891854  0.249986  1
