# generated using pymatgen
data_Na2Co2(B4O7)3
_symmetry_space_group_name_H-M   'P 1'
_cell_length_a   4.60049511
_cell_length_b   11.74046490
_cell_length_c   14.64651712
_cell_angle_alpha   80.98417189
_cell_angle_beta   80.96423932
_cell_angle_gamma   78.70124859
_symmetry_Int_Tables_number   1
_chemical_formula_structural   Na2Co2(B4O7)3
_chemical_formula_sum   'Na4 Co4 B24 O42'
_cell_volume   759.62275798
_cell_formula_units_Z   2
loop_
 _symmetry_equiv_pos_site_id
 _symmetry_equiv_pos_as_xyz
  1  'x, y, z'
loop_
 _atom_site_type_symbol
 _atom_site_label
 _atom_site_symmetry_multiplicity
 _atom_site_fract_x
 _atom_site_fract_y
 _atom_site_fract_z
 _atom_site_occupancy
  Na  Na0  1  0.408886  0.795705  0.490759  1
  Na  Na1  1  0.695350  0.704295  0.009241  1
  Na  Na2  1  0.591114  0.204295  0.509241  1
  Na  Na3  1  0.304650  0.295705  0.990759  1
  Co  Co4  1  0.447159  0.490641  0.604942  1
  Co  Co5  1  0.457258  0.990641  0.104942  1
  Co  Co6  1  0.542742  0.009359  0.895058  1
  Co  Co7  1  0.552841  0.509359  0.395058  1
  B  B8  1  0.807257  0.166990  0.155496  1
  B  B9  1  0.870257  0.666990  0.655496  1
  B  B10  1  0.626092  0.672953  0.817554  1
  B  B11  1  0.584533  0.036234  0.293639  1
  B  B12  1  0.555582  0.378666  0.797190  1
  B  B13  1  0.373908  0.327047  0.182446  1
  B  B14  1  0.444418  0.621334  0.202810  1
  B  B15  1  0.067030  0.797732  0.172731  1
  B  B16  1  0.268562  0.878666  0.297190  1
  B  B17  1  0.040721  0.378878  0.507558  1
  B  B18  1  0.415467  0.963766  0.706361  1
  B  B19  1  0.932970  0.202268  0.827269  1
  B  B20  1  0.192743  0.833010  0.844504  1
  B  B21  1  0.037493  0.702268  0.327269  1
  B  B22  1  0.962507  0.297732  0.672731  1
  B  B23  1  0.129743  0.333010  0.344504  1
  B  B24  1  0.927156  0.121122  0.992442  1
  B  B25  1  0.731438  0.121334  0.702810  1
  B  B26  1  0.959279  0.621122  0.492442  1
  B  B27  1  0.883400  0.172953  0.317554  1
  B  B28  1  0.072844  0.878878  0.007558  1
  B  B29  1  0.116600  0.827047  0.682446  1
  B  B30  1  0.914405  0.463766  0.206361  1
  B  B31  1  0.085595  0.536234  0.793639  1
  O  O32  1  0.760167  0.635073  0.574385  1
  O  O33  1  0.976903  0.230716  0.378837  1
  O  O34  1  0.834348  0.207006  0.638909  1
  O  O35  1  0.155288  0.350370  0.593153  1
  O  O36  1  0.664509  0.084554  0.996071  1
  O  O37  1  0.386001  0.307482  0.276043  1
  O  O38  1  0.239833  0.364927  0.425615  1
  O  O39  1  0.850037  0.586388  0.854846  1
  O  O40  1  0.901189  0.850370  0.093153  1
  O  O41  1  0.588540  0.046503  0.667125  1
  O  O42  1  0.023097  0.769284  0.621163  1
  O  O43  1  0.302168  0.453497  0.832875  1
  O  O44  1  0.683677  0.391841  0.704991  1
  O  O45  1  0.165652  0.792994  0.361091  1
  O  O46  1  0.121015  0.250000  0.750000  1
  O  O47  1  0.319736  0.707006  0.138909  1
  O  O48  1  0.254866  0.584554  0.496071  1
  O  O49  1  0.098811  0.149630  0.906847  1
  O  O50  1  0.413544  0.730716  0.878837  1
  O  O51  1  0.969526  0.192518  0.223957  1
  O  O52  1  0.316323  0.608159  0.295009  1
  O  O53  1  0.030376  0.135073  0.074385  1
  O  O54  1  0.901818  0.432612  0.301738  1
  O  O55  1  0.098182  0.567388  0.698262  1
  O  O56  1  0.708729  0.086388  0.354846  1
  O  O57  1  0.969624  0.864927  0.925615  1
  O  O58  1  0.636169  0.067388  0.198262  1
  O  O59  1  0.697832  0.546503  0.167125  1
  O  O60  1  0.030474  0.807482  0.776043  1
  O  O61  1  0.844712  0.649630  0.406847  1
  O  O62  1  0.586456  0.269284  0.121163  1
  O  O63  1  0.745134  0.415446  0.503929  1
  O  O64  1  0.411460  0.953497  0.332875  1
  O  O65  1  0.613999  0.692518  0.723957  1
  O  O66  1  0.219491  0.891841  0.204991  1
  O  O67  1  0.780509  0.108159  0.795009  1
  O  O68  1  0.149963  0.413612  0.145154  1
  O  O69  1  0.291271  0.913612  0.645154  1
  O  O70  1  0.680264  0.292994  0.861091  1
  O  O71  1  0.878985  0.750000  0.250000  1
  O  O72  1  0.363831  0.932612  0.801738  1
  O  O73  1  0.335491  0.915446  0.003929  1
