# generated using pymatgen
data_CoH9(NO)6
_symmetry_space_group_name_H-M   'P 1'
_cell_length_a   10.27361351
_cell_length_b   11.75148101
_cell_length_c   6.91452698
_cell_angle_alpha   90.00000000
_cell_angle_beta   90.00000000
_cell_angle_gamma   90.00000000
_symmetry_Int_Tables_number   1
_chemical_formula_structural   CoH9(NO)6
_chemical_formula_sum   'Co4 H36 N24 O24'
_cell_volume   834.79204589
_cell_formula_units_Z   4
loop_
 _symmetry_equiv_pos_site_id
 _symmetry_equiv_pos_as_xyz
  1  'x, y, z'
loop_
 _atom_site_type_symbol
 _atom_site_label
 _atom_site_symmetry_multiplicity
 _atom_site_fract_x
 _atom_site_fract_y
 _atom_site_fract_z
 _atom_site_occupancy
  Co  Co0  1  0.683071  0.742189  0.241253  1
  Co  Co1  1  0.816929  0.257811  0.741253  1
  Co  Co2  1  0.183071  0.757811  0.758747  1
  Co  Co3  1  0.316929  0.242189  0.258747  1
  H  H4  1  0.851999  0.585545  0.316824  1
  H  H5  1  0.648001  0.414455  0.816824  1
  H  H6  1  0.351999  0.914455  0.683176  1
  H  H7  1  0.148001  0.085545  0.183176  1
  H  H8  1  0.914288  0.711123  0.363541  1
  H  H9  1  0.585712  0.288877  0.863541  1
  H  H10  1  0.414288  0.788877  0.636459  1
  H  H11  1  0.085712  0.211123  0.136459  1
  H  H12  1  0.905484  0.666310  0.138500  1
  H  H13  1  0.594516  0.333690  0.638500  1
  H  H14  1  0.405484  0.833690  0.861500  1
  H  H15  1  0.094516  0.166310  0.361500  1
  H  H16  1  0.789325  0.809935  0.926104  1
  H  H17  1  0.710675  0.190065  0.426104  1
  H  H18  1  0.289325  0.690065  0.073896  1
  H  H19  1  0.210675  0.309935  0.573896  1
  H  H20  1  0.840101  0.887390  0.113613  1
  H  H21  1  0.659899  0.112610  0.613613  1
  H  H22  1  0.340101  0.612610  0.886387  1
  H  H23  1  0.159899  0.387390  0.386387  1
  H  H24  1  0.694661  0.911438  0.017450  1
  H  H25  1  0.805339  0.088562  0.517450  1
  H  H26  1  0.194661  0.588562  0.982550  1
  H  H27  1  0.305339  0.411438  0.482550  1
  H  H28  1  0.681642  0.620049  0.543483  1
  H  H29  1  0.818358  0.379951  0.043483  1
  H  H30  1  0.181642  0.879951  0.456517  1
  H  H31  1  0.318358  0.120049  0.956517  1
  H  H32  1  0.531969  0.664158  0.496382  1
  H  H33  1  0.968031  0.335842  0.996382  1
  H  H34  1  0.031969  0.835842  0.503618  1
  H  H35  1  0.468031  0.164158  0.003618  1
  H  H36  1  0.594239  0.556463  0.376285  1
  H  H37  1  0.905761  0.443537  0.876285  1
  H  H38  1  0.094239  0.943537  0.623715  1
  H  H39  1  0.405761  0.056463  0.123715  1
  N  N40  1  0.513251  0.813687  0.212461  1
  N  N41  1  0.986749  0.186313  0.712461  1
  N  N42  1  0.013251  0.686313  0.787539  1
  N  N43  1  0.486749  0.313687  0.287539  1
  N  N44  1  0.639113  0.633759  0.035726  1
  N  N45  1  0.860887  0.366241  0.535726  1
  N  N46  1  0.139113  0.866241  0.964274  1
  N  N47  1  0.360887  0.133759  0.464274  1
  N  N48  1  0.722835  0.851701  0.445801  1
  N  N49  1  0.777165  0.148299  0.945801  1
  N  N50  1  0.222835  0.648299  0.554199  1
  N  N51  1  0.277165  0.351701  0.054199  1
  N  N52  1  0.856640  0.668129  0.267676  1
  N  N53  1  0.643360  0.331871  0.767676  1
  N  N54  1  0.356640  0.831871  0.732324  1
  N  N55  1  0.143360  0.168129  0.232324  1
  N  N56  1  0.760695  0.848624  0.051883  1
  N  N57  1  0.739305  0.151376  0.551883  1
  N  N58  1  0.260695  0.651376  0.948117  1
  N  N59  1  0.239305  0.348624  0.448117  1
  N  N60  1  0.616112  0.634431  0.435125  1
  N  N61  1  0.883888  0.365569  0.935125  1
  N  N62  1  0.116112  0.865569  0.564875  1
  N  N63  1  0.383888  0.134431  0.064875  1
  O  O64  1  0.414618  0.769774  0.287824  1
  O  O65  1  0.085382  0.230226  0.787824  1
  O  O66  1  0.914618  0.730226  0.712176  1
  O  O67  1  0.585382  0.269774  0.212176  1
  O  O68  1  0.501921  0.901690  0.112129  1
  O  O69  1  0.998079  0.098310  0.612129  1
  O  O70  1  0.001921  0.598310  0.887871  1
  O  O71  1  0.498079  0.401690  0.387871  1
  O  O72  1  0.680810  0.533884  0.049368  1
  O  O73  1  0.819190  0.466116  0.549368  1
  O  O74  1  0.180810  0.966116  0.950632  1
  O  O75  1  0.319190  0.033884  0.450632  1
  O  O76  1  0.570654  0.662365  0.894675  1
  O  O77  1  0.929346  0.337635  0.394675  1
  O  O78  1  0.070654  0.837635  0.105325  1
  O  O79  1  0.429346  0.162365  0.605325  1
  O  O80  1  0.826324  0.907455  0.434498  1
  O  O81  1  0.673676  0.092545  0.934498  1
  O  O82  1  0.326324  0.592545  0.565502  1
  O  O83  1  0.173676  0.407455  0.065502  1
  O  O84  1  0.645544  0.866755  0.582402  1
  O  O85  1  0.854456  0.133245  0.082402  1
  O  O86  1  0.145544  0.633245  0.417598  1
  O  O87  1  0.354456  0.366755  0.917598  1
