# generated using pymatgen
data_LiVFeP2(HO5)2
_symmetry_space_group_name_H-M   'P 1'
_cell_length_a   10.24889418
_cell_length_b   7.42053570
_cell_length_c   5.20947569
_cell_angle_alpha   74.82144124
_cell_angle_beta   79.90395399
_cell_angle_gamma   103.50386910
_symmetry_Int_Tables_number   1
_chemical_formula_structural   LiVFeP2(HO5)2
_chemical_formula_sum   'Li2 V2 Fe2 P4 H4 O20'
_cell_volume   359.80598836
_cell_formula_units_Z   2
loop_
 _symmetry_equiv_pos_site_id
 _symmetry_equiv_pos_as_xyz
  1  'x, y, z'
loop_
 _atom_site_type_symbol
 _atom_site_label
 _atom_site_symmetry_multiplicity
 _atom_site_fract_x
 _atom_site_fract_y
 _atom_site_fract_z
 _atom_site_occupancy
  Li  Li0  1  0.280641  0.126043  0.647656  1
  Li  Li1  1  0.719359  0.873957  0.352344  1
  V  V2  1  0.248441  0.743791  0.255990  1
  V  V3  1  0.751559  0.256209  0.744010  1
  Fe  Fe4  1  0.000000  0.000000  0.000000  1
  Fe  Fe5  1  0.500000  0.500000  0.500000  1
  P  P6  1  0.064957  0.288169  0.385777  1
  P  P7  1  0.436370  0.205196  0.111211  1
  P  P8  1  0.563630  0.794804  0.888789  1
  P  P9  1  0.935043  0.711831  0.614223  1
  H  H10  1  0.143826  0.793739  0.852608  1
  H  H11  1  0.346585  0.687208  0.664902  1
  H  H12  1  0.653415  0.312792  0.335098  1
  H  H13  1  0.856174  0.206261  0.147392  1
  O  O14  1  0.084902  0.157907  0.208746  1
  O  O15  1  0.110598  0.219838  0.651980  1
  O  O16  1  0.091773  0.715724  0.553376  1
  O  O17  1  0.153546  0.502964  0.218202  1
  O  O18  1  0.341667  0.998182  0.296102  1
  O  O19  1  0.165374  0.880655  0.964518  1
  O  O20  1  0.395716  0.266358  0.838185  1
  O  O21  1  0.342262  0.626197  0.517891  1
  O  O22  1  0.414025  0.338761  0.287151  1
  O  O23  1  0.407331  0.790376  0.942753  1
  O  O24  1  0.592669  0.209624  0.057247  1
  O  O25  1  0.585975  0.661239  0.712849  1
  O  O26  1  0.657738  0.373803  0.482109  1
  O  O27  1  0.604284  0.733642  0.161815  1
  O  O28  1  0.834626  0.119345  0.035482  1
  O  O29  1  0.658333  0.001818  0.703898  1
  O  O30  1  0.846454  0.497036  0.781798  1
  O  O31  1  0.908227  0.284276  0.446624  1
  O  O32  1  0.889402  0.780162  0.348020  1
  O  O33  1  0.915098  0.842093  0.791254  1
