# generated using pymatgen
data_TmClO
_symmetry_space_group_name_H-M   'P 1'
_cell_length_a   3.75554031
_cell_length_b   9.68006611
_cell_length_c   3.75554079
_cell_angle_alpha   101.18533301
_cell_angle_beta   60.00000431
_cell_angle_gamma   101.18533079
_symmetry_Int_Tables_number   1
_chemical_formula_structural   TmClO
_chemical_formula_sum   'Tm2 Cl2 O2'
_cell_volume   115.23282787
_cell_formula_units_Z   2
loop_
 _symmetry_equiv_pos_site_id
 _symmetry_equiv_pos_as_xyz
  1  'x, y, z'
loop_
 _atom_site_type_symbol
 _atom_site_label
 _atom_site_symmetry_multiplicity
 _atom_site_fract_x
 _atom_site_fract_y
 _atom_site_fract_z
 _atom_site_occupancy
  Tm  Tm0  1  0.283409  0.850225  0.283409  1
  Tm  Tm1  1  0.716591  0.149775  0.716591  1
  Cl  Cl2  1  0.110901  0.332703  0.110901  1
  Cl  Cl3  1  0.889099  0.667297  0.889099  1
  O  O4  1  0.363096  0.089289  0.363096  1
  O  O5  1  0.636904  0.910711  0.636904  1
