# generated using pymatgen
data_H10S(NO2)2
_symmetry_space_group_name_H-M   'P 1'
_cell_length_a   6.52054377
_cell_length_b   8.39452323
_cell_length_c   13.52350379
_cell_angle_alpha   90.00000000
_cell_angle_beta   99.74030302
_cell_angle_gamma   90.00000000
_symmetry_Int_Tables_number   1
_chemical_formula_structural   H10S(NO2)2
_chemical_formula_sum   'H40 S4 N8 O16'
_cell_volume   729.56338994
_cell_formula_units_Z   4
loop_
 _symmetry_equiv_pos_site_id
 _symmetry_equiv_pos_as_xyz
  1  'x, y, z'
loop_
 _atom_site_type_symbol
 _atom_site_label
 _atom_site_symmetry_multiplicity
 _atom_site_fract_x
 _atom_site_fract_y
 _atom_site_fract_z
 _atom_site_occupancy
  H  H0  1  0.373405  0.640752  0.108240  1
  H  H1  1  0.626595  0.140752  0.391760  1
  H  H2  1  0.626595  0.359248  0.891760  1
  H  H3  1  0.373405  0.859248  0.608240  1
  H  H4  1  0.225401  0.598439  0.194474  1
  H  H5  1  0.774599  0.098439  0.305526  1
  H  H6  1  0.774599  0.401561  0.805526  1
  H  H7  1  0.225401  0.901561  0.694474  1
  H  H8  1  0.356835  0.782196  0.197874  1
  H  H9  1  0.643165  0.282196  0.302126  1
  H  H10  1  0.643165  0.217804  0.802126  1
  H  H11  1  0.356835  0.717804  0.697874  1
  H  H12  1  0.489727  0.590198  0.224441  1
  H  H13  1  0.510273  0.090198  0.275559  1
  H  H14  1  0.510273  0.409802  0.775559  1
  H  H15  1  0.489727  0.909802  0.724441  1
  H  H16  1  0.410183  0.288920  0.112432  1
  H  H17  1  0.589817  0.788920  0.387568  1
  H  H18  1  0.589817  0.711080  0.887568  1
  H  H19  1  0.410183  0.211080  0.612432  1
  H  H20  1  0.177105  0.321377  0.144464  1
  H  H21  1  0.822895  0.821377  0.355536  1
  H  H22  1  0.822895  0.678623  0.855536  1
  H  H23  1  0.177105  0.178623  0.644464  1
  H  H24  1  0.284733  0.049131  0.169411  1
  H  H25  1  0.715267  0.549131  0.330589  1
  H  H26  1  0.715267  0.950869  0.830589  1
  H  H27  1  0.284733  0.450869  0.669411  1
  H  H28  1  0.199789  0.257151  0.030254  1
  H  H29  1  0.800211  0.757151  0.469746  1
  H  H30  1  0.800211  0.742849  0.969746  1
  H  H31  1  0.199789  0.242849  0.530254  1
  H  H32  1  0.869273  0.929073  0.211229  1
  H  H33  1  0.130727  0.429073  0.288771  1
  H  H34  1  0.130727  0.070927  0.788771  1
  H  H35  1  0.869273  0.570927  0.711229  1
  H  H36  1  0.109500  0.957852  0.254167  1
  H  H37  1  0.890500  0.457852  0.245833  1
  H  H38  1  0.890500  0.042148  0.745833  1
  H  H39  1  0.109500  0.542148  0.754167  1
  S  S40  1  0.210638  0.891612  0.977333  1
  S  S41  1  0.789362  0.391612  0.522667  1
  S  S42  1  0.789362  0.108388  0.022667  1
  S  S43  1  0.210638  0.608388  0.477333  1
  N  N44  1  0.363837  0.653484  0.182704  1
  N  N45  1  0.636163  0.153484  0.317296  1
  N  N46  1  0.636163  0.346516  0.817296  1
  N  N47  1  0.363837  0.846516  0.682704  1
  N  N48  1  0.259999  0.247895  0.104719  1
  N  N49  1  0.740001  0.747895  0.395281  1
  N  N50  1  0.740001  0.752105  0.895281  1
  N  N51  1  0.259999  0.252105  0.604719  1
  O  O52  1  0.299404  0.765738  0.464255  1
  O  O53  1  0.700596  0.265738  0.035745  1
  O  O54  1  0.700596  0.234262  0.535745  1
  O  O55  1  0.299404  0.734262  0.964255  1
  O  O56  1  0.958075  0.961716  0.273374  1
  O  O57  1  0.041925  0.461716  0.226626  1
  O  O58  1  0.041925  0.038284  0.726626  1
  O  O59  1  0.958075  0.538284  0.773374  1
  O  O60  1  0.309543  0.956867  0.216002  1
  O  O61  1  0.690457  0.456867  0.283998  1
  O  O62  1  0.690457  0.043133  0.783998  1
  O  O63  1  0.309543  0.543133  0.716002  1
  O  O64  1  0.706626  0.975908  0.072756  1
  O  O65  1  0.293374  0.475908  0.427244  1
  O  O66  1  0.293374  0.024092  0.927244  1
  O  O67  1  0.706626  0.524092  0.572756  1
