# generated using pymatgen
data_LiTiNbO4
_symmetry_space_group_name_H-M   'P 1'
_cell_length_a   6.06419267
_cell_length_b   6.10345844
_cell_length_c   6.10345786
_cell_angle_alpha   60.13697217
_cell_angle_beta   60.21257827
_cell_angle_gamma   60.21258140
_symmetry_Int_Tables_number   1
_chemical_formula_structural   LiTiNbO4
_chemical_formula_sum   'Li2 Ti2 Nb2 O8'
_cell_volume   160.41625072
_cell_formula_units_Z   2
loop_
 _symmetry_equiv_pos_site_id
 _symmetry_equiv_pos_as_xyz
  1  'x, y, z'
loop_
 _atom_site_type_symbol
 _atom_site_label
 _atom_site_symmetry_multiplicity
 _atom_site_fract_x
 _atom_site_fract_y
 _atom_site_fract_z
 _atom_site_occupancy
  Li  Li0  1  0.125887  0.124113  0.124113  1
  Li  Li1  1  0.874113  0.875887  0.875887  1
  Ti  Ti2  1  0.500000  0.000000  0.500000  1
  Ti  Ti3  1  0.500000  0.500000  0.000000  1
  Nb  Nb4  1  0.000000  0.500000  0.500000  1
  Nb  Nb5  1  0.500000  0.500000  0.500000  1
  O  O6  1  0.269011  0.258304  0.258304  1
  O  O7  1  0.263375  0.247850  0.725400  1
  O  O8  1  0.263375  0.725400  0.247850  1
  O  O9  1  0.714381  0.258304  0.258304  1
  O  O10  1  0.285619  0.741696  0.741696  1
  O  O11  1  0.736625  0.752151  0.274600  1
  O  O12  1  0.736625  0.274600  0.752151  1
  O  O13  1  0.730989  0.741696  0.741696  1
