# generated using pymatgen
data_Li3V3P8O29
_symmetry_space_group_name_H-M   'P 1'
_cell_length_a   9.75773193
_cell_length_b   9.77788792
_cell_length_c   14.25629852
_cell_angle_alpha   89.90076794
_cell_angle_beta   90.37449883
_cell_angle_gamma   59.86189574
_symmetry_Int_Tables_number   1
_chemical_formula_structural   Li3V3P8O29
_chemical_formula_sum   'Li6 V6 P16 O58'
_cell_volume   1176.27458446
_cell_formula_units_Z   2
loop_
 _symmetry_equiv_pos_site_id
 _symmetry_equiv_pos_as_xyz
  1  'x, y, z'
loop_
 _atom_site_type_symbol
 _atom_site_label
 _atom_site_symmetry_multiplicity
 _atom_site_fract_x
 _atom_site_fract_y
 _atom_site_fract_z
 _atom_site_occupancy
  Li  Li0  1  0.769884  0.323462  0.047861  1
  Li  Li1  1  0.321096  0.908570  0.051513  1
  Li  Li2  1  0.701508  0.216257  0.449470  1
  Li  Li3  1  0.312435  0.772765  0.566971  1
  Li  Li4  1  0.220842  0.087070  0.453100  1
  Li  Li5  1  0.979852  0.972841  0.986388  1
  V  V6  1  0.564819  0.438319  0.249728  1
  V  V7  1  0.429076  0.562417  0.754650  1
  V  V8  1  0.570504  0.999350  0.751994  1
  V  V9  1  0.439605  0.001353  0.245726  1
  V  V10  1  0.997580  0.567095  0.249210  1
  V  V11  1  0.001188  0.437657  0.748463  1
  P  P12  1  0.920460  0.775397  0.840146  1
  P  P13  1  0.775340  0.912391  0.339767  1
  P  P14  1  0.916558  0.313188  0.342712  1
  P  P15  1  0.665466  0.665708  0.131539  1
  P  P16  1  0.659718  0.669800  0.632319  1
  P  P17  1  0.778581  0.313423  0.838382  1
  P  P18  1  0.682526  0.228000  0.660473  1
  P  P19  1  0.312917  0.912517  0.841680  1
  P  P20  1  0.695716  0.085863  0.156175  1
  P  P21  1  0.320702  0.773183  0.344673  1
  P  P22  1  0.220045  0.694188  0.164338  1
  P  P23  1  0.335250  0.331987  0.365684  1
  P  P24  1  0.334233  0.328608  0.869319  1
  P  P25  1  0.082230  0.691192  0.654911  1
  P  P26  1  0.227392  0.091549  0.662986  1
  P  P27  1  0.081536  0.226667  0.158470  1
  O  O28  1  0.003622  0.769453  0.566655  1
  O  O29  1  0.915746  0.741211  0.332796  1
  O  O30  1  0.785441  0.010770  0.070627  1
  O  O31  1  0.743837  0.911050  0.831386  1
  O  O32  1  0.925327  0.615192  0.830072  1
  O  O33  1  0.809503  0.670795  0.176320  1
  O  O34  1  0.908149  0.474002  0.322804  1
  O  O35  1  0.992889  0.218640  0.075843  1
  O  O36  1  0.915529  0.348296  0.830183  1
  O  O37  1  0.652585  0.819871  0.679428  1
  O  O38  1  0.620373  0.904972  0.317268  1
  O  O39  1  0.812791  0.528886  0.678744  1
  O  O40  1  0.660276  0.657648  0.027986  1
  O  O41  1  0.657210  0.674897  0.528315  1
  O  O42  1  0.673393  0.511275  0.175197  1
  O  O43  1  0.468065  0.915607  0.831078  1
  O  O44  1  0.510104  0.814757  0.170334  1
  O  O45  1  0.745331  0.338266  0.338867  1
  O  O46  1  0.796284  0.206064  0.749025  1
  O  O47  1  0.754540  0.236580  0.571366  1
  O  O48  1  0.788478  0.228216  0.927442  1
  O  O49  1  0.618183  0.470579  0.825811  1
  O  O50  1  0.512385  0.664154  0.671534  1
  O  O51  1  0.657356  0.261324  0.165142  1
  O  O52  1  0.480938  0.620625  0.319555  1
  O  O53  1  0.340177  0.921148  0.333430  1
  O  O54  1  0.797051  0.000306  0.249464  1
  O  O55  1  0.759762  0.002763  0.425218  1
  O  O56  1  0.235998  0.001971  0.575551  1
  O  O57  1  0.657393  0.083920  0.668572  1
  O  O58  1  0.522266  0.380266  0.680716  1
  O  O59  1  0.345849  0.740184  0.829922  1
  O  O60  1  0.484147  0.335410  0.324656  1
  O  O61  1  0.381334  0.534561  0.175972  1
  O  O62  1  0.214298  0.791720  0.083067  1
  O  O63  1  0.261280  0.762506  0.437563  1
  O  O64  1  0.201763  0.788194  0.261434  1
  O  O65  1  0.257047  0.658638  0.663682  1
  O  O66  1  0.483852  0.184071  0.825510  1
  O  O67  1  0.536518  0.083874  0.170796  1
  O  O68  1  0.332445  0.480846  0.825372  1
  O  O69  1  0.336038  0.331962  0.973046  1
  O  O70  1  0.339474  0.321292  0.469077  1
  O  O71  1  0.186128  0.475824  0.320215  1
  O  O72  1  0.380615  0.096598  0.679458  1
  O  O73  1  0.338717  0.181704  0.319756  1
  O  O74  1  0.084001  0.657014  0.167332  1
  O  O75  1  0.000555  0.796963  0.747003  1
  O  O76  1  0.997342  0.794394  0.924657  1
  O  O77  1  0.088781  0.530734  0.676290  1
  O  O78  1  0.187526  0.330804  0.822674  1
  O  O79  1  0.080401  0.385053  0.172231  1
  O  O80  1  0.256620  0.086206  0.160720  1
  O  O81  1  0.225100  0.981651  0.930397  1
  O  O82  1  0.203233  0.003005  0.751551  1
  O  O83  1  0.083836  0.260864  0.664933  1
  O  O84  1  0.005390  0.231155  0.428649  1
  O  O85  1  0.003263  0.204265  0.252553  1
