# generated using pymatgen
data_H5C2NO3
_symmetry_space_group_name_H-M   'P 1'
_cell_length_a   14.54919980
_cell_length_b   14.54919980
_cell_length_c   16.28479982
_cell_angle_alpha   84.86147881
_cell_angle_beta   95.13852119
_cell_angle_gamma   165.24303409
_symmetry_Int_Tables_number   1
_chemical_formula_structural   H5C2NO3
_chemical_formula_sum   'H40 C16 N8 O24'
_cell_volume   874.46917019
_cell_formula_units_Z   8
loop_
 _symmetry_equiv_pos_site_id
 _symmetry_equiv_pos_as_xyz
  1  'x, y, z'
loop_
 _atom_site_type_symbol
 _atom_site_label
 _atom_site_symmetry_multiplicity
 _atom_site_fract_x
 _atom_site_fract_y
 _atom_site_fract_z
 _atom_site_occupancy
  H  H0  1  0.285274  0.506866  0.008758  1
  H  H1  1  0.506866  0.285274  0.491242  1
  H  H2  1  0.714726  0.493134  0.991242  1
  H  H3  1  0.493134  0.714726  0.508758  1
  H  H4  1  0.788592  0.859149  0.965473  1
  H  H5  1  0.859149  0.788592  0.534527  1
  H  H6  1  0.211408  0.140851  0.034527  1
  H  H7  1  0.140851  0.211408  0.465473  1
  H  H8  1  0.624443  0.954859  0.878991  1
  H  H9  1  0.954859  0.624443  0.621009  1
  H  H10  1  0.375557  0.045141  0.121009  1
  H  H11  1  0.045141  0.375557  0.378991  1
  H  H12  1  0.285789  0.812059  0.063731  1
  H  H13  1  0.812059  0.285789  0.436269  1
  H  H14  1  0.714211  0.187941  0.936269  1
  H  H15  1  0.187941  0.714211  0.563731  1
  H  H16  1  0.990946  0.422055  0.215082  1
  H  H17  1  0.422055  0.990946  0.284918  1
  H  H18  1  0.009054  0.577945  0.784918  1
  H  H19  1  0.577945  0.009054  0.715082  1
  H  H20  1  0.072850  0.466456  0.115242  1
  H  H21  1  0.466456  0.072850  0.384758  1
  H  H22  1  0.927150  0.533543  0.884758  1
  H  H23  1  0.533543  0.927150  0.615242  1
  H  H24  1  0.866946  0.591527  0.230577  1
  H  H25  1  0.591527  0.866946  0.269423  1
  H  H26  1  0.133054  0.408473  0.769423  1
  H  H27  1  0.408473  0.133054  0.730577  1
  H  H28  1  0.056044  0.878951  0.368394  1
  H  H29  1  0.878951  0.056044  0.131606  1
  H  H30  1  0.943956  0.121049  0.631606  1
  H  H31  1  0.121049  0.943956  0.868394  1
  H  H32  1  0.710124  0.670973  0.821700  1
  H  H33  1  0.670973  0.710124  0.678300  1
  H  H34  1  0.289876  0.329027  0.178300  1
  H  H35  1  0.329027  0.289876  0.321700  1
  H  H36  1  0.551792  0.652863  0.869996  1
  H  H37  1  0.652863  0.551792  0.630004  1
  H  H38  1  0.448208  0.347137  0.130004  1
  H  H39  1  0.347137  0.448208  0.369996  1
  C  C40  1  0.363617  0.649666  0.976897  1
  C  C41  1  0.649666  0.363617  0.523103  1
  C  C42  1  0.636383  0.350334  0.023103  1
  C  C43  1  0.350334  0.636383  0.476897  1
  C  C44  1  0.208334  0.729258  0.128923  1
  C  C45  1  0.729258  0.208334  0.371077  1
  C  C46  1  0.791666  0.270742  0.871077  1
  C  C47  1  0.270742  0.791666  0.628923  1
  C  C48  1  0.871481  0.657380  0.266057  1
  C  C49  1  0.657380  0.871481  0.233943  1
  C  C50  1  0.128519  0.342620  0.733943  1
  C  C51  1  0.342620  0.128519  0.766057  1
  C  C52  1  0.812985  0.783658  0.883206  1
  C  C53  1  0.783658  0.812985  0.616794  1
  C  C54  1  0.187015  0.216342  0.116794  1
  C  C55  1  0.216342  0.187015  0.383206  1
  N  N56  1  0.072655  0.516711  0.155277  1
  N  N57  1  0.516711  0.072655  0.344723  1
  N  N58  1  0.927345  0.483289  0.844723  1
  N  N59  1  0.483289  0.927345  0.655277  1
  N  N60  1  0.701810  0.754431  0.909881  1
  N  N61  1  0.754431  0.701810  0.590119  1
  N  N62  1  0.298190  0.245569  0.090119  1
  N  N63  1  0.245569  0.298190  0.409881  1
  O  O64  1  0.278250  0.641096  0.002141  1
  O  O65  1  0.641096  0.278250  0.497859  1
  O  O66  1  0.721750  0.358904  0.997859  1
  O  O67  1  0.358904  0.721750  0.502141  1
  O  O68  1  0.553836  0.823158  0.909922  1
  O  O69  1  0.823158  0.553836  0.590078  1
  O  O70  1  0.446164  0.176842  0.090078  1
  O  O71  1  0.176842  0.446164  0.409922  1
  O  O72  1  0.251639  0.838481  0.172457  1
  O  O73  1  0.838481  0.251639  0.327543  1
  O  O74  1  0.748361  0.161519  0.827543  1
  O  O75  1  0.161519  0.748361  0.672457  1
  O  O76  1  0.729861  0.593734  0.240439  1
  O  O77  1  0.593734  0.729861  0.259561  1
  O  O78  1  0.270139  0.406266  0.759561  1
  O  O79  1  0.406266  0.270139  0.740439  1
  O  O80  1  0.048382  0.812368  0.337060  1
  O  O81  1  0.812368  0.048382  0.162940  1
  O  O82  1  0.951618  0.187632  0.662940  1
  O  O83  1  0.187632  0.951618  0.837060  1
  O  O84  1  0.018937  0.924603  0.923014  1
  O  O85  1  0.924603  0.018937  0.576986  1
  O  O86  1  0.981063  0.075397  0.076986  1
  O  O87  1  0.075397  0.981063  0.423014  1
