# generated using pymatgen
data_MgAsH15O11
_symmetry_space_group_name_H-M   'P 1'
_cell_length_a   6.68559968
_cell_length_b   13.63674088
_cell_length_c   11.45588082
_cell_angle_alpha   88.63584388
_cell_angle_beta   95.57323815
_cell_angle_gamma   104.18962936
_symmetry_Int_Tables_number   1
_chemical_formula_structural   MgAsH15O11
_chemical_formula_sum   'Mg4 As4 H60 O44'
_cell_volume   1007.77788608
_cell_formula_units_Z   4
loop_
 _symmetry_equiv_pos_site_id
 _symmetry_equiv_pos_as_xyz
  1  'x, y, z'
loop_
 _atom_site_type_symbol
 _atom_site_label
 _atom_site_symmetry_multiplicity
 _atom_site_fract_x
 _atom_site_fract_y
 _atom_site_fract_z
 _atom_site_occupancy
  Mg  Mg0  1  0.279765  0.559531  0.750000  1
  Mg  Mg1  1  0.446186  0.892372  0.250000  1
  Mg  Mg2  1  0.553814  0.107628  0.750000  1
  Mg  Mg3  1  0.720235  0.440469  0.250000  1
  As  As4  1  0.029939  0.191301  0.458134  1
  As  As5  1  0.161362  0.191301  0.041866  1
  As  As6  1  0.838638  0.808699  0.958134  1
  As  As7  1  0.970061  0.808699  0.541866  1
  H  H8  1  0.193373  0.970248  0.819835  1
  H  H9  1  0.257174  0.931528  0.701051  1
  H  H10  1  0.075225  0.767461  0.323133  1
  H  H11  1  0.063984  0.763637  0.185508  1
  H  H12  1  0.153591  0.702737  0.868485  1
  H  H13  1  0.015494  0.561754  0.127747  1
  H  H14  1  0.119843  0.499078  0.358246  1
  H  H15  1  0.080695  0.380834  0.338572  1
  H  H16  1  0.173975  0.389417  0.893505  1
  H  H17  1  0.266117  0.901304  0.035201  1
  H  H18  1  0.332234  0.735821  0.621806  1
  H  H19  1  0.393872  0.876111  0.491349  1
  H  H20  1  0.403587  0.735821  0.878194  1
  H  H21  1  0.292454  0.661485  0.350998  1
  H  H22  1  0.000000  0.000000  0.500000  1
  H  H23  1  0.215442  0.389417  0.606495  1
  H  H24  1  0.329507  0.623770  0.481199  1
  H  H25  1  0.123736  0.247472  0.250000  1
  H  H26  1  0.294263  0.623770  0.018801  1
  H  H27  1  0.000000  0.000000  0.000000  1
  H  H28  1  0.369031  0.661485  0.149002  1
  H  H29  1  0.482238  0.876111  0.008651  1
  H  H30  1  0.549146  0.702737  0.631515  1
  H  H31  1  0.635186  0.901304  0.464799  1
  H  H32  1  0.307764  0.232539  0.823133  1
  H  H33  1  0.300347  0.236363  0.685508  1
  H  H34  1  0.674354  0.931528  0.798949  1
  H  H35  1  0.300139  0.380834  0.161428  1
  H  H36  1  0.379234  0.499078  0.141754  1
  H  H37  1  0.453740  0.438246  0.627747  1
  H  H38  1  0.223126  0.029752  0.319835  1
  H  H39  1  0.776874  0.970248  0.680165  1
  H  H40  1  0.546260  0.561754  0.372253  1
  H  H41  1  0.620766  0.500922  0.858246  1
  H  H42  1  0.699861  0.619166  0.838572  1
  H  H43  1  0.325646  0.068472  0.201051  1
  H  H44  1  0.699653  0.763637  0.314492  1
  H  H45  1  0.692236  0.767461  0.176867  1
  H  H46  1  0.364814  0.098696  0.535201  1
  H  H47  1  0.450854  0.297263  0.368485  1
  H  H48  1  0.517762  0.123890  0.991349  1
  H  H49  1  0.630969  0.338515  0.850998  1
  H  H50  1  0.705737  0.376230  0.981199  1
  H  H51  1  0.876264  0.752528  0.750000  1
  H  H52  1  0.670493  0.376230  0.518801  1
  H  H53  1  0.784558  0.610583  0.393505  1
  H  H54  1  0.707546  0.338515  0.649002  1
  H  H55  1  0.596413  0.264179  0.121806  1
  H  H56  1  0.606128  0.123890  0.508651  1
  H  H57  1  0.667766  0.264179  0.378194  1
  H  H58  1  0.733883  0.098696  0.964799  1
  H  H59  1  0.826025  0.610583  0.106495  1
  H  H60  1  0.919305  0.619166  0.661428  1
  H  H61  1  0.880157  0.500922  0.641754  1
  H  H62  1  0.984506  0.438246  0.872253  1
  H  H63  1  0.846409  0.297263  0.131515  1
  H  H64  1  0.936016  0.236363  0.814492  1
  H  H65  1  0.924775  0.232539  0.676867  1
  H  H66  1  0.742826  0.068472  0.298949  1
  H  H67  1  0.806627  0.029752  0.180165  1
  O  O68  1  0.885105  0.919458  0.522834  1
  O  O69  1  0.275005  0.991512  0.752961  1
  O  O70  1  0.225308  0.835517  0.594776  1
  O  O71  1  0.014077  0.437546  0.328329  1
  O  O72  1  0.166260  0.777949  0.255783  1
  O  O73  1  0.136324  0.453337  0.868268  1
  O  O74  1  0.279852  0.675851  0.872182  1
  O  O75  1  0.176720  0.262831  0.917408  1
  O  O76  1  0.086111  0.262831  0.582592  1
  O  O77  1  0.080806  0.261209  0.146681  1
  O  O78  1  0.965647  0.080542  0.022834  1
  O  O79  1  0.398993  0.888822  0.071867  1
  O  O80  1  0.314146  0.602926  0.397281  1
  O  O81  1  0.395999  0.675851  0.627818  1
  O  O82  1  0.288780  0.602926  0.102719  1
  O  O83  1  0.489828  0.888822  0.428133  1
  O  O84  1  0.317013  0.453337  0.631732  1
  O  O85  1  0.180403  0.261209  0.353319  1
  O  O86  1  0.610210  0.835517  0.905224  1
  O  O87  1  0.716508  0.991512  0.747039  1
  O  O88  1  0.576531  0.562454  0.828329  1
  O  O89  1  0.388311  0.222051  0.755783  1
  O  O90  1  0.611689  0.777949  0.244217  1
  O  O91  1  0.423469  0.437546  0.171671  1
  O  O92  1  0.283492  0.008488  0.252961  1
  O  O93  1  0.389790  0.164483  0.094776  1
  O  O94  1  0.819597  0.738791  0.646681  1
  O  O95  1  0.682987  0.546663  0.368268  1
  O  O96  1  0.510172  0.111178  0.571867  1
  O  O97  1  0.711220  0.397074  0.897281  1
  O  O98  1  0.604001  0.324149  0.372182  1
  O  O99  1  0.685854  0.397074  0.602719  1
  O  O100  1  0.601007  0.111178  0.928133  1
  O  O101  1  0.034353  0.919458  0.977166  1
  O  O102  1  0.919194  0.738791  0.853319  1
  O  O103  1  0.913889  0.737169  0.417408  1
  O  O104  1  0.823280  0.737169  0.082592  1
  O  O105  1  0.720148  0.324149  0.127818  1
  O  O106  1  0.863676  0.546663  0.131732  1
  O  O107  1  0.833740  0.222051  0.744217  1
  O  O108  1  0.985923  0.562454  0.671671  1
  O  O109  1  0.774692  0.164483  0.405224  1
  O  O110  1  0.724995  0.008488  0.247039  1
  O  O111  1  0.114895  0.080542  0.477166  1
