# generated using pymatgen
data_Ca3La5Mn7CrO24
_symmetry_space_group_name_H-M   'P 1'
_cell_length_a   5.52222343
_cell_length_b   11.05186640
_cell_length_c   7.76407559
_cell_angle_alpha   90.07170835
_cell_angle_beta   89.98289576
_cell_angle_gamma   89.95782605
_symmetry_Int_Tables_number   1
_chemical_formula_structural   Ca3La5Mn7CrO24
_chemical_formula_sum   'Ca3 La5 Mn7 Cr1 O24'
_cell_volume   473.84780982
_cell_formula_units_Z   1
loop_
 _symmetry_equiv_pos_site_id
 _symmetry_equiv_pos_as_xyz
  1  'x, y, z'
loop_
 _atom_site_type_symbol
 _atom_site_label
 _atom_site_symmetry_multiplicity
 _atom_site_fract_x
 _atom_site_fract_y
 _atom_site_fract_z
 _atom_site_occupancy
  Ca  Ca0  1  0.531810  0.253379  0.248650  1
  Ca  Ca1  1  0.533590  0.756761  0.251589  1
  Ca  Ca2  1  0.966459  0.005306  0.750057  1
  La  La3  1  0.024236  0.496773  0.248865  1
  La  La4  1  0.024038  0.995553  0.250729  1
  La  La5  1  0.474501  0.241999  0.748730  1
  La  La6  1  0.479559  0.752167  0.752008  1
  La  La7  1  0.975921  0.503137  0.750110  1
  Mn  Mn8  1  0.001080  0.751533  0.002481  1
  Mn  Mn9  1  0.499560  0.000193  0.498913  1
  Mn  Mn10  1  0.499691  0.000609  0.002116  1
  Mn  Mn11  1  0.499648  0.499923  0.496196  1
  Mn  Mn12  1  0.999167  0.247460  0.496543  1
  Mn  Mn13  1  0.999065  0.247816  0.000447  1
  Mn  Mn14  1  0.001372  0.752350  0.500706  1
  Cr  Cr15  1  0.499556  0.499434  0.003012  1
  O  O16  1  0.009517  0.286165  0.750627  1
  O  O17  1  0.014456  0.789335  0.751203  1
  O  O18  1  0.216757  0.113453  0.957794  1
  O  O19  1  0.222355  0.612795  0.957661  1
  O  O20  1  0.221360  0.110679  0.540939  1
  O  O21  1  0.226191  0.613482  0.542482  1
  O  O22  1  0.272330  0.362826  0.458380  1
  O  O23  1  0.274163  0.359737  0.043053  1
  O  O24  1  0.279054  0.861356  0.458398  1
  O  O25  1  0.274126  0.858755  0.042270  1
  O  O26  1  0.486421  0.038893  0.248569  1
  O  O27  1  0.484589  0.542923  0.253937  1
  O  O28  1  0.509051  0.460717  0.745781  1
  O  O29  1  0.516201  0.967339  0.752158  1
  O  O30  1  0.730718  0.636163  0.955165  1
  O  O31  1  0.729032  0.139501  0.961317  1
  O  O32  1  0.724136  0.135618  0.537585  1
  O  O33  1  0.732122  0.635636  0.543319  1
  O  O34  1  0.773711  0.387695  0.460558  1
  O  O35  1  0.774143  0.885793  0.461822  1
  O  O36  1  0.780268  0.387502  0.038970  1
  O  O37  1  0.776508  0.883466  0.039169  1
  O  O38  1  0.981498  0.211905  0.247906  1
  O  O39  1  0.982040  0.713872  0.249784  1
