# generated using pymatgen
data_DyInO3
_symmetry_space_group_name_H-M   'P 1'
_cell_length_a   6.37212096
_cell_length_b   6.37232646
_cell_length_c   12.34008985
_cell_angle_alpha   89.99971095
_cell_angle_beta   90.00049494
_cell_angle_gamma   120.00242366
_symmetry_Int_Tables_number   1
_chemical_formula_structural   DyInO3
_chemical_formula_sum   'Dy6 In6 O18'
_cell_volume   433.93069798
_cell_formula_units_Z   6
loop_
 _symmetry_equiv_pos_site_id
 _symmetry_equiv_pos_as_xyz
  1  'x, y, z'
loop_
 _atom_site_type_symbol
 _atom_site_label
 _atom_site_symmetry_multiplicity
 _atom_site_fract_x
 _atom_site_fract_y
 _atom_site_fract_z
 _atom_site_occupancy
  Dy  Dy0  1  0.333336  0.666677  0.230134  1
  Dy  Dy1  1  0.000003  0.000008  0.265559  1
  Dy  Dy2  1  0.999983  0.999992  0.765555  1
  Dy  Dy3  1  0.333322  0.666661  0.730138  1
  Dy  Dy4  1  0.666660  0.333319  0.730134  1
  Dy  Dy5  1  0.666657  0.333345  0.230141  1
  In  In6  1  -0.000001  0.666432  0.495904  1
  In  In7  1  0.999995  0.333548  0.995880  1
  In  In8  1  0.333539  0.333688  0.495891  1
  In  In9  1  0.666463  0.666337  0.995846  1
  In  In10  1  0.333571  0.000141  0.995851  1
  In  In11  1  0.666408  0.999861  0.495881  1
  O  O12  1  0.999990  0.694431  0.668360  1
  O  O13  1  0.999995  0.636970  0.325495  1
  O  O14  1  0.999988  0.363009  0.825526  1
  O  O15  1  0.999989  0.305568  0.168388  1
  O  O16  1  0.333348  0.666690  0.027079  1
  O  O17  1  0.999993  0.999989  0.462024  1
  O  O18  1  0.333326  0.666671  0.527096  1
  O  O19  1  -0.000003  0.000012  0.962009  1
  O  O20  1  0.305555  0.305560  0.668374  1
  O  O21  1  0.363015  0.363041  0.325502  1
  O  O22  1  0.305571  0.000013  0.168384  1
  O  O23  1  0.636978  0.636971  0.825515  1
  O  O24  1  0.694436  0.694443  0.168384  1
  O  O25  1  0.362993  0.999980  0.825517  1
  O  O26  1  0.666642  0.333305  0.527092  1
  O  O27  1  0.666660  0.333335  0.027080  1
  O  O28  1  0.636969  0.000013  0.325493  1
  O  O29  1  0.694418  0.999991  0.668362  1
