# generated using pymatgen
data_Na5CaAl5Fe(SiO3)12
_symmetry_space_group_name_H-M   'P 1'
_cell_length_a   15.89259604
_cell_length_b   6.48692739
_cell_length_c   6.48692833
_cell_angle_alpha   84.46287799
_cell_angle_beta   77.32129896
_cell_angle_gamma   77.32129782
_symmetry_Int_Tables_number   1
_chemical_formula_structural   Na5CaAl5Fe(SiO3)12
_chemical_formula_sum   'Na5 Ca1 Al5 Fe1 Si12 O36'
_cell_volume   635.72706430
_cell_formula_units_Z   1
loop_
 _symmetry_equiv_pos_site_id
 _symmetry_equiv_pos_as_xyz
  1  'x, y, z'
loop_
 _atom_site_type_symbol
 _atom_site_label
 _atom_site_symmetry_multiplicity
 _atom_site_fract_x
 _atom_site_fract_y
 _atom_site_fract_z
 _atom_site_occupancy
  Na  Na0  1  0.083314  0.700009  0.301272  1
  Na  Na1  1  0.251293  0.301613  0.696147  1
  Na  Na2  1  0.416667  0.697242  0.302758  1
  Na  Na3  1  0.582040  0.303853  0.698387  1
  Na  Na4  1  0.750019  0.698728  0.299991  1
  Ca  Ca5  1  0.916667  0.301510  0.698490  1
  Al  Al6  1  0.087300  0.090010  0.905249  1
  Al  Al7  1  0.251543  0.902730  0.096019  1
  Al  Al8  1  0.416667  0.096710  0.903290  1
  Al  Al9  1  0.581790  0.903981  0.097270  1
  Al  Al10  1  0.746033  0.094751  0.909990  1
  Fe  Fe11  1  0.916667  0.895875  0.104125  1
  Si  Si12  1  0.093141  0.197393  0.378562  1
  Si  Si13  1  0.079802  0.613980  0.804097  1
  Si  Si14  1  0.259283  0.382921  0.194457  1
  Si  Si15  1  0.242687  0.802363  0.614613  1
  Si  Si16  1  0.425141  0.195476  0.382413  1
  Si  Si17  1  0.408193  0.617587  0.804524  1
  Si  Si18  1  0.590646  0.385387  0.197637  1
  Si  Si19  1  0.574050  0.805543  0.617079  1
  Si  Si20  1  0.753531  0.195903  0.386020  1
  Si  Si21  1  0.740192  0.621438  0.802607  1
  Si  Si22  1  0.923976  0.374033  0.193965  1
  Si  Si23  1  0.909358  0.806035  0.625967  1
  O  O24  1  0.997855  0.630268  0.675910  1
  O  O25  1  0.066837  0.110445  0.621996  1
  O  O26  1  0.126399  0.033968  0.184293  1
  O  O27  1  0.055612  0.809902  0.959567  1
  O  O28  1  0.104565  0.372712  0.895586  1
  O  O29  1  0.166500  0.344492  0.357864  1
  O  O30  1  0.168512  0.656248  0.626220  1
  O  O31  1  0.236814  0.623255  0.101197  1
  O  O32  1  0.291825  0.184550  0.033475  1
  O  O33  1  0.210695  0.965261  0.811501  1
  O  O34  1  0.265935  0.899961  0.375850  1
  O  O35  1  0.333177  0.359552  0.342354  1
  O  O36  1  0.334027  0.638562  0.657112  1
  O  O37  1  0.402006  0.101740  0.622928  1
  O  O38  1  0.457626  0.034069  0.184559  1
  O  O39  1  0.375708  0.815441  0.965931  1
  O  O40  1  0.431327  0.377072  0.898260  1
  O  O41  1  0.499307  0.342888  0.361438  1
  O  O42  1  0.500156  0.657646  0.640448  1
  O  O43  1  0.567398  0.624150  0.100039  1
  O  O44  1  0.622638  0.188499  0.034739  1
  O  O45  1  0.541508  0.966525  0.815450  1
  O  O46  1  0.596520  0.898803  0.376745  1
  O  O47  1  0.664821  0.373780  0.343752  1
  O  O48  1  0.666833  0.642136  0.655508  1
  O  O49  1  0.728769  0.104414  0.627288  1
  O  O50  1  0.777721  0.040433  0.190098  1
  O  O51  1  0.706934  0.815707  0.966032  1
  O  O52  1  0.766496  0.378004  0.889555  1
  O  O53  1  0.835478  0.324090  0.369732  1
  O  O54  1  0.834626  0.656775  0.640333  1
  O  O55  1  0.893532  0.603319  0.092224  1
  O  O56  1  0.964048  0.192689  0.019871  1
  O  O57  1  0.869286  0.980129  0.807311  1
  O  O58  1  0.939801  0.907776  0.396681  1
  O  O59  1  0.998708  0.359667  0.343225  1
