# generated using pymatgen
data_ErAlO3
_symmetry_space_group_name_H-M   'P 1'
_cell_length_a   3.44574989
_cell_length_b   3.44575389
_cell_length_c   11.44968161
_cell_angle_alpha   90.00049126
_cell_angle_beta   90.00019372
_cell_angle_gamma   120.00001495
_symmetry_Int_Tables_number   1
_chemical_formula_structural   ErAlO3
_chemical_formula_sum   'Er2 Al2 O6'
_cell_volume   117.73131164
_cell_formula_units_Z   2
loop_
 _symmetry_equiv_pos_site_id
 _symmetry_equiv_pos_as_xyz
  1  'x, y, z'
loop_
 _atom_site_type_symbol
 _atom_site_label
 _atom_site_symmetry_multiplicity
 _atom_site_fract_x
 _atom_site_fract_y
 _atom_site_fract_z
 _atom_site_occupancy
  Er  Er0  1  0.000003  0.000046  0.999990  1
  Er  Er1  1  0.999978  0.999951  0.500003  1
  Al  Al2  1  0.333302  0.666687  0.249996  1
  Al  Al3  1  0.666679  0.333380  0.750001  1
  O  O4  1  0.333329  0.666718  0.091087  1
  O  O5  1  0.333331  0.666653  0.408929  1
  O  O6  1  0.000005  0.000017  0.250007  1
  O  O7  1  0.000023  0.000038  0.749991  1
  O  O8  1  0.666673  0.333380  0.908901  1
  O  O9  1  0.666679  0.333331  0.591097  1
