# generated using pymatgen
data_K3GePCO7
_symmetry_space_group_name_H-M   'P 1'
_cell_length_a   10.00529601
_cell_length_b   7.34457176
_cell_length_c   5.59845093
_cell_angle_alpha   90.00000000
_cell_angle_beta   91.37319052
_cell_angle_gamma   90.00000000
_symmetry_Int_Tables_number   1
_chemical_formula_structural   K3GePCO7
_chemical_formula_sum   'K6 Ge2 P2 C2 O14'
_cell_volume   411.28185972
_cell_formula_units_Z   2
loop_
 _symmetry_equiv_pos_site_id
 _symmetry_equiv_pos_as_xyz
  1  'x, y, z'
loop_
 _atom_site_type_symbol
 _atom_site_label
 _atom_site_symmetry_multiplicity
 _atom_site_fract_x
 _atom_site_fract_y
 _atom_site_fract_z
 _atom_site_occupancy
  K  K0  1  0.082978  0.250000  0.762875  1
  K  K1  1  0.260337  0.001872  0.255758  1
  K  K2  1  0.260337  0.498128  0.255758  1
  K  K3  1  0.739663  0.501872  0.744242  1
  K  K4  1  0.739663  0.998128  0.744242  1
  K  K5  1  0.917022  0.750000  0.237125  1
  Ge  Ge6  1  0.371596  0.750000  0.778035  1
  Ge  Ge7  1  0.628404  0.250000  0.221965  1
  P  P8  1  0.417550  0.250000  0.709444  1
  P  P9  1  0.582450  0.750000  0.290556  1
  C  C10  1  0.073175  0.750000  0.737951  1
  C  C11  1  0.926825  0.250000  0.262049  1
  O  O12  1  0.057675  0.250000  0.268220  1
  O  O13  1  0.137528  0.750000  0.943396  1
  O  O14  1  0.138807  0.750000  0.540260  1
  O  O15  1  0.333992  0.077675  0.769971  1
  O  O16  1  0.333992  0.422325  0.769971  1
  O  O17  1  0.445755  0.250000  0.434268  1
  O  O18  1  0.445041  0.750000  0.148312  1
  O  O19  1  0.554959  0.250000  0.851688  1
  O  O20  1  0.554245  0.750000  0.565732  1
  O  O21  1  0.666008  0.577675  0.230029  1
  O  O22  1  0.666008  0.922325  0.230029  1
  O  O23  1  0.861193  0.250000  0.459740  1
  O  O24  1  0.862472  0.250000  0.056604  1
  O  O25  1  0.942325  0.750000  0.731780  1
