# generated using pymatgen
data_Li2Fe7(OF2)4
_symmetry_space_group_name_H-M   'P 1'
_cell_length_a   8.55067890
_cell_length_b   11.11856906
_cell_length_c   6.35540751
_cell_angle_alpha   73.11425048
_cell_angle_beta   89.97872353
_cell_angle_gamma   67.34079202
_symmetry_Int_Tables_number   1
_chemical_formula_structural   Li2Fe7(OF2)4
_chemical_formula_sum   'Li4 Fe14 O8 F16'
_cell_volume   529.26666277
_cell_formula_units_Z   2
loop_
 _symmetry_equiv_pos_site_id
 _symmetry_equiv_pos_as_xyz
  1  'x, y, z'
loop_
 _atom_site_type_symbol
 _atom_site_label
 _atom_site_symmetry_multiplicity
 _atom_site_fract_x
 _atom_site_fract_y
 _atom_site_fract_z
 _atom_site_occupancy
  Li  Li0  1  0.000020  0.995889  0.021966  1
  Li  Li1  1  0.499870  0.994964  0.521895  1
  Li  Li2  1  0.645655  0.496053  0.242822  1
  Li  Li3  1  0.358218  0.497606  0.743168  1
  Fe  Fe4  1  0.151897  0.168195  0.162347  1
  Fe  Fe5  1  0.977708  0.525274  0.987964  1
  Fe  Fe6  1  0.355138  0.339966  0.364697  1
  Fe  Fe7  1  0.820233  0.154526  0.394882  1
  Fe  Fe8  1  0.179143  0.671345  0.199665  1
  Fe  Fe9  1  0.475978  0.831581  0.067286  1
  Fe  Fe10  1  0.178151  0.167656  0.662272  1
  Fe  Fe11  1  0.996979  0.524778  0.488577  1
  Fe  Fe12  1  0.853366  0.818914  0.350052  1
  Fe  Fe13  1  0.521681  0.157417  0.891849  1
  Fe  Fe14  1  0.647632  0.671839  0.699366  1
  Fe  Fe15  1  0.804505  0.340198  0.864516  1
  Fe  Fe16  1  0.187801  0.832375  0.566323  1
  Fe  Fe17  1  0.824041  0.819290  0.850659  1
  O  O18  1  0.925392  0.162995  0.124994  1
  O  O19  1  0.763047  0.497598  0.974658  1
  O  O20  1  0.925605  0.675727  0.156108  1
  O  O21  1  0.409704  0.162475  0.623412  1
  O  O22  1  0.081148  0.841727  0.293825  1
  O  O23  1  0.239390  0.497117  0.476081  1
  O  O24  1  0.896869  0.675807  0.656134  1
  O  O25  1  0.573391  0.841828  0.794639  1
  F  F26  1  0.397892  0.171449  0.172948  1
  F  F27  1  0.606551  0.328173  0.340031  1
  F  F28  1  0.091031  0.326880  0.328233  1
  F  F29  1  0.435972  0.658540  0.186460  1
  F  F30  1  0.232265  0.017065  0.486442  1
  F  F31  1  0.749163  0.983043  0.016266  1
  F  F32  1  0.766301  0.497411  0.518275  1
  F  F33  1  0.928871  0.170426  0.675323  1
  F  F34  1  0.577326  0.841521  0.349043  1
  F  F35  1  0.764639  0.982120  0.517562  1
  F  F36  1  0.081752  0.326057  0.828671  1
  F  F37  1  0.247987  0.017129  0.987063  1
  F  F38  1  0.564373  0.329164  0.840631  1
  F  F39  1  0.403118  0.660485  0.684878  1
  F  F40  1  0.235797  0.498987  0.018926  1
  F  F41  1  0.077580  0.842590  0.847920  1
