# generated using pymatgen
data_Fe2O3F
_symmetry_space_group_name_H-M   'P 1'
_cell_length_a   4.69813592
_cell_length_b   7.64879344
_cell_length_c   9.85834809
_cell_angle_alpha   110.27694540
_cell_angle_beta   93.82571907
_cell_angle_gamma   87.47012366
_symmetry_Int_Tables_number   1
_chemical_formula_structural   Fe2O3F
_chemical_formula_sum   'Fe10 O15 F5'
_cell_volume   331.48225971
_cell_formula_units_Z   5
loop_
 _symmetry_equiv_pos_site_id
 _symmetry_equiv_pos_as_xyz
  1  'x, y, z'
loop_
 _atom_site_type_symbol
 _atom_site_label
 _atom_site_symmetry_multiplicity
 _atom_site_fract_x
 _atom_site_fract_y
 _atom_site_fract_z
 _atom_site_occupancy
  Fe  Fe0  1  0.534979  0.306227  0.885411  1
  Fe  Fe1  1  0.499096  0.098955  0.300244  1
  Fe  Fe2  1  0.465999  0.894516  0.714132  1
  Fe  Fe3  1  0.494529  0.696968  0.101481  1
  Fe  Fe4  1  0.527840  0.507055  0.489391  1
  Fe  Fe5  1  0.003484  0.599870  0.796917  1
  Fe  Fe6  1  0.005062  0.198707  0.597507  1
  Fe  Fe7  1  0.997401  0.802985  0.403782  1
  Fe  Fe8  1  0.977409  0.391249  0.207180  1
  Fe  Fe9  1  0.997146  0.003901  0.002700  1
  O  O10  1  0.815144  0.570790  0.376821  1
  O  O11  1  0.824830  0.363516  0.768461  1
  O  O12  1  0.809045  0.153265  0.172599  1
  O  O13  1  0.690384  0.063164  0.879952  1
  O  O14  1  0.691531  0.662104  0.677888  1
  O  O15  1  0.695825  0.461326  0.074244  1
  O  O16  1  0.688830  0.858472  0.279014  1
  O  O17  1  0.701999  0.262405  0.475737  1
  O  O18  1  0.305914  0.140006  0.723721  1
  O  O19  1  0.302832  0.739495  0.523316  1
  O  O20  1  0.313038  0.338909  0.321752  1
  O  O21  1  0.299707  0.935150  0.124118  1
  O  O22  1  0.312007  0.539000  0.919278  1
  O  O23  1  0.179376  0.034035  0.428065  1
  O  O24  1  0.176280  0.838996  0.831476  1
  F  F25  1  0.799009  0.758517  0.980575  1
  F  F26  1  0.796912  0.962076  0.583149  1
  F  F27  1  0.205704  0.440417  0.617192  1
  F  F28  1  0.193705  0.244098  0.024585  1
  F  F29  1  0.194984  0.633827  0.219312  1
