# generated using pymatgen
data_Li2TiTeO6
_symmetry_space_group_name_H-M   'P 1'
_cell_length_a   5.13887666
_cell_length_b   4.99111855
_cell_length_c   8.49621248
_cell_angle_alpha   90.00000000
_cell_angle_beta   90.00000000
_cell_angle_gamma   90.00000000
_symmetry_Int_Tables_number   1
_chemical_formula_structural   Li2TiTeO6
_chemical_formula_sum   'Li4 Ti2 Te2 O12'
_cell_volume   217.91716718
_cell_formula_units_Z   2
loop_
 _symmetry_equiv_pos_site_id
 _symmetry_equiv_pos_as_xyz
  1  'x, y, z'
loop_
 _atom_site_type_symbol
 _atom_site_label
 _atom_site_symmetry_multiplicity
 _atom_site_fract_x
 _atom_site_fract_y
 _atom_site_fract_z
 _atom_site_occupancy
  Li  Li0  1  0.000000  0.000000  0.697582  1
  Li  Li1  1  0.000000  0.500000  0.821655  1
  Li  Li2  1  0.500000  0.000000  0.321655  1
  Li  Li3  1  0.500000  0.500000  0.197582  1
  Ti  Ti4  1  0.000000  0.000000  0.108718  1
  Ti  Ti5  1  0.500000  0.500000  0.608718  1
  Te  Te6  1  0.000000  0.500000  0.413609  1
  Te  Te7  1  0.500000  0.000000  0.913609  1
  O  O8  1  0.146567  0.257082  0.256165  1
  O  O9  1  0.174748  0.297445  0.583367  1
  O  O10  1  0.179302  0.198944  0.924955  1
  O  O11  1  0.320698  0.698944  0.424955  1
  O  O12  1  0.325252  0.797445  0.083367  1
  O  O13  1  0.353433  0.757082  0.756165  1
  O  O14  1  0.646567  0.242918  0.756165  1
  O  O15  1  0.674748  0.202555  0.083367  1
  O  O16  1  0.679302  0.301056  0.424955  1
  O  O17  1  0.820698  0.801056  0.924955  1
  O  O18  1  0.825252  0.702555  0.583367  1
  O  O19  1  0.853433  0.742918  0.256165  1
