# generated using pymatgen
data_Fe3(O2F)2
_symmetry_space_group_name_H-M   'P 1'
_cell_length_a   7.08184944
_cell_length_b   5.63701883
_cell_length_c   5.60498378
_cell_angle_alpha   76.93387977
_cell_angle_beta   73.21165794
_cell_angle_gamma   73.82075597
_symmetry_Int_Tables_number   1
_chemical_formula_structural   Fe3(O2F)2
_chemical_formula_sum   'Fe6 O8 F4'
_cell_volume   203.13736487
_cell_formula_units_Z   2
loop_
 _symmetry_equiv_pos_site_id
 _symmetry_equiv_pos_as_xyz
  1  'x, y, z'
loop_
 _atom_site_type_symbol
 _atom_site_label
 _atom_site_symmetry_multiplicity
 _atom_site_fract_x
 _atom_site_fract_y
 _atom_site_fract_z
 _atom_site_occupancy
  Fe  Fe0  1  0.833333  0.666667  0.666667  1
  Fe  Fe1  1  0.669147  0.363172  0.298191  1
  Fe  Fe2  1  0.333333  0.666667  0.666667  1
  Fe  Fe3  1  0.157334  0.351585  0.332446  1
  Fe  Fe4  1  0.509333  0.981749  0.000887  1
  Fe  Fe5  1  0.997520  0.970161  0.035142  1
  O  O6  1  0.296711  0.886953  0.903029  1
  O  O7  1  0.965113  0.231460  0.230666  1
  O  O8  1  0.626009  0.575090  0.560121  1
  O  O9  1  0.040658  0.758244  0.773212  1
  O  O10  1  0.369956  0.446380  0.430305  1
  O  O11  1  0.701554  0.101873  0.102667  1
  O  O12  1  0.673717  0.645060  0.008291  1
  O  O13  1  0.992950  0.688275  0.325042  1
  F  F14  1  0.665208  0.035010  0.636085  1
  F  F15  1  0.337711  0.350098  0.972047  1
  F  F16  1  0.328956  0.983236  0.361286  1
  F  F17  1  0.001459  0.298324  0.697249  1
