# generated using pymatgen
data_Li3TiMn3O8
_symmetry_space_group_name_H-M   'P 1'
_cell_length_a   5.90700005
_cell_length_b   15.35512784
_cell_length_c   6.11218950
_cell_angle_alpha   97.81681586
_cell_angle_beta   118.20706909
_cell_angle_gamma   100.59096978
_symmetry_Int_Tables_number   1
_chemical_formula_structural   Li3TiMn3O8
_chemical_formula_sum   'Li9 Ti3 Mn9 O24'
_cell_volume   464.06432508
_cell_formula_units_Z   3
loop_
 _symmetry_equiv_pos_site_id
 _symmetry_equiv_pos_as_xyz
  1  'x, y, z'
loop_
 _atom_site_type_symbol
 _atom_site_label
 _atom_site_symmetry_multiplicity
 _atom_site_fract_x
 _atom_site_fract_y
 _atom_site_fract_z
 _atom_site_occupancy
  Li  Li0  1  0.006305  0.664439  0.838730  1
  Li  Li1  1  0.999032  0.831491  0.665717  1
  Li  Li2  1  0.000001  0.999999  0.500001  1
  Li  Li3  1  0.000966  0.168509  0.334282  1
  Li  Li4  1  0.502545  0.331240  0.674953  1
  Li  Li5  1  0.993695  0.335560  0.161271  1
  Li  Li6  1  0.500002  0.500000  0.500002  1
  Li  Li7  1  0.497455  0.668760  0.325048  1
  Li  Li8  1  0.500000  0.000000  0.999999  1
  Ti  Ti9  1  0.999362  0.336729  0.679386  1
  Ti  Ti10  1  0.000642  0.663271  0.320617  1
  Ti  Ti11  1  0.000003  0.000000  0.000004  1
  Mn  Mn12  1  0.000029  0.166810  0.833019  1
  Mn  Mn13  1  0.000004  0.500002  0.500007  1
  Mn  Mn14  1  0.499842  0.670076  0.838822  1
  Mn  Mn15  1  0.499284  0.833845  0.668267  1
  Mn  Mn16  1  0.999967  0.833190  0.166978  1
  Mn  Mn17  1  0.500001  0.000001  0.500006  1
  Mn  Mn18  1  0.500714  0.166151  0.331732  1
  Mn  Mn19  1  0.500153  0.329922  0.161169  1
  Mn  Mn20  1  0.500002  0.499998  0.999990  1
  O  O21  1  0.216009  0.079906  0.905791  1
  O  O22  1  0.286232  0.587118  0.923371  1
  O  O23  1  0.208981  0.249420  0.732781  1
  O  O24  1  0.244061  0.742593  0.703569  1
  O  O25  1  0.225173  0.416616  0.574632  1
  O  O26  1  0.277889  0.918138  0.587800  1
  O  O27  1  0.743239  0.591897  0.949085  1
  O  O28  1  0.234660  0.583903  0.427784  1
  O  O29  1  0.785071  0.085245  0.928552  1
  O  O30  1  0.250062  0.075058  0.375123  1
  O  O31  1  0.722577  0.750795  0.746497  1
  O  O32  1  0.213900  0.744002  0.236673  1
  O  O33  1  0.786102  0.255997  0.763326  1
  O  O34  1  0.277423  0.249205  0.253504  1
  O  O35  1  0.749940  0.924942  0.624879  1
  O  O36  1  0.214926  0.914755  0.071448  1
  O  O37  1  0.765341  0.416098  0.572216  1
  O  O38  1  0.256760  0.408104  0.050916  1
  O  O39  1  0.722113  0.081863  0.412203  1
  O  O40  1  0.774828  0.583384  0.425371  1
  O  O41  1  0.755939  0.257409  0.296431  1
  O  O42  1  0.791019  0.750581  0.267220  1
  O  O43  1  0.713760  0.412881  0.076621  1
  O  O44  1  0.783992  0.920094  0.094209  1
