# generated using pymatgen
data_Sn2N2O
_symmetry_space_group_name_H-M   'P 1'
_cell_length_a   8.86583694
_cell_length_b   8.81708071
_cell_length_c   8.89380668
_cell_angle_alpha   109.55632110
_cell_angle_beta   109.70818518
_cell_angle_gamma   109.41713761
_symmetry_Int_Tables_number   1
_chemical_formula_structural   Sn2N2O
_chemical_formula_sum   'Sn16 N16 O8'
_cell_volume   533.41296718
_cell_formula_units_Z   8
loop_
 _symmetry_equiv_pos_site_id
 _symmetry_equiv_pos_as_xyz
  1  'x, y, z'
loop_
 _atom_site_type_symbol
 _atom_site_label
 _atom_site_symmetry_multiplicity
 _atom_site_fract_x
 _atom_site_fract_y
 _atom_site_fract_z
 _atom_site_occupancy
  Sn  Sn0  1  0.962200  0.249717  0.222741  1
  Sn  Sn1  1  0.505421  0.000455  0.996886  1
  Sn  Sn2  1  0.785018  0.022433  0.754040  1
  Sn  Sn3  1  0.711474  0.461456  0.238994  1
  Sn  Sn4  1  0.748300  0.283824  0.528010  1
  Sn  Sn5  1  0.744799  0.778140  0.031075  1
  Sn  Sn6  1  0.458922  0.250061  0.713647  1
  Sn  Sn7  1  0.005964  0.507781  0.996253  1
  Sn  Sn8  1  0.493327  0.496947  0.503535  1
  Sn  Sn9  1  0.532518  0.749736  0.281415  1
  Sn  Sn10  1  0.004389  0.989738  0.505135  1
  Sn  Sn11  1  0.263903  0.722499  0.473675  1
  Sn  Sn12  1  0.249818  0.216407  0.953537  1
  Sn  Sn13  1  0.224169  0.959885  0.256020  1
  Sn  Sn14  1  0.279505  0.534455  0.748462  1
  Sn  Sn15  1  0.033871  0.751256  0.786142  1
  N  N16  1  0.738490  0.239606  0.277331  1
  N  N17  1  0.470450  0.227525  0.459298  1
  N  N18  1  0.768558  0.725484  0.272033  1
  N  N19  1  0.497810  0.772115  0.043486  1
  N  N20  1  0.996298  0.958571  0.738386  1
  N  N21  1  0.271596  0.725002  0.227134  1
  N  N22  1  0.219584  0.454666  0.450532  1
  N  N23  1  0.503906  0.235508  0.959848  1
  N  N24  1  0.542496  0.536376  0.770283  1
  N  N25  1  0.962947  0.741452  0.002983  1
  N  N26  1  0.545199  0.769594  0.539388  1
  N  N27  1  0.217963  0.270469  0.726935  1
  N  N28  1  0.021232  0.489925  0.755333  1
  N  N29  1  0.744879  0.003751  0.967063  1
  N  N30  1  0.232788  0.957969  0.502919  1
  N  N31  1  0.265249  0.774081  0.730735  1
  O  O32  1  0.768195  0.043753  0.498619  1
  O  O33  1  0.279244  0.015848  0.053971  1
  O  O34  1  0.949863  0.497067  0.211811  1
  O  O35  1  0.052710  0.282529  0.006105  1
  O  O36  1  0.444997  0.448825  0.222615  1
  O  O37  1  0.765391  0.552406  0.531379  1
  O  O38  1  0.005600  0.048052  0.285110  1
  O  O39  1  0.730957  0.254634  0.777133  1
