# generated using pymatgen
data_LiVOF2
_symmetry_space_group_name_H-M   'P 1'
_cell_length_a   10.47189241
_cell_length_b   8.95649159
_cell_length_c   5.39460242
_cell_angle_alpha   89.98635702
_cell_angle_beta   112.06037198
_cell_angle_gamma   90.07872790
_symmetry_Int_Tables_number   1
_chemical_formula_structural   LiVOF2
_chemical_formula_sum   'Li8 V8 O8 F16'
_cell_volume   468.92436641
_cell_formula_units_Z   8
loop_
 _symmetry_equiv_pos_site_id
 _symmetry_equiv_pos_as_xyz
  1  'x, y, z'
loop_
 _atom_site_type_symbol
 _atom_site_label
 _atom_site_symmetry_multiplicity
 _atom_site_fract_x
 _atom_site_fract_y
 _atom_site_fract_z
 _atom_site_occupancy
  Li  Li0  1  0.194942  0.407879  0.385295  1
  Li  Li1  1  0.304412  0.095204  0.117825  1
  Li  Li2  1  0.195393  0.590056  0.887100  1
  Li  Li3  1  0.303880  0.916489  0.616492  1
  Li  Li4  1  0.678802  0.092081  0.356343  1
  Li  Li5  1  0.809600  0.408176  0.137826  1
  Li  Li6  1  0.680363  0.915723  0.856518  1
  Li  Li7  1  0.821920  0.586911  0.646657  1
  V  V8  1  0.012788  0.736904  0.247188  1
  V  V9  1  0.013489  0.095021  0.260693  1
  V  V10  1  0.014788  0.903795  0.762389  1
  V  V11  1  0.012598  0.261257  0.746460  1
  V  V12  1  0.490328  0.762586  0.237242  1
  V  V13  1  0.487343  0.401300  0.228235  1
  V  V14  1  0.501154  0.574458  0.764059  1
  V  V15  1  0.491100  0.243700  0.758852  1
  O  O16  1  0.096763  0.085141  0.973896  1
  O  O17  1  0.097447  0.913316  0.474071  1
  O  O18  1  0.101817  0.247665  0.498549  1
  O  O19  1  0.103748  0.751582  0.002428  1
  O  O20  1  0.391618  0.250334  0.987937  1
  O  O21  1  0.402773  0.590935  0.024506  1
  O  O22  1  0.403218  0.416490  0.511408  1
  O  O23  1  0.607017  0.419522  0.007582  1
  F  F24  1  0.130536  0.413814  0.999295  1
  F  F25  1  0.135059  0.587868  0.501931  1
  F  F26  1  0.373603  0.084198  0.501403  1
  F  F27  1  0.398460  0.748667  0.509347  1
  F  F28  1  0.369579  0.912140  0.005771  1
  F  F29  1  0.628675  0.090538  0.979648  1
  F  F30  1  0.615724  0.594783  0.503052  1
  F  F31  1  0.609247  0.247290  0.505494  1
  F  F32  1  0.626970  0.906768  0.475848  1
  F  F33  1  0.603533  0.754776  0.992511  1
  F  F34  1  0.890600  0.246765  0.994898  1
  F  F35  1  0.883343  0.912252  0.994472  1
  F  F36  1  0.872042  0.408295  0.527053  1
  F  F37  1  0.890997  0.750858  0.496942  1
  F  F38  1  0.883538  0.084478  0.495244  1
  F  F39  1  0.870791  0.589987  0.027539  1
