# generated using pymatgen
data_Li4FeSi2O7
_symmetry_space_group_name_H-M   'P 1'
_cell_length_a   5.47886571
_cell_length_b   7.23096996
_cell_length_c   8.14428028
_cell_angle_alpha   85.66918470
_cell_angle_beta   90.00000000
_cell_angle_gamma   67.73770508
_symmetry_Int_Tables_number   1
_chemical_formula_structural   Li4FeSi2O7
_chemical_formula_sum   'Li8 Fe2 Si4 O14'
_cell_volume   297.60936042
_cell_formula_units_Z   2
loop_
 _symmetry_equiv_pos_site_id
 _symmetry_equiv_pos_as_xyz
  1  'x, y, z'
loop_
 _atom_site_type_symbol
 _atom_site_label
 _atom_site_symmetry_multiplicity
 _atom_site_fract_x
 _atom_site_fract_y
 _atom_site_fract_z
 _atom_site_occupancy
  Li  Li0  1  0.736834  0.846295  0.875516  1
  Li  Li1  1  0.416871  0.846295  0.375516  1
  Li  Li2  1  0.884594  0.586556  0.593974  1
  Li  Li3  1  0.528851  0.586556  0.093974  1
  Li  Li4  1  0.128153  0.444805  0.947518  1
  Li  Li5  1  0.427042  0.444805  0.447518  1
  Li  Li6  1  0.189595  0.997376  0.020382  1
  Li  Li7  1  0.813028  0.997376  0.520382  1
  Fe  Fe8  1  0.685728  0.299017  0.797210  1
  Fe  Fe9  1  0.015256  0.299017  0.297210  1
  Si  Si10  1  0.307269  0.727384  0.739526  1
  Si  Si11  1  0.965348  0.727384  0.239526  1
  Si  Si12  1  0.256340  0.147461  0.669841  1
  Si  Si13  1  0.596199  0.147461  0.169841  1
  O  O14  1  0.213071  0.942965  0.605362  1
  O  O15  1  0.843964  0.942965  0.105362  1
  O  O16  1  0.426606  0.779964  0.904010  1
  O  O17  1  0.793431  0.779964  0.404010  1
  O  O18  1  0.051363  0.670744  0.773184  1
  O  O19  1  0.277893  0.670744  0.273184  1
  O  O20  1  0.538037  0.553206  0.642334  1
  O  O21  1  0.908758  0.553206  0.142334  1
  O  O22  1  0.147925  0.326355  0.520600  1
  O  O23  1  0.525721  0.326355  0.020600  1
  O  O24  1  0.080237  0.219641  0.834370  1
  O  O25  1  0.700122  0.219641  0.334370  1
  O  O26  1  0.573066  0.089213  0.705855  1
  O  O27  1  0.337722  0.089213  0.205855  1
