# generated using pymatgen
data_Li3MnV(PO4)3
_symmetry_space_group_name_H-M   'P 1'
_cell_length_a   8.95209305
_cell_length_b   8.44602667
_cell_length_c   14.69488560
_cell_angle_alpha   90.43791667
_cell_angle_beta   74.12141837
_cell_angle_gamma   63.21681597
_symmetry_Int_Tables_number   1
_chemical_formula_structural   Li3MnV(PO4)3
_chemical_formula_sum   'Li12 Mn4 V4 P12 O48'
_cell_volume   942.87359197
_cell_formula_units_Z   4
loop_
 _symmetry_equiv_pos_site_id
 _symmetry_equiv_pos_as_xyz
  1  'x, y, z'
loop_
 _atom_site_type_symbol
 _atom_site_label
 _atom_site_symmetry_multiplicity
 _atom_site_fract_x
 _atom_site_fract_y
 _atom_site_fract_z
 _atom_site_occupancy
  Li  Li0  1  0.147948  0.255353  0.331906  1
  Li  Li1  1  0.149527  0.796021  0.132672  1
  Li  Li2  1  0.151205  0.295172  0.632377  1
  Li  Li3  1  0.149528  0.724773  0.460327  1
  Li  Li4  1  0.149956  0.225400  0.961015  1
  Li  Li5  1  0.148622  0.757471  0.832975  1
  Li  Li6  1  0.850393  0.242657  0.167785  1
  Li  Li7  1  0.853308  0.773697  0.038332  1
  Li  Li8  1  0.849490  0.275113  0.539138  1
  Li  Li9  1  0.850614  0.703027  0.367823  1
  Li  Li10  1  0.849497  0.204363  0.868470  1
  Li  Li11  1  0.851215  0.743485  0.668082  1
  Mn  Mn12  1  0.042942  0.977659  0.325735  1
  Mn  Mn13  1  0.562570  0.221901  0.073652  1
  Mn  Mn14  1  0.437654  0.281138  0.424095  1
  Mn  Mn15  1  0.560532  0.721361  0.575986  1
  V  V16  1  0.045742  0.478571  0.825881  1
  V  V17  1  0.435085  0.781720  0.927080  1
  V  V18  1  0.954547  0.521378  0.173732  1
  V  V19  1  0.952442  0.024711  0.675345  1
  P  P20  1  0.251392  0.085818  0.124714  1
  P  P21  1  0.250010  0.022789  0.478094  1
  P  P22  1  0.252100  0.519181  0.268300  1
  P  P23  1  0.249769  0.022535  0.770652  1
  P  P24  1  0.249180  0.587717  0.625842  1
  P  P25  1  0.250533  0.521063  0.978490  1
  P  P26  1  0.748004  0.481359  0.020254  1
  P  P27  1  0.748368  0.416215  0.375736  1
  P  P28  1  0.753966  0.971798  0.229470  1
  P  P29  1  0.749955  0.477083  0.730573  1
  P  P30  1  0.745858  0.979468  0.521199  1
  P  P31  1  0.749152  0.916178  0.875806  1
  O  O32  1  0.099539  0.258671  0.103761  1
  O  O33  1  0.196117  0.067861  0.231750  1
  O  O34  1  0.097726  0.614991  0.077108  1
  O  O35  1  0.097219  0.117551  0.576407  1
  O  O36  1  0.099332  0.473021  0.266678  1
  O  O37  1  0.426274  0.091597  0.096763  1
  O  O38  1  0.266978  0.183040  0.431748  1
  O  O39  1  0.199051  0.713744  0.249954  1
  O  O40  1  0.193207  0.220485  0.754449  1
  O  O41  1  0.263599  0.499918  0.371455  1
  O  O42  1  0.425285  0.387098  0.194115  1
  O  O43  1  0.098821  0.762122  0.605278  1
  O  O44  1  0.266396  0.927990  0.061480  1
  O  O45  1  0.261491  0.430483  0.565228  1
  O  O46  1  0.583845  0.100013  0.303773  1
  O  O47  1  0.193727  0.572029  0.734217  1
  O  O48  1  0.189360  0.929990  0.413460  1
  O  O49  1  0.188953  0.427035  0.916090  1
  O  O50  1  0.749163  0.991977  0.126186  1
  O  O51  1  0.579154  0.615482  0.002795  1
  O  O52  1  0.577839  0.114904  0.505222  1
  O  O53  1  0.095862  0.979039  0.768873  1
  O  O54  1  0.732100  0.323007  0.068198  1
  O  O55  1  0.574414  0.407415  0.402352  1
  O  O56  1  0.423966  0.594223  0.598346  1
  O  O57  1  0.262064  0.681277  0.931829  1
  O  O58  1  0.910884  0.015630  0.232238  1
  O  O59  1  0.417257  0.885631  0.493096  1
  O  O60  1  0.419570  0.387239  0.992903  1
  O  O61  1  0.263694  0.999197  0.873273  1
  O  O62  1  0.806607  0.575655  0.083188  1
  O  O63  1  0.807349  0.071407  0.584379  1
  O  O64  1  0.804491  0.430966  0.267365  1
  O  O65  1  0.420529  0.895376  0.695444  1
  O  O66  1  0.729726  0.578246  0.436875  1
  O  O67  1  0.733027  0.074980  0.939083  1
  O  O68  1  0.899706  0.247075  0.397197  1
  O  O69  1  0.580050  0.606894  0.806384  1
  O  O70  1  0.739179  0.495120  0.628208  1
  O  O71  1  0.809963  0.775001  0.247600  1
  O  O72  1  0.805479  0.279646  0.748789  1
  O  O73  1  0.728316  0.820648  0.569895  1
  O  O74  1  0.578952  0.906742  0.901128  1
  O  O75  1  0.903139  0.522812  0.733142  1
  O  O76  1  0.901579  0.879251  0.424754  1
  O  O77  1  0.900807  0.385427  0.922143  1
  O  O78  1  0.805550  0.933619  0.768061  1
  O  O79  1  0.901562  0.742305  0.895803  1
