# generated using pymatgen
data_H26Os2N12Cl4O9
_symmetry_space_group_name_H-M   'P 1'
_cell_length_a   7.15189392
_cell_length_b   7.15189392
_cell_length_c   26.00830219
_cell_angle_alpha   82.98233324
_cell_angle_beta   97.01766676
_cell_angle_gamma   122.82218884
_symmetry_Int_Tables_number   1
_chemical_formula_structural   H26Os2N12Cl4O9
_chemical_formula_sum   'H52 Os4 N24 Cl8 O18'
_cell_volume   1107.06378984
_cell_formula_units_Z   2
loop_
 _symmetry_equiv_pos_site_id
 _symmetry_equiv_pos_as_xyz
  1  'x, y, z'
loop_
 _atom_site_type_symbol
 _atom_site_label
 _atom_site_symmetry_multiplicity
 _atom_site_fract_x
 _atom_site_fract_y
 _atom_site_fract_z
 _atom_site_occupancy
  H  H0  1  0.513980  0.583822  0.773438  1
  H  H1  1  0.583822  0.513980  0.726562  1
  H  H2  1  0.486020  0.416178  0.226562  1
  H  H3  1  0.416178  0.486020  0.273438  1
  H  H4  1  0.864796  0.901241  0.804433  1
  H  H5  1  0.901241  0.864796  0.695567  1
  H  H6  1  0.135204  0.098759  0.195567  1
  H  H7  1  0.098759  0.135204  0.304433  1
  H  H8  1  0.826747  0.392057  0.865954  1
  H  H9  1  0.392057  0.826747  0.634046  1
  H  H10  1  0.173253  0.607943  0.134046  1
  H  H11  1  0.607943  0.173253  0.365954  1
  H  H12  1  0.110990  0.154107  0.942644  1
  H  H13  1  0.154107  0.110990  0.557356  1
  H  H14  1  0.889010  0.845893  0.057356  1
  H  H15  1  0.845893  0.889010  0.442644  1
  H  H16  1  0.321129  0.733965  0.963280  1
  H  H17  1  0.733965  0.321129  0.536720  1
  H  H18  1  0.678871  0.266035  0.036720  1
  H  H19  1  0.266035  0.678871  0.463280  1
  H  H20  1  0.016425  0.136276  0.834503  1
  H  H21  1  0.136276  0.016425  0.665497  1
  H  H22  1  0.983575  0.863724  0.165497  1
  H  H23  1  0.863724  0.983575  0.334503  1
  H  H24  1  0.028602  0.544523  0.825931  1
  H  H25  1  0.544523  0.028602  0.674069  1
  H  H26  1  0.971398  0.455477  0.174069  1
  H  H27  1  0.455477  0.971398  0.325931  1
  H  H28  1  0.346308  0.238381  0.916224  1
  H  H29  1  0.238381  0.346308  0.583776  1
  H  H30  1  0.653692  0.761619  0.083776  1
  H  H31  1  0.761619  0.653692  0.416224  1
  H  H32  1  0.309222  0.650980  0.904594  1
  H  H33  1  0.650980  0.309222  0.595406  1
  H  H34  1  0.690778  0.349020  0.095406  1
  H  H35  1  0.349020  0.690778  0.404594  1
  H  H36  1  0.763150  0.939105  0.853092  1
  H  H37  1  0.939105  0.763150  0.646908  1
  H  H38  1  0.236850  0.060895  0.146908  1
  H  H39  1  0.060895  0.236850  0.353092  1
  H  H40  1  0.793918  0.544163  0.815083  1
  H  H41  1  0.544163  0.793918  0.684917  1
  H  H42  1  0.206082  0.455837  0.184917  1
  H  H43  1  0.455837  0.206082  0.315083  1
  H  H44  1  0.280053  0.075420  0.972417  1
  H  H45  1  0.075420  0.280053  0.527583  1
  H  H46  1  0.719947  0.924580  0.027583  1
  H  H47  1  0.924580  0.719947  0.472417  1
  H  H48  1  0.099073  0.496425  0.942236  1
  H  H49  1  0.496425  0.099073  0.557764  1
  H  H50  1  0.900927  0.503575  0.057764  1
  H  H51  1  0.503575  0.900927  0.442236  1
  Os  Os52  1  0.049425  0.814012  0.892103  1
  Os  Os53  1  0.814012  0.049425  0.607897  1
  Os  Os54  1  0.950575  0.185988  0.107897  1
  Os  Os55  1  0.185988  0.950575  0.392103  1
  N  N56  1  0.829943  0.680821  0.932929  1
  N  N57  1  0.680821  0.829943  0.567071  1
  N  N58  1  0.170057  0.319179  0.067071  1
  N  N59  1  0.319179  0.170057  0.432929  1
  N  N60  1  0.906453  0.966176  0.840200  1
  N  N61  1  0.966176  0.906453  0.659800  1
  N  N62  1  0.093547  0.033824  0.159800  1
  N  N63  1  0.033824  0.093547  0.340200  1
  N  N64  1  0.905879  0.541594  0.843757  1
  N  N65  1  0.541594  0.905879  0.656243  1
  N  N66  1  0.094121  0.458406  0.156243  1
  N  N67  1  0.458406  0.094121  0.343757  1
  N  N68  1  0.219402  0.105713  0.936398  1
  N  N69  1  0.105713  0.219402  0.563602  1
  N  N70  1  0.780598  0.894287  0.063602  1
  N  N71  1  0.894287  0.780598  0.436398  1
  N  N72  1  0.218372  0.660680  0.931303  1
  N  N73  1  0.660680  0.218372  0.568697  1
  N  N74  1  0.781628  0.339320  0.068697  1
  N  N75  1  0.339320  0.781628  0.431303  1
  N  N76  1  0.348572  0.003537  0.799975  1
  N  N77  1  0.003537  0.348572  0.700025  1
  N  N78  1  0.651428  0.996463  0.200025  1
  N  N79  1  0.996463  0.651428  0.299975  1
  Cl  Cl80  1  0.791938  0.158829  0.947120  1
  Cl  Cl81  1  0.158829  0.791938  0.552880  1
  Cl  Cl82  1  0.208062  0.841171  0.052880  1
  Cl  Cl83  1  0.841171  0.208062  0.447120  1
  Cl  Cl84  1  0.354467  0.500442  0.842546  1
  Cl  Cl85  1  0.500442  0.354467  0.657454  1
  Cl  Cl86  1  0.645533  0.499558  0.157454  1
  Cl  Cl87  1  0.499558  0.645533  0.342546  1
  O  O88  1  0.683973  0.596584  0.961057  1
  O  O89  1  0.596584  0.683973  0.538943  1
  O  O90  1  0.316027  0.403416  0.038943  1
  O  O91  1  0.403416  0.316027  0.461057  1
  O  O92  1  0.333512  0.986611  0.852472  1
  O  O93  1  0.986611  0.333512  0.647528  1
  O  O94  1  0.666488  0.013389  0.147528  1
  O  O95  1  0.013389  0.666488  0.352472  1
  O  O96  1  0.177576  0.934015  0.771054  1
  O  O97  1  0.934015  0.177576  0.728946  1
  O  O98  1  0.822424  0.065985  0.228946  1
  O  O99  1  0.065985  0.822424  0.271054  1
  O  O100  1  0.539442  0.090324  0.786464  1
  O  O101  1  0.090324  0.539442  0.713536  1
  O  O102  1  0.460558  0.909676  0.213536  1
  O  O103  1  0.909676  0.460558  0.286464  1
  O  O104  1  0.635361  0.635361  0.750000  1
  O  O105  1  0.364639  0.364639  0.250000  1
