# generated using pymatgen
data_Fe2O3F
_symmetry_space_group_name_H-M   'P 1'
_cell_length_a   6.01691322
_cell_length_b   6.39059245
_cell_length_c   7.53486563
_cell_angle_alpha   90.00000000
_cell_angle_beta   113.53264023
_cell_angle_gamma   90.00000000
_symmetry_Int_Tables_number   1
_chemical_formula_structural   Fe2O3F
_chemical_formula_sum   'Fe8 O12 F4'
_cell_volume   265.63207091
_cell_formula_units_Z   4
loop_
 _symmetry_equiv_pos_site_id
 _symmetry_equiv_pos_as_xyz
  1  'x, y, z'
loop_
 _atom_site_type_symbol
 _atom_site_label
 _atom_site_symmetry_multiplicity
 _atom_site_fract_x
 _atom_site_fract_y
 _atom_site_fract_z
 _atom_site_occupancy
  Fe  Fe0  1  0.499424  0.000000  0.001505  1
  Fe  Fe1  1  0.002081  0.000000  0.001505  1
  Fe  Fe2  1  0.761017  0.500000  0.022034  1
  Fe  Fe3  1  0.247387  0.500000  0.994773  1
  Fe  Fe4  1  0.502613  0.000000  0.505227  1
  Fe  Fe5  1  0.988983  0.000000  0.477966  1
  Fe  Fe6  1  0.747919  0.500000  0.498495  1
  Fe  Fe7  1  0.250576  0.500000  0.498495  1
  O  O8  1  0.840539  0.000000  0.181080  1
  O  O9  1  0.500894  0.305383  0.000689  1
  O  O10  1  0.999796  0.305383  0.000689  1
  O  O11  1  0.500894  0.694617  0.000689  1
  O  O12  1  0.750204  0.194617  0.499311  1
  O  O13  1  0.249106  0.194617  0.499311  1
  O  O14  1  0.999796  0.694617  0.000689  1
  O  O15  1  0.164055  0.000000  0.828109  1
  O  O16  1  0.909461  0.500000  0.318920  1
  O  O17  1  0.585945  0.500000  0.671891  1
  O  O18  1  0.750204  0.805383  0.499311  1
  O  O19  1  0.249106  0.805383  0.499311  1
  F  F20  1  0.353173  0.000000  0.206347  1
  F  F21  1  0.650193  0.000000  0.800386  1
  F  F22  1  0.396827  0.500000  0.293653  1
  F  F23  1  0.099807  0.500000  0.699614  1
