# generated using pymatgen
data_Rb2Be2O3
_symmetry_space_group_name_H-M   'P 1'
_cell_length_a   4.97801240
_cell_length_b   8.81559538
_cell_length_c   6.58790908
_cell_angle_alpha   90.00000000
_cell_angle_beta   114.71422303
_cell_angle_gamma   90.00000000
_symmetry_Int_Tables_number   1
_chemical_formula_structural   Rb2Be2O3
_chemical_formula_sum   'Rb4 Be4 O6'
_cell_volume   262.62402765
_cell_formula_units_Z   2
loop_
 _symmetry_equiv_pos_site_id
 _symmetry_equiv_pos_as_xyz
  1  'x, y, z'
loop_
 _atom_site_type_symbol
 _atom_site_label
 _atom_site_symmetry_multiplicity
 _atom_site_fract_x
 _atom_site_fract_y
 _atom_site_fract_z
 _atom_site_occupancy
  Rb  Rb0  1  0.220053  0.651967  0.927601  1
  Rb  Rb1  1  0.220053  0.848033  0.427601  1
  Rb  Rb2  1  0.779947  0.151967  0.572399  1
  Rb  Rb3  1  0.779947  0.348033  0.072399  1
  Be  Be4  1  0.301894  0.493132  0.502797  1
  Be  Be5  1  0.698106  0.993132  0.997203  1
  Be  Be6  1  0.301894  0.006868  0.002797  1
  Be  Be7  1  0.698106  0.506868  0.497203  1
  O  O8  1  0.000000  0.500000  0.500000  1
  O  O9  1  0.000000  0.000000  0.000000  1
  O  O10  1  0.395810  0.050697  0.808049  1
  O  O11  1  0.604190  0.550697  0.691951  1
  O  O12  1  0.395810  0.449303  0.308049  1
  O  O13  1  0.604190  0.949303  0.191951  1
