# generated using pymatgen
data_LiMnBO3
_symmetry_space_group_name_H-M   'P 1'
_cell_length_a   8.37511673
_cell_length_b   8.37499337
_cell_length_c   3.20983339
_cell_angle_alpha   90.00000000
_cell_angle_beta   90.00000000
_cell_angle_gamma   120.00180344
_symmetry_Int_Tables_number   1
_chemical_formula_structural   LiMnBO3
_chemical_formula_sum   'Li3 Mn3 B3 O9'
_cell_volume   194.97573680
_cell_formula_units_Z   3
loop_
 _symmetry_equiv_pos_site_id
 _symmetry_equiv_pos_as_xyz
  1  'x, y, z'
loop_
 _atom_site_type_symbol
 _atom_site_label
 _atom_site_symmetry_multiplicity
 _atom_site_fract_x
 _atom_site_fract_y
 _atom_site_fract_z
 _atom_site_occupancy
  Li  Li0  1  0.376772  0.360916  0.000000  1
  Li  Li1  1  0.639080  0.015864  0.000000  1
  Li  Li2  1  0.984148  0.623229  0.000000  1
  Mn  Mn3  1  0.296056  0.981457  0.500000  1
  Mn  Mn4  1  0.018531  0.314609  0.500000  1
  Mn  Mn5  1  0.685407  0.703911  0.500000  1
  B  B6  1  0.333270  0.666790  0.500000  1
  B  B7  1  0.000014  0.999997  0.000000  1
  B  B8  1  0.666694  0.333286  0.500000  1
  O  O9  1  0.103558  0.911853  0.000000  1
  O  O10  1  0.144392  0.598057  0.500000  1
  O  O11  1  0.088158  0.191726  0.000000  1
  O  O12  1  0.453665  0.855605  0.500000  1
  O  O13  1  0.401990  0.546233  0.500000  1
  O  O14  1  0.475610  0.258045  0.500000  1
  O  O15  1  0.808259  0.896411  0.000000  1
  O  O16  1  0.782431  0.524409  0.500000  1
  O  O17  1  0.741963  0.217603  0.500000  1
