# generated using pymatgen
data_Li3Bi3(PO4)4
_symmetry_space_group_name_H-M   'P 1'
_cell_length_a   6.74593747
_cell_length_b   9.60498399
_cell_length_c   10.98688236
_cell_angle_alpha   92.25631390
_cell_angle_beta   90.00000000
_cell_angle_gamma   69.44119174
_symmetry_Int_Tables_number   1
_chemical_formula_structural   Li3Bi3(PO4)4
_chemical_formula_sum   'Li6 Bi6 P8 O32'
_cell_volume   665.96264898
_cell_formula_units_Z   2
loop_
 _symmetry_equiv_pos_site_id
 _symmetry_equiv_pos_as_xyz
  1  'x, y, z'
loop_
 _atom_site_type_symbol
 _atom_site_label
 _atom_site_symmetry_multiplicity
 _atom_site_fract_x
 _atom_site_fract_y
 _atom_site_fract_z
 _atom_site_occupancy
  Li  Li0  1  0.571486  0.688440  0.737969  1
  Li  Li1  1  0.740074  0.688440  0.237969  1
  Li  Li2  1  0.500000  0.500000  0.500000  1
  Li  Li3  1  0.000000  0.500000  0.000000  1
  Li  Li4  1  0.259926  0.311560  0.762031  1
  Li  Li5  1  0.428514  0.311560  0.262031  1
  Bi  Bi6  1  0.322782  0.721816  0.990792  1
  Bi  Bi7  1  0.955402  0.721816  0.490792  1
  Bi  Bi8  1  0.044598  0.278184  0.509208  1
  Bi  Bi9  1  0.677218  0.278184  0.009208  1
  Bi  Bi10  1  0.643716  0.000000  0.750000  1
  Bi  Bi11  1  0.356284  0.000000  0.250000  1
  P  P12  1  0.756291  0.867620  0.006305  1
  P  P13  1  0.376089  0.867620  0.506305  1
  P  P14  1  0.134386  0.617054  0.741851  1
  P  P15  1  0.248559  0.617054  0.241851  1
  P  P16  1  0.751441  0.382946  0.758149  1
  P  P17  1  0.865614  0.382946  0.258149  1
  P  P18  1  0.623911  0.132380  0.493695  1
  P  P19  1  0.243709  0.132380  0.993695  1
  O  O20  1  0.775395  0.018192  0.968588  1
  O  O21  1  0.206412  0.018192  0.468588  1
  O  O22  1  0.475740  0.867641  0.633829  1
  O  O23  1  0.619402  0.825246  0.905611  1
  O  O24  1  0.656619  0.867641  0.133829  1
  O  O25  1  0.555351  0.825246  0.405611  1
  O  O26  1  0.981266  0.748935  0.005538  1
  O  O27  1  0.910626  0.738351  0.713775  1
  O  O28  1  0.269799  0.748935  0.505538  1
  O  O29  1  0.279782  0.706900  0.781641  1
  O  O30  1  0.351023  0.738351  0.213775  1
  O  O31  1  0.013317  0.706900  0.281641  1
  O  O32  1  0.721125  0.473195  0.884453  1
  O  O33  1  0.652779  0.492042  0.658061  1
  O  O34  1  0.805680  0.473195  0.384453  1
  O  O35  1  0.855178  0.492042  0.158061  1
  O  O36  1  0.144822  0.507958  0.841939  1
  O  O37  1  0.194320  0.526805  0.615547  1
  O  O38  1  0.347221  0.507958  0.341939  1
  O  O39  1  0.278875  0.526805  0.115547  1
  O  O40  1  0.986683  0.293100  0.718359  1
  O  O41  1  0.648977  0.261649  0.786225  1
  O  O42  1  0.720218  0.293100  0.218359  1
  O  O43  1  0.730201  0.251065  0.494462  1
  O  O44  1  0.089374  0.261649  0.286225  1
  O  O45  1  0.018734  0.251065  0.994462  1
  O  O46  1  0.444649  0.174754  0.594389  1
  O  O47  1  0.343381  0.132359  0.866171  1
  O  O48  1  0.380598  0.174754  0.094389  1
  O  O49  1  0.524260  0.132359  0.366171  1
  O  O50  1  0.793588  0.981808  0.531412  1
  O  O51  1  0.224605  0.981808  0.031412  1
