# generated using pymatgen
data_LiVPO5
_symmetry_space_group_name_H-M   'P 1'
_cell_length_a   4.88363155
_cell_length_b   6.21693730
_cell_length_c   6.39300649
_cell_angle_alpha   86.90443774
_cell_angle_beta   89.99965954
_cell_angle_gamma   90.00053697
_symmetry_Int_Tables_number   1
_chemical_formula_structural   LiVPO5
_chemical_formula_sum   'Li2 V2 P2 O10'
_cell_volume   193.81632855
_cell_formula_units_Z   2
loop_
 _symmetry_equiv_pos_site_id
 _symmetry_equiv_pos_as_xyz
  1  'x, y, z'
loop_
 _atom_site_type_symbol
 _atom_site_label
 _atom_site_symmetry_multiplicity
 _atom_site_fract_x
 _atom_site_fract_y
 _atom_site_fract_z
 _atom_site_occupancy
  Li  Li0  1  0.917514  0.923730  0.024986  1
  Li  Li1  1  0.082479  0.423742  0.524985  1
  V  V2  1  0.244988  0.753617  0.749228  1
  V  V3  1  0.755067  0.253622  0.249233  1
  P  P4  1  0.476001  0.748094  0.249704  1
  P  P5  1  0.523938  0.248089  0.749690  1
  O  O6  1  0.672073  0.939047  0.282754  1
  O  O7  1  0.289716  0.800364  0.057515  1
  O  O8  1  0.906584  0.756877  0.758662  1
  O  O9  1  0.294964  0.700091  0.444117  1
  O  O10  1  0.658027  0.555595  0.199931  1
  O  O11  1  0.327921  0.439027  0.782746  1
  O  O12  1  0.710296  0.300371  0.557507  1
  O  O13  1  0.093381  0.256885  0.258662  1
  O  O14  1  0.705040  0.200093  0.944136  1
  O  O15  1  0.342000  0.055605  0.699924  1
