# generated using pymatgen
data_Li2Mn3Si3O10
_symmetry_space_group_name_H-M   'P 1'
_cell_length_a   4.92765893
_cell_length_b   8.45380612
_cell_length_c   10.59031803
_cell_angle_alpha   93.21881256
_cell_angle_beta   90.00000000
_cell_angle_gamma   73.05544373
_symmetry_Int_Tables_number   1
_chemical_formula_structural   Li2Mn3Si3O10
_chemical_formula_sum   'Li4 Mn6 Si6 O20'
_cell_volume   421.28602545
_cell_formula_units_Z   2
loop_
 _symmetry_equiv_pos_site_id
 _symmetry_equiv_pos_as_xyz
  1  'x, y, z'
loop_
 _atom_site_type_symbol
 _atom_site_label
 _atom_site_symmetry_multiplicity
 _atom_site_fract_x
 _atom_site_fract_y
 _atom_site_fract_z
 _atom_site_occupancy
  Li  Li0  1  0.252004  0.887167  0.025550  1
  Li  Li1  1  0.860829  0.887167  0.525550  1
  Li  Li2  1  0.139171  0.112833  0.474450  1
  Li  Li3  1  0.747996  0.112833  0.974450  1
  Mn  Mn4  1  0.374910  0.692272  0.291653  1
  Mn  Mn5  1  0.932818  0.692272  0.791653  1
  Mn  Mn6  1  0.500000  0.500000  0.000000  1
  Mn  Mn7  1  0.000000  0.500000  0.500000  1
  Mn  Mn8  1  0.067182  0.307728  0.208347  1
  Mn  Mn9  1  0.625090  0.307728  0.708347  1
  Si  Si10  1  0.837483  0.694514  0.097438  1
  Si  Si11  1  0.468002  0.694514  0.597438  1
  Si  Si12  1  0.531998  0.305486  0.402562  1
  Si  Si13  1  0.162517  0.305486  0.902562  1
  Si  Si14  1  0.804264  0.000000  0.250000  1
  Si  Si15  1  0.195736  0.000000  0.750000  1
  O  O16  1  0.027395  0.913615  0.357823  1
  O  O17  1  0.647564  0.867525  0.178531  1
  O  O18  1  0.058989  0.913615  0.857823  1
  O  O19  1  0.484910  0.867525  0.678531  1
  O  O20  1  0.169252  0.694204  0.101034  1
  O  O21  1  0.607041  0.701246  0.458177  1
  O  O22  1  0.136544  0.694204  0.601034  1
  O  O23  1  0.691713  0.701246  0.958177  1
  O  O24  1  0.762056  0.542286  0.166951  1
  O  O25  1  0.695658  0.542286  0.666951  1
  O  O26  1  0.304342  0.457714  0.333049  1
  O  O27  1  0.237944  0.457714  0.833049  1
  O  O28  1  0.308287  0.298754  0.041823  1
  O  O29  1  0.863456  0.305796  0.398966  1
  O  O30  1  0.392959  0.298754  0.541823  1
  O  O31  1  0.830748  0.305796  0.898966  1
  O  O32  1  0.515090  0.132475  0.321469  1
  O  O33  1  0.941011  0.086385  0.142177  1
  O  O34  1  0.352436  0.132475  0.821469  1
  O  O35  1  0.972605  0.086385  0.642177  1
