# generated using pymatgen
data_Li4FeNi5(PO4)6
_symmetry_space_group_name_H-M   'P 1'
_cell_length_a   8.33095680
_cell_length_b   8.81228352
_cell_length_c   8.80264899
_cell_angle_alpha   60.03924244
_cell_angle_beta   58.71870857
_cell_angle_gamma   58.56852706
_symmetry_Int_Tables_number   1
_chemical_formula_structural   Li4FeNi5(PO4)6
_chemical_formula_sum   'Li4 Fe1 Ni5 P6 O24'
_cell_volume   447.49519469
_cell_formula_units_Z   1
loop_
 _symmetry_equiv_pos_site_id
 _symmetry_equiv_pos_as_xyz
  1  'x, y, z'
loop_
 _atom_site_type_symbol
 _atom_site_label
 _atom_site_symmetry_multiplicity
 _atom_site_fract_x
 _atom_site_fract_y
 _atom_site_fract_z
 _atom_site_occupancy
  Li  Li0  1  0.249163  0.854420  0.643863  1
  Li  Li1  1  0.764029  0.145763  0.354711  1
  Li  Li2  1  0.763195  0.736266  0.145159  1
  Li  Li3  1  0.764412  0.355390  0.734944  1
  Fe  Fe4  1  0.552115  0.150568  0.148319  1
  Ni  Ni5  1  0.007270  0.997568  0.003012  1
  Ni  Ni6  1  0.071096  0.643633  0.643230  1
  Ni  Ni7  1  0.494893  0.497496  0.501141  1
  Ni  Ni8  1  0.432015  0.855539  0.855016  1
  Ni  Ni9  1  0.940447  0.353507  0.351540  1
  P  P10  1  0.248680  0.253130  0.554162  1
  P  P11  1  0.246070  0.947929  0.248546  1
  P  P12  1  0.245979  0.555233  0.948005  1
  P  P13  1  0.750247  0.452312  0.046784  1
  P  P14  1  0.757030  0.045685  0.749680  1
  P  P15  1  0.742746  0.751276  0.453910  1
  O  O16  1  0.052603  0.104096  0.315963  1
  O  O17  1  0.052574  0.525311  0.102215  1
  O  O18  1  0.052905  0.321501  0.523750  1
  O  O19  1  0.223673  0.088005  0.741986  1
  O  O20  1  0.436656  0.184218  0.392086  1
  O  O21  1  0.280535  0.401698  0.568580  1
  O  O22  1  0.224643  0.927643  0.096344  1
  O  O23  1  0.281300  0.759381  0.410369  1
  O  O24  1  0.560460  0.607867  0.011518  1
  O  O25  1  0.283584  0.571208  0.748258  1
  O  O26  1  0.775044  0.250871  0.070625  1
  O  O27  1  0.577629  0.999453  0.812413  1
  O  O28  1  0.436273  0.991917  0.177306  1
  O  O29  1  0.219321  0.753731  0.925637  1
  O  O30  1  0.721969  0.431939  0.246873  1
  O  O31  1  0.436247  0.395533  0.988781  1
  O  O32  1  0.725365  0.245966  0.597057  1
  O  O33  1  0.773515  0.074714  0.905515  1
  O  O34  1  0.724031  0.596822  0.427839  1
  O  O35  1  0.542410  0.816988  0.603774  1
  O  O36  1  0.771950  0.905430  0.251980  1
  O  O37  1  0.922583  0.690246  0.498763  1
  O  O38  1  0.937775  0.487758  0.891125  1
  O  O39  1  0.957565  0.894988  0.686222  1
