# generated using pymatgen
data_Na2Bi2C4SO16
_symmetry_space_group_name_H-M   'P 1'
_cell_length_a   10.53536418
_cell_length_b   10.39471473
_cell_length_c   10.39471494
_cell_angle_alpha   88.26865399
_cell_angle_beta   61.41773802
_cell_angle_gamma   118.58226303
_symmetry_Int_Tables_number   1
_chemical_formula_structural   Na2Bi2C4SO16
_chemical_formula_sum   'Na4 Bi4 C8 S2 O32'
_cell_volume   826.76061550
_cell_formula_units_Z   2
loop_
 _symmetry_equiv_pos_site_id
 _symmetry_equiv_pos_as_xyz
  1  'x, y, z'
loop_
 _atom_site_type_symbol
 _atom_site_label
 _atom_site_symmetry_multiplicity
 _atom_site_fract_x
 _atom_site_fract_y
 _atom_site_fract_z
 _atom_site_occupancy
  Na  Na0  1  0.250000  0.915527  0.834473  1
  Na  Na1  1  0.250000  0.334473  0.415527  1
  Na  Na2  1  0.750000  0.665527  0.584473  1
  Na  Na3  1  0.750000  0.084473  0.165527  1
  Bi  Bi4  1  0.000000  0.500000  0.000000  1
  Bi  Bi5  1  0.000000  0.500000  0.500000  1
  Bi  Bi6  1  0.500000  0.500000  0.000000  1
  Bi  Bi7  1  0.500000  0.000000  0.000000  1
  C  C8  1  0.071013  0.725208  0.212881  1
  C  C9  1  0.071013  0.345806  0.216105  1
  C  C10  1  0.428987  0.712881  0.225208  1
  C  C11  1  0.428987  0.716105  0.845806  1
  C  C12  1  0.571013  0.283895  0.154194  1
  C  C13  1  0.571013  0.287119  0.774792  1
  C  C14  1  0.928987  0.654194  0.783895  1
  C  C15  1  0.928987  0.274792  0.787119  1
  S  S16  1  0.250000  0.125000  0.625000  1
  S  S17  1  0.750000  0.875000  0.375000  1
  O  O18  1  0.062806  0.711629  0.092756  1
  O  O19  1  0.199845  0.847574  0.200372  1
  O  O20  1  0.062806  0.351177  0.344438  1
  O  O21  1  0.199845  0.352272  0.099783  1
  O  O22  1  0.052970  0.667618  0.794514  1
  O  O23  1  0.300155  0.700372  0.347574  1
  O  O24  1  0.052970  0.385352  0.652514  1
  O  O25  1  0.552970  0.847486  0.114648  1
  O  O26  1  0.437194  0.592756  0.211629  1
  O  O27  1  0.137560  0.072099  0.564397  1
  O  O28  1  0.447030  0.294514  0.167618  1
  O  O29  1  0.637560  0.935603  0.427901  1
  O  O30  1  0.300155  0.599783  0.852272  1
  O  O31  1  0.437194  0.844438  0.851177  1
  O  O32  1  0.137560  0.065460  0.798043  1
  O  O33  1  0.362440  0.298043  0.565460  1
  O  O34  1  0.637560  0.701957  0.434540  1
  O  O35  1  0.862440  0.934540  0.201957  1
  O  O36  1  0.562806  0.155562  0.148823  1
  O  O37  1  0.699845  0.400217  0.147728  1
  O  O38  1  0.362440  0.064397  0.572099  1
  O  O39  1  0.552970  0.705486  0.832382  1
  O  O40  1  0.862440  0.927901  0.435603  1
  O  O41  1  0.562806  0.407244  0.788371  1
  O  O42  1  0.447030  0.152514  0.885352  1
  O  O43  1  0.947030  0.614648  0.347486  1
  O  O44  1  0.699845  0.299628  0.652426  1
  O  O45  1  0.947030  0.332382  0.205486  1
  O  O46  1  0.800155  0.647728  0.900217  1
  O  O47  1  0.937194  0.648823  0.655562  1
  O  O48  1  0.800155  0.152426  0.799628  1
  O  O49  1  0.937194  0.288371  0.907244  1
