# generated using pymatgen
data_Mg2Te3O8
_symmetry_space_group_name_H-M   'P 1'
_cell_length_a   6.93769142
_cell_length_b   6.93769142
_cell_length_c   11.74290690
_cell_angle_alpha   82.08067020
_cell_angle_beta   97.91932980
_cell_angle_gamma   135.06591879
_symmetry_Int_Tables_number   1
_chemical_formula_structural   Mg2Te3O8
_chemical_formula_sum   'Mg4 Te6 O16'
_cell_volume   394.73791816
_cell_formula_units_Z   2
loop_
 _symmetry_equiv_pos_site_id
 _symmetry_equiv_pos_as_xyz
  1  'x, y, z'
loop_
 _atom_site_type_symbol
 _atom_site_label
 _atom_site_symmetry_multiplicity
 _atom_site_fract_x
 _atom_site_fract_y
 _atom_site_fract_z
 _atom_site_occupancy
  Mg  Mg0  1  0.428087  0.964986  0.851162  1
  Mg  Mg1  1  0.035014  0.571913  0.351162  1
  Mg  Mg2  1  0.964986  0.428087  0.648838  1
  Mg  Mg3  1  0.571913  0.035014  0.148838  1
  Te  Te4  1  0.053702  0.328350  0.943900  1
  Te  Te5  1  0.671650  0.946298  0.443900  1
  Te  Te6  1  0.849775  0.849775  0.750000  1
  Te  Te7  1  0.150225  0.150225  0.250000  1
  Te  Te8  1  0.328350  0.053702  0.556100  1
  Te  Te9  1  0.946298  0.671650  0.056100  1
  O  O10  1  0.151443  0.990771  0.855160  1
  O  O11  1  0.009229  0.848557  0.355160  1
  O  O12  1  0.273149  0.745299  0.528359  1
  O  O13  1  0.164737  0.561287  0.808066  1
  O  O14  1  0.254701  0.726851  0.028359  1
  O  O15  1  0.438713  0.835263  0.308066  1
  O  O16  1  0.756956  0.987283  0.862552  1
  O  O17  1  0.012717  0.243044  0.362552  1
  O  O18  1  0.987283  0.756956  0.637448  1
  O  O19  1  0.243044  0.012717  0.137448  1
  O  O20  1  0.561287  0.164737  0.691934  1
  O  O21  1  0.745299  0.273149  0.971641  1
  O  O22  1  0.835263  0.438713  0.191934  1
  O  O23  1  0.726851  0.254701  0.471641  1
  O  O24  1  0.990771  0.151443  0.644840  1
  O  O25  1  0.848557  0.009229  0.144840  1
