# generated using pymatgen
data_SrMgUH24C3O23
_symmetry_space_group_name_H-M   'P 1'
_cell_length_a   11.36695947
_cell_length_b   14.82617990
_cell_length_c   6.55127709
_cell_angle_alpha   90.00000000
_cell_angle_beta   99.81275136
_cell_angle_gamma   90.00000000
_symmetry_Int_Tables_number   1
_chemical_formula_structural   SrMgUH24C3O23
_chemical_formula_sum   'Sr2 Mg2 U2 H48 C6 O46'
_cell_volume   1087.92480431
_cell_formula_units_Z   2
loop_
 _symmetry_equiv_pos_site_id
 _symmetry_equiv_pos_as_xyz
  1  'x, y, z'
loop_
 _atom_site_type_symbol
 _atom_site_label
 _atom_site_symmetry_multiplicity
 _atom_site_fract_x
 _atom_site_fract_y
 _atom_site_fract_z
 _atom_site_occupancy
  Sr  Sr0  1  0.590213  0.250000  0.788363  1
  Sr  Sr1  1  0.409787  0.750000  0.211637  1
  Mg  Mg2  1  0.000000  0.500000  0.000000  1
  Mg  Mg3  1  0.000000  0.000000  0.000000  1
  U  U4  1  0.217454  0.250000  0.550671  1
  U  U5  1  0.782546  0.750000  0.449329  1
  H  H6  1  0.398732  0.250000  0.120524  1
  H  H7  1  0.601268  0.750000  0.879476  1
  H  H8  1  0.526704  0.250000  0.253702  1
  H  H9  1  0.473296  0.750000  0.746298  1
  H  H10  1  0.816720  0.250000  0.119046  1
  H  H11  1  0.183280  0.750000  0.880954  1
  H  H12  1  0.880757  0.250000  0.927537  1
  H  H13  1  0.119243  0.750000  0.072463  1
  H  H14  1  0.553996  0.454023  0.832594  1
  H  H15  1  0.446004  0.954023  0.167406  1
  H  H16  1  0.446004  0.545977  0.167406  1
  H  H17  1  0.553996  0.045977  0.832594  1
  H  H18  1  0.619923  0.448395  0.063626  1
  H  H19  1  0.380077  0.948395  0.936374  1
  H  H20  1  0.380077  0.551605  0.936374  1
  H  H21  1  0.619923  0.051605  0.063626  1
  H  H22  1  0.730403  0.330886  0.456170  1
  H  H23  1  0.269597  0.830886  0.543830  1
  H  H24  1  0.269597  0.669114  0.543830  1
  H  H25  1  0.730403  0.169114  0.456170  1
  H  H26  1  0.633272  0.408500  0.435420  1
  H  H27  1  0.366728  0.908500  0.564580  1
  H  H28  1  0.366728  0.591500  0.564580  1
  H  H29  1  0.633272  0.091500  0.435420  1
  H  H30  1  0.948339  0.417840  0.349024  1
  H  H31  1  0.051661  0.917840  0.650976  1
  H  H32  1  0.051661  0.582160  0.650976  1
  H  H33  1  0.948339  0.082160  0.349024  1
  H  H34  1  0.866040  0.505518  0.323221  1
  H  H35  1  0.133960  0.005518  0.676779  1
  H  H36  1  0.133960  0.494482  0.676779  1
  H  H37  1  0.866040  0.994482  0.323221  1
  H  H38  1  0.191417  0.477573  0.319750  1
  H  H39  1  0.808583  0.977573  0.680250  1
  H  H40  1  0.808583  0.522427  0.680250  1
  H  H41  1  0.191417  0.022427  0.319750  1
  H  H42  1  0.241078  0.532603  0.144602  1
  H  H43  1  0.758922  0.032603  0.855398  1
  H  H44  1  0.758922  0.467397  0.855398  1
  H  H45  1  0.241078  0.967397  0.144602  1
  H  H46  1  0.101360  0.334694  0.994595  1
  H  H47  1  0.898640  0.834694  0.005405  1
  H  H48  1  0.898640  0.665306  0.005405  1
  H  H49  1  0.101360  0.165306  0.994595  1
  H  H50  1  0.012993  0.353029  0.790780  1
  H  H51  1  0.987007  0.853029  0.209220  1
  H  H52  1  0.987007  0.646971  0.209220  1
  H  H53  1  0.012993  0.146971  0.790780  1
  C  C54  1  0.955247  0.250000  0.459795  1
  C  C55  1  0.044753  0.750000  0.540205  1
  C  C56  1  0.349013  0.418656  0.635796  1
  C  C57  1  0.650987  0.918656  0.364204  1
  C  C58  1  0.650987  0.581344  0.364204  1
  C  C59  1  0.349013  0.081344  0.635796  1
  O  O60  1  0.223138  0.250000  0.273492  1
  O  O61  1  0.776862  0.750000  0.726508  1
  O  O62  1  0.208788  0.250000  0.826660  1
  O  O63  1  0.791212  0.750000  0.173340  1
  O  O64  1  0.018085  0.324497  0.496284  1
  O  O65  1  0.981915  0.824497  0.503716  1
  O  O66  1  0.981915  0.675503  0.503716  1
  O  O67  1  0.018085  0.175503  0.496284  1
  O  O68  1  0.843770  0.250000  0.393732  1
  O  O69  1  0.156230  0.750000  0.606268  1
  O  O70  1  0.233072  0.419253  0.567394  1
  O  O71  1  0.766928  0.919253  0.432606  1
  O  O72  1  0.766928  0.580747  0.432606  1
  O  O73  1  0.233072  0.080747  0.567394  1
  O  O74  1  0.397998  0.338997  0.635083  1
  O  O75  1  0.602002  0.838997  0.364917  1
  O  O76  1  0.602002  0.661003  0.364917  1
  O  O77  1  0.397998  0.161003  0.635083  1
  O  O78  1  0.408794  0.488814  0.698331  1
  O  O79  1  0.591206  0.988814  0.301669  1
  O  O80  1  0.591206  0.511186  0.301669  1
  O  O81  1  0.408794  0.011186  0.698331  1
  O  O82  1  0.483522  0.250000  0.111289  1
  O  O83  1  0.516478  0.750000  0.888711  1
  O  O84  1  0.801881  0.250000  0.965761  1
  O  O85  1  0.198119  0.750000  0.034239  1
  O  O86  1  0.626494  0.429089  0.921925  1
  O  O87  1  0.373506  0.929089  0.078075  1
  O  O88  1  0.373506  0.570911  0.078075  1
  O  O89  1  0.626494  0.070911  0.921925  1
  O  O90  1  0.655738  0.349343  0.501056  1
  O  O91  1  0.344262  0.849343  0.498944  1
  O  O92  1  0.344262  0.650657  0.498944  1
  O  O93  1  0.655738  0.150657  0.501056  1
  O  O94  1  0.919086  0.467932  0.253777  1
  O  O95  1  0.080914  0.967932  0.746223  1
  O  O96  1  0.080914  0.532068  0.746223  1
  O  O97  1  0.919086  0.032068  0.253777  1
  O  O98  1  0.167447  0.505443  0.182570  1
  O  O99  1  0.832553  0.005443  0.817430  1
  O  O100  1  0.832553  0.494557  0.817430  1
  O  O101  1  0.167447  0.994557  0.182570  1
  O  O102  1  0.022577  0.360126  0.942344  1
  O  O103  1  0.977423  0.860126  0.057656  1
  O  O104  1  0.977423  0.639874  0.057656  1
  O  O105  1  0.022577  0.139874  0.942344  1
