# generated using pymatgen
data_K2AlPCO7
_symmetry_space_group_name_H-M   'P 1'
_cell_length_a   9.61185245
_cell_length_b   6.62442884
_cell_length_c   5.45840641
_cell_angle_alpha   90.00000000
_cell_angle_beta   90.08441218
_cell_angle_gamma   90.00000000
_symmetry_Int_Tables_number   1
_chemical_formula_structural   K2AlPCO7
_chemical_formula_sum   'K4 Al2 P2 C2 O14'
_cell_volume   347.55291232
_cell_formula_units_Z   2
loop_
 _symmetry_equiv_pos_site_id
 _symmetry_equiv_pos_as_xyz
  1  'x, y, z'
loop_
 _atom_site_type_symbol
 _atom_site_label
 _atom_site_symmetry_multiplicity
 _atom_site_fract_x
 _atom_site_fract_y
 _atom_site_fract_z
 _atom_site_occupancy
  K  K0  1  0.242654  0.028076  0.244436  1
  K  K1  1  0.242654  0.471924  0.244436  1
  K  K2  1  0.757346  0.528076  0.755564  1
  K  K3  1  0.757346  0.971924  0.755564  1
  Al  Al4  1  0.357348  0.750000  0.765417  1
  Al  Al5  1  0.642652  0.250000  0.234583  1
  P  P6  1  0.437780  0.250000  0.730936  1
  P  P7  1  0.562220  0.750000  0.269064  1
  C  C8  1  0.108757  0.750000  0.728416  1
  C  C9  1  0.891243  0.250000  0.271584  1
  O  O10  1  0.020392  0.250000  0.295153  1
  O  O11  1  0.176985  0.750000  0.938338  1
  O  O12  1  0.198783  0.750000  0.544083  1
  O  O13  1  0.348109  0.057046  0.759774  1
  O  O14  1  0.348109  0.442954  0.759774  1
  O  O15  1  0.444941  0.750000  0.071221  1
  O  O16  1  0.502228  0.250000  0.467509  1
  O  O17  1  0.497772  0.750000  0.532491  1
  O  O18  1  0.555059  0.250000  0.928779  1
  O  O19  1  0.651891  0.557046  0.240226  1
  O  O20  1  0.651891  0.942954  0.240226  1
  O  O21  1  0.801217  0.250000  0.455917  1
  O  O22  1  0.823015  0.250000  0.061662  1
  O  O23  1  0.979608  0.750000  0.704847  1
