# generated using pymatgen
data_MoH12N3O3F5
_symmetry_space_group_name_H-M   'P 1'
_cell_length_a   16.72495649
_cell_length_b   16.24020987
_cell_length_c   6.86662498
_cell_angle_alpha   90.00000000
_cell_angle_beta   90.00000000
_cell_angle_gamma   90.00000000
_symmetry_Int_Tables_number   1
_chemical_formula_structural   MoH12N3O3F5
_chemical_formula_sum   'Mo8 H96 N24 O24 F40'
_cell_volume   1865.09072766
_cell_formula_units_Z   8
loop_
 _symmetry_equiv_pos_site_id
 _symmetry_equiv_pos_as_xyz
  1  'x, y, z'
loop_
 _atom_site_type_symbol
 _atom_site_label
 _atom_site_symmetry_multiplicity
 _atom_site_fract_x
 _atom_site_fract_y
 _atom_site_fract_z
 _atom_site_occupancy
  Mo  Mo0  1  0.628754  0.084513  0.302927  1
  Mo  Mo1  1  0.128754  0.415487  0.697073  1
  Mo  Mo2  1  0.371246  0.584513  0.197073  1
  Mo  Mo3  1  0.871246  0.915487  0.802927  1
  Mo  Mo4  1  0.371246  0.915487  0.697073  1
  Mo  Mo5  1  0.871246  0.584513  0.302927  1
  Mo  Mo6  1  0.628754  0.415487  0.802927  1
  Mo  Mo7  1  0.128754  0.084513  0.197073  1
  H  H8  1  0.802509  0.319509  0.222084  1
  H  H9  1  0.302509  0.180491  0.777916  1
  H  H10  1  0.197491  0.819509  0.277916  1
  H  H11  1  0.697491  0.680491  0.722084  1
  H  H12  1  0.197491  0.680491  0.777916  1
  H  H13  1  0.697491  0.819509  0.222084  1
  H  H14  1  0.802509  0.180491  0.722084  1
  H  H15  1  0.302509  0.319509  0.277916  1
  H  H16  1  0.718172  0.271947  0.296300  1
  H  H17  1  0.218172  0.228053  0.703700  1
  H  H18  1  0.281828  0.771947  0.203700  1
  H  H19  1  0.781828  0.728053  0.796300  1
  H  H20  1  0.281828  0.728053  0.703700  1
  H  H21  1  0.781828  0.771947  0.296300  1
  H  H22  1  0.718172  0.228053  0.796300  1
  H  H23  1  0.218172  0.271947  0.203700  1
  H  H24  1  0.805545  0.261037  0.424686  1
  H  H25  1  0.305545  0.238963  0.575314  1
  H  H26  1  0.194455  0.761037  0.075314  1
  H  H27  1  0.694455  0.738963  0.924686  1
  H  H28  1  0.194455  0.738963  0.575314  1
  H  H29  1  0.694455  0.761037  0.424686  1
  H  H30  1  0.805545  0.238963  0.924686  1
  H  H31  1  0.305545  0.261037  0.075314  1
  H  H32  1  0.753520  0.352273  0.427367  1
  H  H33  1  0.253520  0.147727  0.572633  1
  H  H34  1  0.246480  0.852273  0.072633  1
  H  H35  1  0.746480  0.647727  0.927367  1
  H  H36  1  0.246480  0.647727  0.572633  1
  H  H37  1  0.746480  0.852273  0.427367  1
  H  H38  1  0.753520  0.147727  0.927367  1
  H  H39  1  0.253520  0.352273  0.072633  1
  H  H40  1  0.829598  0.044549  0.243452  1
  H  H41  1  0.329598  0.455451  0.756548  1
  H  H42  1  0.170402  0.544549  0.256548  1
  H  H43  1  0.670402  0.955451  0.743452  1
  H  H44  1  0.170402  0.955451  0.756548  1
  H  H45  1  0.670402  0.544549  0.243452  1
  H  H46  1  0.829598  0.455451  0.743452  1
  H  H47  1  0.329598  0.044549  0.256548  1
  H  H48  1  0.925300  0.071109  0.198401  1
  H  H49  1  0.425300  0.428891  0.801599  1
  H  H50  1  0.074700  0.571109  0.301599  1
  H  H51  1  0.574700  0.928891  0.698401  1
  H  H52  1  0.074700  0.928891  0.801599  1
  H  H53  1  0.574700  0.571109  0.198401  1
  H  H54  1  0.925300  0.428891  0.698401  1
  H  H55  1  0.425300  0.071109  0.301599  1
  H  H56  1  0.876279  0.113250  0.390752  1
  H  H57  1  0.376279  0.386750  0.609248  1
  H  H58  1  0.123721  0.613250  0.109248  1
  H  H59  1  0.623721  0.886750  0.890752  1
  H  H60  1  0.123721  0.886750  0.609248  1
  H  H61  1  0.623721  0.613250  0.390752  1
  H  H62  1  0.876279  0.386750  0.890752  1
  H  H63  1  0.376279  0.113250  0.109248  1
  H  H64  1  0.904230  0.011181  0.393053  1
  H  H65  1  0.404230  0.488819  0.606947  1
  H  H66  1  0.095770  0.511181  0.106947  1
  H  H67  1  0.595770  0.988819  0.893053  1
  H  H68  1  0.095770  0.988819  0.606947  1
  H  H69  1  0.595770  0.511181  0.393053  1
  H  H70  1  0.904230  0.488819  0.893053  1
  H  H71  1  0.404230  0.011181  0.106947  1
  H  H72  1  0.495071  0.343776  0.161348  1
  H  H73  1  0.995071  0.156224  0.838652  1
  H  H74  1  0.504929  0.843776  0.338652  1
  H  H75  1  0.004929  0.656224  0.661348  1
  H  H76  1  0.504929  0.656224  0.838652  1
  H  H77  1  0.004929  0.843776  0.161348  1
  H  H78  1  0.495071  0.156224  0.661348  1
  H  H79  1  0.995071  0.343776  0.338652  1
  H  H80  1  0.539131  0.262051  0.266002  1
  H  H81  1  0.039131  0.237949  0.733998  1
  H  H82  1  0.460869  0.762051  0.233998  1
  H  H83  1  0.960869  0.737949  0.766002  1
  H  H84  1  0.460869  0.737949  0.733998  1
  H  H85  1  0.960869  0.762051  0.266002  1
  H  H86  1  0.539131  0.237949  0.766002  1
  H  H87  1  0.039131  0.262051  0.233998  1
  H  H88  1  0.536700  0.354474  0.383294  1
  H  H89  1  0.036700  0.145526  0.616706  1
  H  H90  1  0.463300  0.854474  0.116706  1
  H  H91  1  0.963300  0.645526  0.883294  1
  H  H92  1  0.463300  0.645526  0.616706  1
  H  H93  1  0.963300  0.854474  0.383294  1
  H  H94  1  0.536700  0.145526  0.883294  1
  H  H95  1  0.036700  0.354474  0.116706  1
  H  H96  1  0.450707  0.299638  0.361156  1
  H  H97  1  0.950707  0.200362  0.638844  1
  H  H98  1  0.549293  0.799638  0.138844  1
  H  H99  1  0.049293  0.700362  0.861156  1
  H  H100  1  0.549293  0.700362  0.638844  1
  H  H101  1  0.049293  0.799638  0.361156  1
  H  H102  1  0.450707  0.200362  0.861156  1
  H  H103  1  0.950707  0.299638  0.138844  1
  N  N104  1  0.769056  0.302136  0.343397  1
  N  N105  1  0.269056  0.197864  0.656603  1
  N  N106  1  0.230944  0.802136  0.156603  1
  N  N107  1  0.730944  0.697864  0.843397  1
  N  N108  1  0.230944  0.697864  0.656603  1
  N  N109  1  0.730944  0.802136  0.343397  1
  N  N110  1  0.769056  0.197864  0.843397  1
  N  N111  1  0.269056  0.302136  0.156603  1
  N  N112  1  0.883854  0.059600  0.306084  1
  N  N113  1  0.383854  0.440400  0.693916  1
  N  N114  1  0.116146  0.559600  0.193916  1
  N  N115  1  0.616146  0.940400  0.806084  1
  N  N116  1  0.116146  0.940400  0.693916  1
  N  N117  1  0.616146  0.559600  0.306084  1
  N  N118  1  0.883854  0.440400  0.806084  1
  N  N119  1  0.383854  0.059600  0.193916  1
  N  N120  1  0.505424  0.314154  0.291195  1
  N  N121  1  0.005424  0.185846  0.708805  1
  N  N122  1  0.494576  0.814154  0.208805  1
  N  N123  1  0.994576  0.685846  0.791195  1
  N  N124  1  0.494576  0.685846  0.708805  1
  N  N125  1  0.994576  0.814154  0.291195  1
  N  N126  1  0.505424  0.185846  0.791195  1
  N  N127  1  0.005424  0.314154  0.208805  1
  O  O128  1  0.645708  0.965689  0.285885  1
  O  O129  1  0.145708  0.534311  0.714115  1
  O  O130  1  0.354292  0.465689  0.214115  1
  O  O131  1  0.854292  0.034311  0.785885  1
  O  O132  1  0.354292  0.034311  0.714115  1
  O  O133  1  0.854292  0.465689  0.285885  1
  O  O134  1  0.645708  0.534311  0.785885  1
  O  O135  1  0.145708  0.965689  0.214115  1
  O  O136  1  0.569190  0.984146  0.374913  1
  O  O137  1  0.069190  0.515854  0.625087  1
  O  O138  1  0.430810  0.484146  0.125087  1
  O  O139  1  0.930810  0.015854  0.874913  1
  O  O140  1  0.430810  0.015854  0.625087  1
  O  O141  1  0.930810  0.484146  0.374913  1
  O  O142  1  0.569190  0.515854  0.874913  1
  O  O143  1  0.069190  0.984146  0.125087  1
  O  O144  1  0.673692  0.105769  0.521916  1
  O  O145  1  0.173692  0.394231  0.478084  1
  O  O146  1  0.326308  0.605769  0.978084  1
  O  O147  1  0.826308  0.894231  0.021916  1
  O  O148  1  0.326308  0.894231  0.478084  1
  O  O149  1  0.826308  0.605769  0.521916  1
  O  O150  1  0.673692  0.394231  0.021916  1
  O  O151  1  0.173692  0.105769  0.978084  1
  F  F152  1  0.570849  0.073182  0.028490  1
  F  F153  1  0.070849  0.426818  0.971510  1
  F  F154  1  0.429151  0.573182  0.471510  1
  F  F155  1  0.929151  0.926818  0.528490  1
  F  F156  1  0.429151  0.926818  0.971510  1
  F  F157  1  0.929151  0.573182  0.028490  1
  F  F158  1  0.570849  0.426818  0.528490  1
  F  F159  1  0.070849  0.073182  0.471510  1
  F  F160  1  0.640375  0.200879  0.202438  1
  F  F161  1  0.140375  0.299121  0.797562  1
  F  F162  1  0.359625  0.700879  0.297562  1
  F  F163  1  0.859625  0.799121  0.702438  1
  F  F164  1  0.359625  0.799121  0.797562  1
  F  F165  1  0.859625  0.700879  0.202438  1
  F  F166  1  0.640375  0.299121  0.702438  1
  F  F167  1  0.140375  0.200879  0.297562  1
  F  F168  1  0.729944  0.077418  0.145187  1
  F  F169  1  0.229944  0.422582  0.854813  1
  F  F170  1  0.270056  0.577418  0.354813  1
  F  F171  1  0.770056  0.922582  0.645187  1
  F  F172  1  0.270056  0.922582  0.854813  1
  F  F173  1  0.770056  0.577418  0.145187  1
  F  F174  1  0.729944  0.422582  0.645187  1
  F  F175  1  0.229944  0.077418  0.354813  1
  F  F176  1  0.523302  0.134688  0.381165  1
  F  F177  1  0.023302  0.365312  0.618835  1
  F  F178  1  0.476698  0.634688  0.118835  1
  F  F179  1  0.976698  0.865312  0.881165  1
  F  F180  1  0.476698  0.865312  0.618835  1
  F  F181  1  0.976698  0.634688  0.381165  1
  F  F182  1  0.523302  0.365312  0.881165  1
  F  F183  1  0.023302  0.134688  0.118835  1
  F  F184  1  0.868268  0.299375  0.019234  1
  F  F185  1  0.368268  0.200625  0.980766  1
  F  F186  1  0.131732  0.799375  0.480766  1
  F  F187  1  0.631732  0.700625  0.519234  1
  F  F188  1  0.131732  0.700625  0.980766  1
  F  F189  1  0.631732  0.799375  0.019234  1
  F  F190  1  0.868268  0.200625  0.519234  1
  F  F191  1  0.368268  0.299375  0.480766  1
