# generated using pymatgen
data_Ba2As6O11
_symmetry_space_group_name_H-M   'P 1'
_cell_length_a   9.47093112
_cell_length_b   9.44988634
_cell_length_c   8.61081427
_cell_angle_alpha   75.63961127
_cell_angle_beta   72.44215656
_cell_angle_gamma   73.57436534
_symmetry_Int_Tables_number   1
_chemical_formula_structural   Ba2As6O11
_chemical_formula_sum   'Ba4 As12 O22'
_cell_volume   693.52510476
_cell_formula_units_Z   2
loop_
 _symmetry_equiv_pos_site_id
 _symmetry_equiv_pos_as_xyz
  1  'x, y, z'
loop_
 _atom_site_type_symbol
 _atom_site_label
 _atom_site_symmetry_multiplicity
 _atom_site_fract_x
 _atom_site_fract_y
 _atom_site_fract_z
 _atom_site_occupancy
  Ba  Ba0  1  0.278336  0.440583  0.022698  1
  Ba  Ba1  1  0.226017  0.584457  0.459973  1
  Ba  Ba2  1  0.773983  0.415543  0.540027  1
  Ba  Ba3  1  0.721664  0.559417  0.977302  1
  As  As4  1  0.196626  0.088730  0.382103  1
  As  As5  1  0.305572  0.881398  0.098633  1
  As  As6  1  0.058074  0.271494  0.798597  1
  As  As7  1  0.563791  0.258160  0.301982  1
  As  As8  1  0.071117  0.817958  0.816724  1
  As  As9  1  0.432283  0.177656  0.701338  1
  As  As10  1  0.567717  0.822344  0.298662  1
  As  As11  1  0.928883  0.182042  0.183277  1
  As  As12  1  0.436209  0.741840  0.698018  1
  As  As13  1  0.941926  0.728506  0.201403  1
  As  As14  1  0.694428  0.118602  0.901367  1
  As  As15  1  0.803374  0.911270  0.617897  1
  O  O16  1  0.011604  0.320077  0.014025  1
  O  O17  1  0.007024  0.202004  0.342208  1
  O  O18  1  0.320842  0.168296  0.216269  1
  O  O19  1  0.015650  0.556919  0.309173  1
  O  O20  1  0.234825  0.727476  0.112057  1
  O  O21  1  0.467442  0.427248  0.214203  1
  O  O22  1  0.201518  0.914897  0.312423  1
  O  O23  1  0.487419  0.770275  0.160822  1
  O  O24  1  0.255558  0.316552  0.749264  1
  O  O25  1  0.510485  0.305664  0.516416  1
  O  O26  1  0.752662  0.316291  0.256989  1
  O  O27  1  0.247338  0.683709  0.743011  1
  O  O28  1  0.489515  0.694336  0.483584  1
  O  O29  1  0.744442  0.683448  0.250736  1
  O  O30  1  0.512581  0.229725  0.839178  1
  O  O31  1  0.798482  0.085103  0.687577  1
  O  O32  1  0.532558  0.572752  0.785797  1
  O  O33  1  0.765175  0.272524  0.887943  1
  O  O34  1  0.984350  0.443081  0.690827  1
  O  O35  1  0.679158  0.831704  0.783731  1
  O  O36  1  0.992976  0.797996  0.657792  1
  O  O37  1  0.988396  0.679923  0.985975  1
