# generated using pymatgen
data_Li3NiPCO7
_symmetry_space_group_name_H-M   'P 1'
_cell_length_a   9.41734183
_cell_length_b   9.69346148
_cell_length_c   6.30363973
_cell_angle_alpha   90.00000000
_cell_angle_beta   90.00000000
_cell_angle_gamma   65.26640437
_symmetry_Int_Tables_number   1
_chemical_formula_structural   Li3NiPCO7
_chemical_formula_sum   'Li12 Ni4 P4 C4 O28'
_cell_volume   522.64912984
_cell_formula_units_Z   4
loop_
 _symmetry_equiv_pos_site_id
 _symmetry_equiv_pos_as_xyz
  1  'x, y, z'
loop_
 _atom_site_type_symbol
 _atom_site_label
 _atom_site_symmetry_multiplicity
 _atom_site_fract_x
 _atom_site_fract_y
 _atom_site_fract_z
 _atom_site_occupancy
  Li  Li0  1  0.891261  0.444044  0.757196  1
  Li  Li1  1  0.891261  0.944044  0.742804  1
  Li  Li2  1  0.718103  0.263121  0.498706  1
  Li  Li3  1  0.718103  0.763121  0.001294  1
  Li  Li4  1  0.642871  0.066153  0.249969  1
  Li  Li5  1  0.642871  0.566153  0.250031  1
  Li  Li6  1  0.357129  0.433847  0.749969  1
  Li  Li7  1  0.357129  0.933847  0.750031  1
  Li  Li8  1  0.281897  0.236879  0.998706  1
  Li  Li9  1  0.281897  0.736879  0.501294  1
  Li  Li10  1  0.108739  0.055956  0.257196  1
  Li  Li11  1  0.108739  0.555956  0.242804  1
  Ni  Ni12  1  0.732529  0.260683  0.994948  1
  Ni  Ni13  1  0.732529  0.760683  0.505052  1
  Ni  Ni14  1  0.267471  0.239317  0.494948  1
  Ni  Ni15  1  0.267471  0.739317  0.005052  1
  P  P16  1  0.592693  0.065365  0.738854  1
  P  P17  1  0.592693  0.565365  0.761146  1
  P  P18  1  0.407307  0.434635  0.238854  1
  P  P19  1  0.407307  0.934635  0.261146  1
  C  C20  1  0.959704  0.369152  0.255379  1
  C  C21  1  0.959704  0.869152  0.244621  1
  C  C22  1  0.040296  0.130848  0.755379  1
  C  C23  1  0.040296  0.630848  0.744621  1
  O  O24  1  0.935146  0.008104  0.232662  1
  O  O25  1  0.935146  0.508104  0.267338  1
  O  O26  1  0.896281  0.238857  0.765903  1
  O  O27  1  0.845997  0.327970  0.234139  1
  O  O28  1  0.896281  0.738857  0.734097  1
  O  O29  1  0.845997  0.827970  0.265861  1
  O  O30  1  0.682577  0.075935  0.941056  1
  O  O31  1  0.692933  0.076031  0.552730  1
  O  O32  1  0.692933  0.576031  0.947270  1
  O  O33  1  0.682577  0.575935  0.558944  1
  O  O34  1  0.576693  0.310460  0.240180  1
  O  O35  1  0.586455  0.406586  0.765155  1
  O  O36  1  0.576693  0.810460  0.259820  1
  O  O37  1  0.586455  0.906586  0.734845  1
  O  O38  1  0.413545  0.093414  0.265155  1
  O  O39  1  0.423307  0.189540  0.740180  1
  O  O40  1  0.413545  0.593414  0.234845  1
  O  O41  1  0.423307  0.689540  0.759820  1
  O  O42  1  0.307067  0.423969  0.052730  1
  O  O43  1  0.317423  0.424065  0.441056  1
  O  O44  1  0.317423  0.924065  0.058944  1
  O  O45  1  0.307067  0.923969  0.447270  1
  O  O46  1  0.154003  0.172030  0.734139  1
  O  O47  1  0.103719  0.261143  0.265903  1
  O  O48  1  0.154003  0.672030  0.765861  1
  O  O49  1  0.103719  0.761143  0.234097  1
  O  O50  1  0.064854  0.491896  0.732662  1
  O  O51  1  0.064854  0.991896  0.767338  1
