# generated using pymatgen
data_Li7Mn7P6(O8F)3
_symmetry_space_group_name_H-M   'P 1'
_cell_length_a   13.73689863
_cell_length_b   13.73686387
_cell_length_c   6.52297917
_cell_angle_alpha   90.00016227
_cell_angle_beta   90.00078017
_cell_angle_gamma   59.99889026
_symmetry_Int_Tables_number   1
_chemical_formula_structural   Li7Mn7P6(O8F)3
_chemical_formula_sum   'Li14 Mn14 P12 O48 F6'
_cell_volume   1065.97754085
_cell_formula_units_Z   2
loop_
 _symmetry_equiv_pos_site_id
 _symmetry_equiv_pos_as_xyz
  1  'x, y, z'
loop_
 _atom_site_type_symbol
 _atom_site_label
 _atom_site_symmetry_multiplicity
 _atom_site_fract_x
 _atom_site_fract_y
 _atom_site_fract_z
 _atom_site_occupancy
  Li  Li0  1  0.258394  0.923373  0.255598  1
  Li  Li1  1  0.181767  0.741596  0.755584  1
  Li  Li2  1  0.500621  0.873771  0.757100  1
  Li  Li3  1  0.126227  0.374386  0.257097  1
  Li  Li4  1  0.076650  0.181755  0.755594  1
  Li  Li5  1  0.374409  0.499374  0.257096  1
  Li  Li6  1  0.333375  0.333311  0.429149  1
  Li  Li7  1  0.666672  0.666643  0.929178  1
  Li  Li8  1  0.625591  0.500621  0.757091  1
  Li  Li9  1  0.923353  0.818244  0.255600  1
  Li  Li10  1  0.873786  0.625610  0.757087  1
  Li  Li11  1  0.499399  0.126219  0.257087  1
  Li  Li12  1  0.818238  0.258402  0.255584  1
  Li  Li13  1  0.741606  0.076622  0.755595  1
  Mn  Mn14  1  0.126214  0.576664  0.009653  1
  Mn  Mn15  1  0.118649  0.583506  0.512373  1
  Mn  Mn16  1  0.423331  0.702882  0.509747  1
  Mn  Mn17  1  0.416492  0.702161  0.012433  1
  Mn  Mn18  1  0.702163  0.881332  0.012449  1
  Mn  Mn19  1  0.702870  0.873786  0.509711  1
  Mn  Mn20  1  0.999988  0.999994  0.006755  1
  Mn  Mn21  1  0.000007  0.999994  0.506758  1
  Mn  Mn22  1  0.297113  0.126216  0.009703  1
  Mn  Mn23  1  0.297855  0.118646  0.512460  1
  Mn  Mn24  1  0.583541  0.297834  0.512456  1
  Mn  Mn25  1  0.576675  0.297129  0.009730  1
  Mn  Mn26  1  0.881340  0.416489  0.012336  1
  Mn  Mn27  1  0.873798  0.423329  0.509607  1
  P  P28  1  0.244552  0.937951  0.758550  1
  P  P29  1  0.182503  0.755453  0.258675  1
  P  P30  1  0.484823  0.882496  0.260007  1
  P  P31  1  0.117539  0.367258  0.759970  1
  P  P32  1  0.367345  0.515158  0.759980  1
  P  P33  1  0.062082  0.182475  0.258594  1
  P  P34  1  0.937914  0.817530  0.758559  1
  P  P35  1  0.632666  0.484837  0.259975  1
  P  P36  1  0.882449  0.632739  0.259944  1
  P  P37  1  0.515184  0.117512  0.759967  1
  P  P38  1  0.817503  0.244545  0.758688  1
  P  P39  1  0.755441  0.062052  0.258587  1
  O  O40  1  0.112505  0.013312  0.757484  1
  O  O41  1  0.125820  0.887490  0.257483  1
  O  O42  1  0.007040  0.684574  0.760537  1
  O  O43  1  0.368657  0.996516  0.252069  1
  O  O44  1  0.280623  0.865422  0.563136  1
  O  O45  1  0.146029  0.719365  0.063079  1
  O  O46  1  0.278887  0.865627  0.954703  1
  O  O47  1  0.144522  0.721120  0.454658  1
  O  O48  1  0.315405  0.691621  0.260555  1
  O  O49  1  0.003485  0.365171  0.752037  1
  O  O50  1  0.545457  0.882631  0.459534  1
  O  O51  1  0.117366  0.428105  0.959571  1
  O  O52  1  0.458427  0.785147  0.262343  1
  O  O53  1  0.130358  0.423665  0.563062  1
  O  O54  1  0.554017  0.869641  0.063074  1
  O  O55  1  0.691619  0.992974  0.260545  1
  O  O56  1  0.243553  0.541579  0.762338  1
  O  O57  1  0.365168  0.631341  0.752059  1
  O  O58  1  0.986687  0.125819  0.257490  1
  O  O59  1  0.214830  0.243607  0.762358  1
  O  O60  1  0.134358  0.144533  0.454649  1
  O  O61  1  0.428090  0.454542  0.959532  1
  O  O62  1  0.134580  0.146048  0.063118  1
  O  O63  1  0.576353  0.554019  0.063081  1
  O  O64  1  0.423651  0.445983  0.563092  1
  O  O65  1  0.865424  0.853950  0.563145  1
  O  O66  1  0.571915  0.545456  0.459535  1
  O  O67  1  0.865643  0.855476  0.954665  1
  O  O68  1  0.785169  0.756393  0.262354  1
  O  O69  1  0.013313  0.874180  0.757480  1
  O  O70  1  0.634833  0.368658  0.252057  1
  O  O71  1  0.756439  0.458422  0.262319  1
  O  O72  1  0.308380  0.007023  0.760570  1
  O  O73  1  0.445984  0.130369  0.563076  1
  O  O74  1  0.869627  0.576344  0.063069  1
  O  O75  1  0.541574  0.214854  0.762346  1
  O  O76  1  0.882627  0.571895  0.459581  1
  O  O77  1  0.454530  0.117372  0.959549  1
  O  O78  1  0.996517  0.634823  0.252043  1
  O  O79  1  0.684599  0.308387  0.760562  1
  O  O80  1  0.855475  0.278871  0.954647  1
  O  O81  1  0.721116  0.134362  0.454679  1
  O  O82  1  0.853967  0.280636  0.563075  1
  O  O83  1  0.719373  0.134587  0.063118  1
  O  O84  1  0.631341  0.003487  0.752064  1
  O  O85  1  0.992955  0.315426  0.260517  1
  O  O86  1  0.874178  0.112509  0.757483  1
  O  O87  1  0.887496  0.986686  0.257486  1
  F  F88  1  0.243991  0.481552  0.275104  1
  F  F89  1  0.518441  0.725541  0.775118  1
  F  F90  1  0.725543  0.756006  0.775109  1
  F  F91  1  0.274460  0.243982  0.275126  1
  F  F92  1  0.481574  0.274458  0.275127  1
  F  F93  1  0.756000  0.518451  0.775079  1
