# generated using pymatgen
data_Li4Mn3Ni3(WO8)2
_symmetry_space_group_name_H-M   'P 1'
_cell_length_a   5.97477761
_cell_length_b   5.87923273
_cell_length_c   9.75196812
_cell_angle_alpha   90.00086865
_cell_angle_beta   88.85342501
_cell_angle_gamma   119.47042766
_symmetry_Int_Tables_number   1
_chemical_formula_structural   Li4Mn3Ni3(WO8)2
_chemical_formula_sum   'Li4 Mn3 Ni3 W2 O16'
_cell_volume   298.15598602
_cell_formula_units_Z   1
loop_
 _symmetry_equiv_pos_site_id
 _symmetry_equiv_pos_as_xyz
  1  'x, y, z'
loop_
 _atom_site_type_symbol
 _atom_site_label
 _atom_site_symmetry_multiplicity
 _atom_site_fract_x
 _atom_site_fract_y
 _atom_site_fract_z
 _atom_site_occupancy
  Li  Li0  1  0.319434  0.659737  0.904905  1
  Li  Li1  1  0.995370  0.997673  0.985999  1
  Li  Li2  1  0.013943  0.006990  0.491797  1
  Li  Li3  1  0.679247  0.339643  0.413278  1
  Mn  Mn4  1  0.174665  0.835090  0.215459  1
  Mn  Mn5  1  0.174645  0.339574  0.215439  1
  Mn  Mn6  1  0.344969  0.172485  0.715171  1
  Ni  Ni7  1  0.658080  0.829055  0.213342  1
  Ni  Ni8  1  0.835088  0.663574  0.712264  1
  Ni  Ni9  1  0.835141  0.171598  0.712254  1
  W  W10  1  0.366410  0.683206  0.489273  1
  W  W11  1  0.667134  0.333579  0.982008  1
  O  O12  1  0.190902  0.842662  0.591866  1
  O  O13  1  0.049605  0.524810  0.345290  1
  O  O14  1  0.318846  0.659426  0.111715  1
  O  O15  1  0.003642  0.001836  0.302727  1
  O  O16  1  0.014810  0.007417  0.800756  1
  O  O17  1  0.190907  0.348257  0.591866  1
  O  O18  1  0.492856  0.970255  0.357368  1
  O  O19  1  0.492848  0.522616  0.357347  1
  O  O20  1  0.323542  0.161750  0.092073  1
  O  O21  1  0.667691  0.833848  0.589569  1
  O  O22  1  0.492374  0.459540  0.843454  1
  O  O23  1  0.492417  0.032876  0.843447  1
  O  O24  1  0.657875  0.328961  0.613043  1
  O  O25  1  0.798162  0.645462  0.080754  1
  O  O26  1  0.951176  0.475613  0.854617  1
  O  O27  1  0.798218  0.152768  0.080760  1
