# generated using pymatgen
data_Zr2N2O
_symmetry_space_group_name_H-M   'P 1'
_cell_length_a   8.87817094
_cell_length_b   8.86681005
_cell_length_c   8.88235098
_cell_angle_alpha   109.63386039
_cell_angle_beta   109.41723738
_cell_angle_gamma   109.36006317
_symmetry_Int_Tables_number   1
_chemical_formula_structural   Zr2N2O
_chemical_formula_sum   'Zr16 N16 O8'
_cell_volume   538.28004500
_cell_formula_units_Z   8
loop_
 _symmetry_equiv_pos_site_id
 _symmetry_equiv_pos_as_xyz
  1  'x, y, z'
loop_
 _atom_site_type_symbol
 _atom_site_label
 _atom_site_symmetry_multiplicity
 _atom_site_fract_x
 _atom_site_fract_y
 _atom_site_fract_z
 _atom_site_occupancy
  Zr  Zr0  1  0.958098  0.244114  0.207550  1
  Zr  Zr1  1  0.507125  0.007157  0.996976  1
  Zr  Zr2  1  0.790471  0.034406  0.758469  1
  Zr  Zr3  1  0.703777  0.462055  0.239986  1
  Zr  Zr4  1  0.750613  0.778169  0.031332  1
  Zr  Zr5  1  0.747876  0.284229  0.528875  1
  Zr  Zr6  1  0.499591  0.498924  0.501627  1
  Zr  Zr7  1  0.458513  0.252155  0.713257  1
  Zr  Zr8  1  0.532582  0.741989  0.290115  1
  Zr  Zr9  1  0.008573  0.506748  0.996837  1
  Zr  Zr10  1  0.004751  0.995527  0.507170  1
  Zr  Zr11  1  0.257137  0.723529  0.469463  1
  Zr  Zr12  1  0.246208  0.217331  0.959135  1
  Zr  Zr13  1  0.219572  0.961764  0.255919  1
  Zr  Zr14  1  0.285777  0.539169  0.752479  1
  Zr  Zr15  1  0.039405  0.751586  0.788404  1
  N  N16  1  0.739893  0.229223  0.274968  1
  N  N17  1  0.468326  0.227905  0.452183  1
  N  N18  1  0.773050  0.728714  0.259383  1
  N  N19  1  0.043709  0.274279  0.013708  1
  N  N20  1  0.456731  0.465457  0.230461  1
  N  N21  1  0.272432  0.736963  0.222973  1
  N  N22  1  0.514171  0.237946  0.964690  1
  N  N23  1  0.985395  0.950205  0.723652  1
  N  N24  1  0.541451  0.535759  0.771440  1
  N  N25  1  0.958059  0.732023  0.992129  1
  N  N26  1  0.532385  0.772713  0.545280  1
  N  N27  1  0.224033  0.271829  0.736892  1
  N  N28  1  0.028884  0.485328  0.758769  1
  N  N29  1  0.727011  0.987229  0.957157  1
  N  N30  1  0.233803  0.964249  0.506697  1
  N  N31  1  0.263120  0.772018  0.729228  1
  O  O32  1  0.761514  0.036715  0.492144  1
  O  O33  1  0.272625  0.010283  0.043473  1
  O  O34  1  0.969569  0.511137  0.242866  1
  O  O35  1  0.726512  0.258423  0.771417  1
  O  O36  1  0.015122  0.053767  0.277502  1
  O  O37  1  0.484662  0.760758  0.034997  1
  O  O38  1  0.771635  0.547169  0.537262  1
  O  O39  1  0.225839  0.451055  0.463136  1
