# generated using pymatgen
data_Cs3TlO3
_symmetry_space_group_name_H-M   'P 1'
_cell_length_a   7.54646817
_cell_length_b   7.54641692
_cell_length_c   7.53436898
_cell_angle_alpha   83.64355295
_cell_angle_beta   96.35909733
_cell_angle_gamma   65.42378148
_symmetry_Int_Tables_number   1
_chemical_formula_structural   Cs3TlO3
_chemical_formula_sum   'Cs6 Tl2 O6'
_cell_volume   381.92318632
_cell_formula_units_Z   2
loop_
 _symmetry_equiv_pos_site_id
 _symmetry_equiv_pos_as_xyz
  1  'x, y, z'
loop_
 _atom_site_type_symbol
 _atom_site_label
 _atom_site_symmetry_multiplicity
 _atom_site_fract_x
 _atom_site_fract_y
 _atom_site_fract_z
 _atom_site_occupancy
  Cs  Cs0  1  0.366706  0.633263  0.656312  1
  Cs  Cs1  1  0.196283  0.196281  0.499998  1
  Cs  Cs2  1  0.803725  0.803726  0.500002  1
  Cs  Cs3  1  0.256829  0.256827  0.000003  1
  Cs  Cs4  1  0.743211  0.743205  1.000000  1
  Cs  Cs5  1  0.633263  0.366709  0.343690  1
  Tl  Tl6  1  0.178925  0.821099  0.150615  1
  Tl  Tl7  1  0.821103  0.178920  0.849385  1
  O  O8  1  0.097701  0.902257  0.843411  1
  O  O9  1  0.445617  0.839291  0.273147  1
  O  O10  1  0.160564  0.554531  0.273164  1
  O  O11  1  0.839291  0.445619  0.726858  1
  O  O12  1  0.554526  0.160567  0.726831  1
  O  O13  1  0.902257  0.097704  0.156585  1
