# generated using pymatgen
data_Li2Ti3Ni(PO4)6
_symmetry_space_group_name_H-M   'P 1'
_cell_length_a   8.69453524
_cell_length_b   8.69453572
_cell_length_c   8.69453584
_cell_angle_alpha   59.60682905
_cell_angle_beta   59.60683147
_cell_angle_gamma   59.60682973
_symmetry_Int_Tables_number   1
_chemical_formula_structural   Li2Ti3Ni(PO4)6
_chemical_formula_sum   'Li2 Ti3 Ni1 P6 O24'
_cell_volume   460.60209325
_cell_formula_units_Z   1
loop_
 _symmetry_equiv_pos_site_id
 _symmetry_equiv_pos_as_xyz
  1  'x, y, z'
loop_
 _atom_site_type_symbol
 _atom_site_label
 _atom_site_symmetry_multiplicity
 _atom_site_fract_x
 _atom_site_fract_y
 _atom_site_fract_z
 _atom_site_occupancy
  Li  Li0  1  0.988396  0.988396  0.988396  1
  Li  Li1  1  0.501772  0.501772  0.501772  1
  Ti  Ti2  1  0.142192  0.142192  0.142192  1
  Ti  Ti3  1  0.355505  0.355505  0.355505  1
  Ti  Ti4  1  0.645175  0.645175  0.645175  1
  Ni  Ni5  1  0.857194  0.857194  0.857194  1
  P  P6  1  0.043053  0.748648  0.461385  1
  P  P7  1  0.461385  0.043053  0.748648  1
  P  P8  1  0.748648  0.461385  0.043053  1
  P  P9  1  0.249482  0.540740  0.958924  1
  P  P10  1  0.540740  0.958924  0.249482  1
  P  P11  1  0.958924  0.249482  0.540740  1
  O  O12  1  0.119167  0.315511  0.489746  1
  O  O13  1  0.315511  0.489746  0.119167  1
  O  O14  1  0.053228  0.921129  0.275779  1
  O  O15  1  0.489746  0.119167  0.315511  1
  O  O16  1  0.235062  0.585958  0.425385  1
  O  O17  1  0.017996  0.788482  0.624807  1
  O  O18  1  0.275779  0.053228  0.921129  1
  O  O19  1  0.425385  0.235062  0.585958  1
  O  O20  1  0.585958  0.425385  0.235062  1
  O  O21  1  0.196939  0.374867  0.000712  1
  O  O22  1  0.084938  0.728431  0.950888  1
  O  O23  1  0.374867  0.000712  0.196939  1
  O  O24  1  0.624807  0.017996  0.788482  1
  O  O25  1  0.921129  0.275779  0.053228  1
  O  O26  1  0.788482  0.624807  0.017996  1
  O  O27  1  0.414285  0.563204  0.766201  1
  O  O28  1  0.563204  0.766201  0.414285  1
  O  O29  1  0.728431  0.950888  0.084938  1
  O  O30  1  0.000712  0.196939  0.374867  1
  O  O31  1  0.766201  0.414285  0.563204  1
  O  O32  1  0.504087  0.877072  0.693662  1
  O  O33  1  0.950888  0.084938  0.728431  1
  O  O34  1  0.693662  0.504087  0.877072  1
  O  O35  1  0.877072  0.693662  0.504087  1
