# generated using pymatgen
data_Li3TiV4O8
_symmetry_space_group_name_H-M   'P 1'
_cell_length_a   10.56262653
_cell_length_b   10.56262621
_cell_length_c   14.93823301
_cell_angle_alpha   19.37284365
_cell_angle_beta   19.37284660
_cell_angle_gamma   33.46312723
_symmetry_Int_Tables_number   1
_chemical_formula_structural   Li3TiV4O8
_chemical_formula_sum   'Li3 Ti1 V4 O8'
_cell_volume   158.13167502
_cell_formula_units_Z   1
loop_
 _symmetry_equiv_pos_site_id
 _symmetry_equiv_pos_as_xyz
  1  'x, y, z'
loop_
 _atom_site_type_symbol
 _atom_site_label
 _atom_site_symmetry_multiplicity
 _atom_site_fract_x
 _atom_site_fract_y
 _atom_site_fract_z
 _atom_site_occupancy
  Li  Li0  1  0.000000  0.500000  0.500000  1
  Li  Li1  1  0.500000  0.000000  0.500000  1
  Li  Li2  1  0.500000  0.500000  0.500000  1
  Ti  Ti3  1  0.500000  0.500000  0.000000  1
  V  V4  1  0.000000  0.000000  0.000000  1
  V  V5  1  0.000000  0.500000  0.000000  1
  V  V6  1  0.500000  0.000000  0.000000  1
  V  V7  1  0.000000  0.000000  0.500000  1
  O  O8  1  0.974822  0.974822  0.291518  1
  O  O9  1  0.018268  0.494247  0.246922  1
  O  O10  1  0.494247  0.018268  0.246922  1
  O  O11  1  0.025178  0.025178  0.708482  1
  O  O12  1  0.511778  0.511778  0.238310  1
  O  O13  1  0.981732  0.505753  0.753078  1
  O  O14  1  0.505753  0.981732  0.753078  1
  O  O15  1  0.488222  0.488222  0.761690  1
