# generated using pymatgen
data_Li6MnV3(PO4)6
_symmetry_space_group_name_H-M   'P 1'
_cell_length_a   8.62813057
_cell_length_b   16.66494708
_cell_length_c   6.36385749
_cell_angle_alpha   84.43753329
_cell_angle_beta   105.97514954
_cell_angle_gamma   100.70388551
_symmetry_Int_Tables_number   1
_chemical_formula_structural   Li6MnV3(PO4)6
_chemical_formula_sum   'Li12 Mn2 V6 P12 O48'
_cell_volume   863.38045789
_cell_formula_units_Z   2
loop_
 _symmetry_equiv_pos_site_id
 _symmetry_equiv_pos_as_xyz
  1  'x, y, z'
loop_
 _atom_site_type_symbol
 _atom_site_label
 _atom_site_symmetry_multiplicity
 _atom_site_fract_x
 _atom_site_fract_y
 _atom_site_fract_z
 _atom_site_occupancy
  Li  Li0  1  0.993068  0.002756  0.246261  1
  Li  Li1  1  0.996107  0.503529  0.746928  1
  Li  Li2  1  0.712013  0.143976  0.606133  1
  Li  Li3  1  0.713166  0.644130  0.104661  1
  Li  Li4  1  0.500465  0.250282  0.249060  1
  Li  Li5  1  0.500849  0.250292  0.751163  1
  Li  Li6  1  0.499512  0.749712  0.249626  1
  Li  Li7  1  0.499790  0.749480  0.751238  1
  Li  Li8  1  0.289309  0.357219  0.893819  1
  Li  Li9  1  0.286893  0.855564  0.392887  1
  Li  Li10  1  0.006278  0.498144  0.251132  1
  Li  Li11  1  0.006196  0.996278  0.753922  1
  Mn  Mn12  1  0.376057  0.528504  0.604108  1
  Mn  Mn13  1  0.056925  0.688001  0.943686  1
  V  V14  1  0.943361  0.310172  0.049817  1
  V  V15  1  0.941056  0.811286  0.547355  1
  V  V16  1  0.623348  0.471045  0.388617  1
  V  V17  1  0.379504  0.028385  0.112086  1
  V  V18  1  0.619954  0.971287  0.887543  1
  V  V19  1  0.057183  0.189890  0.451936  1
  P  P20  1  0.713633  0.143120  0.106837  1
  P  P21  1  0.862766  0.330518  0.532921  1
  P  P22  1  0.861329  0.832135  0.031086  1
  P  P23  1  0.714050  0.642725  0.606947  1
  P  P24  1  0.664323  0.430575  0.932757  1
  P  P25  1  0.661184  0.931475  0.431783  1
  P  P26  1  0.338574  0.068669  0.567989  1
  P  P27  1  0.340166  0.566997  0.067641  1
  P  P28  1  0.287864  0.357607  0.393023  1
  P  P29  1  0.137338  0.169250  0.967665  1
  P  P30  1  0.134101  0.670097  0.464321  1
  P  P31  1  0.283422  0.856271  0.892583  1
  O  O32  1  0.950549  0.300278  0.373980  1
  O  O33  1  0.988249  0.329937  0.761444  1
  O  O34  1  0.828338  0.129538  0.337837  1
  O  O35  1  0.736798  0.231066  0.000845  1
  O  O36  1  0.987326  0.830437  0.259427  1
  O  O37  1  0.843489  0.422077  0.469881  1
  O  O38  1  0.740331  0.085960  0.946141  1
  O  O39  1  0.848522  0.420084  0.980073  1
  O  O40  1  0.704163  0.271767  0.523668  1
  O  O41  1  0.945740  0.806237  0.865747  1
  O  O42  1  0.660631  0.493708  0.095978  1
  O  O43  1  0.537807  0.131491  0.137167  1
  O  O44  1  0.744113  0.586040  0.448369  1
  O  O45  1  0.829757  0.631093  0.841523  1
  O  O46  1  0.844654  0.922006  0.470396  1
  O  O47  1  0.703448  0.772660  0.023555  1
  O  O48  1  0.734523  0.730642  0.500744  1
  O  O49  1  0.840773  0.924462  0.975643  1
  O  O50  1  0.612826  0.472947  0.699310  1
  O  O51  1  0.455495  0.148129  0.556385  1
  O  O52  1  0.462894  0.368105  0.362542  1
  O  O53  1  0.339844  0.005889  0.403026  1
  O  O54  1  0.544841  0.351743  0.944051  1
  O  O55  1  0.600785  0.975121  0.198598  1
  O  O56  1  0.398923  0.024946  0.801130  1
  O  O57  1  0.454436  0.647337  0.056659  1
  O  O58  1  0.660231  0.994273  0.597100  1
  O  O59  1  0.538634  0.629669  0.641355  1
  O  O60  1  0.544079  0.852143  0.444010  1
  O  O61  1  0.404994  0.523664  0.303103  1
  O  O62  1  0.156936  0.077467  0.030084  1
  O  O63  1  0.262695  0.269792  0.500144  1
  O  O64  1  0.295735  0.227907  0.976259  1
  O  O65  1  0.155099  0.078645  0.529261  1
  O  O66  1  0.172298  0.371441  0.163450  1
  O  O67  1  0.262843  0.414716  0.558174  1
  O  O68  1  0.460292  0.867753  0.865833  1
  O  O69  1  0.341266  0.505233  0.898629  1
  O  O70  1  0.050122  0.199362  0.127288  1
  O  O71  1  0.295150  0.727155  0.477216  1
  O  O72  1  0.156687  0.573123  0.036142  1
  O  O73  1  0.257331  0.914071  0.052864  1
  O  O74  1  0.146413  0.578345  0.530982  1
  O  O75  1  0.011440  0.169812  0.739169  1
  O  O76  1  0.259132  0.768179  0.000144  1
  O  O77  1  0.171362  0.870996  0.660736  1
  O  O78  1  0.011212  0.670840  0.232767  1
  O  O79  1  0.047017  0.702349  0.623645  1
