# generated using pymatgen
data_KCrP2S7
_symmetry_space_group_name_H-M   'P 1'
_cell_length_a   6.58316186
_cell_length_b   6.51969230
_cell_length_c   6.51969230
_cell_angle_alpha   97.08745886
_cell_angle_beta   94.86653202
_cell_angle_gamma   94.86653198
_symmetry_Int_Tables_number   1
_chemical_formula_structural   KCrP2S7
_chemical_formula_sum   'K1 Cr1 P2 S7'
_cell_volume   275.39902740
_cell_formula_units_Z   1
loop_
 _symmetry_equiv_pos_site_id
 _symmetry_equiv_pos_as_xyz
  1  'x, y, z'
loop_
 _atom_site_type_symbol
 _atom_site_label
 _atom_site_symmetry_multiplicity
 _atom_site_fract_x
 _atom_site_fract_y
 _atom_site_fract_z
 _atom_site_occupancy
  P  P0  1  0.925077  0.950499  0.642093  1
  P  P1  1  0.074923  0.357907  0.049501  1
  S  S2  1  0.000000  0.027366  0.972634  1
  S  S3  1  0.216264  0.479295  0.821108  1
  S  S4  1  0.729372  0.689504  0.633407  1
  S  S5  1  0.270628  0.366593  0.310496  1
  S  S6  1  0.828151  0.489505  0.155309  1
  S  S7  1  0.171849  0.844691  0.510495  1
  S  S8  1  0.783736  0.178892  0.520705  1
  K  K9  1  0.500000  0.901620  0.098380  1
  Cr  Cr10  1  0.000000  0.498528  0.501472  1
