# generated using pymatgen
data_Li2CrFeO4
_symmetry_space_group_name_H-M   'P 1'
_cell_length_a   5.17358834
_cell_length_b   5.95031221
_cell_length_c   5.15322682
_cell_angle_alpha   89.97635118
_cell_angle_beta   80.42123497
_cell_angle_gamma   73.24841121
_symmetry_Int_Tables_number   1
_chemical_formula_structural   Li2CrFeO4
_chemical_formula_sum   'Li4 Cr2 Fe2 O8'
_cell_volume   149.59924537
_cell_formula_units_Z   2
loop_
 _symmetry_equiv_pos_site_id
 _symmetry_equiv_pos_as_xyz
  1  'x, y, z'
loop_
 _atom_site_type_symbol
 _atom_site_label
 _atom_site_symmetry_multiplicity
 _atom_site_fract_x
 _atom_site_fract_y
 _atom_site_fract_z
 _atom_site_occupancy
  Li  Li0  1  0.999971  0.000025  0.000017  1
  Li  Li1  1  0.001175  0.248745  0.500848  1
  Li  Li2  1  0.000013  0.499923  0.000041  1
  Li  Li3  1  0.998843  0.751198  0.499093  1
  Cr  Cr4  1  0.498790  0.124945  0.750125  1
  Cr  Cr5  1  0.501226  0.875122  0.249875  1
  Fe  Fe6  1  0.499413  0.375022  0.249979  1
  Fe  Fe7  1  0.500561  0.625013  0.750034  1
  O  O8  1  0.274098  0.180278  0.119750  1
  O  O9  1  0.724632  0.068375  0.380906  1
  O  O10  1  0.271383  0.430631  0.623465  1
  O  O11  1  0.726973  0.316014  0.876977  1
  O  O12  1  0.273036  0.683972  0.123055  1
  O  O13  1  0.728614  0.569361  0.376528  1
  O  O14  1  0.275396  0.931640  0.619078  1
  O  O15  1  0.725875  0.819736  0.880228  1
