# generated using pymatgen
data_Li2Si2NiO6
_symmetry_space_group_name_H-M   'P 1'
_cell_length_a   9.59919782
_cell_length_b   4.72675199
_cell_length_c   5.40131185
_cell_angle_alpha   90.00000000
_cell_angle_beta   87.89981344
_cell_angle_gamma   90.00000000
_symmetry_Int_Tables_number   1
_chemical_formula_structural   Li2Si2NiO6
_chemical_formula_sum   'Li4 Si4 Ni2 O12'
_cell_volume   244.90924813
_cell_formula_units_Z   2
loop_
 _symmetry_equiv_pos_site_id
 _symmetry_equiv_pos_as_xyz
  1  'x, y, z'
loop_
 _atom_site_type_symbol
 _atom_site_label
 _atom_site_symmetry_multiplicity
 _atom_site_fract_x
 _atom_site_fract_y
 _atom_site_fract_z
 _atom_site_occupancy
  Li  Li0  1  0.323431  0.813333  0.326097  1
  Li  Li1  1  0.476796  0.297760  0.159452  1
  Li  Li2  1  0.523204  0.797760  0.840548  1
  Li  Li3  1  0.676569  0.313333  0.673903  1
  Si  Si4  1  0.181413  0.775189  0.854664  1
  Si  Si5  1  0.345994  0.280152  0.686421  1
  Si  Si6  1  0.654006  0.780152  0.313579  1
  Si  Si7  1  0.818587  0.275189  0.145336  1
  Ni  Ni8  1  0.112651  0.390402  0.371777  1
  Ni  Ni9  1  0.887349  0.890402  0.628223  1
  O  O10  1  0.062361  0.687734  0.658925  1
  O  O11  1  0.165850  0.684591  0.138685  1
  O  O12  1  0.216839  0.119580  0.846398  1
  O  O13  1  0.327928  0.632014  0.724380  1
  O  O14  1  0.315812  0.222396  0.395719  1
  O  O15  1  0.494009  0.201149  0.796732  1
  O  O16  1  0.505991  0.701149  0.203268  1
  O  O17  1  0.684188  0.722396  0.604281  1
  O  O18  1  0.672072  0.132014  0.275620  1
  O  O19  1  0.783161  0.619580  0.153602  1
  O  O20  1  0.834150  0.184591  0.861315  1
  O  O21  1  0.937639  0.187734  0.341075  1
