# generated using pymatgen
data_Li3VSi2O7
_symmetry_space_group_name_H-M   'P 1'
_cell_length_a   8.62937439
_cell_length_b   8.64258464
_cell_length_c   13.08343325
_cell_angle_alpha   90.06388195
_cell_angle_beta   89.95265906
_cell_angle_gamma   119.85962117
_symmetry_Int_Tables_number   1
_chemical_formula_structural   Li3VSi2O7
_chemical_formula_sum   'Li18 V6 Si12 O42'
_cell_volume   846.22842924
_cell_formula_units_Z   6
loop_
 _symmetry_equiv_pos_site_id
 _symmetry_equiv_pos_as_xyz
  1  'x, y, z'
loop_
 _atom_site_type_symbol
 _atom_site_label
 _atom_site_symmetry_multiplicity
 _atom_site_fract_x
 _atom_site_fract_y
 _atom_site_fract_z
 _atom_site_occupancy
  Li  Li0  1  0.023363  0.690726  0.896503  1
  Li  Li1  1  0.023040  0.691880  0.566649  1
  Li  Li2  1  0.332760  0.666844  0.218133  1
  Li  Li3  1  0.333304  0.667746  0.734302  1
  Li  Li4  1  0.999563  0.999387  0.462805  1
  Li  Li5  1  0.999501  0.998878  0.962777  1
  Li  Li6  1  0.309932  0.333109  0.565504  1
  Li  Li7  1  0.310323  0.334522  0.898588  1
  Li  Li8  1  0.665510  0.974958  0.897889  1
  Li  Li9  1  0.668033  0.975900  0.566075  1
  Li  Li10  1  0.332843  0.023581  0.065365  1
  Li  Li11  1  0.334396  0.024480  0.398323  1
  Li  Li12  1  0.689528  0.666106  0.397402  1
  Li  Li13  1  0.690668  0.667652  0.065953  1
  Li  Li14  1  0.666501  0.333620  0.234389  1
  Li  Li15  1  0.666042  0.332248  0.718069  1
  Li  Li16  1  0.976305  0.307261  0.066924  1
  Li  Li17  1  0.975266  0.308514  0.397243  1
  V  V18  1  0.004034  0.999686  0.231293  1
  V  V19  1  0.999632  0.003949  0.731297  1
  V  V20  1  0.333360  0.667314  0.509466  1
  V  V21  1  0.333228  0.667118  0.955944  1
  V  V22  1  0.666819  0.332995  0.455950  1
  V  V23  1  0.666596  0.332880  0.009484  1
  Si  Si24  1  0.025200  0.674055  0.345219  1
  Si  Si25  1  0.022347  0.672969  0.120139  1
  Si  Si26  1  0.327457  0.350689  0.120745  1
  Si  Si27  1  0.326120  0.352569  0.345196  1
  Si  Si28  1  0.650462  0.976293  0.120746  1
  Si  Si29  1  0.649013  0.973498  0.344707  1
  Si  Si30  1  0.350389  0.025909  0.844749  1
  Si  Si31  1  0.348885  0.023284  0.620701  1
  Si  Si32  1  0.674710  0.647719  0.845019  1
  Si  Si33  1  0.673176  0.649435  0.620738  1
  Si  Si34  1  0.977690  0.327768  0.620276  1
  Si  Si35  1  0.974633  0.326627  0.845329  1
  O  O36  1  0.132784  0.930811  0.841575  1
  O  O37  1  0.132145  0.926843  0.626277  1
  O  O38  1  0.127334  0.695306  0.232398  1
  O  O39  1  0.186969  0.756222  0.036871  1
  O  O40  1  0.187639  0.758155  0.429237  1
  O  O41  1  0.118621  0.539543  0.605412  1
  O  O42  1  0.118624  0.537563  0.859978  1
  O  O43  1  0.070170  0.203756  0.842728  1
  O  O44  1  0.418042  0.881075  0.859638  1
  O  O45  1  0.074764  0.207172  0.625436  1
  O  O46  1  0.419920  0.881598  0.605048  1
  O  O47  1  0.243941  0.431526  0.036821  1
  O  O48  1  0.242413  0.431391  0.429532  1
  O  O49  1  0.305436  0.434110  0.232630  1
  O  O50  1  0.203228  0.135081  0.342563  1
  O  O51  1  0.565178  0.871456  0.232561  1
  O  O52  1  0.206606  0.134067  0.126048  1
  O  O53  1  0.570037  0.812050  0.429506  1
  O  O54  1  0.568857  0.813052  0.036655  1
  O  O55  1  0.461734  0.580695  0.605108  1
  O  O56  1  0.462890  0.581697  0.860515  1
  O  O57  1  0.537720  0.418694  0.359775  1
  O  O58  1  0.539129  0.420294  0.105396  1
  O  O59  1  0.431123  0.186949  0.536840  1
  O  O60  1  0.429415  0.187402  0.929706  1
  O  O61  1  0.794733  0.865807  0.626655  1
  O  O62  1  0.432827  0.128233  0.732588  1
  O  O63  1  0.797609  0.864923  0.841700  1
  O  O64  1  0.693430  0.564719  0.732445  1
  O  O65  1  0.757576  0.568503  0.929140  1
  O  O66  1  0.755849  0.567467  0.536793  1
  O  O67  1  0.580591  0.118653  0.105132  1
  O  O68  1  0.925502  0.793513  0.125501  1
  O  O69  1  0.582146  0.118783  0.360411  1
  O  O70  1  0.929533  0.796746  0.342332  1
  O  O71  1  0.881449  0.462668  0.359944  1
  O  O72  1  0.881581  0.461082  0.105020  1
  O  O73  1  0.811952  0.241760  0.929402  1
  O  O74  1  0.813805  0.243591  0.536701  1
  O  O75  1  0.872518  0.305087  0.732543  1
  O  O76  1  0.867217  0.071860  0.126941  1
  O  O77  1  0.866328  0.067930  0.341101  1
