# generated using pymatgen
data_Na7NbO6
_symmetry_space_group_name_H-M   'P 1'
_cell_length_a   6.44215300
_cell_length_b   6.46964496
_cell_length_c   15.69978035
_cell_angle_alpha   89.80286314
_cell_angle_beta   144.52861251
_cell_angle_gamma   120.36576818
_symmetry_Int_Tables_number   1
_chemical_formula_structural   Na7NbO6
_chemical_formula_sum   'Na7 Nb1 O6'
_cell_volume   189.66474643
_cell_formula_units_Z   1
loop_
 _symmetry_equiv_pos_site_id
 _symmetry_equiv_pos_as_xyz
  1  'x, y, z'
loop_
 _atom_site_type_symbol
 _atom_site_label
 _atom_site_symmetry_multiplicity
 _atom_site_fract_x
 _atom_site_fract_y
 _atom_site_fract_z
 _atom_site_occupancy
  Na  Na0  1  0.176169  0.795462  0.500200  1
  Na  Na1  1  0.777160  0.241578  0.485461  1
  Na  Na2  1  0.181264  0.477306  0.956513  1
  Na  Na3  1  0.064849  0.298523  0.248992  1
  Na  Na4  1  0.010368  0.006272  0.660150  1
  Na  Na5  1  0.802586  0.588929  0.707329  1
  Na  Na6  1  0.021958  0.618268  0.115952  1
  Nb  Nb7  1  0.007675  0.005251  0.003366  1
  O  O8  1  0.254744  0.790791  0.677437  1
  O  O9  1  0.796580  0.272825  0.339296  1
  O  O10  1  0.232205  0.482965  0.817818  1
  O  O11  1  0.989981  0.258613  0.069575  1
  O  O12  1  0.895068  0.681597  0.891137  1
  O  O13  1  0.864573  0.540423  0.214211  1
