# generated using pymatgen
data_Zr2N2O
_symmetry_space_group_name_H-M   'P 1'
_cell_length_a   8.87402031
_cell_length_b   8.89282963
_cell_length_c   8.86812712
_cell_angle_alpha   109.36605013
_cell_angle_beta   109.43892939
_cell_angle_gamma   109.68223578
_symmetry_Int_Tables_number   1
_chemical_formula_structural   Zr2N2O
_chemical_formula_sum   'Zr16 N16 O8'
_cell_volume   538.23611106
_cell_formula_units_Z   8
loop_
 _symmetry_equiv_pos_site_id
 _symmetry_equiv_pos_as_xyz
  1  'x, y, z'
loop_
 _atom_site_type_symbol
 _atom_site_label
 _atom_site_symmetry_multiplicity
 _atom_site_fract_x
 _atom_site_fract_y
 _atom_site_fract_z
 _atom_site_occupancy
  Zr  Zr0  1  0.964007  0.249825  0.217436  1
  Zr  Zr1  1  0.997710  0.499537  0.999899  1
  Zr  Zr2  1  0.719527  0.472010  0.251159  1
  Zr  Zr3  1  0.779860  0.030507  0.748771  1
  Zr  Zr4  1  0.750510  0.789218  0.039570  1
  Zr  Zr5  1  0.760888  0.295660  0.547927  1
  Zr  Zr6  1  0.498453  0.999374  0.985560  1
  Zr  Zr7  1  0.532797  0.748348  0.289897  1
  Zr  Zr8  1  0.466024  0.252436  0.722619  1
  Zr  Zr9  1  0.504179  0.510496  0.513489  1
  Zr  Zr10  1  0.245579  0.210578  0.952789  1
  Zr  Zr11  1  0.247580  0.711001  0.459466  1
  Zr  Zr12  1  0.284109  0.532256  0.742593  1
  Zr  Zr13  1  0.216280  0.965324  0.258189  1
  Zr  Zr14  1  0.008576  0.997136  0.499759  1
  Zr  Zr15  1  0.034527  0.744405  0.775166  1
  N  N16  1  0.961691  0.504814  0.234702  1
  N  N17  1  0.764729  0.725846  0.259388  1
  N  N18  1  0.726874  0.993397  0.956244  1
  N  N19  1  0.727387  0.259197  0.769172  1
  N  N20  1  0.770269  0.539494  0.529193  1
  N  N21  1  0.013298  0.043035  0.271270  1
  N  N22  1  0.271907  0.736809  0.221019  1
  N  N23  1  0.228631  0.452315  0.466127  1
  N  N24  1  0.508702  0.238020  0.970504  1
  N  N25  1  0.224848  0.273203  0.740571  1
  N  N26  1  0.537411  0.770710  0.541133  1
  N  N27  1  0.551037  0.537626  0.774946  1
  N  N28  1  0.263155  0.776221  0.730160  1
  N  N29  1  0.240323  0.967680  0.512132  1
  N  N30  1  0.033589  0.488658  0.763027  1
  N  N31  1  0.988440  0.957693  0.732265  1
  O  O32  1  0.756924  0.033657  0.481708  1
  O  O33  1  0.737816  0.219379  0.274677  1
  O  O34  1  0.274518  0.009113  0.049032  1
  O  O35  1  0.957034  0.728686  0.991491  1
  O  O36  1  0.462210  0.226121  0.449295  1
  O  O37  1  0.444668  0.462997  0.224115  1
  O  O38  1  0.050809  0.278715  0.016470  1
  O  O39  1  0.493121  0.768505  0.037072  1
