# generated using pymatgen
data_Dy2WO6
_symmetry_space_group_name_H-M   'P 1'
_cell_length_a   16.16835820
_cell_length_b   10.62388997
_cell_length_c   5.61315163
_cell_angle_alpha   90.00000000
_cell_angle_beta   90.00000000
_cell_angle_gamma   90.00000000
_symmetry_Int_Tables_number   1
_chemical_formula_structural   Dy2WO6
_chemical_formula_sum   'Dy16 W8 O48'
_cell_volume   964.17587445
_cell_formula_units_Z   8
loop_
 _symmetry_equiv_pos_site_id
 _symmetry_equiv_pos_as_xyz
  1  'x, y, z'
loop_
 _atom_site_type_symbol
 _atom_site_label
 _atom_site_symmetry_multiplicity
 _atom_site_fract_x
 _atom_site_fract_y
 _atom_site_fract_z
 _atom_site_occupancy
  Dy  Dy0  1  0.061895  0.357719  0.101282  1
  Dy  Dy1  1  0.061895  0.142281  0.601282  1
  Dy  Dy2  1  0.230161  0.145575  0.049905  1
  Dy  Dy3  1  0.230161  0.354425  0.549905  1
  Dy  Dy4  1  0.269839  0.645575  0.049905  1
  Dy  Dy5  1  0.269839  0.854425  0.549905  1
  Dy  Dy6  1  0.438105  0.642281  0.601282  1
  Dy  Dy7  1  0.438105  0.857719  0.101282  1
  Dy  Dy8  1  0.561895  0.142281  0.898718  1
  Dy  Dy9  1  0.561895  0.357719  0.398718  1
  Dy  Dy10  1  0.730161  0.145575  0.450095  1
  Dy  Dy11  1  0.730161  0.354425  0.950095  1
  Dy  Dy12  1  0.769839  0.645575  0.450095  1
  Dy  Dy13  1  0.769839  0.854425  0.950095  1
  Dy  Dy14  1  0.938105  0.642281  0.898718  1
  Dy  Dy15  1  0.938105  0.857719  0.398718  1
  W  W16  1  0.119836  0.620475  0.611091  1
  W  W17  1  0.119836  0.879525  0.111091  1
  W  W18  1  0.380164  0.120475  0.611091  1
  W  W19  1  0.380164  0.379525  0.111091  1
  W  W20  1  0.619836  0.620475  0.888909  1
  W  W21  1  0.619836  0.879525  0.388909  1
  W  W22  1  0.880164  0.120475  0.888909  1
  W  W23  1  0.880164  0.379525  0.388909  1
  O  O24  1  0.022060  0.783852  0.080785  1
  O  O25  1  0.022060  0.716148  0.580785  1
  O  O26  1  0.071595  0.540912  0.877739  1
  O  O27  1  0.071595  0.959088  0.377739  1
  O  O28  1  0.106781  0.012137  0.905214  1
  O  O29  1  0.106781  0.487863  0.405214  1
  O  O30  1  0.146517  0.229589  0.323815  1
  O  O31  1  0.146517  0.270411  0.823815  1
  O  O32  1  0.171311  0.730974  0.340451  1
  O  O33  1  0.171311  0.769026  0.840451  1
  O  O34  1  0.231078  0.942085  0.185126  1
  O  O35  1  0.231078  0.557915  0.685126  1
  O  O36  1  0.268922  0.057915  0.685126  1
  O  O37  1  0.268922  0.442085  0.185126  1
  O  O38  1  0.328689  0.230974  0.340451  1
  O  O39  1  0.328689  0.269026  0.840451  1
  O  O40  1  0.353483  0.729589  0.323815  1
  O  O41  1  0.353483  0.770411  0.823815  1
  O  O42  1  0.393219  0.512137  0.905214  1
  O  O43  1  0.393219  0.987863  0.405214  1
  O  O44  1  0.428405  0.040912  0.877739  1
  O  O45  1  0.428405  0.459088  0.377739  1
  O  O46  1  0.477940  0.216148  0.580785  1
  O  O47  1  0.477940  0.283852  0.080785  1
  O  O48  1  0.522060  0.716148  0.919215  1
  O  O49  1  0.522060  0.783852  0.419215  1
  O  O50  1  0.571595  0.540912  0.622261  1
  O  O51  1  0.571595  0.959088  0.122261  1
  O  O52  1  0.606781  0.012137  0.594786  1
  O  O53  1  0.606781  0.487863  0.094786  1
  O  O54  1  0.646517  0.229589  0.176185  1
  O  O55  1  0.646517  0.270411  0.676185  1
  O  O56  1  0.671311  0.730974  0.159549  1
  O  O57  1  0.671311  0.769026  0.659549  1
  O  O58  1  0.731078  0.557915  0.814874  1
  O  O59  1  0.731078  0.942085  0.314874  1
  O  O60  1  0.768922  0.057915  0.814874  1
  O  O61  1  0.768922  0.442085  0.314874  1
  O  O62  1  0.828689  0.230974  0.159549  1
  O  O63  1  0.828689  0.269026  0.659549  1
  O  O64  1  0.853483  0.729589  0.176185  1
  O  O65  1  0.853483  0.770411  0.676185  1
  O  O66  1  0.893219  0.512137  0.594786  1
  O  O67  1  0.893219  0.987863  0.094786  1
  O  O68  1  0.928405  0.040912  0.622261  1
  O  O69  1  0.928405  0.459088  0.122261  1
  O  O70  1  0.977940  0.216148  0.919215  1
  O  O71  1  0.977940  0.283852  0.419215  1
