# generated using pymatgen
data_Ba4Na3Nd3P6(O12F)2
_symmetry_space_group_name_H-M   'P 1'
_cell_length_a   9.84614472
_cell_length_b   9.86943443
_cell_length_c   14.59584473
_cell_angle_alpha   89.90251058
_cell_angle_beta   90.04869210
_cell_angle_gamma   120.20374707
_symmetry_Int_Tables_number   1
_chemical_formula_structural   Ba4Na3Nd3P6(O12F)2
_chemical_formula_sum   'Ba8 Na6 Nd6 P12 O48 F4'
_cell_volume   1225.80787329
_cell_formula_units_Z   2
loop_
 _symmetry_equiv_pos_site_id
 _symmetry_equiv_pos_as_xyz
  1  'x, y, z'
loop_
 _atom_site_type_symbol
 _atom_site_label
 _atom_site_symmetry_multiplicity
 _atom_site_fract_x
 _atom_site_fract_y
 _atom_site_fract_z
 _atom_site_occupancy
  Ba  Ba0  1  0.022143  0.770097  0.365655  1
  Ba  Ba1  1  0.228184  0.246535  0.868518  1
  Ba  Ba2  1  0.749298  0.979050  0.369328  1
  Ba  Ba3  1  0.749002  0.983708  0.868532  1
  Ba  Ba4  1  0.773435  0.751583  0.129706  1
  Ba  Ba5  1  0.766187  0.742865  0.630377  1
  Ba  Ba6  1  0.983532  0.237476  0.133012  1
  Ba  Ba7  1  0.983028  0.227758  0.629317  1
  Na  Na8  1  0.333420  0.670750  0.259233  1
  Na  Na9  1  0.333959  0.670492  0.759575  1
  Na  Na10  1  0.272721  0.006539  0.137677  1
  Na  Na11  1  0.273176  0.009206  0.641575  1
  Na  Na12  1  0.660088  0.330519  0.236708  1
  Na  Na13  1  0.660342  0.326158  0.736561  1
  Nd  Nd14  1  0.017782  0.776638  0.862384  1
  Nd  Nd15  1  0.334081  0.668018  0.013164  1
  Nd  Nd16  1  0.331231  0.671216  0.513548  1
  Nd  Nd17  1  0.229795  0.232859  0.363784  1
  Nd  Nd18  1  0.664713  0.332011  0.489871  1
  Nd  Nd19  1  0.662386  0.330714  0.990034  1
  P  P20  1  0.027853  0.624690  0.112434  1
  P  P21  1  0.031078  0.620779  0.625188  1
  P  P22  1  0.586657  0.970778  0.119886  1
  P  P23  1  0.586192  0.970243  0.619758  1
  P  P24  1  0.381391  0.410451  0.125847  1
  P  P25  1  0.379798  0.403993  0.613432  1
  P  P26  1  0.608524  0.583204  0.379449  1
  P  P27  1  0.627054  0.588626  0.881259  1
  P  P28  1  0.407532  0.038024  0.381803  1
  P  P29  1  0.399900  0.023882  0.884075  1
  P  P30  1  0.975099  0.382011  0.382289  1
  P  P31  1  0.974685  0.392686  0.879106  1
  O  O32  1  0.047483  0.747108  0.184550  1
  O  O33  1  0.045000  0.729702  0.705988  1
  O  O34  1  0.086407  0.707458  0.017076  1
  O  O35  1  0.099133  0.722580  0.537288  1
  O  O36  1  0.134126  0.552320  0.134916  1
  O  O37  1  0.133542  0.543498  0.642218  1
  O  O38  1  0.149031  0.511400  0.395569  1
  O  O39  1  0.153406  0.506656  0.891551  1
  O  O40  1  0.353625  0.861560  0.391181  1
  O  O41  1  0.355379  0.849370  0.894937  1
  O  O42  1  0.408471  0.872511  0.139582  1
  O  O43  1  0.408264  0.872312  0.639829  1
  O  O44  1  0.272882  0.374076  0.039713  1
  O  O45  1  0.286062  0.373754  0.520764  1
  O  O46  1  0.273759  0.317799  0.208084  1
  O  O47  1  0.264449  0.302224  0.689128  1
  O  O48  1  0.449541  0.583052  0.634020  1
  O  O49  1  0.456292  0.590125  0.141880  1
  O  O50  1  0.613996  0.897079  0.031592  1
  O  O51  1  0.613143  0.896075  0.531353  1
  O  O52  1  0.493086  0.645101  0.392256  1
  O  O53  1  0.506258  0.644168  0.891472  1
  O  O54  1  0.688274  0.956183  0.196180  1
  O  O55  1  0.687216  0.953378  0.695515  1
  O  O56  1  0.307556  0.056962  0.304646  1
  O  O57  1  0.281052  0.019104  0.811325  1
  O  O58  1  0.508929  0.365400  0.111549  1
  O  O59  1  0.515476  0.368076  0.608249  1
  O  O60  1  0.377483  0.110064  0.469508  1
  O  O61  1  0.380655  0.099468  0.973242  1
  O  O62  1  0.518846  0.402406  0.361845  1
  O  O63  1  0.546461  0.411493  0.859051  1
  O  O64  1  0.723920  0.676031  0.301575  1
  O  O65  1  0.750375  0.690924  0.807071  1
  O  O66  1  0.711932  0.607847  0.466377  1
  O  O67  1  0.726407  0.613594  0.969439  1
  O  O68  1  0.586215  0.136766  0.361002  1
  O  O69  1  0.575374  0.129152  0.855676  1
  O  O70  1  0.646684  0.148100  0.107619  1
  O  O71  1  0.644513  0.146721  0.607158  1
  O  O72  1  0.852692  0.492389  0.109887  1
  O  O73  1  0.854652  0.496024  0.612929  1
  O  O74  1  0.870718  0.451720  0.354218  1
  O  O75  1  0.884396  0.482636  0.861226  1
  O  O76  1  0.896373  0.284083  0.470324  1
  O  O77  1  0.896472  0.289763  0.966504  1
  O  O78  1  0.978390  0.266784  0.310863  1
  O  O79  1  0.952333  0.277565  0.801270  1
  F  F80  1  0.009315  0.016038  0.261148  1
  F  F81  1  0.989097  0.981099  0.760458  1
  F  F82  1  0.027412  0.035618  0.455501  1
  F  F83  1  0.993180  0.961123  0.955010  1
