# generated using pymatgen
data_Bi12O16F5
_symmetry_space_group_name_H-M   'P 1'
_cell_length_a   10.44098998
_cell_length_b   13.84794619
_cell_length_c   3.80799291
_cell_angle_alpha   97.91665631
_cell_angle_beta   90.02020958
_cell_angle_gamma   79.15569672
_symmetry_Int_Tables_number   1
_chemical_formula_structural   Bi12O16F5
_chemical_formula_sum   'Bi12 O16 F5'
_cell_volume   535.41262809
_cell_formula_units_Z   1
loop_
 _symmetry_equiv_pos_site_id
 _symmetry_equiv_pos_as_xyz
  1  'x, y, z'
loop_
 _atom_site_type_symbol
 _atom_site_label
 _atom_site_symmetry_multiplicity
 _atom_site_fract_x
 _atom_site_fract_y
 _atom_site_fract_z
 _atom_site_occupancy
  Bi  Bi0  1  0.063007  0.633446  0.316350  1
  Bi  Bi1  1  0.072065  0.127114  0.057390  1
  Bi  Bi2  1  0.232269  0.889229  0.437435  1
  Bi  Bi3  1  0.246595  0.365931  0.175454  1
  Bi  Bi4  1  0.391173  0.137191  0.553722  1
  Bi  Bi5  1  0.437031  0.613050  0.272592  1
  Bi  Bi6  1  0.562517  0.385291  0.661294  1
  Bi  Bi7  1  0.604828  0.862671  0.424039  1
  Bi  Bi8  1  0.752436  0.634181  0.807500  1
  Bi  Bi9  1  0.766084  0.111179  0.542602  1
  Bi  Bi10  1  0.925675  0.873164  0.937677  1
  Bi  Bi11  1  0.935244  0.367761  0.679926  1
  O  O12  1  0.037782  0.308974  0.153914  1
  O  O13  1  0.067331  0.806093  0.398170  1
  O  O14  1  0.123661  0.943126  0.974357  1
  O  O15  1  0.118273  0.428299  0.709733  1
  O  O16  1  0.215522  0.066916  0.524458  1
  O  O17  1  0.288233  0.195800  0.085734  1
  O  O18  1  0.379431  0.307349  0.644729  1
  O  O19  1  0.446335  0.445560  0.216411  1
  O  O20  1  0.551830  0.552945  0.769234  1
  O  O21  1  0.619114  0.692109  0.337675  1
  O  O22  1  0.709110  0.804626  0.894872  1
  O  O23  1  0.780600  0.933762  0.458545  1
  O  O24  1  0.880590  0.573132  0.281816  1
  O  O25  1  0.874538  0.057125  0.029162  1
  O  O26  1  0.929364  0.195207  0.592328  1
  O  O27  1  0.960629  0.692101  0.847818  1
  F  F28  1  0.266091  0.595421  0.831828  1
  F  F29  1  0.366928  0.780703  0.932174  1
  F  F30  1  0.496585  0.000423  0.994074  1
  F  F31  1  0.633382  0.219698  0.152555  1
  F  F32  1  0.729340  0.406554  0.235398  1
