# generated using pymatgen
data_Li5SbS4
_symmetry_space_group_name_H-M   'P 1'
_cell_length_a   16.50530459
_cell_length_b   16.50530459
_cell_length_c   5.93388554
_cell_angle_alpha   90.00000000
_cell_angle_beta   90.00000000
_cell_angle_gamma   90.00000000
_symmetry_Int_Tables_number   1
_chemical_formula_structural   Li5SbS4
_chemical_formula_sum   'Li40 Sb8 S32'
_cell_volume   1616.53924062
_cell_formula_units_Z   8
loop_
 _symmetry_equiv_pos_site_id
 _symmetry_equiv_pos_as_xyz
  1  'x, y, z'
loop_
 _atom_site_type_symbol
 _atom_site_label
 _atom_site_symmetry_multiplicity
 _atom_site_fract_x
 _atom_site_fract_y
 _atom_site_fract_z
 _atom_site_occupancy
  Li  Li0  1  0.988693  0.011307  0.250000  1
  Li  Li1  1  0.011307  0.988693  0.750000  1
  Li  Li2  1  0.988693  0.488693  0.250000  1
  Li  Li3  1  0.011307  0.511307  0.750000  1
  Li  Li4  1  0.111571  0.363194  0.812699  1
  Li  Li5  1  0.111571  0.136806  0.812699  1
  Li  Li6  1  0.121926  0.621926  0.250000  1
  Li  Li7  1  0.121926  0.878074  0.250000  1
  Li  Li8  1  0.136806  0.111571  0.312699  1
  Li  Li9  1  0.136806  0.388429  0.312699  1
  Li  Li10  1  0.250000  0.250000  0.339762  1
  Li  Li11  1  0.250000  0.750000  0.750000  1
  Li  Li12  1  0.250000  0.750000  0.250000  1
  Li  Li13  1  0.250000  0.250000  0.839762  1
  Li  Li14  1  0.363194  0.111571  0.312699  1
  Li  Li15  1  0.363194  0.388429  0.312699  1
  Li  Li16  1  0.378074  0.621926  0.250000  1
  Li  Li17  1  0.378074  0.878074  0.250000  1
  Li  Li18  1  0.388429  0.136806  0.812699  1
  Li  Li19  1  0.388429  0.363194  0.812699  1
  Li  Li20  1  0.511307  0.488693  0.250000  1
  Li  Li21  1  0.488693  0.511307  0.750000  1
  Li  Li22  1  0.511307  0.011307  0.250000  1
  Li  Li23  1  0.488693  0.988693  0.750000  1
  Li  Li24  1  0.611571  0.636806  0.187301  1
  Li  Li25  1  0.611571  0.863194  0.187301  1
  Li  Li26  1  0.621926  0.121926  0.750000  1
  Li  Li27  1  0.621926  0.378074  0.750000  1
  Li  Li28  1  0.636806  0.611571  0.687301  1
  Li  Li29  1  0.636806  0.888429  0.687301  1
  Li  Li30  1  0.750000  0.250000  0.750000  1
  Li  Li31  1  0.750000  0.250000  0.250000  1
  Li  Li32  1  0.750000  0.750000  0.160238  1
  Li  Li33  1  0.750000  0.750000  0.660238  1
  Li  Li34  1  0.863194  0.611571  0.687301  1
  Li  Li35  1  0.863194  0.888429  0.687301  1
  Li  Li36  1  0.878074  0.121926  0.750000  1
  Li  Li37  1  0.878074  0.378074  0.750000  1
  Li  Li38  1  0.888429  0.636806  0.187301  1
  Li  Li39  1  0.888429  0.863194  0.187301  1
  Sb  Sb40  1  0.018180  0.750000  0.714350  1
  Sb  Sb41  1  0.250000  0.518180  0.785650  1
  Sb  Sb42  1  0.250000  0.981820  0.785650  1
  Sb  Sb43  1  0.481820  0.750000  0.714350  1
  Sb  Sb44  1  0.518180  0.250000  0.285650  1
  Sb  Sb45  1  0.750000  0.018180  0.214350  1
  Sb  Sb46  1  0.750000  0.481820  0.214350  1
  Sb  Sb47  1  0.981820  0.250000  0.285650  1
  S  S48  1  0.008720  0.116262  0.526920  1
  S  S49  1  0.008720  0.383738  0.526920  1
  S  S50  1  0.116262  0.008720  0.026920  1
  S  S51  1  0.116262  0.491280  0.026920  1
  S  S52  1  0.130428  0.250000  0.091890  1
  S  S53  1  0.129821  0.750000  0.021478  1
  S  S54  1  0.250000  0.130428  0.591890  1
  S  S55  1  0.250000  0.629821  0.478522  1
  S  S56  1  0.250000  0.369572  0.591890  1
  S  S57  1  0.250000  0.870179  0.478522  1
  S  S58  1  0.370179  0.750000  0.021478  1
  S  S59  1  0.369572  0.250000  0.091890  1
  S  S60  1  0.383738  0.491280  0.026920  1
  S  S61  1  0.383738  0.008720  0.026920  1
  S  S62  1  0.491280  0.116262  0.526920  1
  S  S63  1  0.491280  0.383738  0.526920  1
  S  S64  1  0.508720  0.616262  0.473080  1
  S  S65  1  0.508720  0.883738  0.473080  1
  S  S66  1  0.616262  0.508720  0.973080  1
  S  S67  1  0.616262  0.991280  0.973080  1
  S  S68  1  0.630428  0.750000  0.908110  1
  S  S69  1  0.629821  0.250000  0.978522  1
  S  S70  1  0.750000  0.129821  0.521478  1
  S  S71  1  0.750000  0.370179  0.521478  1
  S  S72  1  0.750000  0.630428  0.408110  1
  S  S73  1  0.750000  0.869572  0.408110  1
  S  S74  1  0.870179  0.250000  0.978522  1
  S  S75  1  0.869572  0.750000  0.908110  1
  S  S76  1  0.883738  0.508720  0.973080  1
  S  S77  1  0.883738  0.991280  0.973080  1
  S  S78  1  0.991280  0.616262  0.473080  1
  S  S79  1  0.991280  0.883738  0.473080  1
