# generated using pymatgen
data_Li2MnO2F
_symmetry_space_group_name_H-M   'P 1'
_cell_length_a   6.26302922
_cell_length_b   6.26302922
_cell_length_c   5.53240063
_cell_angle_alpha   52.77195853
_cell_angle_beta   127.22804147
_cell_angle_gamma   126.83070624
_symmetry_Int_Tables_number   1
_chemical_formula_structural   Li2MnO2F
_chemical_formula_sum   'Li4 Mn2 O4 F2'
_cell_volume   127.91649226
_cell_formula_units_Z   2
loop_
 _symmetry_equiv_pos_site_id
 _symmetry_equiv_pos_as_xyz
  1  'x, y, z'
loop_
 _atom_site_type_symbol
 _atom_site_label
 _atom_site_symmetry_multiplicity
 _atom_site_fract_x
 _atom_site_fract_y
 _atom_site_fract_z
 _atom_site_occupancy
  Li  Li0  1  0.251843  0.587225  0.746090  1
  Li  Li1  1  0.412775  0.748157  0.246090  1
  Li  Li2  1  0.587225  0.251843  0.753910  1
  Li  Li3  1  0.748157  0.412775  0.253910  1
  Mn  Mn4  1  0.956793  0.956793  0.750000  1
  Mn  Mn5  1  0.043207  0.043207  0.250000  1
  O  O6  1  0.208742  0.896341  0.722053  1
  O  O7  1  0.103659  0.791258  0.222053  1
  O  O8  1  0.896341  0.208742  0.777947  1
  O  O9  1  0.791258  0.103659  0.277947  1
  F  F10  1  0.556322  0.556322  0.750000  1
  F  F11  1  0.443678  0.443678  0.250000  1
