# generated using pymatgen
data_Li3MnV(PO4)3
_symmetry_space_group_name_H-M   'P 1'
_cell_length_a   9.84587524
_cell_length_b   9.82232159
_cell_length_c   9.72486585
_cell_angle_alpha   87.32484389
_cell_angle_beta   93.75685117
_cell_angle_gamma   95.32460671
_symmetry_Int_Tables_number   1
_chemical_formula_structural   Li3MnV(PO4)3
_chemical_formula_sum   'Li12 Mn4 V4 P12 O48'
_cell_volume   933.63471689
_cell_formula_units_Z   4
loop_
 _symmetry_equiv_pos_site_id
 _symmetry_equiv_pos_as_xyz
  1  'x, y, z'
loop_
 _atom_site_type_symbol
 _atom_site_label
 _atom_site_symmetry_multiplicity
 _atom_site_fract_x
 _atom_site_fract_y
 _atom_site_fract_z
 _atom_site_occupancy
  Li  Li0  1  0.013155  0.506751  0.234000  1
  Li  Li1  1  0.002017  0.258732  0.393961  1
  Li  Li2  1  0.214795  0.555702  0.478350  1
  Li  Li3  1  0.239382  0.729697  0.179850  1
  Li  Li4  1  0.256593  0.001154  0.606281  1
  Li  Li5  1  0.370425  0.743761  0.798356  1
  Li  Li6  1  0.504641  0.011773  0.762448  1
  Li  Li7  1  0.553795  0.214924  0.526357  1
  Li  Li8  1  0.711503  0.935344  0.962233  1
  Li  Li9  1  0.731747  0.240869  0.818889  1
  Li  Li10  1  0.749786  0.377060  0.200997  1
  Li  Li11  1  0.934276  0.706993  0.035240  1
  Mn  Mn12  1  0.243428  0.242861  0.000713  1
  Mn  Mn13  1  0.531702  0.532801  0.503905  1
  Mn  Mn14  1  0.751090  0.757286  0.497272  1
  Mn  Mn15  1  0.967327  0.738532  0.720631  1
  V  V16  1  0.029057  0.251412  0.784957  1
  V  V17  1  0.251070  0.028441  0.216467  1
  V  V18  1  0.467195  0.464615  0.002043  1
  V  V19  1  0.745765  0.967957  0.279837  1
  P  P20  1  0.050380  0.821509  0.404183  1
  P  P21  1  0.172802  0.944073  0.900586  1
  P  P22  1  0.160968  0.553615  0.927106  1
  P  P23  1  0.318649  0.339024  0.303780  1
  P  P24  1  0.335691  0.317252  0.698051  1
  P  P25  1  0.441581  0.836595  0.427909  1
  P  P26  1  0.553494  0.155848  0.072945  1
  P  P27  1  0.653319  0.679454  0.803091  1
  P  P28  1  0.685079  0.654567  0.196812  1
  P  P29  1  0.837177  0.443162  0.573159  1
  P  P30  1  0.816688  0.053021  0.594336  1
  P  P31  1  0.945574  0.174433  0.096578  1
  O  O32  1  0.029070  0.871451  0.860800  1
  O  O33  1  0.082311  0.818631  0.562774  1
  O  O34  1  0.115571  0.620049  0.787759  1
  O  O35  1  0.113916  0.960565  0.345798  1
  O  O36  1  0.097078  0.697369  0.336705  1
  O  O37  1  0.119200  0.395136  0.920983  1
  O  O38  1  0.100718  0.605459  0.055139  1
  O  O39  1  0.107015  0.163982  0.122442  1
  O  O40  1  0.160773  0.104723  0.875949  1
  O  O41  1  0.177596  0.304254  0.664861  1
  O  O42  1  0.200035  0.906836  0.056624  1
  O  O43  1  0.193892  0.401958  0.350619  1
  O  O44  1  0.286290  0.912289  0.812277  1
  O  O45  1  0.319623  0.586534  0.939026  1
  O  O46  1  0.310977  0.182042  0.334265  1
  O  O47  1  0.325083  0.371695  0.141183  1
  O  O48  1  0.366275  0.876039  0.288718  1
  O  O49  1  0.400372  0.904313  0.553409  1
  O  O50  1  0.369541  0.321413  0.862861  1
  O  O51  1  0.385650  0.458011  0.636964  1
  O  O52  1  0.408657  0.674863  0.442554  1
  O  O53  1  0.400230  0.193095  0.650469  1
  O  O54  1  0.395781  0.117024  0.080521  1
  O  O55  1  0.459428  0.392470  0.370958  1
  O  O56  1  0.584609  0.804560  0.842741  1
  O  O57  1  0.545380  0.593309  0.139264  1
  O  O58  1  0.592802  0.542361  0.863123  1
  O  O59  1  0.598925  0.876344  0.412725  1
  O  O60  1  0.626304  0.669354  0.638871  1
  O  O61  1  0.603996  0.099348  0.942368  1
  O  O62  1  0.588318  0.314419  0.071140  1
  O  O63  1  0.619922  0.099332  0.209306  1
  O  O64  1  0.677540  0.631137  0.359734  1
  O  O65  1  0.702952  0.810207  0.153460  1
  O  O66  1  0.676267  0.410200  0.557580  1
  O  O67  1  0.694689  0.106253  0.658129  1
  O  O68  1  0.810386  0.694291  0.844098  1
  O  O69  1  0.816484  0.892824  0.626065  1
  O  O70  1  0.806829  0.581968  0.155639  1
  O  O71  1  0.818880  0.086324  0.436141  1
  O  O72  1  0.876942  0.603588  0.588152  1
  O  O73  1  0.889895  0.830087  0.370688  1
  O  O74  1  0.879774  0.370242  0.711714  1
  O  O75  1  0.906381  0.203851  0.940123  1
  O  O76  1  0.903151  0.402027  0.447321  1
  O  O77  1  0.875707  0.031996  0.131478  1
  O  O78  1  0.914310  0.288221  0.187457  1
  O  O79  1  0.957124  0.111138  0.657703  1
