# generated using pymatgen
data_LiMnV(P2O7)2
_symmetry_space_group_name_H-M   'P 1'
_cell_length_a   9.67722029
_cell_length_b   8.17944052
_cell_length_c   7.14474164
_cell_angle_alpha   91.33778998
_cell_angle_beta   68.75718285
_cell_angle_gamma   89.21163520
_symmetry_Int_Tables_number   1
_chemical_formula_structural   LiMnV(P2O7)2
_chemical_formula_sum   'Li2 Mn2 V2 P8 O28'
_cell_volume   526.81679963
_cell_formula_units_Z   2
loop_
 _symmetry_equiv_pos_site_id
 _symmetry_equiv_pos_as_xyz
  1  'x, y, z'
loop_
 _atom_site_type_symbol
 _atom_site_label
 _atom_site_symmetry_multiplicity
 _atom_site_fract_x
 _atom_site_fract_y
 _atom_site_fract_z
 _atom_site_occupancy
  Li  Li0  1  0.249451  0.863232  0.672302  1
  Li  Li1  1  0.748349  0.358035  0.326387  1
  Mn  Mn2  1  0.258920  0.007414  0.266593  1
  Mn  Mn3  1  0.756084  0.993167  0.277915  1
  V  V4  1  0.244429  0.495707  0.718950  1
  V  V5  1  0.744036  0.505716  0.725572  1
  P  P6  1  0.063848  0.780756  0.091419  1
  P  P7  1  0.059709  0.678302  0.484944  1
  P  P8  1  0.441192  0.177822  0.522616  1
  P  P9  1  0.563825  0.782679  0.089742  1
  P  P10  1  0.437658  0.288508  0.913975  1
  P  P11  1  0.558665  0.682731  0.482432  1
  P  P12  1  0.940943  0.174701  0.518061  1
  P  P13  1  0.936949  0.287617  0.909659  1
  O  O14  1  0.078353  0.652193  0.252223  1
  O  O15  1  0.155469  0.932678  0.085769  1
  O  O16  1  0.105790  0.173740  0.391925  1
  O  O17  1  0.119948  0.843408  0.510622  1
  O  O18  1  0.147516  0.535833  0.528006  1
  O  O19  1  0.101390  0.332652  0.842805  1
  O  O20  1  0.127580  0.686654  0.888063  1
  O  O21  1  0.388267  0.203679  0.108958  1
  O  O22  1  0.400094  0.828433  0.142445  1
  O  O23  1  0.351744  0.038402  0.481481  1
  O  O24  1  0.374316  0.348022  0.515339  1
  O  O25  1  0.390570  0.670670  0.607445  1
  O  O26  1  0.342949  0.439245  0.901212  1
  O  O27  1  0.427062  0.151421  0.751229  1
  O  O28  1  0.576479  0.650664  0.250136  1
  O  O29  1  0.656010  0.931823  0.094300  1
  O  O30  1  0.605769  0.177196  0.390193  1
  O  O31  1  0.615420  0.847345  0.507374  1
  O  O32  1  0.648372  0.536981  0.518576  1
  O  O33  1  0.601456  0.341345  0.842546  1
  O  O34  1  0.620019  0.683053  0.891700  1
  O  O35  1  0.881424  0.209741  0.111851  1
  O  O36  1  0.900363  0.820353  0.140426  1
  O  O37  1  0.853355  0.038019  0.470579  1
  O  O38  1  0.868708  0.344320  0.513578  1
  O  O39  1  0.892142  0.662101  0.606246  1
  O  O40  1  0.841800  0.441068  0.908849  1
  O  O41  1  0.923923  0.151717  0.750164  1
