# generated using pymatgen
data_Li4Mn3TeO12
_symmetry_space_group_name_H-M   'P 1'
_cell_length_a   5.03370234
_cell_length_b   4.91467534
_cell_length_c   8.24619007
_cell_angle_alpha   90.00000000
_cell_angle_beta   90.00000000
_cell_angle_gamma   89.81670238
_symmetry_Int_Tables_number   1
_chemical_formula_structural   Li4Mn3TeO12
_chemical_formula_sum   'Li4 Mn3 Te1 O12'
_cell_volume   204.00155740
_cell_formula_units_Z   1
loop_
 _symmetry_equiv_pos_site_id
 _symmetry_equiv_pos_as_xyz
  1  'x, y, z'
loop_
 _atom_site_type_symbol
 _atom_site_label
 _atom_site_symmetry_multiplicity
 _atom_site_fract_x
 _atom_site_fract_y
 _atom_site_fract_z
 _atom_site_occupancy
  Li  Li0  1  0.000000  0.000000  0.705708  1
  Li  Li1  1  0.000000  0.500000  0.808229  1
  Li  Li2  1  0.500000  0.000000  0.317777  1
  Li  Li3  1  0.500000  0.500000  0.199932  1
  Mn  Mn4  1  0.000000  0.500000  0.419906  1
  Mn  Mn5  1  0.500000  0.000000  0.902117  1
  Mn  Mn6  1  0.500000  0.500000  0.604527  1
  Te  Te7  1  0.000000  0.000000  0.101588  1
  O  O8  1  0.158073  0.244987  0.260390  1
  O  O9  1  0.169805  0.305719  0.591801  1
  O  O10  1  0.175818  0.204397  0.924529  1
  O  O11  1  0.329996  0.692081  0.428575  1
  O  O12  1  0.327900  0.794839  0.082326  1
  O  O13  1  0.344043  0.754326  0.753030  1
  O  O14  1  0.655957  0.245674  0.753030  1
  O  O15  1  0.672100  0.205161  0.082326  1
  O  O16  1  0.670004  0.307919  0.428575  1
  O  O17  1  0.824182  0.795603  0.924529  1
  O  O18  1  0.830195  0.694281  0.591801  1
  O  O19  1  0.841927  0.755012  0.260390  1
