# generated using pymatgen
data_Li4Fe5Sb3O16
_symmetry_space_group_name_H-M   'P 1'
_cell_length_a   6.15766770
_cell_length_b   6.11970644
_cell_length_c   9.81265263
_cell_angle_alpha   89.95399365
_cell_angle_beta   90.68415448
_cell_angle_gamma   119.78824461
_symmetry_Int_Tables_number   1
_chemical_formula_structural   Li4Fe5Sb3O16
_chemical_formula_sum   'Li4 Fe5 Sb3 O16'
_cell_volume   320.88402047
_cell_formula_units_Z   1
loop_
 _symmetry_equiv_pos_site_id
 _symmetry_equiv_pos_as_xyz
  1  'x, y, z'
loop_
 _atom_site_type_symbol
 _atom_site_label
 _atom_site_symmetry_multiplicity
 _atom_site_fract_x
 _atom_site_fract_y
 _atom_site_fract_z
 _atom_site_occupancy
  Li  Li0  1  0.324455  0.662372  0.882122  1
  Li  Li1  1  0.980986  0.990298  0.991167  1
  Li  Li2  1  0.984026  0.992017  0.502449  1
  Li  Li3  1  0.651124  0.325494  0.396490  1
  Fe  Fe4  1  0.354050  0.677004  0.501239  1
  Fe  Fe5  1  0.665983  0.832660  0.217012  1
  Fe  Fe6  1  0.692163  0.345507  0.987413  1
  Fe  Fe7  1  0.830582  0.656599  0.716482  1
  Fe  Fe8  1  0.830117  0.173771  0.716520  1
  Sb  Sb9  1  0.169716  0.831253  0.216508  1
  Sb  Sb10  1  0.170304  0.338855  0.216709  1
  Sb  Sb11  1  0.343376  0.171352  0.713430  1
  O  O12  1  0.170539  0.846279  0.597613  1
  O  O13  1  0.027822  0.513710  0.337167  1
  O  O14  1  0.318652  0.659559  0.102418  1
  O  O15  1  0.017243  0.008454  0.320752  1
  O  O16  1  0.007636  0.003880  0.807221  1
  O  O17  1  0.170849  0.324442  0.597655  1
  O  O18  1  0.461491  0.957652  0.341655  1
  O  O19  1  0.461702  0.504242  0.341598  1
  O  O20  1  0.318608  0.159676  0.105610  1
  O  O21  1  0.672890  0.836486  0.597225  1
  O  O22  1  0.511414  0.480344  0.832490  1
  O  O23  1  0.510951  0.030853  0.831992  1
  O  O24  1  0.660692  0.330459  0.601469  1
  O  O25  1  0.862862  0.690877  0.103748  1
  O  O26  1  0.967554  0.483866  0.828658  1
  O  O27  1  0.862214  0.172336  0.103032  1
