# generated using pymatgen
data_Li5Fe5Si7O24
_symmetry_space_group_name_H-M   'P 1'
_cell_length_a   7.85303252
_cell_length_b   7.95467893
_cell_length_c   9.78001687
_cell_angle_alpha   91.08665411
_cell_angle_beta   88.54049517
_cell_angle_gamma   89.46496113
_symmetry_Int_Tables_number   1
_chemical_formula_structural   Li5Fe5Si7O24
_chemical_formula_sum   'Li5 Fe5 Si7 O24'
_cell_volume   610.60401833
_cell_formula_units_Z   1
loop_
 _symmetry_equiv_pos_site_id
 _symmetry_equiv_pos_as_xyz
  1  'x, y, z'
loop_
 _atom_site_type_symbol
 _atom_site_label
 _atom_site_symmetry_multiplicity
 _atom_site_fract_x
 _atom_site_fract_y
 _atom_site_fract_z
 _atom_site_occupancy
  Li  Li0  1  0.432336  0.694872  0.250079  1
  Li  Li1  1  0.491957  0.180332  0.792919  1
  Li  Li2  1  0.821727  0.525146  0.715858  1
  Li  Li3  1  0.727203  0.004177  0.007162  1
  Li  Li4  1  0.011519  0.663106  0.970921  1
  Fe  Fe5  1  0.121499  0.331556  0.768096  1
  Fe  Fe6  1  0.375614  0.830784  0.983563  1
  Fe  Fe7  1  0.661309  0.880004  0.710348  1
  Fe  Fe8  1  0.833419  0.376935  0.025795  1
  Fe  Fe9  1  0.871572  0.675441  0.286004  1
  Si  Si10  1  0.078605  0.903783  0.757477  1
  Si  Si11  1  0.162082  0.626713  0.530567  1
  Si  Si12  1  0.329995  0.125241  0.232794  1
  Si  Si13  1  0.421333  0.405791  0.006055  1
  Si  Si14  1  0.564923  0.569192  0.496933  1
  Si  Si15  1  0.620307  0.175294  0.460555  1
  Si  Si16  1  0.927095  0.084076  0.248017  1
  O  O17  1  0.052975  0.642816  0.395744  1
  O  O18  1  0.093463  0.467927  0.617071  1
  O  O19  1  0.111458  0.101519  0.736489  1
  O  O20  1  0.153574  0.802331  0.621864  1
  O  O21  1  0.127670  0.125004  0.281017  1
  O  O22  1  0.168236  0.826936  0.894782  1
  O  O23  1  0.321910  0.352332  0.866884  1
  O  O24  1  0.361920  0.603090  0.476800  1
  O  O25  1  0.360037  0.290778  0.136857  1
  O  O26  1  0.402820  0.605617  0.053248  1
  O  O27  1  0.384197  0.945221  0.156152  1
  O  O28  1  0.455482  0.140951  0.364530  1
  O  O29  1  0.540402  0.947154  0.876007  1
  O  O30  1  0.607923  0.062710  0.599373  1
  O  O31  1  0.609614  0.370044  0.520839  1
  O  O32  1  0.639801  0.659901  0.635072  1
  O  O33  1  0.614163  0.350253  0.956250  1
  O  O34  1  0.644039  0.639136  0.353711  1
  O  O35  1  0.803422  0.150741  0.378113  1
  O  O36  1  0.876387  0.861289  0.789261  1
  O  O37  1  0.866792  0.167768  0.104435  1
  O  O38  1  0.888915  0.889182  0.213054  1
  O  O39  1  0.907695  0.558699  0.123185  1
  O  O40  1  0.945809  0.446860  0.864316  1
