# generated using pymatgen
data_LiCoPO4
_symmetry_space_group_name_H-M   'P 1'
_cell_length_a   5.07690996
_cell_length_b   5.20421931
_cell_length_c   8.47574359
_cell_angle_alpha   89.60981527
_cell_angle_beta   90.79996934
_cell_angle_gamma   119.19403229
_symmetry_Int_Tables_number   1
_chemical_formula_structural   LiCoPO4
_chemical_formula_sum   'Li2 Co2 P2 O8'
_cell_volume   195.47502774
_cell_formula_units_Z   2
loop_
 _symmetry_equiv_pos_site_id
 _symmetry_equiv_pos_as_xyz
  1  'x, y, z'
loop_
 _atom_site_type_symbol
 _atom_site_label
 _atom_site_symmetry_multiplicity
 _atom_site_fract_x
 _atom_site_fract_y
 _atom_site_fract_z
 _atom_site_occupancy
  Li  Li0  1  0.066312  0.246266  0.002261  1
  Li  Li1  1  0.820047  0.753734  0.502261  1
  Co  Co2  1  0.281404  0.642194  0.310364  1
  Co  Co3  1  0.639210  0.357806  0.810364  1
  P  P4  1  0.300462  0.666050  0.696153  1
  P  P5  1  0.634412  0.333950  0.196153  1
  O  O6  1  0.988526  0.654764  0.685455  1
  O  O7  1  0.391980  0.607212  0.531179  1
  O  O8  1  0.280942  0.420056  0.809638  1
  O  O9  1  0.549345  0.965943  0.756351  1
  O  O10  1  0.333761  0.345236  0.185455  1
  O  O11  1  0.784768  0.392788  0.031179  1
  O  O12  1  0.860888  0.579944  0.309638  1
  O  O13  1  0.583402  0.034057  0.256351  1
