# generated using pymatgen
data_Na3CaSc3Zn(SiO3)8
_symmetry_space_group_name_H-M   'P 1'
_cell_length_a   5.54833039
_cell_length_b   28.33421693
_cell_length_c   10.68694822
_cell_angle_alpha   41.03145072
_cell_angle_beta   70.26529275
_cell_angle_gamma   75.24313873
_symmetry_Int_Tables_number   1
_chemical_formula_structural   Na3CaSc3Zn(SiO3)8
_chemical_formula_sum   'Na6 Ca2 Sc6 Zn2 Si16 O48'
_cell_volume   1038.14183031
_cell_formula_units_Z   2
loop_
 _symmetry_equiv_pos_site_id
 _symmetry_equiv_pos_as_xyz
  1  'x, y, z'
loop_
 _atom_site_type_symbol
 _atom_site_label
 _atom_site_symmetry_multiplicity
 _atom_site_fract_x
 _atom_site_fract_y
 _atom_site_fract_z
 _atom_site_occupancy
  Na  Na0  1  0.250000  0.360680  0.278639  1
  Na  Na1  1  0.250000  0.608128  0.283743  1
  Na  Na2  1  0.250000  0.857294  0.285412  1
  Na  Na3  1  0.750000  0.392706  0.714588  1
  Na  Na4  1  0.750000  0.641872  0.716257  1
  Na  Na5  1  0.750000  0.889320  0.721361  1
  Ca  Ca6  1  0.250000  0.117212  0.265575  1
  Ca  Ca7  1  0.750000  0.132788  0.734425  1
  Sc  Sc8  1  0.250000  0.305606  0.888787  1
  Sc  Sc9  1  0.250000  0.551101  0.897799  1
  Sc  Sc10  1  0.750000  0.451050  0.097900  1
  Sc  Sc11  1  0.250000  0.798950  0.902100  1
  Sc  Sc12  1  0.750000  0.698899  0.102201  1
  Sc  Sc13  1  0.750000  0.944394  0.111213  1
  Zn  Zn14  1  0.250000  0.049117  0.901765  1
  Zn  Zn15  1  0.750000  0.200883  0.098235  1
  Si  Si16  1  0.291072  0.262666  0.213869  1
  Si  Si17  1  0.208928  0.262666  0.735465  1
  Si  Si18  1  0.284453  0.513102  0.214288  1
  Si  Si19  1  0.791072  0.987334  0.264535  1
  Si  Si20  1  0.215547  0.513102  0.733302  1
  Si  Si21  1  0.285051  0.761967  0.216339  1
  Si  Si22  1  0.708928  0.987334  0.786131  1
  Si  Si23  1  0.796269  0.239902  0.253002  1
  Si  Si24  1  0.214949  0.761967  0.735792  1
  Si  Si25  1  0.296269  0.010098  0.212612  1
  Si  Si26  1  0.703731  0.239902  0.787388  1
  Si  Si27  1  0.785051  0.488033  0.264208  1
  Si  Si28  1  0.203731  0.010098  0.746998  1
  Si  Si29  1  0.714949  0.488033  0.783661  1
  Si  Si30  1  0.784453  0.736898  0.266698  1
  Si  Si31  1  0.715547  0.736898  0.785712  1
  O  O32  1  0.016289  0.250055  0.671779  1
  O  O33  1  0.161487  0.088124  0.665736  1
  O  O34  1  0.360178  0.209147  0.189868  1
  O  O35  1  0.026536  0.502996  0.661559  1
  O  O36  1  0.139822  0.209147  0.973545  1
  O  O37  1  0.183618  0.341114  0.648182  1
  O  O38  1  0.516289  -0.000055  0.671998  1
  O  O39  1  0.338513  0.088124  0.981766  1
  O  O40  1  0.358004  0.459294  0.191418  1
  O  O41  1  0.661487  0.161876  0.018233  1
  O  O42  1  0.483711  0.250055  0.328002  1
  O  O43  1  0.860178  0.040853  0.026455  1
  O  O44  1  0.026523  0.752374  0.662635  1
  O  O45  1  0.141996  0.459294  0.971406  1
  O  O46  1  0.191217  0.590823  0.650870  1
  O  O47  1  0.521063  0.245269  0.677951  1
  O  O48  1  0.316382  0.341114  0.987364  1
  O  O49  1  0.639822  0.040853  0.810132  1
  O  O50  1  0.358096  0.707432  0.195691  1
  O  O51  1  0.689150  0.410767  0.012892  1
  O  O52  1  0.473464  0.502996  0.326457  1
  O  O53  1  0.838513  0.161876  0.334264  1
  O  O54  1  0.869664  0.299426  0.015451  1
  O  O55  1  0.021063  0.004731  0.659025  1
  O  O56  1  0.983711  -0.000055  0.328221  1
  O  O57  1  0.141904  0.707432  0.974581  1
  O  O58  1  0.189150  0.839233  0.655961  1
  O  O59  1  0.526523  0.497626  0.672131  1
  O  O60  1  0.308783  0.590823  0.985839  1
  O  O61  1  0.630336  0.299426  0.786846  1
  O  O62  1  0.369664  0.950574  0.213154  1
  O  O63  1  0.691217  0.659177  0.014161  1
  O  O64  1  0.473477  0.752374  0.327869  1
  O  O65  1  0.810850  0.410767  0.344039  1
  O  O66  1  0.858096  0.542568  0.025419  1
  O  O67  1  0.978937  0.245269  0.340975  1
  O  O68  1  0.130336  0.950574  0.984549  1
  O  O69  1  0.526536  0.747004  0.673543  1
  O  O70  1  0.310850  0.839233  0.987108  1
  O  O71  1  0.641904  0.542568  0.804309  1
  O  O72  1  0.683618  0.908886  0.012636  1
  O  O73  1  0.478937  0.004731  0.322049  1
  O  O74  1  0.808783  0.659177  0.349130  1
  O  O75  1  0.858004  0.790706  0.028594  1
  O  O76  1  0.973477  0.497626  0.337365  1
  O  O77  1  0.641996  0.790706  0.808582  1
  O  O78  1  0.816382  0.908886  0.351818  1
  O  O79  1  0.973464  0.747004  0.338441  1
