# generated using pymatgen
data_LiVPO5
_symmetry_space_group_name_H-M   'P 1'
_cell_length_a   12.62110667
_cell_length_b   6.31019672
_cell_length_c   10.52568166
_cell_angle_alpha   90.00000000
_cell_angle_beta   90.00000000
_cell_angle_gamma   90.00000000
_symmetry_Int_Tables_number   1
_chemical_formula_structural   LiVPO5
_chemical_formula_sum   'Li8 V8 P8 O40'
_cell_volume   838.28282226
_cell_formula_units_Z   8
loop_
 _symmetry_equiv_pos_site_id
 _symmetry_equiv_pos_as_xyz
  1  'x, y, z'
loop_
 _atom_site_type_symbol
 _atom_site_label
 _atom_site_symmetry_multiplicity
 _atom_site_fract_x
 _atom_site_fract_y
 _atom_site_fract_z
 _atom_site_occupancy
  Li  Li0  1  0.109401  0.174223  0.100181  1
  Li  Li1  1  0.118363  0.845762  0.889677  1
  Li  Li2  1  0.381637  0.345762  0.389677  1
  Li  Li3  1  0.390599  0.674223  0.600181  1
  Li  Li4  1  0.609401  0.325777  0.100181  1
  Li  Li5  1  0.618363  0.654238  0.889677  1
  Li  Li6  1  0.881637  0.154238  0.389677  1
  Li  Li7  1  0.890599  0.825777  0.600181  1
  V  V8  1  0.130626  0.963238  0.504288  1
  V  V9  1  0.227833  0.740440  0.228803  1
  V  V10  1  0.272167  0.240440  0.728803  1
  V  V11  1  0.369374  0.463238  0.004288  1
  V  V12  1  0.630626  0.536762  0.504288  1
  V  V13  1  0.727833  0.759560  0.228803  1
  V  V14  1  0.772167  0.259560  0.728803  1
  V  V15  1  0.869374  0.036762  0.004288  1
  P  P16  1  0.017803  0.170155  0.747318  1
  P  P17  1  0.183100  0.462395  0.477619  1
  P  P18  1  0.316900  0.962395  0.977619  1
  P  P19  1  0.482197  0.670155  0.247318  1
  P  P20  1  0.517803  0.329845  0.747318  1
  P  P21  1  0.683100  0.037605  0.477619  1
  P  P22  1  0.816900  0.537605  0.977619  1
  P  P23  1  0.982197  0.829845  0.247318  1
  O  O24  1  0.009228  0.067878  0.882964  1
  O  O25  1  0.020876  0.978475  0.650469  1
  O  O26  1  0.074422  0.678229  0.214968  1
  O  O27  1  0.109171  0.270469  0.469433  1
  O  O28  1  0.117461  0.654160  0.518926  1
  O  O29  1  0.119708  0.299881  0.737925  1
  O  O30  1  0.203635  0.929784  0.344521  1
  O  O31  1  0.219146  0.928245  0.071379  1
  O  O32  1  0.243836  0.494172  0.349543  1
  O  O33  1  0.241619  0.001695  0.597476  1
  O  O34  1  0.258381  0.501695  0.097476  1
  O  O35  1  0.256164  0.994172  0.849543  1
  O  O36  1  0.280854  0.428245  0.571379  1
  O  O37  1  0.296365  0.429784  0.844521  1
  O  O38  1  0.380292  0.799881  0.237925  1
  O  O39  1  0.382539  0.154160  0.018926  1
  O  O40  1  0.390829  0.770469  0.969433  1
  O  O41  1  0.425578  0.178229  0.714968  1
  O  O42  1  0.479124  0.478475  0.150469  1
  O  O43  1  0.490772  0.567878  0.382964  1
  O  O44  1  0.509228  0.432122  0.882964  1
  O  O45  1  0.520876  0.521525  0.650469  1
  O  O46  1  0.574422  0.821771  0.214968  1
  O  O47  1  0.609171  0.229531  0.469433  1
  O  O48  1  0.617461  0.845840  0.518926  1
  O  O49  1  0.619708  0.200119  0.737925  1
  O  O50  1  0.703635  0.570216  0.344521  1
  O  O51  1  0.719146  0.571755  0.071379  1
  O  O52  1  0.743836  0.005828  0.349543  1
  O  O53  1  0.741619  0.498305  0.597476  1
  O  O54  1  0.758381  0.998305  0.097476  1
  O  O55  1  0.756164  0.505828  0.849543  1
  O  O56  1  0.780854  0.071755  0.571379  1
  O  O57  1  0.796365  0.070216  0.844521  1
  O  O58  1  0.880292  0.700119  0.237925  1
  O  O59  1  0.882539  0.345840  0.018926  1
  O  O60  1  0.890829  0.729531  0.969433  1
  O  O61  1  0.925578  0.321771  0.714968  1
  O  O62  1  0.979124  0.021525  0.150469  1
  O  O63  1  0.990772  0.932122  0.382964  1
