# generated using pymatgen
data_Li2Ti3P9O28
_symmetry_space_group_name_H-M   'P 1'
_cell_length_a   7.26635697
_cell_length_b   9.59770079
_cell_length_c   9.26753271
_cell_angle_alpha   68.41940032
_cell_angle_beta   99.03965601
_cell_angle_gamma   69.68556812
_symmetry_Int_Tables_number   1
_chemical_formula_structural   Li2Ti3P9O28
_chemical_formula_sum   'Li2 Ti3 P9 O28'
_cell_volume   532.72503475
_cell_formula_units_Z   1
loop_
 _symmetry_equiv_pos_site_id
 _symmetry_equiv_pos_as_xyz
  1  'x, y, z'
loop_
 _atom_site_type_symbol
 _atom_site_label
 _atom_site_symmetry_multiplicity
 _atom_site_fract_x
 _atom_site_fract_y
 _atom_site_fract_z
 _atom_site_occupancy
  Li  Li0  1  0.450347  0.014756  0.996256  1
  Li  Li1  1  0.049653  0.485244  0.003744  1
  Ti  Ti2  1  0.250000  0.250000  0.500000  1
  Ti  Ti3  1  0.500605  0.504978  0.995849  1
  Ti  Ti4  1  0.999395  0.995022  0.004151  1
  P  P5  1  0.558394  0.308725  0.763479  1
  P  P6  1  0.046955  0.811247  0.760531  1
  P  P7  1  0.930878  0.338773  0.706049  1
  P  P8  1  0.413648  0.845553  0.691205  1
  P  P9  1  0.750000  0.750000  0.500000  1
  P  P10  1  0.569122  0.161227  0.293951  1
  P  P11  1  0.086352  0.654447  0.308795  1
  P  P12  1  0.941606  0.191275  0.236521  1
  P  P13  1  0.453045  0.688753  0.239469  1
  O  O14  1  0.680412  0.134389  0.913449  1
  O  O15  1  0.178453  0.633808  0.906190  1
  O  O16  1  0.535559  0.707023  0.868917  1
  O  O17  1  0.060044  0.189245  0.877853  1
  O  O18  1  0.990710  0.944002  0.821455  1
  O  O19  1  0.486150  0.448236  0.813245  1
  O  O20  1  0.904414  0.501264  0.710518  1
  O  O21  1  0.379247  0.015775  0.685422  1
  O  O22  1  0.853639  0.825786  0.654580  1
  O  O23  1  0.376838  0.314599  0.650105  1
  O  O24  1  0.704854  0.341294  0.656472  1
  O  O25  1  0.185990  0.848747  0.647655  1
  O  O26  1  0.494039  0.811673  0.560519  1
  O  O27  1  0.010559  0.309390  0.571081  1
  O  O28  1  0.005962  0.688327  0.439481  1
  O  O29  1  0.489441  0.190610  0.428919  1
  O  O30  1  0.795146  0.158706  0.343528  1
  O  O31  1  0.314010  0.651253  0.352345  1
  O  O32  1  0.646361  0.674214  0.345420  1
  O  O33  1  0.123162  0.185401  0.349895  1
  O  O34  1  0.595586  0.998736  0.289482  1
  O  O35  1  0.120753  0.484225  0.314578  1
  O  O36  1  0.509290  0.555998  0.178545  1
  O  O37  1  0.013850  0.051763  0.186755  1
  O  O38  1  0.964441  0.792977  0.131083  1
  O  O39  1  0.439956  0.310755  0.122147  1
  O  O40  1  0.819588  0.365611  0.086551  1
  O  O41  1  0.321547  0.866192  0.093810  1
