# generated using pymatgen
data_As4S11(N6Cl7)2
_symmetry_space_group_name_H-M   'P 1'
_cell_length_a   16.72524885
_cell_length_b   16.72524885
_cell_length_c   16.37425701
_cell_angle_alpha   90.00000000
_cell_angle_beta   90.00000000
_cell_angle_gamma   90.00000000
_symmetry_Int_Tables_number   1
_chemical_formula_structural   As4S11(N6Cl7)2
_chemical_formula_sum   'As16 S44 N48 Cl56'
_cell_volume   4580.43557689
_cell_formula_units_Z   4
loop_
 _symmetry_equiv_pos_site_id
 _symmetry_equiv_pos_as_xyz
  1  'x, y, z'
loop_
 _atom_site_type_symbol
 _atom_site_label
 _atom_site_symmetry_multiplicity
 _atom_site_fract_x
 _atom_site_fract_y
 _atom_site_fract_z
 _atom_site_occupancy
  As  As0  1  0.519644  0.620439  0.100451  1
  As  As1  1  0.019644  0.879561  0.399549  1
  As  As2  1  0.480356  0.379561  0.100451  1
  As  As3  1  0.980356  0.120439  0.399549  1
  As  As4  1  0.620439  0.480356  0.899549  1
  As  As5  1  0.879561  0.980356  0.600451  1
  As  As6  1  0.379561  0.519644  0.899549  1
  As  As7  1  0.120439  0.019644  0.600451  1
  As  As8  1  0.395066  0.780991  0.916424  1
  As  As9  1  0.895066  0.719009  0.583576  1
  As  As10  1  0.604934  0.219008  0.916424  1
  As  As11  1  0.104934  0.280992  0.583576  1
  As  As12  1  0.780991  0.604934  0.083576  1
  As  As13  1  0.719009  0.104934  0.416424  1
  As  As14  1  0.219008  0.395066  0.083576  1
  As  As15  1  0.280992  0.895066  0.416424  1
  S  S16  1  0.500000  0.500000  0.590882  1
  S  S17  1  0.000000  0.000000  0.909118  1
  S  S18  1  0.500000  0.500000  0.409118  1
  S  S19  1  0.000000  0.000000  0.090882  1
  S  S20  1  0.196487  0.551879  0.651332  1
  S  S21  1  0.696487  0.948121  0.848668  1
  S  S22  1  0.803513  0.448121  0.651332  1
  S  S23  1  0.303513  0.051879  0.848668  1
  S  S24  1  0.551879  0.803513  0.348668  1
  S  S25  1  0.948121  0.303513  0.151332  1
  S  S26  1  0.448121  0.196487  0.348668  1
  S  S27  1  0.051879  0.696487  0.151332  1
  S  S28  1  0.192645  0.725850  0.627861  1
  S  S29  1  0.692645  0.774150  0.872139  1
  S  S30  1  0.807355  0.274150  0.627861  1
  S  S31  1  0.307355  0.225850  0.872139  1
  S  S32  1  0.725850  0.807355  0.372139  1
  S  S33  1  0.774150  0.307355  0.127861  1
  S  S34  1  0.274150  0.192645  0.372139  1
  S  S35  1  0.225850  0.692645  0.127861  1
  S  S36  1  0.114119  0.802930  0.764491  1
  S  S37  1  0.614119  0.697070  0.735509  1
  S  S38  1  0.885881  0.197070  0.764491  1
  S  S39  1  0.385881  0.302930  0.735509  1
  S  S40  1  0.802930  0.885881  0.235509  1
  S  S41  1  0.697070  0.385881  0.264491  1
  S  S42  1  0.197070  0.114119  0.235509  1
  S  S43  1  0.302930  0.614119  0.264491  1
  S  S44  1  0.045637  0.693143  0.891843  1
  S  S45  1  0.545637  0.806857  0.608157  1
  S  S46  1  0.954363  0.306857  0.891843  1
  S  S47  1  0.454363  0.193143  0.608157  1
  S  S48  1  0.693143  0.954363  0.108157  1
  S  S49  1  0.806857  0.454363  0.391843  1
  S  S50  1  0.306857  0.045637  0.108157  1
  S  S51  1  0.193143  0.545637  0.391843  1
  S  S52  1  0.105077  0.535722  0.812792  1
  S  S53  1  0.605077  0.964278  0.687208  1
  S  S54  1  0.894923  0.464278  0.812792  1
  S  S55  1  0.394923  0.035722  0.687208  1
  S  S56  1  0.535722  0.894923  0.187208  1
  S  S57  1  0.964278  0.394923  0.312792  1
  S  S58  1  0.464278  0.105077  0.187208  1
  S  S59  1  0.035722  0.605077  0.312792  1
  N  N60  1  0.211084  0.635260  0.608101  1
  N  N61  1  0.711084  0.864740  0.891899  1
  N  N62  1  0.788916  0.364740  0.608101  1
  N  N63  1  0.288916  0.135260  0.891899  1
  N  N64  1  0.635260  0.788916  0.391899  1
  N  N65  1  0.864740  0.288916  0.108101  1
  N  N66  1  0.364740  0.211084  0.391899  1
  N  N67  1  0.135260  0.711084  0.108101  1
  N  N68  1  0.147902  0.730072  0.713341  1
  N  N69  1  0.647902  0.769928  0.786659  1
  N  N70  1  0.852098  0.269928  0.713341  1
  N  N71  1  0.352098  0.230072  0.786659  1
  N  N72  1  0.730072  0.852098  0.286659  1
  N  N73  1  0.769928  0.352098  0.213341  1
  N  N74  1  0.269928  0.147902  0.286659  1
  N  N75  1  0.230072  0.647902  0.213341  1
  N  N76  1  0.071731  0.770096  0.843366  1
  N  N77  1  0.571731  0.729904  0.656634  1
  N  N78  1  0.928269  0.229904  0.843366  1
  N  N79  1  0.428269  0.270096  0.656634  1
  N  N80  1  0.770096  0.928269  0.156634  1
  N  N81  1  0.729904  0.428269  0.343366  1
  N  N82  1  0.229904  0.071731  0.156634  1
  N  N83  1  0.270096  0.571731  0.343366  1
  N  N84  1  0.067228  0.607048  0.861411  1
  N  N85  1  0.567228  0.892952  0.638589  1
  N  N86  1  0.932772  0.392952  0.861411  1
  N  N87  1  0.432772  0.107048  0.638589  1
  N  N88  1  0.607048  0.932772  0.138589  1
  N  N89  1  0.892952  0.432772  0.361411  1
  N  N90  1  0.392952  0.067228  0.138589  1
  N  N91  1  0.107048  0.567228  0.361411  1
  N  N92  1  0.149195  0.555717  0.732785  1
  N  N93  1  0.649195  0.944283  0.767215  1
  N  N94  1  0.850805  0.444283  0.732785  1
  N  N95  1  0.350805  0.055717  0.767215  1
  N  N96  1  0.555717  0.850805  0.267215  1
  N  N97  1  0.944283  0.350805  0.232785  1
  N  N98  1  0.444283  0.149195  0.267215  1
  N  N99  1  0.055717  0.649195  0.232785  1
  N  N100  1  0.445529  0.569050  0.588862  1
  N  N101  1  0.945529  0.930950  0.911138  1
  N  N102  1  0.554471  0.430950  0.588862  1
  N  N103  1  0.054471  0.069050  0.911138  1
  N  N104  1  0.569050  0.554471  0.411138  1
  N  N105  1  0.930950  0.054471  0.088862  1
  N  N106  1  0.430950  0.445529  0.411138  1
  N  N107  1  0.069050  0.945529  0.088862  1
  Cl  Cl108  1  0.424166  0.727405  0.105483  1
  Cl  Cl109  1  0.924166  0.772595  0.394517  1
  Cl  Cl110  1  0.575834  0.272595  0.105483  1
  Cl  Cl111  1  0.075834  0.227405  0.394517  1
  Cl  Cl112  1  0.727405  0.575834  0.894517  1
  Cl  Cl113  1  0.772595  0.075834  0.605483  1
  Cl  Cl114  1  0.272595  0.424166  0.894517  1
  Cl  Cl115  1  0.227405  0.924166  0.605483  1
  Cl  Cl116  1  0.626915  0.707502  0.085829  1
  Cl  Cl117  1  0.126915  0.792498  0.414171  1
  Cl  Cl118  1  0.373085  0.292498  0.085829  1
  Cl  Cl119  1  0.873085  0.207502  0.414171  1
  Cl  Cl120  1  0.707502  0.373085  0.914171  1
  Cl  Cl121  1  0.792498  0.873085  0.585829  1
  Cl  Cl122  1  0.292498  0.626915  0.914171  1
  Cl  Cl123  1  0.207502  0.126915  0.585829  1
  Cl  Cl124  1  0.529815  0.612747  0.237919  1
  Cl  Cl125  1  0.029815  0.887253  0.262081  1
  Cl  Cl126  1  0.470185  0.387253  0.237919  1
  Cl  Cl127  1  0.970185  0.112747  0.262081  1
  Cl  Cl128  1  0.612747  0.470185  0.762081  1
  Cl  Cl129  1  0.887253  0.970185  0.737919  1
  Cl  Cl130  1  0.387253  0.529815  0.762081  1
  Cl  Cl131  1  0.112747  0.029815  0.737919  1
  Cl  Cl132  1  0.380562  0.799578  0.780358  1
  Cl  Cl133  1  0.880562  0.700422  0.719642  1
  Cl  Cl134  1  0.619438  0.200422  0.780358  1
  Cl  Cl135  1  0.119438  0.299578  0.719642  1
  Cl  Cl136  1  0.799578  0.619438  0.219642  1
  Cl  Cl137  1  0.700422  0.119438  0.280358  1
  Cl  Cl138  1  0.200422  0.380562  0.219642  1
  Cl  Cl139  1  0.299578  0.880562  0.280358  1
  Cl  Cl140  1  0.476809  0.886092  0.936951  1
  Cl  Cl141  1  0.976809  0.613908  0.563049  1
  Cl  Cl142  1  0.523191  0.113908  0.936951  1
  Cl  Cl143  1  0.023191  0.386092  0.563049  1
  Cl  Cl144  1  0.886092  0.523191  0.063049  1
  Cl  Cl145  1  0.613908  0.023191  0.436951  1
  Cl  Cl146  1  0.113908  0.476809  0.063049  1
  Cl  Cl147  1  0.386092  0.976809  0.436951  1
  Cl  Cl148  1  0.282368  0.842527  0.955490  1
  Cl  Cl149  1  0.782368  0.657473  0.544510  1
  Cl  Cl150  1  0.717632  0.157473  0.955490  1
  Cl  Cl151  1  0.217632  0.342527  0.544510  1
  Cl  Cl152  1  0.842527  0.717632  0.044510  1
  Cl  Cl153  1  0.657473  0.217632  0.455490  1
  Cl  Cl154  1  0.157473  0.282368  0.044510  1
  Cl  Cl155  1  0.342527  0.782368  0.455490  1
  Cl  Cl156  1  0.614680  0.491811  0.086493  1
  Cl  Cl157  1  0.114680  0.008189  0.413507  1
  Cl  Cl158  1  0.385320  0.508189  0.086493  1
  Cl  Cl159  1  0.885320  0.991811  0.413507  1
  Cl  Cl160  1  0.491811  0.385320  0.913507  1
  Cl  Cl161  1  0.008189  0.885320  0.586493  1
  Cl  Cl162  1  0.508189  0.614680  0.913507  1
  Cl  Cl163  1  0.991811  0.114680  0.586493  1
