# generated using pymatgen
data_TiMn5(PO4)6
_symmetry_space_group_name_H-M   'P 1'
_cell_length_a   8.64101129
_cell_length_b   8.62338711
_cell_length_c   8.62338726
_cell_angle_alpha   59.99999602
_cell_angle_beta   60.06744291
_cell_angle_gamma   60.06744380
_symmetry_Int_Tables_number   1
_chemical_formula_structural   TiMn5(PO4)6
_chemical_formula_sum   'Ti1 Mn5 P6 O24'
_cell_volume   454.82811736
_cell_formula_units_Z   1
loop_
 _symmetry_equiv_pos_site_id
 _symmetry_equiv_pos_as_xyz
  1  'x, y, z'
loop_
 _atom_site_type_symbol
 _atom_site_label
 _atom_site_symmetry_multiplicity
 _atom_site_fract_x
 _atom_site_fract_y
 _atom_site_fract_z
 _atom_site_occupancy
  Ti  Ti0  1  0.565803  0.144732  0.144732  1
  Mn  Mn1  1  0.001367  0.999544  0.999544  1
  Mn  Mn2  1  0.067736  0.644088  0.644088  1
  Mn  Mn3  1  0.502318  0.499227  0.499227  1
  Mn  Mn4  1  0.434602  0.855132  0.855132  1
  Mn  Mn5  1  0.933034  0.355655  0.355655  1
  P  P6  1  0.248737  0.249354  0.544186  1
  P  P7  1  0.248737  0.957725  0.249354  1
  P  P8  1  0.248737  0.544186  0.957725  1
  P  P9  1  0.750720  0.459167  0.041372  1
  P  P10  1  0.750720  0.041372  0.748739  1
  P  P11  1  0.750720  0.748739  0.459167  1
  O  O12  1  0.066592  0.115455  0.303955  1
  O  O13  1  0.066592  0.513998  0.115455  1
  O  O14  1  0.066592  0.303955  0.513998  1
  O  O15  1  0.238347  0.083096  0.737171  1
  O  O16  1  0.426874  0.188747  0.380124  1
  O  O17  1  0.270999  0.412185  0.553450  1
  O  O18  1  0.238347  0.941386  0.083096  1
  O  O19  1  0.270999  0.763365  0.412185  1
  O  O20  1  0.568322  0.618031  0.009551  1
  O  O21  1  0.270999  0.553450  0.763365  1
  O  O22  1  0.759480  0.263820  0.061319  1
  O  O23  1  0.568322  0.009551  0.804096  1
  O  O24  1  0.426874  0.004255  0.188747  1
  O  O25  1  0.238347  0.737171  0.941386  1
  O  O26  1  0.734627  0.441828  0.237637  1
  O  O27  1  0.426874  0.380124  0.004255  1
  O  O28  1  0.734627  0.237637  0.585908  1
  O  O29  1  0.759480  0.061319  0.915381  1
  O  O30  1  0.734627  0.585908  0.441828  1
  O  O31  1  0.568322  0.804096  0.618031  1
  O  O32  1  0.759480  0.915381  0.263820  1
  O  O33  1  0.933679  0.693317  0.488428  1
  O  O34  1  0.933679  0.488428  0.884575  1
  O  O35  1  0.933679  0.884575  0.693317  1
