# generated using pymatgen
data_Mn3NbNi2(PO4)6
_symmetry_space_group_name_H-M   'P 1'
_cell_length_a   8.56259077
_cell_length_b   8.56259139
_cell_length_c   8.56259091
_cell_angle_alpha   61.09517200
_cell_angle_beta   61.09517354
_cell_angle_gamma   61.09517183
_symmetry_Int_Tables_number   1
_chemical_formula_structural   Mn3NbNi2(PO4)6
_chemical_formula_sum   'Mn3 Nb1 Ni2 P6 O24'
_cell_volume   454.85951941
_cell_formula_units_Z   1
loop_
 _symmetry_equiv_pos_site_id
 _symmetry_equiv_pos_as_xyz
  1  'x, y, z'
loop_
 _atom_site_type_symbol
 _atom_site_label
 _atom_site_symmetry_multiplicity
 _atom_site_fract_x
 _atom_site_fract_y
 _atom_site_fract_z
 _atom_site_occupancy
  Mn  Mn0  1  0.145069  0.145069  0.145069  1
  Mn  Mn1  1  0.357473  0.357473  0.357473  1
  Mn  Mn2  1  0.643160  0.643160  0.643160  1
  Nb  Nb3  1  0.857257  0.857257  0.857257  1
  Ni  Ni4  1  0.004456  0.004456  0.004456  1
  Ni  Ni5  1  0.500887  0.500887  0.500887  1
  P  P6  1  0.047877  0.748267  0.446970  1
  P  P7  1  0.446970  0.047877  0.748267  1
  P  P8  1  0.748267  0.446970  0.047877  1
  P  P9  1  0.257054  0.540367  0.954384  1
  P  P10  1  0.540367  0.954384  0.257054  1
  P  P11  1  0.954384  0.257054  0.540367  1
  O  O12  1  0.108348  0.318067  0.510237  1
  O  O13  1  0.318067  0.510237  0.108348  1
  O  O14  1  0.062825  0.910505  0.254163  1
  O  O15  1  0.510237  0.108348  0.318067  1
  O  O16  1  0.990753  0.822390  0.611054  1
  O  O17  1  0.242749  0.594836  0.446235  1
  O  O18  1  0.254163  0.062825  0.910505  1
  O  O19  1  0.446235  0.242749  0.594836  1
  O  O20  1  0.186060  0.389168  0.990922  1
  O  O21  1  0.594836  0.446235  0.242749  1
  O  O22  1  0.093458  0.742662  0.934860  1
  O  O23  1  0.389168  0.990922  0.186060  1
  O  O24  1  0.611054  0.990753  0.822390  1
  O  O25  1  0.910505  0.254163  0.062825  1
  O  O26  1  0.409546  0.560454  0.754567  1
  O  O27  1  0.822390  0.611054  0.990753  1
  O  O28  1  0.560454  0.754567  0.409546  1
  O  O29  1  0.742662  0.934860  0.093458  1
  O  O30  1  0.754567  0.409546  0.560454  1
  O  O31  1  0.990922  0.186060  0.389168  1
  O  O32  1  0.487333  0.891118  0.684470  1
  O  O33  1  0.934860  0.093458  0.742662  1
  O  O34  1  0.684470  0.487333  0.891118  1
  O  O35  1  0.891118  0.684470  0.487333  1
