# generated using pymatgen
data_Co3C9SeO9
_symmetry_space_group_name_H-M   'P 1'
_cell_length_a   8.81973180
_cell_length_b   8.07571094
_cell_length_c   14.15424087
_cell_angle_alpha   94.62785490
_cell_angle_beta   125.27158630
_cell_angle_gamma   68.57276941
_symmetry_Int_Tables_number   1
_chemical_formula_structural   Co3C9SeO9
_chemical_formula_sum   'Co6 C18 Se2 O18'
_cell_volume   754.84460502
_cell_formula_units_Z   2
loop_
 _symmetry_equiv_pos_site_id
 _symmetry_equiv_pos_as_xyz
  1  'x, y, z'
loop_
 _atom_site_type_symbol
 _atom_site_label
 _atom_site_symmetry_multiplicity
 _atom_site_fract_x
 _atom_site_fract_y
 _atom_site_fract_z
 _atom_site_occupancy
  Co  Co0  1  0.420329  0.044303  0.691639  1
  Co  Co1  1  0.579671  0.955697  0.308361  1
  Co  Co2  1  0.727668  0.147787  0.790096  1
  Co  Co3  1  0.272332  0.852213  0.209904  1
  Co  Co4  1  0.387349  0.364190  0.764793  1
  Co  Co5  1  0.612651  0.635810  0.235207  1
  C  C6  1  0.312175  0.128792  0.545578  1
  C  C7  1  0.687825  0.871208  0.454422  1
  C  C8  1  0.269536  0.492065  0.627612  1
  C  C9  1  0.730464  0.507935  0.372388  1
  C  C10  1  0.656360  0.244737  0.655016  1
  C  C11  1  0.343640  0.755263  0.344984  1
  C  C12  1  0.564506  0.812003  0.707022  1
  C  C13  1  0.435494  0.187997  0.292978  1
  C  C14  1  0.208288  0.030142  0.673155  1
  C  C15  1  0.791712  0.969858  0.326845  1
  C  C16  1  0.172234  0.391041  0.760191  1
  C  C17  1  0.827766  0.608959  0.239809  1
  C  C18  1  0.487147  0.512394  0.861691  1
  C  C19  1  0.512853  0.487606  0.138309  1
  C  C20  1  0.879072  0.263841  0.890816  1
  C  C21  1  0.120928  0.736159  0.109184  1
  C  C22  1  0.915486  0.931793  0.817074  1
  C  C23  1  0.084514  0.068207  0.182926  1
  Se  Se24  1  0.604383  0.086895  0.882926  1
  Se  Se25  1  0.395617  0.913105  0.117074  1
  O  O26  1  0.237986  0.180916  0.448387  1
  O  O27  1  0.762014  0.819084  0.551613  1
  O  O28  1  0.185429  0.583649  0.538744  1
  O  O29  1  0.814571  0.416351  0.461256  1
  O  O30  1  0.616330  0.303164  0.567594  1
  O  O31  1  0.383670  0.696836  0.432406  1
  O  O32  1  0.648315  0.658863  0.715736  1
  O  O33  1  0.351685  0.341137  0.284264  1
  O  O34  1  0.073658  0.009806  0.659468  1
  O  O35  1  0.926342  0.990194  0.340532  1
  O  O36  1  0.034962  0.407111  0.758717  1
  O  O37  1  0.965038  0.592889  0.241283  1
  O  O38  1  0.544026  0.612395  0.923716  1
  O  O39  1  0.455974  0.387605  0.076284  1
  O  O40  1  0.983152  0.334114  0.956987  1
  O  O41  1  0.016848  0.665886  0.043013  1
  O  O42  1  0.044090  0.795432  0.836924  1
  O  O43  1  0.955910  0.204568  0.163076  1
