# generated using pymatgen
data_LiMn2O3F
_symmetry_space_group_name_H-M   'P 1'
_cell_length_a   6.11150069
_cell_length_b   7.93338431
_cell_length_c   7.93338431
_cell_angle_alpha   114.95712870
_cell_angle_beta   112.65467963
_cell_angle_gamma   67.34532037
_symmetry_Int_Tables_number   1
_chemical_formula_structural   LiMn2O3F
_chemical_formula_sum   'Li4 Mn8 O12 F4'
_cell_volume   310.21997464
_cell_formula_units_Z   4
loop_
 _symmetry_equiv_pos_site_id
 _symmetry_equiv_pos_as_xyz
  1  'x, y, z'
loop_
 _atom_site_type_symbol
 _atom_site_label
 _atom_site_symmetry_multiplicity
 _atom_site_fract_x
 _atom_site_fract_y
 _atom_site_fract_z
 _atom_site_occupancy
  Li  Li0  1  0.127294  0.271206  0.025793  1
  Li  Li1  1  0.372706  0.025793  0.271206  1
  Li  Li2  1  0.621119  0.990703  0.732939  1
  Li  Li3  1  0.878881  0.732939  0.990703  1
  Mn  Mn4  1  0.750000  0.235732  0.235732  1
  Mn  Mn5  1  0.499897  0.492672  0.992465  1
  Mn  Mn6  1  0.000103  0.992465  0.492672  1
  Mn  Mn7  1  0.882614  0.623052  0.374465  1
  Mn  Mn8  1  0.368799  0.623052  0.374465  1
  Mn  Mn9  1  0.131201  0.374465  0.623052  1
  Mn  Mn10  1  0.617386  0.374465  0.623052  1
  Mn  Mn11  1  0.250000  0.763030  0.763030  1
  O  O12  1  0.835469  0.397437  0.143652  1
  O  O13  1  0.089254  0.143652  0.397437  1
  O  O14  1  0.410746  0.397437  0.143652  1
  O  O15  1  0.664531  0.143652  0.397437  1
  O  O16  1  0.750000  0.503005  0.503005  1
  O  O17  1  0.483747  0.257674  0.725168  1
  O  O18  1  0.016253  0.725168  0.257674  1
  O  O19  1  0.250000  0.491958  0.491958  1
  O  O20  1  0.339029  0.853805  0.603521  1
  O  O21  1  0.589313  0.603521  0.853805  1
  O  O22  1  0.910687  0.853805  0.603521  1
  O  O23  1  0.160971  0.603521  0.853805  1
  F  F24  1  0.250000  0.010397  0.010397  1
  F  F25  1  0.500089  0.761470  0.261648  1
  F  F26  1  0.999911  0.261648  0.761470  1
  F  F27  1  0.750000  0.992275  0.992275  1
