# generated using pymatgen
data_CoPH16NO10
_symmetry_space_group_name_H-M   'P 1'
_cell_length_a   6.98591362
_cell_length_b   6.13774696
_cell_length_c   11.24202194
_cell_angle_alpha   90.00466930
_cell_angle_beta   89.99996995
_cell_angle_gamma   90.00006050
_symmetry_Int_Tables_number   1
_chemical_formula_structural   CoPH16NO10
_chemical_formula_sum   'Co2 P2 H32 N2 O20'
_cell_volume   482.03283001
_cell_formula_units_Z   2
loop_
 _symmetry_equiv_pos_site_id
 _symmetry_equiv_pos_as_xyz
  1  'x, y, z'
loop_
 _atom_site_type_symbol
 _atom_site_label
 _atom_site_symmetry_multiplicity
 _atom_site_fract_x
 _atom_site_fract_y
 _atom_site_fract_z
 _atom_site_occupancy
  Co  Co0  1  0.000002  0.622722  0.111018  1
  Co  Co1  1  0.499992  0.377397  0.611076  1
  P  P2  1  -0.000000  0.001290  0.485512  1
  P  P3  1  0.500000  0.998749  0.985522  1
  H  H4  1  0.999999  0.170287  0.149495  1
  H  H5  1  0.000000  0.272281  0.282574  1
  H  H6  1  0.000000  0.781710  0.708304  1
  H  H7  1  -0.000000  0.646392  0.844933  1
  H  H8  1  0.117186  0.008322  0.992659  1
  H  H9  1  0.120048  0.538761  0.732116  1
  H  H10  1  0.198498  0.790971  0.305660  1
  H  H11  1  0.179353  0.381858  0.470023  1
  H  H12  1  0.250086  0.368224  0.980582  1
  H  H13  1  0.179660  0.169804  0.685452  1
  H  H14  1  0.320247  0.830177  0.185439  1
  H  H15  1  0.249882  0.631812  0.480513  1
  H  H16  1  0.320585  0.618193  0.970008  1
  H  H17  1  0.301477  0.208950  0.805651  1
  H  H18  1  0.379939  0.461222  0.232117  1
  H  H19  1  0.382777  0.991629  0.492646  1
  H  H20  1  0.500000  0.218298  0.208304  1
  H  H21  1  0.500001  0.353619  0.344928  1
  H  H22  1  0.500000  0.727723  0.782585  1
  H  H23  1  0.500002  0.829782  0.649472  1
  H  H24  1  0.617222  0.991631  0.492646  1
  H  H25  1  0.620061  0.461222  0.232117  1
  H  H26  1  0.698522  0.208946  0.805650  1
  H  H27  1  0.679415  0.618193  0.970008  1
  H  H28  1  0.750123  0.631812  0.480516  1
  H  H29  1  0.679753  0.830177  0.185439  1
  H  H30  1  0.820341  0.169806  0.685452  1
  H  H31  1  0.749913  0.368224  0.980583  1
  H  H32  1  0.820645  0.381859  0.470023  1
  H  H33  1  0.801503  0.790971  0.305660  1
  H  H34  1  0.879951  0.538760  0.732116  1
  H  H35  1  0.882814  0.008322  0.992658  1
  N  N36  1  0.000000  0.630754  0.753611  1
  N  N37  1  0.500000  0.369245  0.253602  1
  O  O38  1  0.000001  0.307413  0.195327  1
  O  O39  1  -0.000000  0.952159  0.034924  1
  O  O40  1  0.000000  0.234441  0.430170  1
  O  O41  1  1.000000  0.020135  0.623788  1
  O  O42  1  0.182656  0.878459  0.442641  1
  O  O43  1  0.206570  0.523372  0.990196  1
  O  O44  1  0.225620  0.728505  0.224076  1
  O  O45  1  0.274279  0.271436  0.724113  1
  O  O46  1  0.293322  0.476672  0.490155  1
  O  O47  1  0.317357  0.121549  0.942656  1
  O  O48  1  0.500000  0.047838  0.534951  1
  O  O49  1  0.500000  0.979829  0.123785  1
  O  O50  1  0.500000  0.692588  0.695336  1
  O  O51  1  0.500000  0.765506  0.930158  1
  O  O52  1  0.682643  0.121549  0.942655  1
  O  O53  1  0.706677  0.476675  0.490152  1
  O  O54  1  0.725728  0.271443  0.724115  1
  O  O55  1  0.774377  0.728503  0.224077  1
  O  O56  1  0.793430  0.523372  0.990195  1
  O  O57  1  0.817344  0.878460  0.442641  1
