# generated using pymatgen
data_Li7Sc9Fe(SiO3)20
_symmetry_space_group_name_H-M   'P 1'
_cell_length_a   12.90077012
_cell_length_b   9.04978925
_cell_length_c   11.17835231
_cell_angle_alpha   66.12198204
_cell_angle_beta   75.28565267
_cell_angle_gamma   90.00000000
_symmetry_Int_Tables_number   1
_chemical_formula_structural   Li7Sc9Fe(SiO3)20
_chemical_formula_sum   'Li7 Sc9 Fe1 Si20 O60'
_cell_volume   1146.39947691
_cell_formula_units_Z   1
loop_
 _symmetry_equiv_pos_site_id
 _symmetry_equiv_pos_as_xyz
  1  'x, y, z'
loop_
 _atom_site_type_symbol
 _atom_site_label
 _atom_site_symmetry_multiplicity
 _atom_site_fract_x
 _atom_site_fract_y
 _atom_site_fract_z
 _atom_site_occupancy
  Li  Li0  1  0.050042  0.699293  0.099626  1
  Li  Li1  1  0.150760  0.099473  0.299543  1
  Li  Li2  1  0.250454  0.499733  0.501228  1
  Li  Li3  1  0.450000  0.303476  0.900000  1
  Li  Li4  1  0.649546  0.100961  0.298772  1
  Li  Li5  1  0.749240  0.499016  0.500457  1
  Li  Li6  1  0.849958  0.898919  0.700374  1
  Sc  Sc7  1  0.049613  0.063163  0.094410  1
  Sc  Sc8  1  0.150650  0.746364  0.298939  1
  Sc  Sc9  1  0.252089  0.858125  0.503961  1
  Sc  Sc10  1  0.350631  0.550167  0.702984  1
  Sc  Sc11  1  0.549369  0.353152  0.097016  1
  Sc  Sc12  1  0.647911  0.462086  0.296039  1
  Sc  Sc13  1  0.749350  0.145303  0.501061  1
  Sc  Sc14  1  0.850387  0.257573  0.705590  1
  Sc  Sc15  1  0.950000  0.947693  0.900000  1
  Fe  Fe16  1  0.450000  0.658882  0.900000  1
  Si  Si17  1  0.018444  0.599661  0.628055  1
  Si  Si18  1  0.082821  0.129460  0.569940  1
  Si  Si19  1  0.217664  0.400392  0.030344  1
  Si  Si20  1  0.115686  0.669074  0.830155  1
  Si  Si21  1  0.186284  0.196243  0.769747  1
  Si  Si22  1  0.317849  0.477182  0.224649  1
  Si  Si23  1  0.384060  0.000879  0.171287  1
  Si  Si24  1  0.285562  0.924548  0.970941  1
  Si  Si25  1  0.419642  0.203058  0.425335  1
  Si  Si26  1  0.480358  0.728393  0.374665  1
  Si  Si27  1  0.515940  0.272166  0.628713  1
  Si  Si28  1  0.582151  0.801831  0.575351  1
  Si  Si29  1  0.713716  0.065991  0.030253  1
  Si  Si30  1  0.614438  0.995490  0.829059  1
  Si  Si31  1  0.682336  0.530735  0.769656  1
  Si  Si32  1  0.817179  0.799401  0.230060  1
  Si  Si33  1  0.881556  0.327716  0.171945  1
  Si  Si34  1  0.784314  0.599229  0.969845  1
  Si  Si35  1  0.918366  0.874318  0.427943  1
  Si  Si36  1  0.981634  0.402261  0.372057  1
  O  O37  1  0.028082  0.592060  0.314666  1
  O  O38  1  0.035609  0.930521  0.309409  1
  O  O39  1  0.070441  0.287037  0.435231  1
  O  O40  1  0.167227  0.868822  0.088077  1
  O  O41  1  0.173569  0.210818  0.082615  1
  O  O42  1  0.026870  0.625150  0.762698  1
  O  O43  1  0.128706  0.996232  0.513399  1
  O  O44  1  0.136233  0.662192  0.510380  1
  O  O45  1  0.225090  0.422293  0.167353  1
  O  O46  1  0.070261  0.128147  0.888020  1
  O  O47  1  0.070102  0.803298  0.885653  1
  O  O48  1  0.172465  0.181797  0.632091  1
  O  O49  1  0.265766  0.941113  0.288027  1
  O  O50  1  0.272452  0.607837  0.284475  1
  O  O51  1  0.128876  0.513818  0.965867  1
  O  O52  1  0.372664  0.978966  0.035366  1
  O  O53  1  0.232505  0.385348  0.717956  1
  O  O54  1  0.231460  0.719596  0.711583  1
  O  O55  1  0.333008  0.319729  0.357735  1
  O  O56  1  0.429831  0.191438  0.112412  1
  O  O57  1  0.432561  0.525918  0.103524  1
  O  O58  1  0.274865  0.081377  0.835355  1
  O  O59  1  0.362379  0.671816  0.491661  1
  O  O60  1  0.375998  0.016355  0.468753  1
  O  O61  1  0.471419  0.888461  0.240396  1
  O  O62  1  0.329931  0.779754  0.927936  1
  O  O63  1  0.335800  0.462446  0.913268  1
  O  O64  1  0.428581  0.228856  0.559604  1
  O  O65  1  0.524002  0.585108  0.331247  1
  O  O66  1  0.537621  0.263477  0.308339  1
  O  O67  1  0.467439  0.729444  0.696476  1
  O  O68  1  0.470169  0.403851  0.687588  1
  O  O69  1  0.566992  0.777464  0.442265  1
  O  O70  1  0.668540  0.531179  0.088417  1
  O  O71  1  0.667495  0.203304  0.082044  1
  O  O72  1  0.527336  0.114332  0.764633  1
  O  O73  1  0.627548  0.992311  0.515525  1
  O  O74  1  0.634234  0.329141  0.511973  1
  O  O75  1  0.564200  0.475715  0.886732  1
  O  O76  1  0.727535  0.913887  0.167909  1
  O  O77  1  0.570069  0.807690  0.872064  1
  O  O78  1  0.674910  0.689646  0.632647  1
  O  O79  1  0.763767  0.272573  0.289620  1
  O  O80  1  0.771294  0.609632  0.286601  1
  O  O81  1  0.625135  0.016732  0.964645  1
  O  O82  1  0.873130  0.487849  0.037302  1
  O  O83  1  0.726431  0.393434  0.717385  1
  O  O84  1  0.732773  0.056899  0.711923  1
  O  O85  1  0.829559  0.822268  0.364769  1
  O  O86  1  0.924645  0.182959  0.130424  1
  O  O87  1  0.771124  0.579685  0.834133  1
  O  O88  1  0.934382  0.859771  0.111687  1
  O  O89  1  0.864391  0.339929  0.490591  1
  O  O90  1  0.871918  0.006726  0.485334  1
  O  O91  1  0.969892  0.379205  0.236894  1
  O  O92  1  0.829898  0.788951  0.914347  1
  O  O93  1  0.829739  0.116167  0.911980  1
  O  O94  1  0.930108  0.716099  0.563106  1
  O  O95  1  0.965618  0.071459  0.688313  1
  O  O96  1  0.975355  0.413381  0.669576  1
