# generated using pymatgen
data_Na3SiH5O6
_symmetry_space_group_name_H-M   'P 1'
_cell_length_a   10.58946832
_cell_length_b   10.16856524
_cell_length_c   11.42177508
_cell_angle_alpha   90.00000000
_cell_angle_beta   90.00000000
_cell_angle_gamma   90.00000000
_symmetry_Int_Tables_number   1
_chemical_formula_structural   Na3SiH5O6
_chemical_formula_sum   'Na24 Si8 H40 O48'
_cell_volume   1229.89330802
_cell_formula_units_Z   8
loop_
 _symmetry_equiv_pos_site_id
 _symmetry_equiv_pos_as_xyz
  1  'x, y, z'
loop_
 _atom_site_type_symbol
 _atom_site_label
 _atom_site_symmetry_multiplicity
 _atom_site_fract_x
 _atom_site_fract_y
 _atom_site_fract_z
 _atom_site_occupancy
  Na  Na0  1  0.607205  0.745145  0.070165  1
  Na  Na1  1  0.107205  0.754855  0.929835  1
  Na  Na2  1  0.392795  0.245145  0.429835  1
  Na  Na3  1  0.892795  0.254855  0.570165  1
  Na  Na4  1  0.392795  0.254855  0.929835  1
  Na  Na5  1  0.892795  0.245145  0.070165  1
  Na  Na6  1  0.607205  0.754855  0.570165  1
  Na  Na7  1  0.107205  0.745145  0.429835  1
  Na  Na8  1  0.612847  0.045132  0.920843  1
  Na  Na9  1  0.112847  0.454868  0.079157  1
  Na  Na10  1  0.387153  0.545132  0.579157  1
  Na  Na11  1  0.887153  0.954868  0.420843  1
  Na  Na12  1  0.387153  0.954868  0.079157  1
  Na  Na13  1  0.887153  0.545132  0.920843  1
  Na  Na14  1  0.612847  0.454868  0.420843  1
  Na  Na15  1  0.112847  0.045132  0.579157  1
  Na  Na16  1  0.047087  0.951070  0.156874  1
  Na  Na17  1  0.547087  0.548930  0.843126  1
  Na  Na18  1  0.952913  0.451070  0.343126  1
  Na  Na19  1  0.452913  0.048930  0.656874  1
  Na  Na20  1  0.952913  0.048930  0.843126  1
  Na  Na21  1  0.452913  0.451070  0.156874  1
  Na  Na22  1  0.047087  0.548930  0.656874  1
  Na  Na23  1  0.547087  0.951070  0.343126  1
  Si  Si24  1  0.747663  0.015957  0.146954  1
  Si  Si25  1  0.247663  0.484043  0.853046  1
  Si  Si26  1  0.252337  0.515957  0.353046  1
  Si  Si27  1  0.752337  0.984043  0.646954  1
  Si  Si28  1  0.252337  0.984043  0.853046  1
  Si  Si29  1  0.752337  0.515957  0.146954  1
  Si  Si30  1  0.747663  0.484043  0.646954  1
  Si  Si31  1  0.247663  0.015957  0.353046  1
  H  H32  1  0.801875  0.811733  0.218915  1
  H  H33  1  0.301875  0.688267  0.781085  1
  H  H34  1  0.198125  0.311733  0.281085  1
  H  H35  1  0.698125  0.188267  0.718915  1
  H  H36  1  0.198125  0.188267  0.781085  1
  H  H37  1  0.698125  0.311733  0.218915  1
  H  H38  1  0.801875  0.688267  0.718915  1
  H  H39  1  0.301875  0.811733  0.281085  1
  H  H40  1  0.366286  0.189717  0.191023  1
  H  H41  1  0.866286  0.310283  0.808978  1
  H  H42  1  0.633714  0.689717  0.308978  1
  H  H43  1  0.133714  0.810283  0.691022  1
  H  H44  1  0.633714  0.810283  0.808978  1
  H  H45  1  0.133714  0.689717  0.191023  1
  H  H46  1  0.366286  0.310283  0.691022  1
  H  H47  1  0.866286  0.189717  0.308978  1
  H  H48  1  0.513840  0.189332  0.154122  1
  H  H49  1  0.013840  0.310668  0.845878  1
  H  H50  1  0.486160  0.689332  0.345878  1
  H  H51  1  0.986160  0.810668  0.654122  1
  H  H52  1  0.486160  0.810668  0.845878  1
  H  H53  1  0.986160  0.689332  0.154122  1
  H  H54  1  0.513840  0.310668  0.654122  1
  H  H55  1  0.013840  0.189332  0.345878  1
  H  H56  1  0.834279  0.820833  0.843803  1
  H  H57  1  0.334279  0.679167  0.156197  1
  H  H58  1  0.165721  0.320833  0.656197  1
  H  H59  1  0.665721  0.179167  0.343803  1
  H  H60  1  0.165721  0.179167  0.156197  1
  H  H61  1  0.665721  0.320833  0.843803  1
  H  H62  1  0.834279  0.679167  0.343803  1
  H  H63  1  0.334279  0.820833  0.656197  1
  H  H64  1  0.860767  0.887912  0.966828  1
  H  H65  1  0.360767  0.612088  0.033172  1
  H  H66  1  0.139233  0.387912  0.533172  1
  H  H67  1  0.639233  0.112088  0.466828  1
  H  H68  1  0.139233  0.112088  0.033172  1
  H  H69  1  0.639233  0.387912  0.966828  1
  H  H70  1  0.860767  0.612088  0.466828  1
  H  H71  1  0.360767  0.887912  0.533172  1
  O  O72  1  0.602620  0.965423  0.134314  1
  O  O73  1  0.102620  0.534577  0.865686  1
  O  O74  1  0.397380  0.465423  0.365686  1
  O  O75  1  0.897380  0.034577  0.634314  1
  O  O76  1  0.397380  0.034577  0.865686  1
  O  O77  1  0.897380  0.465423  0.134314  1
  O  O78  1  0.602620  0.534577  0.634314  1
  O  O79  1  0.102620  0.965423  0.365686  1
  O  O80  1  0.821200  0.028751  0.021456  1
  O  O81  1  0.321200  0.471249  0.978544  1
  O  O82  1  0.178800  0.528751  0.478544  1
  O  O83  1  0.678800  0.971249  0.521456  1
  O  O84  1  0.178800  0.971249  0.978544  1
  O  O85  1  0.678800  0.528751  0.021456  1
  O  O86  1  0.821200  0.471249  0.521456  1
  O  O87  1  0.321200  0.028751  0.478544  1
  O  O88  1  0.759988  0.154755  0.222520  1
  O  O89  1  0.259988  0.345245  0.777480  1
  O  O90  1  0.240012  0.654755  0.277480  1
  O  O91  1  0.740012  0.845245  0.722520  1
  O  O92  1  0.240012  0.845245  0.777480  1
  O  O93  1  0.740012  0.654755  0.222520  1
  O  O94  1  0.759988  0.345245  0.722520  1
  O  O95  1  0.259988  0.154755  0.277480  1
  O  O96  1  0.831884  0.904520  0.228524  1
  O  O97  1  0.331884  0.595480  0.771476  1
  O  O98  1  0.168116  0.404520  0.271476  1
  O  O99  1  0.668116  0.095480  0.728524  1
  O  O100  1  0.168116  0.095480  0.771476  1
  O  O101  1  0.668116  0.404520  0.228524  1
  O  O102  1  0.831884  0.595480  0.728524  1
  O  O103  1  0.331884  0.904520  0.271476  1
  O  O104  1  0.430604  0.218678  0.128295  1
  O  O105  1  0.930604  0.281322  0.871705  1
  O  O106  1  0.569396  0.718678  0.371705  1
  O  O107  1  0.069396  0.781322  0.628295  1
  O  O108  1  0.569396  0.781322  0.871705  1
  O  O109  1  0.069396  0.718678  0.128295  1
  O  O110  1  0.430604  0.281322  0.628295  1
  O  O111  1  0.930604  0.218678  0.371705  1
  O  O112  1  0.891039  0.812886  0.913998  1
  O  O113  1  0.391039  0.687114  0.086002  1
  O  O114  1  0.108961  0.312886  0.586002  1
  O  O115  1  0.608961  0.187114  0.413998  1
  O  O116  1  0.108961  0.187114  0.086002  1
  O  O117  1  0.608961  0.312886  0.913998  1
  O  O118  1  0.891039  0.687114  0.413998  1
  O  O119  1  0.391039  0.812886  0.586002  1
