# generated using pymatgen
data_Na2FePCO7
_symmetry_space_group_name_H-M   'P 1'
_cell_length_a   8.95327037
_cell_length_b   10.47406216
_cell_length_c   6.53492271
_cell_angle_alpha   90.00000000
_cell_angle_beta   90.00000000
_cell_angle_gamma   89.75332281
_symmetry_Int_Tables_number   1
_chemical_formula_structural   Na2FePCO7
_chemical_formula_sum   'Na8 Fe4 P4 C4 O28'
_cell_volume   612.82048853
_cell_formula_units_Z   4
loop_
 _symmetry_equiv_pos_site_id
 _symmetry_equiv_pos_as_xyz
  1  'x, y, z'
loop_
 _atom_site_type_symbol
 _atom_site_label
 _atom_site_symmetry_multiplicity
 _atom_site_fract_x
 _atom_site_fract_y
 _atom_site_fract_z
 _atom_site_occupancy
  Na  Na0  1  0.080308  0.382484  0.240251  1
  Na  Na1  1  0.080308  0.882484  0.259749  1
  Na  Na2  1  0.263121  0.125803  0.012776  1
  Na  Na3  1  0.263121  0.625803  0.487224  1
  Na  Na4  1  0.736879  0.374197  0.512776  1
  Na  Na5  1  0.736879  0.874197  0.987224  1
  Na  Na6  1  0.919692  0.117516  0.740251  1
  Na  Na7  1  0.919692  0.617516  0.759749  1
  Fe  Fe8  1  0.346419  0.392425  0.755515  1
  Fe  Fe9  1  0.346419  0.892425  0.744485  1
  Fe  Fe10  1  0.653581  0.107575  0.255515  1
  Fe  Fe11  1  0.653581  0.607575  0.244485  1
  P  P12  1  0.423788  0.354191  0.251950  1
  P  P13  1  0.423788  0.854191  0.248050  1
  P  P14  1  0.576212  0.145809  0.751950  1
  P  P15  1  0.576212  0.645809  0.748050  1
  C  C16  1  0.064589  0.364802  0.744489  1
  C  C17  1  0.064589  0.864802  0.755511  1
  C  C18  1  0.935411  0.135198  0.244489  1
  C  C19  1  0.935411  0.635198  0.255511  1
  O  O20  1  0.076433  0.148675  0.237974  1
  O  O21  1  0.076433  0.648675  0.262026  1
  O  O22  1  0.128424  0.477573  0.734868  1
  O  O23  1  0.128424  0.977573  0.765132  1
  O  O24  1  0.156644  0.268007  0.762674  1
  O  O25  1  0.156644  0.768007  0.737326  1
  O  O26  1  0.323601  0.378746  0.061915  1
  O  O27  1  0.324146  0.389003  0.438798  1
  O  O28  1  0.324146  0.889003  0.061202  1
  O  O29  1  0.323601  0.878746  0.438085  1
  O  O30  1  0.431337  0.066004  0.753107  1
  O  O31  1  0.431337  0.566004  0.746893  1
  O  O32  1  0.468097  0.210083  0.251091  1
  O  O33  1  0.468097  0.710083  0.248909  1
  O  O34  1  0.531903  0.289917  0.751091  1
  O  O35  1  0.531903  0.789917  0.748909  1
  O  O36  1  0.568663  0.433996  0.253107  1
  O  O37  1  0.568663  0.933996  0.246893  1
  O  O38  1  0.676399  0.121254  0.561915  1
  O  O39  1  0.675854  0.110997  0.938798  1
  O  O40  1  0.675854  0.610997  0.561202  1
  O  O41  1  0.676399  0.621254  0.938085  1
  O  O42  1  0.843357  0.231993  0.262674  1
  O  O43  1  0.843357  0.731993  0.237326  1
  O  O44  1  0.871576  0.022427  0.234868  1
  O  O45  1  0.871576  0.522427  0.265132  1
  O  O46  1  0.923567  0.351325  0.737974  1
  O  O47  1  0.923567  0.851325  0.762026  1
