# generated using pymatgen
data_Ba3Y2Cl12
_symmetry_space_group_name_H-M   'P 1'
_cell_length_a   12.02072367
_cell_length_b   12.88034670
_cell_length_c   16.40639714
_cell_angle_alpha   90.00000000
_cell_angle_beta   95.80445859
_cell_angle_gamma   90.00000000
_symmetry_Int_Tables_number   1
_chemical_formula_structural   Ba3Y2Cl12
_chemical_formula_sum   'Ba12 Y8 Cl48'
_cell_volume   2527.19621547
_cell_formula_units_Z   4
loop_
 _symmetry_equiv_pos_site_id
 _symmetry_equiv_pos_as_xyz
  1  'x, y, z'
loop_
 _atom_site_type_symbol
 _atom_site_label
 _atom_site_symmetry_multiplicity
 _atom_site_fract_x
 _atom_site_fract_y
 _atom_site_fract_z
 _atom_site_occupancy
  Ba  Ba0  1  0.047312  0.205190  0.476635  1
  Ba  Ba1  1  0.135759  0.131327  0.853351  1
  Ba  Ba2  1  0.139510  0.345612  0.101854  1
  Ba  Ba3  1  0.364241  0.631327  0.646649  1
  Ba  Ba4  1  0.360490  0.845612  0.398146  1
  Ba  Ba5  1  0.452688  0.705190  0.023365  1
  Ba  Ba6  1  0.547312  0.294810  0.976635  1
  Ba  Ba7  1  0.639510  0.154388  0.601854  1
  Ba  Ba8  1  0.635759  0.368673  0.353351  1
  Ba  Ba9  1  0.860490  0.654388  0.898146  1
  Ba  Ba10  1  0.864241  0.868673  0.146649  1
  Ba  Ba11  1  0.952688  0.794810  0.523365  1
  Y  Y12  1  0.233494  0.482048  0.863856  1
  Y  Y13  1  0.266506  0.982048  0.636144  1
  Y  Y14  1  0.245683  0.530853  0.358455  1
  Y  Y15  1  0.254317  0.030853  0.141545  1
  Y  Y16  1  0.745683  0.969147  0.858455  1
  Y  Y17  1  0.754317  0.469147  0.641545  1
  Y  Y18  1  0.733494  0.017952  0.363856  1
  Y  Y19  1  0.766506  0.517952  0.136144  1
  Cl  Cl20  1  0.120491  0.627063  0.930070  1
  Cl  Cl21  1  0.120933  0.652576  0.449540  1
  Cl  Cl22  1  0.154040  0.803131  0.658804  1
  Cl  Cl23  1  0.101985  0.926858  0.212209  1
  Cl  Cl24  1  0.111034  0.125890  0.655087  1
  Cl  Cl25  1  0.077216  0.353252  0.907259  1
  Cl  Cl26  1  0.087511  0.114753  0.035039  1
  Cl  Cl27  1  0.087564  0.476635  0.246170  1
  Cl  Cl28  1  0.210754  0.191384  0.234192  1
  Cl  Cl29  1  0.217330  0.371609  0.457040  1
  Cl  Cl30  1  0.309081  0.986343  0.793732  1
  Cl  Cl31  1  0.345614  0.465054  0.020286  1
  Cl  Cl32  1  0.190919  0.486343  0.706268  1
  Cl  Cl33  1  0.154386  0.965054  0.479714  1
  Cl  Cl34  1  0.282670  0.871609  0.042960  1
  Cl  Cl35  1  0.289246  0.691384  0.265808  1
  Cl  Cl36  1  0.412489  0.614753  0.464961  1
  Cl  Cl37  1  0.422784  0.853252  0.592741  1
  Cl  Cl38  1  0.412436  0.976635  0.253830  1
  Cl  Cl39  1  0.388966  0.625890  0.844913  1
  Cl  Cl40  1  0.345960  0.303131  0.841196  1
  Cl  Cl41  1  0.379509  0.127063  0.569930  1
  Cl  Cl42  1  0.398015  0.426858  0.287791  1
  Cl  Cl43  1  0.379067  0.152576  0.050460  1
  Cl  Cl44  1  0.620933  0.847424  0.949540  1
  Cl  Cl45  1  0.601985  0.573142  0.712209  1
  Cl  Cl46  1  0.620491  0.872937  0.430070  1
  Cl  Cl47  1  0.654040  0.696869  0.158804  1
  Cl  Cl48  1  0.611034  0.374110  0.155087  1
  Cl  Cl49  1  0.587564  0.023365  0.746170  1
  Cl  Cl50  1  0.577216  0.146748  0.407259  1
  Cl  Cl51  1  0.587511  0.385247  0.535039  1
  Cl  Cl52  1  0.710754  0.308616  0.734192  1
  Cl  Cl53  1  0.717330  0.128391  0.957040  1
  Cl  Cl54  1  0.845614  0.034946  0.520286  1
  Cl  Cl55  1  0.809081  0.513657  0.293732  1
  Cl  Cl56  1  0.654386  0.534946  0.979714  1
  Cl  Cl57  1  0.690919  0.013657  0.206268  1
  Cl  Cl58  1  0.782670  0.628391  0.542960  1
  Cl  Cl59  1  0.789246  0.808616  0.765808  1
  Cl  Cl60  1  0.912436  0.523365  0.753830  1
  Cl  Cl61  1  0.912489  0.885247  0.964961  1
  Cl  Cl62  1  0.922784  0.646748  0.092741  1
  Cl  Cl63  1  0.888966  0.874110  0.344913  1
  Cl  Cl64  1  0.898015  0.073142  0.787791  1
  Cl  Cl65  1  0.845960  0.196869  0.341196  1
  Cl  Cl66  1  0.879067  0.347424  0.550460  1
  Cl  Cl67  1  0.879509  0.372937  0.069930  1
