# generated using pymatgen
data_Li4V2Cr3Co3O16
_symmetry_space_group_name_H-M   'P 1'
_cell_length_a   5.82394963
_cell_length_b   5.82860566
_cell_length_c   9.30407784
_cell_angle_alpha   90.00500595
_cell_angle_beta   89.75520498
_cell_angle_gamma   120.02863089
_symmetry_Int_Tables_number   1
_chemical_formula_structural   Li4V2Cr3Co3O16
_chemical_formula_sum   'Li4 V2 Cr3 Co3 O16'
_cell_volume   273.43600519
_cell_formula_units_Z   1
loop_
 _symmetry_equiv_pos_site_id
 _symmetry_equiv_pos_as_xyz
  1  'x, y, z'
loop_
 _atom_site_type_symbol
 _atom_site_label
 _atom_site_symmetry_multiplicity
 _atom_site_fract_x
 _atom_site_fract_y
 _atom_site_fract_z
 _atom_site_occupancy
  Li  Li0  1  0.338121  0.669098  0.893484  1
  Li  Li1  1  0.988578  0.994308  0.992332  1
  Li  Li2  1  0.989279  0.994638  0.497731  1
  Li  Li3  1  0.671504  0.335756  0.399300  1
  V  V4  1  0.333068  0.666500  0.498306  1
  V  V5  1  0.666229  0.333103  0.993201  1
  Cr  Cr6  1  0.172419  0.828451  0.214869  1
  Cr  Cr7  1  0.172495  0.343999  0.214879  1
  Cr  Cr8  1  0.343447  0.171724  0.715698  1
  Co  Co9  1  0.654048  0.827033  0.218110  1
  Co  Co10  1  0.827035  0.654880  0.715013  1
  Co  Co11  1  0.827027  0.172176  0.715033  1
  O  O12  1  0.169931  0.823715  0.593057  1
  O  O13  1  0.045399  0.522698  0.346583  1
  O  O14  1  0.336776  0.668444  0.100654  1
  O  O15  1  0.997012  0.998470  0.308608  1
  O  O16  1  0.988310  0.994142  0.805002  1
  O  O17  1  0.169930  0.346197  0.593045  1
  O  O18  1  0.480992  0.958967  0.347861  1
  O  O19  1  0.480994  0.522027  0.347929  1
  O  O20  1  0.344638  0.172327  0.088109  1
  O  O21  1  0.650032  0.825038  0.597945  1
  O  O22  1  0.531934  0.485149  0.842946  1
  O  O23  1  0.531955  0.046847  0.842949  1
  O  O24  1  0.678023  0.339033  0.609011  1
  O  O25  1  0.828346  0.650024  0.090315  1
  O  O26  1  0.954116  0.477067  0.835571  1
  O  O27  1  0.828359  0.178486  0.090300  1
