# generated using pymatgen
data_Ti3Mn2V(PO4)6
_symmetry_space_group_name_H-M   'P 1'
_cell_length_a   8.68386489
_cell_length_b   8.66733652
_cell_length_c   8.66733677
_cell_angle_alpha   60.00000188
_cell_angle_beta   60.06293676
_cell_angle_gamma   60.06294032
_symmetry_Int_Tables_number   1
_chemical_formula_structural   Ti3Mn2V(PO4)6
_chemical_formula_sum   'Ti3 Mn2 V1 P6 O24'
_cell_volume   461.72340891
_cell_formula_units_Z   1
loop_
 _symmetry_equiv_pos_site_id
 _symmetry_equiv_pos_as_xyz
  1  'x, y, z'
loop_
 _atom_site_type_symbol
 _atom_site_label
 _atom_site_symmetry_multiplicity
 _atom_site_fract_x
 _atom_site_fract_y
 _atom_site_fract_z
 _atom_site_occupancy
  Ti  Ti0  1  0.062645  0.645785  0.645785  1
  Ti  Ti1  1  0.435147  0.854951  0.854951  1
  Ti  Ti2  1  0.939612  0.353463  0.353463  1
  Mn  Mn3  1  0.998706  0.000432  0.000432  1
  Mn  Mn4  1  0.497880  0.500706  0.500706  1
  V  V5  1  0.571099  0.142967  0.142967  1
  P  P6  1  0.251975  0.249585  0.542266  1
  P  P7  1  0.251975  0.956174  0.249585  1
  P  P8  1  0.251975  0.542266  0.956174  1
  P  P9  1  0.750143  0.456745  0.043846  1
  P  P10  1  0.750143  0.043846  0.749265  1
  P  P11  1  0.750143  0.749265  0.456745  1
  O  O12  1  0.070970  0.119424  0.309570  1
  O  O13  1  0.070970  0.500035  0.119424  1
  O  O14  1  0.070970  0.309570  0.500035  1
  O  O15  1  0.235109  0.086359  0.737336  1
  O  O16  1  0.427934  0.194096  0.387457  1
  O  O17  1  0.257070  0.415591  0.564378  1
  O  O18  1  0.235109  0.941194  0.086359  1
  O  O19  1  0.257070  0.762959  0.415591  1
  O  O20  1  0.571771  0.619045  0.000506  1
  O  O21  1  0.257070  0.564378  0.762959  1
  O  O22  1  0.769444  0.265463  0.056582  1
  O  O23  1  0.571771  0.000506  0.808678  1
  O  O24  1  0.427934  0.990513  0.194096  1
  O  O25  1  0.235109  0.737336  0.941194  1
  O  O26  1  0.736585  0.444243  0.235758  1
  O  O27  1  0.427934  0.387457  0.990513  1
  O  O28  1  0.736585  0.235758  0.583414  1
  O  O29  1  0.769444  0.056582  0.908511  1
  O  O30  1  0.736585  0.583414  0.444243  1
  O  O31  1  0.571771  0.808678  0.619045  1
  O  O32  1  0.769444  0.908511  0.265463  1
  O  O33  1  0.927300  0.686467  0.503721  1
  O  O34  1  0.927300  0.503721  0.882512  1
  O  O35  1  0.927300  0.882512  0.686467  1
