# generated using pymatgen
data_SrLa7TiGa7O24
_symmetry_space_group_name_H-M   'P 1'
_cell_length_a   5.53913897
_cell_length_b   5.53913908
_cell_length_c   44.34266761
_cell_angle_alpha   60.65523175
_cell_angle_beta   60.65523111
_cell_angle_gamma   60.62630183
_symmetry_Int_Tables_number   1
_chemical_formula_structural   SrLa7TiGa7O24
_chemical_formula_sum   'Sr2 La14 Ti2 Ga14 O48'
_cell_volume   976.05880355
_cell_formula_units_Z   2
loop_
 _symmetry_equiv_pos_site_id
 _symmetry_equiv_pos_as_xyz
  1  'x, y, z'
loop_
 _atom_site_type_symbol
 _atom_site_label
 _atom_site_symmetry_multiplicity
 _atom_site_fract_x
 _atom_site_fract_y
 _atom_site_fract_z
 _atom_site_occupancy
  Sr  Sr0  1  0.252698  0.251147  0.030332  1
  Sr  Sr1  1  0.248853  0.247302  0.157168  1
  La  La2  1  0.249495  0.250769  0.281190  1
  La  La3  1  0.750690  0.749310  0.093750  1
  La  La4  1  0.249917  0.250038  0.406256  1
  La  La5  1  0.748375  0.747224  0.219665  1
  La  La6  1  0.250059  0.250058  0.531229  1
  La  La7  1  0.750010  0.750447  0.343674  1
  La  La8  1  0.249942  0.249941  0.656271  1
  La  La9  1  0.750068  0.750064  0.468726  1
  La  La10  1  0.249962  0.250083  0.781244  1
  La  La11  1  0.749999  0.750001  0.593750  1
  La  La12  1  0.249231  0.250505  0.906310  1
  La  La13  1  0.749936  0.749932  0.718774  1
  La  La14  1  0.749553  0.749990  0.843826  1
  La  La15  1  0.752776  0.751625  0.967835  1
  Ti  Ti16  1  0.995898  0.995705  0.126223  1
  Ti  Ti17  1  0.504295  0.504102  0.061277  1
  Ga  Ga18  1  0.999497  0.003791  0.999320  1
  Ga  Ga19  1  0.003118  0.999279  0.249421  1
  Ga  Ga20  1  0.496209  0.500503  0.188180  1
  Ga  Ga21  1  0.000028  0.000033  0.499989  1
  Ga  Ga22  1  0.500016  0.499624  0.312576  1
  Ga  Ga23  1  0.500031  0.500030  0.437490  1
  Ga  Ga24  1  0.000105  0.999913  0.374991  1
  Ga  Ga25  1  0.999985  0.999987  0.625005  1
  Ga  Ga26  1  0.500013  0.500015  0.562495  1
  Ga  Ga27  1  0.499967  0.499972  0.687511  1
  Ga  Ga28  1  0.000376  -0.000016  0.874924  1
  Ga  Ga29  1  0.500087  0.499895  0.812509  1
  Ga  Ga30  1  0.999970  0.999969  0.750010  1
  Ga  Ga31  1  0.500721  0.496882  0.938079  1
  O  O32  1  0.187315  0.312685  0.093750  1
  O  O33  1  0.311692  0.744964  0.024315  1
  O  O34  1  0.250306  0.801974  0.087223  1
  O  O35  1  0.745784  0.186691  0.040088  1
  O  O36  1  0.183991  0.316525  0.219195  1
  O  O37  1  0.698026  0.249694  0.100277  1
  O  O38  1  0.313309  0.754216  0.147412  1
  O  O39  1  0.798513  0.693826  0.032361  1
  O  O40  1  0.251709  0.802940  0.211783  1
  O  O41  1  0.755036  0.188308  0.163185  1
  O  O42  1  0.184404  0.315632  0.343754  1
  O  O43  1  0.685737  0.249277  0.226720  1
  O  O44  1  0.315953  0.750165  0.273112  1
  O  O45  1  0.806174  0.701487  0.155139  1
  O  O46  1  0.249790  0.815427  0.335597  1
  O  O47  1  0.750546  0.184898  0.289196  1
  O  O48  1  0.184466  0.315509  0.468754  1
  O  O49  1  0.684553  0.249892  0.351945  1
  O  O50  1  0.315560  0.750033  0.398056  1
  O  O51  1  0.814368  0.685285  0.281226  1
  O  O52  1  0.249982  0.815524  0.460563  1
  O  O53  1  0.750000  0.184466  0.414439  1
  O  O54  1  0.184473  0.315527  0.593750  1
  O  O55  1  0.684465  0.249970  0.476947  1
  O  O56  1  0.315517  0.750002  0.523061  1
  O  O57  1  0.815465  0.684473  0.406258  1
  O  O58  1  0.250003  0.815534  0.585558  1
  O  O59  1  0.749977  0.184480  0.539444  1
  O  O60  1  0.184491  0.315534  0.718746  1
  O  O61  1  0.684466  0.249997  0.601942  1
  O  O62  1  0.315520  0.750023  0.648056  1
  O  O63  1  0.815506  0.684470  0.531253  1
  O  O64  1  0.250030  0.815535  0.710553  1
  O  O65  1  0.749998  0.184483  0.664439  1
  O  O66  1  0.184368  0.315596  0.843746  1
  O  O67  1  0.684476  0.250018  0.726937  1
  O  O68  1  0.315534  0.750000  0.773061  1
  O  O69  1  0.815530  0.684494  0.656247  1
  O  O70  1  0.250108  0.815447  0.835555  1
  O  O71  1  0.749967  0.184440  0.789444  1
  O  O72  1  0.183475  0.316009  0.968305  1
  O  O73  1  0.684573  0.250210  0.851903  1
  O  O74  1  0.315102  0.749454  0.898304  1
  O  O75  1  0.815527  0.684535  0.781242  1
  O  O76  1  0.250723  0.814263  0.960780  1
  O  O77  1  0.749835  0.184047  0.914388  1
  O  O78  1  0.697060  0.248291  0.975717  1
  O  O79  1  0.814715  0.685632  0.906274  1
