# generated using pymatgen
data_Li8Mn7Fe(BO3)8
_symmetry_space_group_name_H-M   'P 1'
_cell_length_a   6.06640289
_cell_length_b   9.86521230
_cell_length_c   9.03025216
_cell_angle_alpha   98.42881153
_cell_angle_beta   102.75663839
_cell_angle_gamma   79.22036423
_symmetry_Int_Tables_number   1
_chemical_formula_structural   Li8Mn7Fe(BO3)8
_chemical_formula_sum   'Li8 Mn7 Fe1 B8 O24'
_cell_volume   514.65145132
_cell_formula_units_Z   1
loop_
 _symmetry_equiv_pos_site_id
 _symmetry_equiv_pos_as_xyz
  1  'x, y, z'
loop_
 _atom_site_type_symbol
 _atom_site_label
 _atom_site_symmetry_multiplicity
 _atom_site_fract_x
 _atom_site_fract_y
 _atom_site_fract_z
 _atom_site_occupancy
  Li  Li0  1  0.972729  0.702128  0.034457  1
  Li  Li1  1  0.721480  0.951267  0.532787  1
  Li  Li2  1  0.778500  0.549663  0.465235  1
  Li  Li3  1  0.471917  0.201585  0.034254  1
  Li  Li4  1  0.528334  0.798356  0.965902  1
  Li  Li5  1  0.221275  0.451669  0.533549  1
  Li  Li6  1  0.278450  0.047793  0.465622  1
  Li  Li7  1  0.029317  0.298227  0.967706  1
  Mn  Mn8  1  0.788345  0.976346  0.206465  1
  Mn  Mn9  1  0.962042  0.273055  0.293983  1
  Mn  Mn10  1  0.712491  0.522497  0.794450  1
  Mn  Mn11  1  0.538623  0.227003  0.705960  1
  Mn  Mn12  1  0.291234  0.479288  0.207122  1
  Mn  Mn13  1  0.038677  0.726739  0.705932  1
  Mn  Mn14  1  0.210510  0.023535  0.794058  1
  Fe  Fe15  1  0.462634  0.774854  0.297581  1
  B  B16  1  0.983033  0.279291  0.632254  1
  B  B17  1  0.732267  0.531173  0.132492  1
  B  B18  1  0.766497  0.970545  0.867357  1
  B  B19  1  0.482952  0.777861  0.630951  1
  B  B20  1  0.516831  0.220542  0.367296  1
  B  B21  1  0.233383  0.027049  0.133299  1
  B  B22  1  0.267128  0.470550  0.867852  1
  B  B23  1  0.016940  0.721186  0.367429  1
  O  O24  1  0.904572  0.415926  0.135534  1
  O  O25  1  0.841407  0.834869  0.365166  1
  O  O26  1  0.886234  0.938228  0.746541  1
  O  O27  1  0.932991  0.364464  0.516470  1
  O  O28  1  0.683874  0.614938  0.015623  1
  O  O29  1  0.815925  0.886039  0.983620  1
  O  O30  1  0.863847  0.310891  0.753372  1
  O  O31  1  0.611229  0.565976  0.252784  1
  O  O32  1  0.658102  0.664377  0.634986  1
  O  O33  1  0.405319  0.911586  0.136031  1
  O  O34  1  0.637343  0.188040  0.247088  1
  O  O35  1  0.432512  0.860317  0.511875  1
  O  O36  1  0.565578  0.135695  0.483470  1
  O  O37  1  0.363073  0.812553  0.751330  1
  O  O38  1  0.592128  0.084869  0.864868  1
  O  O39  1  0.342958  0.335141  0.364657  1
  O  O40  1  0.387066  0.438413  0.747149  1
  O  O41  1  0.137924  0.689883  0.247534  1
  O  O42  1  0.186156  0.112149  0.017346  1
  O  O43  1  0.316137  0.386020  0.984115  1
  O  O44  1  0.066908  0.636151  0.483564  1
  O  O45  1  0.112968  0.061412  0.253488  1
  O  O46  1  0.157310  0.164920  0.634132  1
  O  O47  1  0.092857  0.584939  0.865267  1
