# generated using pymatgen
data_LiFe2(BO3)2
_symmetry_space_group_name_H-M   'P 1'
_cell_length_a   5.23957583
_cell_length_b   9.16961180
_cell_length_c   10.18843598
_cell_angle_alpha   91.23332203
_cell_angle_beta   90.54269932
_cell_angle_gamma   89.51447167
_symmetry_Int_Tables_number   1
_chemical_formula_structural   LiFe2(BO3)2
_chemical_formula_sum   'Li4 Fe8 B8 O24'
_cell_volume   489.35004879
_cell_formula_units_Z   4
loop_
 _symmetry_equiv_pos_site_id
 _symmetry_equiv_pos_as_xyz
  1  'x, y, z'
loop_
 _atom_site_type_symbol
 _atom_site_label
 _atom_site_symmetry_multiplicity
 _atom_site_fract_x
 _atom_site_fract_y
 _atom_site_fract_z
 _atom_site_occupancy
  Li  Li0  1  0.842030  0.832457  0.642628  1
  Li  Li1  1  0.669889  0.682015  0.909025  1
  Li  Li2  1  0.344854  0.320169  0.654057  1
  Li  Li3  1  0.160777  0.166271  0.361435  1
  Fe  Fe4  1  0.848021  0.161413  0.629811  1
  Fe  Fe5  1  0.821032  0.502345  0.136983  1
  Fe  Fe6  1  0.676579  0.011531  0.881811  1
  Fe  Fe7  1  0.668312  0.342232  0.377301  1
  Fe  Fe8  1  0.334533  0.661354  0.625856  1
  Fe  Fe9  1  0.331873  0.990731  0.128672  1
  Fe  Fe10  1  0.163125  0.831223  0.373815  1
  Fe  Fe11  1  0.171156  0.503874  0.888003  1
  B  B12  1  0.831022  0.501907  0.630536  1
  B  B13  1  0.823959  0.162782  0.142561  1
  B  B14  1  0.668175  0.007105  0.381254  1
  B  B15  1  0.674367  0.342214  0.866544  1
  B  B16  1  0.347357  -0.005094  0.627318  1
  B  B17  1  0.339350  0.671520  0.117734  1
  B  B18  1  0.164981  0.494010  0.390941  1
  B  B19  1  0.164398  0.827745  0.876358  1
  O  O20  1  0.912458  0.495932  0.349863  1
  O  O21  1  0.908107  0.831850  0.856935  1
  O  O22  1  0.794042  0.214232  0.834768  1
  O  O23  1  0.777681  0.144803  0.418074  1
  O  O24  1  0.804652  0.884877  0.397496  1
  O  O25  1  0.812581  0.464388  0.910906  1
  O  O26  1  0.697467  0.631680  0.644345  1
  O  O27  1  0.670974  0.056430  0.085502  1
  O  O28  1  0.711262  0.375372  0.587538  1
  O  O29  1  0.712978  0.295143  0.184049  1
  O  O30  1  0.592956  0.665463  0.097447  1
  O  O31  1  0.599622  0.990886  0.665913  1
  O  O32  1  0.415556  0.009176  0.334134  1
  O  O33  1  0.413183  0.357900  0.848287  1
  O  O34  1  0.303838  0.696340  0.833355  1
  O  O35  1  0.274796  0.623252  0.436238  1
  O  O36  1  0.303025  0.365128  0.388820  1
  O  O37  1  0.309579  0.936932  0.933315  1
  O  O38  1  0.182888  0.555070  0.076352  1
  O  O39  1  0.218136  0.124961  0.612739  1
  O  O40  1  0.219660  0.861197  0.599562  1
  O  O41  1  0.219947  0.794607  0.171516  1
  O  O42  1  0.079394  0.139121  0.163543  1
  O  O43  1  0.092463  0.497872  0.665143  1
