# generated using pymatgen
data_Li2Cu4S3
_symmetry_space_group_name_H-M   'P 1'
_cell_length_a   8.45304220
_cell_length_b   10.77249361
_cell_length_c   6.36249193
_cell_angle_alpha   90.00000000
_cell_angle_beta   90.00000000
_cell_angle_gamma   90.00000000
_symmetry_Int_Tables_number   1
_chemical_formula_structural   Li2Cu4S3
_chemical_formula_sum   'Li8 Cu16 S12'
_cell_volume   579.37069802
_cell_formula_units_Z   4
loop_
 _symmetry_equiv_pos_site_id
 _symmetry_equiv_pos_as_xyz
  1  'x, y, z'
loop_
 _atom_site_type_symbol
 _atom_site_label
 _atom_site_symmetry_multiplicity
 _atom_site_fract_x
 _atom_site_fract_y
 _atom_site_fract_z
 _atom_site_occupancy
  Li  Li0  1  0.000000  0.000000  0.000000  1
  Li  Li1  1  0.000000  0.500000  0.000000  1
  Li  Li2  1  0.025107  0.750000  0.610339  1
  Li  Li3  1  0.474893  0.250000  0.110339  1
  Li  Li4  1  0.500000  0.000000  0.500000  1
  Li  Li5  1  0.500000  0.500000  0.500000  1
  Li  Li6  1  0.525107  0.750000  0.889661  1
  Li  Li7  1  0.974893  0.250000  0.389661  1
  Cu  Cu8  1  0.169867  0.085167  0.627563  1
  Cu  Cu9  1  0.169867  0.414833  0.627563  1
  Cu  Cu10  1  0.140742  0.750000  0.986091  1
  Cu  Cu11  1  0.162833  0.250000  0.060219  1
  Cu  Cu12  1  0.337167  0.750000  0.560219  1
  Cu  Cu13  1  0.359258  0.250000  0.486091  1
  Cu  Cu14  1  0.330133  0.585167  0.127563  1
  Cu  Cu15  1  0.330133  0.914833  0.127563  1
  Cu  Cu16  1  0.669867  0.085167  0.872437  1
  Cu  Cu17  1  0.669867  0.414833  0.872437  1
  Cu  Cu18  1  0.640742  0.750000  0.513909  1
  Cu  Cu19  1  0.662833  0.250000  0.439781  1
  Cu  Cu20  1  0.837167  0.750000  0.939781  1
  Cu  Cu21  1  0.859258  0.250000  0.013909  1
  Cu  Cu22  1  0.830133  0.585167  0.372437  1
  Cu  Cu23  1  0.830133  0.914833  0.372437  1
  S  S24  1  0.037325  0.250000  0.754731  1
  S  S25  1  0.251157  0.591264  0.777443  1
  S  S26  1  0.251157  0.908736  0.777443  1
  S  S27  1  0.248843  0.091264  0.277443  1
  S  S28  1  0.248843  0.408735  0.277443  1
  S  S29  1  0.462675  0.750000  0.254731  1
  S  S30  1  0.537325  0.250000  0.745269  1
  S  S31  1  0.751157  0.591264  0.722557  1
  S  S32  1  0.751157  0.908736  0.722557  1
  S  S33  1  0.748843  0.091264  0.222557  1
  S  S34  1  0.748843  0.408735  0.222557  1
  S  S35  1  0.962675  0.750000  0.245269  1
