# generated using pymatgen
data_MgH24C6N12(ClO6)2
_symmetry_space_group_name_H-M   'P 1'
_cell_length_a   10.56958911
_cell_length_b   7.43771267
_cell_length_c   14.81182764
_cell_angle_alpha   90.00000000
_cell_angle_beta   101.36202224
_cell_angle_gamma   90.00000000
_symmetry_Int_Tables_number   1
_chemical_formula_structural   MgH24C6N12(ClO6)2
_chemical_formula_sum   'Mg2 H48 C12 N24 Cl4 O24'
_cell_volume   1141.59045303
_cell_formula_units_Z   2
loop_
 _symmetry_equiv_pos_site_id
 _symmetry_equiv_pos_as_xyz
  1  'x, y, z'
loop_
 _atom_site_type_symbol
 _atom_site_label
 _atom_site_symmetry_multiplicity
 _atom_site_fract_x
 _atom_site_fract_y
 _atom_site_fract_z
 _atom_site_occupancy
  Mg  Mg0  1  0.500000  0.500000  0.500000  1
  Mg  Mg1  1  0.000000  0.000000  0.000000  1
  H  H2  1  0.414577  0.814331  0.744160  1
  H  H3  1  0.914577  0.685669  0.244160  1
  H  H4  1  0.585423  0.185669  0.255840  1
  H  H5  1  0.085423  0.314331  0.755840  1
  H  H6  1  0.425376  0.617290  0.682263  1
  H  H7  1  0.925376  0.882710  0.182263  1
  H  H8  1  0.574624  0.382710  0.317737  1
  H  H9  1  0.074624  0.117290  0.817737  1
  H  H10  1  0.458362  0.093526  0.683635  1
  H  H11  1  0.958362  0.406474  0.183635  1
  H  H12  1  0.541638  0.906474  0.316365  1
  H  H13  1  0.041638  0.593526  0.816365  1
  H  H14  1  0.500535  0.100648  0.574384  1
  H  H15  1  0.000535  0.399352  0.074384  1
  H  H16  1  0.499465  0.899352  0.425616  1
  H  H17  1  0.999465  0.600648  0.925616  1
  H  H18  1  0.153683  0.120664  0.460827  1
  H  H19  1  0.653683  0.379336  0.960827  1
  H  H20  1  0.846317  0.879336  0.539173  1
  H  H21  1  0.346317  0.620664  0.039173  1
  H  H22  1  0.313787  0.173106  0.452581  1
  H  H23  1  0.813787  0.326894  0.952581  1
  H  H24  1  0.686213  0.826894  0.547419  1
  H  H25  1  0.186213  0.673106  0.047419  1
  H  H26  1  0.054562  0.294673  0.553371  1
  H  H27  1  0.554562  0.205327  0.053371  1
  H  H28  1  0.945438  0.705327  0.446629  1
  H  H29  1  0.445438  0.794673  0.946629  1
  H  H30  1  0.132880  0.478248  0.615619  1
  H  H31  1  0.632880  0.021752  0.115619  1
  H  H32  1  0.867120  0.521752  0.384381  1
  H  H33  1  0.367120  0.978248  0.884381  1
  H  H34  1  0.863468  0.176977  0.636839  1
  H  H35  1  0.363468  0.323023  0.136839  1
  H  H36  1  0.136532  0.823023  0.363161  1
  H  H37  1  0.636532  0.676977  0.863161  1
  H  H38  1  0.779950  0.295421  0.542706  1
  H  H39  1  0.279950  0.204579  0.042706  1
  H  H40  1  0.220050  0.704579  0.457294  1
  H  H41  1  0.720050  0.795421  0.957294  1
  H  H42  1  0.797122  0.195499  0.779702  1
  H  H43  1  0.297122  0.304501  0.279702  1
  H  H44  1  0.202878  0.804501  0.220298  1
  H  H45  1  0.702878  0.695499  0.720298  1
  H  H46  1  0.661173  0.326603  0.787477  1
  H  H47  1  0.161173  0.173397  0.287477  1
  H  H48  1  0.338827  0.673397  0.212523  1
  H  H49  1  0.838827  0.826603  0.712523  1
  C  C50  1  0.467558  0.848726  0.618531  1
  C  C51  1  0.967558  0.651274  0.118531  1
  C  C52  1  0.532442  0.151274  0.381469  1
  C  C53  1  0.032442  0.348726  0.881469  1
  C  C54  1  0.239555  0.337320  0.537762  1
  C  C55  1  0.739555  0.162680  0.037762  1
  C  C56  1  0.760445  0.662680  0.462238  1
  C  C57  1  0.260445  0.837320  0.962238  1
  C  C58  1  0.709879  0.332167  0.661405  1
  C  C59  1  0.209879  0.167833  0.161405  1
  C  C60  1  0.290121  0.667833  0.338595  1
  C  C61  1  0.790121  0.832167  0.838595  1
  N  N62  1  0.433886  0.753005  0.687513  1
  N  N63  1  0.933886  0.746995  0.187513  1
  N  N64  1  0.566114  0.246995  0.312487  1
  N  N65  1  0.066114  0.253005  0.812487  1
  N  N66  1  0.479784  0.027766  0.627999  1
  N  N67  1  0.979784  0.472234  0.127999  1
  N  N68  1  0.520216  0.972234  0.372001  1
  N  N69  1  0.020216  0.527766  0.872001  1
  N  N70  1  0.231876  0.202461  0.476001  1
  N  N71  1  0.731876  0.297539  0.976001  1
  N  N72  1  0.768124  0.797539  0.523999  1
  N  N73  1  0.268124  0.702461  0.023999  1
  N  N74  1  0.137186  0.362550  0.579032  1
  N  N75  1  0.637186  0.137450  0.079032  1
  N  N76  1  0.862814  0.637450  0.420968  1
  N  N77  1  0.362814  0.862550  0.920968  1
  N  N78  1  0.791612  0.263759  0.610491  1
  N  N79  1  0.291612  0.236241  0.110491  1
  N  N80  1  0.208388  0.736241  0.389509  1
  N  N81  1  0.708388  0.763759  0.889509  1
  N  N82  1  0.728532  0.285129  0.751262  1
  N  N83  1  0.228532  0.214871  0.251262  1
  N  N84  1  0.271468  0.714871  0.248738  1
  N  N85  1  0.771468  0.785129  0.748738  1
  Cl  Cl86  1  0.889074  0.143634  0.343450  1
  Cl  Cl87  1  0.389074  0.356366  0.843450  1
  Cl  Cl88  1  0.110925  0.856366  0.656550  1
  Cl  Cl89  1  0.610926  0.643634  0.156550  1
  O  O90  1  0.007140  0.036705  0.333014  1
  O  O91  1  0.507140  0.463295  0.833014  1
  O  O92  1  0.992860  0.963295  0.666986  1
  O  O93  1  0.492860  0.536705  0.166986  1
  O  O94  1  0.898781  0.175190  0.444514  1
  O  O95  1  0.398781  0.324810  0.944514  1
  O  O96  1  0.101219  0.824810  0.555486  1
  O  O97  1  0.601219  0.675190  0.055486  1
  O  O98  1  0.897949  0.324271  0.298090  1
  O  O99  1  0.397949  0.175729  0.798090  1
  O  O100  1  0.102051  0.675729  0.701910  1
  O  O101  1  0.602051  0.824271  0.201910  1
  O  O102  1  0.491366  0.770382  0.546536  1
  O  O103  1  0.991366  0.729618  0.046536  1
  O  O104  1  0.508634  0.229618  0.453464  1
  O  O105  1  0.008634  0.270382  0.953464  1
  O  O106  1  0.338859  0.436936  0.557493  1
  O  O107  1  0.838859  0.063064  0.057493  1
  O  O108  1  0.661141  0.563064  0.442507  1
  O  O109  1  0.161141  0.936936  0.942507  1
  O  O110  1  0.618643  0.438371  0.627665  1
  O  O111  1  0.118643  0.061629  0.127665  1
  O  O112  1  0.381357  0.561629  0.372335  1
  O  O113  1  0.881357  0.938371  0.872335  1
