# generated using pymatgen
data_NaFe9Si6B3H2O31
_symmetry_space_group_name_H-M   'P 1'
_cell_length_a   9.79767264
_cell_length_b   9.79767283
_cell_length_c   9.80117032
_cell_angle_alpha   113.66615255
_cell_angle_beta   113.66615306
_cell_angle_gamma   113.31276072
_symmetry_Int_Tables_number   1
_chemical_formula_structural   NaFe9Si6B3H2O31
_chemical_formula_sum   'Na1 Fe9 Si6 B3 H2 O31'
_cell_volume   590.26690420
_cell_formula_units_Z   1
loop_
 _symmetry_equiv_pos_site_id
 _symmetry_equiv_pos_as_xyz
  1  'x, y, z'
loop_
 _atom_site_type_symbol
 _atom_site_label
 _atom_site_symmetry_multiplicity
 _atom_site_fract_x
 _atom_site_fract_y
 _atom_site_fract_z
 _atom_site_occupancy
  Na  Na0  1  0.233868  0.233868  0.237449  1
  Fe  Fe1  1  0.353259  0.566318  0.904683  1
  Fe  Fe2  1  0.352670  0.911772  0.578895  1
  Fe  Fe3  1  0.589800  0.764810  0.586643  1
  Fe  Fe4  1  0.576935  0.576935  0.766778  1
  Fe  Fe5  1  0.576452  0.910098  0.348573  1
  Fe  Fe6  1  0.566318  0.353259  0.904683  1
  Fe  Fe7  1  0.764810  0.589800  0.586643  1
  Fe  Fe8  1  0.911772  0.352670  0.578895  1
  Fe  Fe9  1  0.910098  0.576452  0.348573  1
  Si  Si10  1  0.188880  0.998533  0.812526  1
  Si  Si11  1  0.190587  0.812184  0.999190  1
  Si  Si12  1  0.813905  0.000396  0.188615  1
  Si  Si13  1  0.812184  0.190587  0.999190  1
  Si  Si14  1  0.998533  0.188880  0.812526  1
  Si  Si15  1  0.000396  0.813905  0.188615  1
  B  B16  1  0.237236  0.564514  0.565316  1
  B  B17  1  0.564707  0.564707  0.238292  1
  B  B18  1  0.564514  0.237236  0.565316  1
  H  H19  1  0.265884  0.634938  0.265411  1
  H  H20  1  0.634938  0.265884  0.265411  1
  O  O21  1  0.267397  0.994090  0.994561  1
  O  O22  1  0.076114  0.793214  0.355444  1
  O  O23  1  0.075763  0.356491  0.794830  1
  O  O24  1  0.171746  0.503020  0.646745  1
  O  O25  1  0.173700  0.646088  0.499807  1
  O  O26  1  0.161320  0.161320  0.886563  1
  O  O27  1  0.164926  0.887611  0.163556  1
  O  O28  1  0.600629  0.781843  0.977701  1
  O  O29  1  0.601115  0.980707  0.778628  1
  O  O30  1  0.396411  0.396411  0.781115  1
  O  O31  1  0.387060  0.772533  0.387138  1
  O  O32  1  0.367114  0.549526  0.551957  1
  O  O33  1  0.358723  0.794395  0.076615  1
  O  O34  1  0.356491  0.075763  0.794830  1
  O  O35  1  0.781843  0.600629  0.977701  1
  O  O36  1  0.777489  0.979062  0.601235  1
  O  O37  1  0.773232  0.773232  0.785287  1
  O  O38  1  0.503020  0.171746  0.646745  1
  O  O39  1  0.502678  0.647746  0.175272  1
  O  O40  1  0.549526  0.367114  0.551957  1
  O  O41  1  0.545874  0.545874  0.363400  1
  O  O42  1  0.647746  0.502678  0.175272  1
  O  O43  1  0.646088  0.173700  0.499807  1
  O  O44  1  0.979062  0.777489  0.601235  1
  O  O45  1  0.980707  0.601115  0.778628  1
  O  O46  1  0.772533  0.387060  0.387138  1
  O  O47  1  0.994090  0.267397  0.994561  1
  O  O48  1  0.992736  0.992736  0.262532  1
  O  O49  1  0.793214  0.076114  0.355444  1
  O  O50  1  0.794395  0.358723  0.076615  1
  O  O51  1  0.887611  0.164926  0.163556  1
