# generated using pymatgen
data_Sr(IO3)2
_symmetry_space_group_name_H-M   'P 1'
_cell_length_a   7.69930523
_cell_length_b   7.69930523
_cell_length_c   7.38755835
_cell_angle_alpha   79.91287353
_cell_angle_beta   65.78750545
_cell_angle_gamma   116.00376346
_symmetry_Int_Tables_number   1
_chemical_formula_structural   Sr(IO3)2
_chemical_formula_sum   'Sr2 I4 O12'
_cell_volume   323.56937302
_cell_formula_units_Z   2
loop_
 _symmetry_equiv_pos_site_id
 _symmetry_equiv_pos_as_xyz
  1  'x, y, z'
loop_
 _atom_site_type_symbol
 _atom_site_label
 _atom_site_symmetry_multiplicity
 _atom_site_fract_x
 _atom_site_fract_y
 _atom_site_fract_z
 _atom_site_occupancy
  Sr  Sr0  1  0.093139  0.343139  0.250000  1
  Sr  Sr1  1  0.906861  0.656861  0.750000  1
  I  I2  1  0.049247  0.842154  0.162997  1
  I  I3  1  0.494849  0.787755  0.662997  1
  I  I4  1  0.505151  0.212245  0.337003  1
  I  I5  1  0.950753  0.157846  0.837003  1
  O  O6  1  0.340644  0.922433  0.415788  1
  O  O7  1  0.208232  0.712562  0.878093  1
  O  O8  1  0.049461  0.415609  0.643652  1
  O  O9  1  0.559259  0.693113  0.856348  1
  O  O10  1  0.161779  0.243568  0.915788  1
  O  O11  1  0.909345  0.913676  0.378093  1
  O  O12  1  0.090655  0.086324  0.621907  1
  O  O13  1  0.838221  0.756432  0.084212  1
  O  O14  1  0.440741  0.306887  0.143652  1
  O  O15  1  0.950539  0.584391  0.356348  1
  O  O16  1  0.791768  0.287438  0.121907  1
  O  O17  1  0.659356  0.077567  0.584212  1
