# generated using pymatgen
data_LiFe2(BO3)2
_symmetry_space_group_name_H-M   'P 1'
_cell_length_a   5.27630210
_cell_length_b   9.09859707
_cell_length_c   11.35488493
_cell_angle_alpha   66.33521911
_cell_angle_beta   77.45920186
_cell_angle_gamma   89.55140102
_symmetry_Int_Tables_number   1
_chemical_formula_structural   LiFe2(BO3)2
_chemical_formula_sum   'Li4 Fe8 B8 O24'
_cell_volume   485.44055334
_cell_formula_units_Z   4
loop_
 _symmetry_equiv_pos_site_id
 _symmetry_equiv_pos_as_xyz
  1  'x, y, z'
loop_
 _atom_site_type_symbol
 _atom_site_label
 _atom_site_symmetry_multiplicity
 _atom_site_fract_x
 _atom_site_fract_y
 _atom_site_fract_z
 _atom_site_occupancy
  Li  Li0  1  0.972829  0.966571  0.400902  1
  Li  Li1  1  0.731331  0.752369  0.160418  1
  Li  Li2  1  0.016930  0.993070  0.663865  1
  Li  Li3  1  0.244905  0.263975  0.142801  1
  Fe  Fe4  1  0.985917  0.641831  0.381160  1
  Fe  Fe5  1  0.728107  0.069655  0.875831  1
  Fe  Fe6  1  0.530274  0.835097  0.635782  1
  Fe  Fe7  1  0.751288  0.442638  0.124514  1
  Fe  Fe8  1  0.231191  0.561660  0.876828  1
  Fe  Fe9  1  0.481069  0.151506  0.383122  1
  Fe  Fe10  1  0.027270  0.348816  0.632441  1
  Fe  Fe11  1  0.253791  0.942010  0.122755  1
  B  B12  1  0.975158  0.310846  0.377185  1
  B  B13  1  0.726979  0.392981  0.883000  1
  B  B14  1  0.516537  0.180323  0.630693  1
  B  B15  1  0.758138  0.101816  0.133360  1
  B  B16  1  0.486832  0.820840  0.372111  1
  B  B17  1  0.237895  0.897497  0.874946  1
  B  B18  1  0.032334  0.692999  0.620695  1
  B  B19  1  0.262501  0.602625  0.130754  1
  O  O20  1  0.990500  0.928371  0.857520  1
  O  O21  1  0.853719  0.284062  0.838686  1
  O  O22  1  0.868770  0.485146  0.922890  1
  O  O23  1  0.917207  0.835843  0.603418  1
  O  O24  1  0.942712  0.589437  0.572803  1
  O  O25  1  0.752525  0.145658  0.672881  1
  O  O26  1  0.741293  0.321557  0.338906  1
  O  O27  1  0.466174  0.403850  0.894330  1
  O  O28  1  0.362934  0.778560  0.843330  1
  O  O29  1  0.571111  0.930756  0.416238  1
  O  O30  1  0.652459  0.712921  0.351508  1
  O  O31  1  0.367207  0.986411  0.922094  1
  O  O32  1  0.662086  0.000535  0.083134  1
  O  O33  1  0.383051  0.302896  0.636637  1
  O  O34  1  0.423991  0.073379  0.581168  1
  O  O35  1  0.588202  0.200546  0.176070  1
  O  O36  1  0.519881  0.610855  0.129409  1
  O  O37  1  0.241825  0.657501  0.679860  1
  O  O38  1  0.239529  0.829214  0.344173  1
  O  O39  1  0.054984  0.420943  0.419432  1
  O  O40  1  0.126493  0.187333  0.369856  1
  O  O41  1  0.154176  0.496443  0.089578  1
  O  O42  1  0.096922  0.702339  0.176113  1
  O  O43  1  0.010587  0.100994  0.145682  1
