# generated using pymatgen
data_VOF
_symmetry_space_group_name_H-M   'P 1'
_cell_length_a   4.75421357
_cell_length_b   14.19985211
_cell_length_c   3.10357568
_cell_angle_alpha   90.00002863
_cell_angle_beta   90.00004827
_cell_angle_gamma   90.00088136
_symmetry_Int_Tables_number   1
_chemical_formula_structural   VOF
_chemical_formula_sum   'V6 O6 F6'
_cell_volume   209.51969277
_cell_formula_units_Z   6
loop_
 _symmetry_equiv_pos_site_id
 _symmetry_equiv_pos_as_xyz
  1  'x, y, z'
loop_
 _atom_site_type_symbol
 _atom_site_label
 _atom_site_symmetry_multiplicity
 _atom_site_fract_x
 _atom_site_fract_y
 _atom_site_fract_z
 _atom_site_occupancy
  V  V0  1  0.977813  0.000294  0.000002  1
  V  V1  1  0.076784  0.332763  0.000004  1
  V  V2  1  0.981423  0.666955  0.000004  1
  V  V3  1  0.518586  0.166948  0.499998  1
  V  V4  1  0.522198  0.500292  0.499999  1
  V  V5  1  0.423208  0.832778  0.499997  1
  O  O6  1  0.235524  0.265160  0.500001  1
  O  O7  1  0.168210  0.935155  0.499998  1
  O  O8  1  0.264444  0.765181  0.000001  1
  O  O9  1  0.331776  0.435133  0.999999  1
  O  O10  1  0.703656  0.567416  0.999999  1
  O  O11  1  0.796340  0.067431  0.499997  1
  F  F12  1  0.191117  0.601643  0.500000  1
  F  F13  1  0.308901  0.101644  0.999998  1
  F  F14  1  0.725255  0.234856  -0.000000  1
  F  F15  1  0.665668  0.895759  0.000001  1
  F  F16  1  0.834343  0.395736  0.500001  1
  F  F17  1  0.774753  0.734856  0.500001  1
