# generated using pymatgen
data_Ca9LaTi4Mn6O30
_symmetry_space_group_name_H-M   'P 1'
_cell_length_a   5.39542917
_cell_length_b   5.44179071
_cell_length_c   38.35644327
_cell_angle_alpha   90.05426435
_cell_angle_beta   90.00295854
_cell_angle_gamma   89.89620779
_symmetry_Int_Tables_number   1
_chemical_formula_structural   Ca9LaTi4Mn6O30
_chemical_formula_sum   'Ca18 La2 Ti8 Mn12 O60'
_cell_volume   1126.17336580
_cell_formula_units_Z   2
loop_
 _symmetry_equiv_pos_site_id
 _symmetry_equiv_pos_as_xyz
  1  'x, y, z'
loop_
 _atom_site_type_symbol
 _atom_site_label
 _atom_site_symmetry_multiplicity
 _atom_site_fract_x
 _atom_site_fract_y
 _atom_site_fract_z
 _atom_site_occupancy
  Ca  Ca0  1  0.013091  0.965689  0.150273  1
  Ca  Ca1  1  0.013181  0.967323  0.349608  1
  Ca  Ca2  1  0.012335  0.965887  0.550028  1
  Ca  Ca3  1  0.013372  0.965953  0.749827  1
  Ca  Ca4  1  0.492620  0.459705  0.348645  1
  Ca  Ca5  1  0.491769  0.459045  0.150110  1
  Ca  Ca6  1  0.491321  0.460290  0.551340  1
  Ca  Ca7  1  0.492559  0.459886  0.750019  1
  Ca  Ca8  1  0.491671  0.464023  0.948425  1
  Ca  Ca9  1  0.506963  0.538295  0.050602  1
  Ca  Ca10  1  0.507839  0.541032  0.249516  1
  Ca  Ca11  1  0.507441  0.540060  0.650313  1
  Ca  Ca12  1  0.509886  0.536835  0.849777  1
  Ca  Ca13  1  0.987688  0.033768  0.051206  1
  Ca  Ca14  1  0.986460  0.034611  0.249768  1
  Ca  Ca15  1  0.986124  0.034547  0.649989  1
  Ca  Ca16  1  0.989840  0.033610  0.451704  1
  Ca  Ca17  1  0.987996  0.037217  0.848808  1
  La  La18  1  0.005661  0.974966  0.948399  1
  La  La19  1  0.503585  0.527195  0.451578  1
  Ti  Ti20  1  0.999855  0.499056  0.001073  1
  Ti  Ti21  1  0.998963  0.499919  0.100589  1
  Ti  Ti22  1  0.999831  0.499887  0.199912  1
  Ti  Ti23  1  0.000526  0.501331  0.299190  1
  Ti  Ti24  1  0.999360  0.499284  0.398682  1
  Ti  Ti25  1  0.001330  0.500327  0.600385  1
  Ti  Ti26  1  0.999944  0.499887  0.700027  1
  Ti  Ti27  1  0.999122  0.501961  0.799710  1
  Mn  Mn28  1  0.999514  0.500541  0.501680  1
  Mn  Mn29  1  0.001683  0.499548  0.898469  1
  Mn  Mn30  1  0.499958  0.999278  0.100246  1
  Mn  Mn31  1  0.498705  0.999673  0.000809  1
  Mn  Mn32  1  0.498856  0.000372  0.299687  1
  Mn  Mn33  1  0.500267  0.000120  0.199936  1
  Mn  Mn34  1  0.502327  0.999257  0.399292  1
  Mn  Mn35  1  0.500383  0.000168  0.501815  1
  Mn  Mn36  1  0.499349  0.000202  0.600585  1
  Mn  Mn37  1  0.501274  0.000108  0.898096  1
  Mn  Mn38  1  0.500159  0.000040  0.700061  1
  Mn  Mn39  1  0.499607  0.999664  0.799540  1
  O  O40  1  0.072242  0.485585  0.049727  1
  O  O41  1  0.073567  0.484483  0.249936  1
  O  O42  1  0.059386  0.487672  0.450828  1
  O  O43  1  0.071891  0.484560  0.649918  1
  O  O44  1  0.074349  0.485891  0.850176  1
  O  O45  1  0.219362  0.217174  0.191698  1
  O  O46  1  0.225251  0.221525  0.392310  1
  O  O47  1  0.217930  0.215320  0.591947  1
  O  O48  1  0.218126  0.215881  0.108057  1
  O  O49  1  0.219066  0.215878  0.791970  1
  O  O50  1  0.218038  0.217109  0.308358  1
  O  O51  1  0.224042  0.219510  0.992566  1
  O  O52  1  0.220906  0.220414  0.508372  1
  O  O53  1  0.220163  0.216728  0.708322  1
  O  O54  1  0.223638  0.222967  0.906958  1
  O  O55  1  0.284291  0.718192  0.108006  1
  O  O56  1  0.284786  0.718721  0.191869  1
  O  O57  1  0.283177  0.719970  0.308053  1
  O  O58  1  0.287570  0.718542  0.392584  1
  O  O59  1  0.283821  0.720245  0.592347  1
  O  O60  1  0.287668  0.714330  0.508163  1
  O  O61  1  0.281999  0.721291  0.991717  1
  O  O62  1  0.285510  0.719495  0.708201  1
  O  O63  1  0.284895  0.719154  0.791767  1
  O  O64  1  0.280884  0.720056  0.908017  1
  O  O65  1  0.417918  0.979796  0.050241  1
  O  O66  1  0.416415  0.981642  0.249873  1
  O  O67  1  0.414531  0.980594  0.650364  1
  O  O68  1  0.424493  0.993838  0.450116  1
  O  O69  1  0.417622  0.978893  0.848928  1
  O  O70  1  0.582690  0.017265  0.349745  1
  O  O71  1  0.583026  0.018652  0.150084  1
  O  O72  1  0.582475  0.017752  0.551088  1
  O  O73  1  0.585176  0.019837  0.749798  1
  O  O74  1  0.563928  0.014264  0.949786  1
  O  O75  1  0.720166  0.276676  0.007637  1
  O  O76  1  0.715001  0.280486  0.091835  1
  O  O77  1  0.715703  0.281004  0.207979  1
  O  O78  1  0.713368  0.282210  0.291995  1
  O  O79  1  0.720854  0.276471  0.407283  1
  O  O80  1  0.712240  0.281332  0.608120  1
  O  O81  1  0.723116  0.277487  0.493040  1
  O  O82  1  0.714851  0.280268  0.692015  1
  O  O83  1  0.714306  0.280288  0.807922  1
  O  O84  1  0.721269  0.279660  0.891594  1
  O  O85  1  0.779952  0.781927  0.091755  1
  O  O86  1  0.781686  0.783801  0.007460  1
  O  O87  1  0.781046  0.783191  0.208161  1
  O  O88  1  0.779866  0.783637  0.291700  1
  O  O89  1  0.780654  0.780026  0.491966  1
  O  O90  1  0.780329  0.783755  0.691853  1
  O  O91  1  0.779282  0.782179  0.408683  1
  O  O92  1  0.778360  0.783259  0.608276  1
  O  O93  1  0.779964  0.783253  0.807953  1
  O  O94  1  0.787690  0.785198  0.891708  1
  O  O95  1  0.926031  0.515328  0.149974  1
  O  O96  1  0.926874  0.517469  0.350391  1
  O  O97  1  0.926568  0.517286  0.549704  1
  O  O98  1  0.927475  0.514914  0.750228  1
  O  O99  1  0.930098  0.505112  0.949152  1
