# generated using pymatgen
data_Li4V3Cu3(SbO8)2
_symmetry_space_group_name_H-M   'P 1'
_cell_length_a   6.05817950
_cell_length_b   5.92769571
_cell_length_c   9.81626391
_cell_angle_alpha   90.38819006
_cell_angle_beta   87.00461044
_cell_angle_gamma   120.29241890
_symmetry_Int_Tables_number   1
_chemical_formula_structural   Li4V3Cu3(SbO8)2
_chemical_formula_sum   'Li4 V3 Cu3 Sb2 O16'
_cell_volume   303.88681005
_cell_formula_units_Z   1
loop_
 _symmetry_equiv_pos_site_id
 _symmetry_equiv_pos_as_xyz
  1  'x, y, z'
loop_
 _atom_site_type_symbol
 _atom_site_label
 _atom_site_symmetry_multiplicity
 _atom_site_fract_x
 _atom_site_fract_y
 _atom_site_fract_z
 _atom_site_occupancy
  Li  Li0  1  0.330463  0.659351  0.910659  1
  Li  Li1  1  0.988685  0.995479  0.992422  1
  Li  Li2  1  0.001809  0.998459  0.479767  1
  Li  Li3  1  0.693556  0.352568  0.400720  1
  V  V4  1  0.651472  0.827767  0.221995  1
  V  V5  1  0.824421  0.650898  0.720066  1
  V  V6  1  0.816443  0.155166  0.710729  1
  Cu  Cu7  1  0.170669  0.829164  0.208195  1
  Cu  Cu8  1  0.171627  0.340257  0.208786  1
  Cu  Cu9  1  0.337024  0.166151  0.708878  1
  Sb  Sb10  1  0.331727  0.673134  0.484888  1
  Sb  Sb11  1  0.654401  0.324588  0.992756  1
  O  O12  1  0.158455  0.837875  0.591275  1
  O  O13  1  0.058743  0.535211  0.346654  1
  O  O14  1  0.359244  0.680084  0.115432  1
  O  O15  1  0.988754  0.993114  0.290654  1
  O  O16  1  0.986938  0.984405  0.798910  1
  O  O17  1  0.130958  0.331940  0.594698  1
  O  O18  1  0.531599  0.986319  0.359722  1
  O  O19  1  0.520402  0.544859  0.361140  1
  O  O20  1  0.308280  0.146997  0.084571  1
  O  O21  1  0.658255  0.829362  0.607678  1
  O  O22  1  0.521949  0.478230  0.845221  1
  O  O23  1  0.549486  0.031338  0.844220  1
  O  O24  1  0.684960  0.353033  0.610060  1
  O  O25  1  0.802431  0.655701  0.088911  1
  O  O26  1  0.957870  0.485112  0.839406  1
  O  O27  1  0.809380  0.153738  0.089425  1
