# generated using pymatgen
data_Li5VP2(O4F)2
_symmetry_space_group_name_H-M   'P 1'
_cell_length_a   10.09456559
_cell_length_b   10.09621058
_cell_length_c   6.57593337
_cell_angle_alpha   90.00494591
_cell_angle_beta   89.98571716
_cell_angle_gamma   120.01081917
_symmetry_Int_Tables_number   1
_chemical_formula_structural   Li5VP2(O4F)2
_chemical_formula_sum   'Li15 V3 P6 O24 F6'
_cell_volume   580.34560344
_cell_formula_units_Z   3
loop_
 _symmetry_equiv_pos_site_id
 _symmetry_equiv_pos_as_xyz
  1  'x, y, z'
loop_
 _atom_site_type_symbol
 _atom_site_label
 _atom_site_symmetry_multiplicity
 _atom_site_fract_x
 _atom_site_fract_y
 _atom_site_fract_z
 _atom_site_occupancy
  Li  Li0  1  0.167027  0.834048  0.502845  1
  Li  Li1  1  0.333443  0.666649  0.561021  1
  Li  Li2  1  0.333625  0.666857  0.959030  1
  Li  Li3  1  0.999891  0.000063  0.448626  1
  Li  Li4  1  0.999686  0.999768  0.051483  1
  Li  Li5  1  0.165983  0.333053  0.502983  1
  Li  Li6  1  0.666947  0.832913  0.502927  1
  Li  Li7  1  0.463253  0.481273  0.737579  1
  Li  Li8  1  0.319486  0.133892  0.271436  1
  Li  Li9  1  0.814300  0.679948  0.271913  1
  Li  Li10  1  0.666646  0.333365  0.978373  1
  Li  Li11  1  0.666704  0.333305  0.491689  1
  Li  Li12  1  0.518793  0.982176  0.737323  1
  Li  Li13  1  0.018447  0.537177  0.737770  1
  Li  Li14  1  0.865697  0.185623  0.271640  1
  V  V15  1  0.167128  0.833827  0.004486  1
  V  V16  1  0.166141  0.333278  0.004504  1
  V  V17  1  0.666716  0.832889  0.004468  1
  P  P18  1  0.035630  0.521371  0.266203  1
  P  P19  1  0.485742  0.964281  0.266037  1
  P  P20  1  0.298306  0.146777  0.743795  1
  P  P21  1  0.478768  0.514151  0.265811  1
  P  P22  1  0.848504  0.701801  0.743997  1
  P  P23  1  0.853065  0.151624  0.744133  1
  O  O24  1  0.019335  0.739924  0.766399  1
  O  O25  1  0.116984  0.624960  0.076087  1
  O  O26  1  0.114661  0.611452  0.460655  1
  O  O27  1  0.315741  0.928637  0.241818  1
  O  O28  1  0.071653  0.387307  0.242073  1
  O  O29  1  0.496573  0.885381  0.460718  1
  O  O30  1  0.507620  0.882394  0.076307  1
  O  O31  1  0.259896  0.279244  0.766262  1
  O  O32  1  0.375270  0.491904  0.075640  1
  O  O33  1  0.388667  0.503174  0.460238  1
  O  O34  1  0.221643  0.056939  0.548189  1
  O  O35  1  0.216636  0.042414  0.932848  1
  O  O36  1  0.612978  0.684222  0.241701  1
  O  O37  1  0.720483  0.980735  0.766497  1
  O  O38  1  0.541719  0.403896  0.263156  1
  O  O39  1  0.472038  0.212393  0.749613  1
  O  O40  1  0.826198  0.784041  0.932647  1
  O  O41  1  0.835422  0.778292  0.548145  1
  O  O42  1  0.740119  0.528193  0.750405  1
  O  O43  1  0.596383  0.137399  0.262882  1
  O  O44  1  0.862407  0.458435  0.263539  1
  O  O45  1  0.787385  0.259637  0.749775  1
  O  O46  1  0.943060  0.164752  0.548642  1
  O  O47  1  0.957263  0.174362  0.933354  1
  F  F48  1  0.027425  0.846075  0.224961  1
  F  F49  1  0.306187  0.820281  0.784477  1
  F  F50  1  0.179857  0.485896  0.784384  1
  F  F51  1  0.153610  0.181172  0.224915  1
  F  F52  1  0.514377  0.693997  0.783913  1
  F  F53  1  0.818478  0.972380  0.225419  1
