# generated using pymatgen
data_P2Pb3O8
_symmetry_space_group_name_H-M   'P 1'
_cell_length_a   9.97489187
_cell_length_b   9.97490120
_cell_length_c   14.65975452
_cell_angle_alpha   89.99661951
_cell_angle_beta   90.00048427
_cell_angle_gamma   119.99937822
_symmetry_Int_Tables_number   1
_chemical_formula_structural   P2Pb3O8
_chemical_formula_sum   'P12 Pb18 O48'
_cell_volume   1263.21376334
_cell_formula_units_Z   6
loop_
 _symmetry_equiv_pos_site_id
 _symmetry_equiv_pos_as_xyz
  1  'x, y, z'
loop_
 _atom_site_type_symbol
 _atom_site_label
 _atom_site_symmetry_multiplicity
 _atom_site_fract_x
 _atom_site_fract_y
 _atom_site_fract_z
 _atom_site_occupancy
  P  P0  1  0.018829  0.626032  0.875089  1
  P  P1  1  0.020552  0.627504  0.376267  1
  P  P2  1  0.607237  0.981246  0.875083  1
  P  P3  1  0.606952  0.979396  0.376269  1
  P  P4  1  0.372403  0.393022  0.376284  1
  P  P5  1  0.374001  0.392777  0.875086  1
  P  P6  1  0.626036  0.607195  0.124908  1
  P  P7  1  0.627490  0.606974  0.623715  1
  P  P8  1  0.392770  0.018745  0.124916  1
  P  P9  1  0.393056  0.020662  0.623756  1
  P  P10  1  0.981213  0.373989  0.124918  1
  P  P11  1  0.979399  0.372429  0.623721  1
  Pb  Pb12  1  0.995174  0.739038  0.128601  1
  Pb  Pb13  1  0.009709  0.745386  0.627143  1
  Pb  Pb14  1  0.333082  0.666932  0.517488  1
  Pb  Pb15  1  0.333239  0.666741  0.987901  1
  Pb  Pb16  1  0.333794  0.666274  0.248423  1
  Pb  Pb17  1  0.260920  0.256021  0.128496  1
  Pb  Pb18  1  0.254646  0.264457  0.627175  1
  Pb  Pb19  1  0.735523  0.990183  0.627149  1
  Pb  Pb20  1  0.743962  0.004937  0.128555  1
  Pb  Pb21  1  0.256149  0.995208  0.871410  1
  Pb  Pb22  1  0.264316  0.009598  0.372757  1
  Pb  Pb23  1  0.739000  0.743972  0.871459  1
  Pb  Pb24  1  0.745414  0.735553  0.372894  1
  Pb  Pb25  1  0.666543  0.333239  0.012081  1
  Pb  Pb26  1  0.666212  0.333080  0.482508  1
  Pb  Pb27  1  0.667384  0.334006  0.751529  1
  Pb  Pb28  1  0.990141  0.254645  0.372875  1
  Pb  Pb29  1  0.004892  0.260915  0.871478  1
  O  O30  1  0.081652  0.734253  0.289933  1
  O  O31  1  0.071253  0.736844  0.791416  1
  O  O32  1  0.087043  0.736624  0.460866  1
  O  O33  1  0.081468  0.734332  0.960638  1
  O  O34  1  0.095632  0.522136  0.876717  1
  O  O35  1  0.093562  0.519182  0.374494  1
  O  O36  1  0.317576  0.838863  0.124167  1
  O  O37  1  0.310196  0.842326  0.622631  1
  O  O38  1  0.161140  0.478661  0.124155  1
  O  O39  1  0.157692  0.467947  0.622584  1
  O  O40  1  0.426519  0.904360  0.876726  1
  O  O41  1  0.425609  0.906407  0.374507  1
  O  O42  1  0.265802  0.347586  0.289892  1
  O  O43  1  0.263306  0.350298  0.460854  1
  O  O44  1  0.263127  0.334411  0.791447  1
  O  O45  1  0.265651  0.347090  0.960636  1
  O  O46  1  0.521328  0.682412  0.124147  1
  O  O47  1  0.532063  0.689804  0.622583  1
  O  O48  1  0.477833  0.573498  0.876727  1
  O  O49  1  0.480827  0.574365  0.374489  1
  O  O50  1  0.649659  0.912982  0.460853  1
  O  O51  1  0.652886  0.918535  0.960634  1
  O  O52  1  0.652469  0.918243  0.289902  1
  O  O53  1  0.665595  0.928722  0.791441  1
  O  O54  1  0.334404  0.071269  0.208559  1
  O  O55  1  0.350390  0.087041  0.539135  1
  O  O56  1  0.347402  0.081693  0.710094  1
  O  O57  1  0.347131  0.081476  0.039371  1
  O  O58  1  0.522135  0.426489  0.123285  1
  O  O59  1  0.519182  0.425637  0.625500  1
  O  O60  1  0.467880  0.310194  0.377367  1
  O  O61  1  0.478718  0.317587  0.875831  1
  O  O62  1  0.734345  0.652886  0.039356  1
  O  O63  1  0.736849  0.665579  0.208577  1
  O  O64  1  0.736669  0.649665  0.539150  1
  O  O65  1  0.734204  0.652438  0.710089  1
  O  O66  1  0.574378  0.093570  0.625508  1
  O  O67  1  0.573488  0.095651  0.123278  1
  O  O68  1  0.842269  0.532048  0.377446  1
  O  O69  1  0.838898  0.521335  0.875854  1
  O  O70  1  0.689760  0.157689  0.377399  1
  O  O71  1  0.682460  0.161135  0.875844  1
  O  O72  1  0.904361  0.477845  0.123275  1
  O  O73  1  0.906427  0.480820  0.625514  1
  O  O74  1  0.918561  0.265655  0.039373  1
  O  O75  1  0.928723  0.263130  0.208569  1
  O  O76  1  0.912989  0.263313  0.539151  1
  O  O77  1  0.918254  0.265808  0.710103  1
