# generated using pymatgen
data_Na2Sn4O9
_symmetry_space_group_name_H-M   'P 1'
_cell_length_a   5.50372329
_cell_length_b   5.50371497
_cell_length_c   14.74611736
_cell_angle_alpha   90.00025352
_cell_angle_beta   90.00019927
_cell_angle_gamma   119.99995717
_symmetry_Int_Tables_number   1
_chemical_formula_structural   Na2Sn4O9
_chemical_formula_sum   'Na4 Sn8 O18'
_cell_volume   386.83078592
_cell_formula_units_Z   2
loop_
 _symmetry_equiv_pos_site_id
 _symmetry_equiv_pos_as_xyz
  1  'x, y, z'
loop_
 _atom_site_type_symbol
 _atom_site_label
 _atom_site_symmetry_multiplicity
 _atom_site_fract_x
 _atom_site_fract_y
 _atom_site_fract_z
 _atom_site_occupancy
  Na  Na0  1  0.999991  -0.000001  0.148591  1
  Na  Na1  1  0.999996  0.999999  0.351409  1
  Na  Na2  1  0.999997  0.999999  0.648592  1
  Na  Na3  1  0.999994  0.999998  0.851407  1
  Sn  Sn4  1  0.333324  0.666665  0.312399  1
  Sn  Sn5  1  0.333325  0.666666  0.024342  1
  Sn  Sn6  1  0.333332  0.666666  0.812398  1
  Sn  Sn7  1  0.333332  0.666667  0.524342  1
  Sn  Sn8  1  0.666655  0.333332  0.187603  1
  Sn  Sn9  1  0.666662  0.333331  0.687602  1
  Sn  Sn10  1  0.666662  0.333332  0.475657  1
  Sn  Sn11  1  0.666657  0.333337  0.975659  1
  O  O12  1  0.999999  0.660225  0.750000  1
  O  O13  1  0.040372  0.642624  0.420723  1
  O  O14  1  0.357370  0.959627  0.920722  1
  O  O15  1  0.999986  0.339776  0.250000  1
  O  O16  1  0.040365  0.397752  0.920722  1
  O  O17  1  0.357373  0.397750  0.420723  1
  O  O18  1  0.339775  0.339779  0.750000  1
  O  O19  1  0.397741  0.357379  0.079277  1
  O  O20  1  0.602241  0.959626  0.420723  1
  O  O21  1  0.339765  0.999997  0.250000  1
  O  O22  1  0.397750  0.040374  0.579278  1
  O  O23  1  0.602239  0.642624  0.920723  1
  O  O24  1  0.660208  0.660217  0.250000  1
  O  O25  1  0.642620  0.602247  0.579277  1
  O  O26  1  0.959615  0.602251  0.079277  1
  O  O27  1  0.642613  0.040379  0.079278  1
  O  O28  1  0.660221  0.000001  0.749999  1
  O  O29  1  0.959620  0.357377  0.579278  1
