# generated using pymatgen
data_SrLa9Mg2Ga6(FeO14)2
_symmetry_space_group_name_H-M   'P 1'
_cell_length_a   5.60322117
_cell_length_b   5.58444243
_cell_length_c   27.77499340
_cell_angle_alpha   60.63648318
_cell_angle_beta   60.54451310
_cell_angle_gamma   60.42380233
_symmetry_Int_Tables_number   1
_chemical_formula_structural   SrLa9Mg2Ga6(FeO14)2
_chemical_formula_sum   'Sr1 La9 Mg2 Ga6 Fe2 O28'
_cell_volume   621.97265295
_cell_formula_units_Z   1
loop_
 _symmetry_equiv_pos_site_id
 _symmetry_equiv_pos_as_xyz
  1  'x, y, z'
loop_
 _atom_site_type_symbol
 _atom_site_label
 _atom_site_symmetry_multiplicity
 _atom_site_fract_x
 _atom_site_fract_y
 _atom_site_fract_z
 _atom_site_occupancy
  Sr  Sr0  1  0.230111  0.750313  0.157742  1
  La  La1  1  0.748140  0.295373  0.044991  1
  La  La2  1  0.242135  0.721395  0.355613  1
  La  La3  1  0.731642  0.232417  0.254314  1
  La  La4  1  0.251784  0.749884  0.548766  1
  La  La5  1  0.765522  0.229471  0.448919  1
  La  La6  1  0.255173  0.744514  0.749488  1
  La  La7  1  0.752309  0.243967  0.649936  1
  La  La8  1  0.255005  0.747406  0.948042  1
  La  La9  1  0.759821  0.259610  0.844217  1
  Mg  Mg10  1  0.976452  0.510739  0.304596  1
  Mg  Mg11  1  0.531868  0.989426  0.991677  1
  Ga  Ga12  1  0.996346  0.492879  0.502161  1
  Ga  Ga13  1  0.503626  0.984317  0.400445  1
  Ga  Ga14  1  0.008973  0.499581  0.697950  1
  Ga  Ga15  1  0.502924  0.995079  0.600053  1
  Ga  Ga16  1  0.004760  0.503823  0.899558  1
  Ga  Ga17  1  0.506807  0.995969  0.798878  1
  Fe  Fe18  1  0.957287  0.550518  0.104638  1
  Fe  Fe19  1  0.491794  0.001023  0.201573  1
  O  O20  1  0.142172  0.296020  0.170936  1
  O  O21  1  0.301607  0.687228  0.046273  1
  O  O22  1  0.216998  0.168367  0.357006  1
  O  O23  1  0.698523  0.314344  0.151256  1
  O  O24  1  0.321274  0.663295  0.250709  1
  O  O25  1  0.832719  0.701678  0.035285  1
  O  O26  1  0.214758  0.195020  0.459247  1
  O  O27  1  0.705536  0.879151  0.127577  1
  O  O28  1  0.182062  0.223562  0.563450  1
  O  O29  1  0.668146  0.310828  0.351170  1
  O  O30  1  0.332419  0.653480  0.454168  1
  O  O31  1  0.767393  0.789738  0.245254  1
  O  O32  1  0.250110  0.177368  0.662911  1
  O  O33  1  0.797145  0.786310  0.345786  1
  O  O34  1  0.195825  0.251015  0.760753  1
  O  O35  1  0.672347  0.320507  0.551044  1
  O  O36  1  0.330054  0.673928  0.649964  1
  O  O37  1  0.806998  0.772238  0.441816  1
  O  O38  1  0.252608  0.182407  0.864049  1
  O  O39  1  0.760990  0.813323  0.537725  1
  O  O40  1  0.191490  0.294573  0.964304  1
  O  O41  1  0.689354  0.313278  0.750526  1
  O  O42  1  0.327076  0.684570  0.844653  1
  O  O43  1  0.828072  0.747661  0.635363  1
  O  O44  1  0.758409  0.816753  0.734262  1
  O  O45  1  0.689505  0.319098  0.958923  1
  O  O46  1  0.822454  0.730860  0.834771  1
  O  O47  1  0.771477  0.838698  0.926660  1
