# generated using pymatgen
data_Li2Ti6Zn3O16
_symmetry_space_group_name_H-M   'P 1'
_cell_length_a   8.45611331
_cell_length_b   8.46209931
_cell_length_c   8.46251578
_cell_angle_alpha   89.99991235
_cell_angle_beta   90.00030550
_cell_angle_gamma   89.55633110
_symmetry_Int_Tables_number   1
_chemical_formula_structural   Li2Ti6Zn3O16
_chemical_formula_sum   'Li4 Ti12 Zn6 O32'
_cell_volume   605.52960733
_cell_formula_units_Z   2
loop_
 _symmetry_equiv_pos_site_id
 _symmetry_equiv_pos_as_xyz
  1  'x, y, z'
loop_
 _atom_site_type_symbol
 _atom_site_label
 _atom_site_symmetry_multiplicity
 _atom_site_fract_x
 _atom_site_fract_y
 _atom_site_fract_z
 _atom_site_occupancy
  Li  Li0  1  0.503026  0.001991  0.495572  1
  Li  Li1  1  0.624352  0.625422  0.624571  1
  Li  Li2  1  0.875658  0.374585  0.124576  1
  Li  Li3  1  0.996986  0.998014  0.995569  1
  Ti  Ti4  1  0.118888  0.634370  0.133801  1
  Ti  Ti5  1  0.126976  0.358959  0.884513  1
  Ti  Ti6  1  0.138722  0.112389  0.627157  1
  Ti  Ti7  1  0.361301  0.887631  0.127158  1
  Ti  Ti8  1  0.373037  0.641050  0.384504  1
  Ti  Ti9  1  0.381116  0.365656  0.633801  1
  Ti  Ti10  1  0.615115  0.881833  0.862084  1
  Ti  Ti11  1  0.625087  0.129034  0.119264  1
  Ti  Ti12  1  0.630876  0.376374  0.374894  1
  Ti  Ti13  1  0.869126  0.623624  0.874887  1
  Ti  Ti14  1  0.874933  0.870976  0.619278  1
  Ti  Ti15  1  0.884882  0.118166  0.362092  1
  Zn  Zn16  1  0.002211  0.496157  0.500959  1
  Zn  Zn17  1  0.248594  0.746213  0.755076  1
  Zn  Zn18  1  0.251406  0.253792  0.255075  1
  Zn  Zn19  1  0.497793  0.503848  0.000965  1
  Zn  Zn20  1  0.744485  0.752012  0.248747  1
  Zn  Zn21  1  0.755520  0.247991  0.748744  1
  O  O22  1  0.103688  0.140081  0.393849  1
  O  O23  1  0.107904  0.892603  0.638222  1
  O  O24  1  0.109290  0.612404  0.889976  1
  O  O25  1  0.112715  0.145900  0.854459  1
  O  O26  1  0.128222  0.389022  0.106301  1
  O  O27  1  0.139476  0.363717  0.638855  1
  O  O28  1  0.141603  0.612697  0.354947  1
  O  O29  1  0.144489  0.856787  0.112951  1
  O  O30  1  0.355528  0.143229  0.612962  1
  O  O31  1  0.358402  0.387311  0.854951  1
  O  O32  1  0.360535  0.636291  0.138863  1
  O  O33  1  0.371779  0.610987  0.606295  1
  O  O34  1  0.387288  0.854118  0.354461  1
  O  O35  1  0.390715  0.387602  0.389976  1
  O  O36  1  0.392106  0.107414  0.138214  1
  O  O37  1  0.396315  0.859922  0.893848  1
  O  O38  1  0.608194  0.372981  0.611648  1
  O  O39  1  0.609805  0.605091  0.371332  1
  O  O40  1  0.612834  0.890805  0.111237  1
  O  O41  1  0.621548  0.357754  0.138124  1
  O  O42  1  0.638269  0.109161  0.894560  1
  O  O43  1  0.640693  0.143180  0.359310  1
  O  O44  1  0.640811  0.877014  0.644397  1
  O  O45  1  0.644199  0.638287  0.878176  1
  O  O46  1  0.855805  0.361713  0.378180  1
  O  O47  1  0.859199  0.122985  0.144405  1
  O  O48  1  0.859314  0.856825  0.859308  1
  O  O49  1  0.861736  0.890843  0.394565  1
  O  O50  1  0.878465  0.642249  0.638126  1
  O  O51  1  0.887171  0.109200  0.611236  1
  O  O52  1  0.890199  0.394914  0.871332  1
  O  O53  1  0.891812  0.627030  0.111648  1
