# generated using pymatgen
data_Li32Mn3Cr13O48
_symmetry_space_group_name_H-M   'P 1'
_cell_length_a   5.03006516
_cell_length_b   8.70810648
_cell_length_c   19.48256555
_cell_angle_alpha   97.91390485
_cell_angle_beta   94.89726409
_cell_angle_gamma   89.51607408
_symmetry_Int_Tables_number   1
_chemical_formula_structural   Li32Mn3Cr13O48
_chemical_formula_sum   'Li32 Mn3 Cr13 O48'
_cell_volume   842.16403537
_cell_formula_units_Z   1
loop_
 _symmetry_equiv_pos_site_id
 _symmetry_equiv_pos_as_xyz
  1  'x, y, z'
loop_
 _atom_site_type_symbol
 _atom_site_label
 _atom_site_symmetry_multiplicity
 _atom_site_fract_x
 _atom_site_fract_y
 _atom_site_fract_z
 _atom_site_occupancy
  Li  Li0  1  0.989053  0.169812  0.249936  1
  Li  Li1  1  0.875440  0.374908  0.375107  1
  Li  Li2  1  0.750939  0.249737  0.999814  1
  Li  Li3  1  0.743727  0.920532  0.999679  1
  Li  Li4  1  0.992575  0.168726  0.749706  1
  Li  Li5  1  0.758590  0.579210  0.499543  1
  Li  Li6  1  0.874691  0.374936  0.874933  1
  Li  Li7  1  0.753190  0.249326  0.500455  1
  Li  Li8  1  0.741379  0.920383  0.499519  1
  Li  Li9  1  0.626235  0.126414  0.124811  1
  Li  Li10  1  0.760473  0.579261  0.999739  1
  Li  Li11  1  0.510986  0.330832  0.250288  1
  Li  Li12  1  0.624933  0.125509  0.624915  1
  Li  Li13  1  0.497704  0.000763  0.250565  1
  Li  Li14  1  0.494990  0.670143  0.250072  1
  Li  Li15  1  0.506954  0.330158  0.749785  1
  Li  Li16  1  0.375472  0.876254  0.375148  1
  Li  Li17  1  0.503029  0.001041  0.750494  1
  Li  Li18  1  0.251779  0.748852  0.999500  1
  Li  Li19  1  0.489925  0.668572  0.749417  1
  Li  Li20  1  0.239715  0.420354  -0.000016  1
  Li  Li21  1  0.375080  0.874639  0.874780  1
  Li  Li22  1  0.259284  0.081411  0.500606  1
  Li  Li23  1  0.248524  0.749550  0.499611  1
  Li  Li24  1  0.123726  0.623722  0.125174  1
  Li  Li25  1  0.240886  0.419547  0.500414  1
  Li  Li26  1  0.007075  0.830545  0.250706  1
  Li  Li27  1  0.254586  0.079093  0.999678  1
  Li  Li28  1  0.123528  0.623260  0.625039  1
  Li  Li29  1  0.998749  0.499855  0.250132  1
  Li  Li30  1  0.007280  0.831078  0.750656  1
  Li  Li31  1  0.999294  0.500325  0.749163  1
  Mn  Mn32  1  0.874967  0.708421  0.375316  1
  Mn  Mn33  1  0.873162  0.041403  0.874133  1
  Mn  Mn34  1  0.123980  0.290318  0.624534  1
  Cr  Cr35  1  0.876469  0.038145  0.374727  1
  Cr  Cr36  1  0.877703  0.711939  0.875273  1
  Cr  Cr37  1  0.627074  0.797061  0.125721  1
  Cr  Cr38  1  0.621090  0.461769  0.125335  1
  Cr  Cr39  1  0.629627  0.796353  0.626122  1
  Cr  Cr40  1  0.617770  0.457679  0.624343  1
  Cr  Cr41  1  0.381468  0.544523  0.375440  1
  Cr  Cr42  1  0.369605  0.211833  0.374688  1
  Cr  Cr43  1  0.383785  0.540565  0.875911  1
  Cr  Cr44  1  0.365657  0.207287  0.874380  1
  Cr  Cr45  1  0.121249  0.952820  0.124192  1
  Cr  Cr46  1  0.130308  0.288559  0.124939  1
  Cr  Cr47  1  0.126224  0.954151  0.625016  1
  O  O48  1  0.964491  0.102420  0.068616  1
  O  O49  1  0.936074  0.787174  0.068700  1
  O  O50  1  0.925226  0.426279  0.067931  1
  O  O51  1  0.964544  0.107398  0.569472  1
  O  O52  1  0.813940  0.962139  0.181187  1
  O  O53  1  0.824690  0.323005  0.182132  1
  O  O54  1  0.936293  0.789899  0.568898  1
  O  O55  1  0.930483  0.427360  0.567671  1
  O  O56  1  0.786125  0.647144  0.181168  1
  O  O57  1  0.711325  0.854547  0.318905  1
  O  O58  1  0.814691  0.962303  0.681513  1
  O  O59  1  0.823232  0.324071  0.681640  1
  O  O60  1  0.681093  0.536438  0.319506  1
  O  O61  1  0.672583  0.177084  0.317572  1
  O  O62  1  0.783329  0.645112  0.681320  1
  O  O63  1  0.711473  0.859391  0.819165  1
  O  O64  1  0.468446  0.606620  0.069566  1
  O  O65  1  0.574900  0.715929  0.431073  1
  O  O66  1  0.578813  0.073483  0.432127  1
  O  O67  1  0.673112  0.537531  0.819089  1
  O  O68  1  0.679882  0.178169  0.817992  1
  O  O69  1  0.433158  0.923502  0.067251  1
  O  O70  1  0.418875  0.284572  0.068627  1
  O  O71  1  0.531597  0.397223  0.431333  1
  O  O72  1  0.470082  0.605402  0.569184  1
  O  O73  1  0.578907  0.714997  0.931443  1
  O  O74  1  0.573588  0.073443  0.931517  1
  O  O75  1  0.316329  0.826834  0.182730  1
  O  O76  1  0.331833  0.465465  0.181434  1
  O  O77  1  0.434054  0.922795  0.567302  1
  O  O78  1  0.425844  0.283901  0.569192  1
  O  O79  1  0.531844  0.395824  0.931460  1
  O  O80  1  0.281830  0.143914  0.180456  1
  O  O81  1  0.217384  0.356577  0.318685  1
  O  O82  1  0.316844  0.826331  0.682947  1
  O  O83  1  0.320073  0.463092  0.680724  1
  O  O84  1  0.175788  0.676929  0.318320  1
  O  O85  1  0.168570  0.035349  0.318511  1
  O  O86  1  0.285735  0.142903  0.680620  1
  O  O87  1  0.218978  0.352442  0.818797  1
  O  O88  1  0.069139  0.572280  0.432103  1
  O  O89  1  0.080014  0.213357  0.430948  1
  O  O90  1  0.172750  0.674544  0.818126  1
  O  O91  1  0.174522  0.032793  0.818855  1
  O  O92  1  0.036351  0.891439  0.430887  1
  O  O93  1  0.074152  0.571870  0.932633  1
  O  O94  1  0.070972  0.212914  0.930451  1
  O  O95  1  0.036109  0.894238  0.930787  1
