# generated using pymatgen
data_Li2VCr(P2O7)2
_symmetry_space_group_name_H-M   'P 1'
_cell_length_a   9.74233852
_cell_length_b   8.22140472
_cell_length_c   7.15127676
_cell_angle_alpha   90.00000000
_cell_angle_beta   68.53644624
_cell_angle_gamma   90.00000000
_symmetry_Int_Tables_number   1
_chemical_formula_structural   Li2VCr(P2O7)2
_chemical_formula_sum   'Li4 V2 Cr2 P8 O28'
_cell_volume   533.06411981
_cell_formula_units_Z   2
loop_
 _symmetry_equiv_pos_site_id
 _symmetry_equiv_pos_as_xyz
  1  'x, y, z'
loop_
 _atom_site_type_symbol
 _atom_site_label
 _atom_site_symmetry_multiplicity
 _atom_site_fract_x
 _atom_site_fract_y
 _atom_site_fract_z
 _atom_site_occupancy
  Li  Li0  1  0.249714  0.363009  0.323503  1
  Li  Li1  1  0.249968  0.862799  0.676661  1
  Li  Li2  1  0.750032  0.362799  0.323339  1
  Li  Li3  1  0.750286  0.863009  0.676497  1
  V  V4  1  0.256503  0.999635  0.270694  1
  V  V5  1  0.743497  0.499635  0.729306  1
  Cr  Cr6  1  0.243243  0.500083  0.727834  1
  Cr  Cr7  1  0.756757  0.000083  0.272166  1
  P  P8  1  0.062793  0.782787  0.085774  1
  P  P9  1  0.061286  0.679749  0.478451  1
  P  P10  1  0.439102  0.180587  0.522886  1
  P  P11  1  0.564099  0.784913  0.086039  1
  P  P12  1  0.435901  0.284913  0.913961  1
  P  P13  1  0.560898  0.680587  0.477114  1
  P  P14  1  0.938714  0.179749  0.521549  1
  P  P15  1  0.937207  0.282787  0.914226  1
  O  O16  1  0.079421  0.651565  0.247098  1
  O  O17  1  0.157870  0.933293  0.080423  1
  O  O18  1  0.104277  0.178240  0.394168  1
  O  O19  1  0.128952  0.844239  0.495227  1
  O  O20  1  0.147657  0.536788  0.518669  1
  O  O21  1  0.099586  0.323191  0.854519  1
  O  O22  1  0.123617  0.692535  0.884638  1
  O  O23  1  0.377230  0.197444  0.115556  1
  O  O24  1  0.400601  0.823563  0.148995  1
  O  O25  1  0.351744  0.038533  0.482492  1
  O  O26  1  0.369743  0.346225  0.509888  1
  O  O27  1  0.396338  0.679781  0.606542  1
  O  O28  1  0.341952  0.434938  0.915720  1
  O  O29  1  0.420677  0.151684  0.753910  1
  O  O30  1  0.579323  0.651684  0.246090  1
  O  O31  1  0.658048  0.934938  0.084280  1
  O  O32  1  0.603662  0.179781  0.393458  1
  O  O33  1  0.630257  0.846225  0.490112  1
  O  O34  1  0.648256  0.538533  0.517508  1
  O  O35  1  0.599399  0.323563  0.851005  1
  O  O36  1  0.622770  0.697444  0.884444  1
  O  O37  1  0.876383  0.192535  0.115362  1
  O  O38  1  0.900414  0.823191  0.145481  1
  O  O39  1  0.852343  0.036788  0.481331  1
  O  O40  1  0.871048  0.344240  0.504773  1
  O  O41  1  0.895723  0.678240  0.605832  1
  O  O42  1  0.842130  0.433293  0.919577  1
  O  O43  1  0.920579  0.151565  0.752902  1
