# generated using pymatgen
data_Co3(OF2)2
_symmetry_space_group_name_H-M   'P 1'
_cell_length_a   7.06475621
_cell_length_b   5.65109265
_cell_length_c   5.64606461
_cell_angle_alpha   73.11683593
_cell_angle_beta   73.54943363
_cell_angle_gamma   73.78529005
_symmetry_Int_Tables_number   1
_chemical_formula_structural   Co3(OF2)2
_chemical_formula_sum   'Co6 O4 F8'
_cell_volume   202.04407968
_cell_formula_units_Z   2
loop_
 _symmetry_equiv_pos_site_id
 _symmetry_equiv_pos_as_xyz
  1  'x, y, z'
loop_
 _atom_site_type_symbol
 _atom_site_label
 _atom_site_symmetry_multiplicity
 _atom_site_fract_x
 _atom_site_fract_y
 _atom_site_fract_z
 _atom_site_occupancy
  Co  Co0  1  0.841492  0.675335  0.690851  1
  Co  Co1  1  0.315310  0.640761  0.656781  1
  Co  Co2  1  0.668695  0.358409  0.316150  1
  Co  Co3  1  0.166294  0.332746  0.328942  1
  Co  Co4  1  0.508830  0.971081  0.005636  1
  Co  Co5  1  0.002237  0.005488  0.009668  1
  O  O6  1  0.955869  0.253727  0.241261  1
  O  O7  1  0.379148  0.425770  0.408514  1
  O  O8  1  0.028144  0.769824  0.779851  1
  O  O9  1  0.667488  0.636115  0.037714  1
  F  F10  1  0.336455  0.342222  0.963901  1
  F  F11  1  0.664792  0.043508  0.627507  1
  F  F12  1  0.635049  0.577864  0.571807  1
  F  F13  1  0.306088  0.889490  0.887386  1
  F  F14  1  0.695080  0.106747  0.102263  1
  F  F15  1  0.328258  0.961107  0.356346  1
  F  F16  1  0.002715  0.308231  0.699304  1
  F  F17  1  0.998058  0.701575  0.316115  1
