# generated using pymatgen
data_Be(GaO2)2
_symmetry_space_group_name_H-M   'P 1'
_cell_length_a   7.82983252
_cell_length_b   7.82954682
_cell_length_c   9.02010902
_cell_angle_alpha   90.00292964
_cell_angle_beta   89.99209304
_cell_angle_gamma   119.99791453
_symmetry_Int_Tables_number   1
_chemical_formula_structural   Be(GaO2)2
_chemical_formula_sum   'Be6 Ga12 O24'
_cell_volume   478.89537019
_cell_formula_units_Z   6
loop_
 _symmetry_equiv_pos_site_id
 _symmetry_equiv_pos_as_xyz
  1  'x, y, z'
loop_
 _atom_site_type_symbol
 _atom_site_label
 _atom_site_symmetry_multiplicity
 _atom_site_fract_x
 _atom_site_fract_y
 _atom_site_fract_z
 _atom_site_occupancy
  Be  Be0  1  0.223318  0.830528  0.578184  1
  Be  Be1  1  0.169354  0.392763  0.245016  1
  Be  Be2  1  0.607229  0.776586  0.911585  1
  Be  Be3  1  0.395069  0.227063  0.087007  1
  Be  Be4  1  0.831910  0.604894  0.420453  1
  Be  Be5  1  0.773007  0.167950  0.753801  1
  Ga  Ga6  1  0.257983  0.838500  0.914255  1
  Ga  Ga7  1  0.227232  0.821721  0.259976  1
  Ga  Ga8  1  0.161489  0.419399  0.581187  1
  Ga  Ga9  1  0.178350  0.405580  0.926911  1
  Ga  Ga10  1  0.594381  0.772664  0.593490  1
  Ga  Ga11  1  0.580576  0.742190  0.247736  1
  Ga  Ga12  1  0.413160  0.231742  0.752297  1
  Ga  Ga13  1  0.408686  0.249068  0.406103  1
  Ga  Ga14  1  0.818636  0.586982  0.085713  1
  Ga  Ga15  1  0.840340  0.591161  0.739478  1
  Ga  Ga16  1  0.768284  0.181393  0.419062  1
  Ga  Ga17  1  0.750887  0.159737  0.072782  1
  O  O18  1  0.308624  0.976060  0.429927  1
  O  O19  1  0.305978  0.981044  0.089313  1
  O  O20  1  0.279540  0.958908  0.733712  1
  O  O21  1  0.023860  0.332586  0.096781  1
  O  O22  1  0.041140  0.320701  0.400607  1
  O  O23  1  0.018959  0.324891  0.756231  1
  O  O24  1  0.310638  0.637349  0.248663  1
  O  O25  1  0.362668  0.673289  0.915269  1
  O  O26  1  0.326636  0.689304  0.582122  1
  O  O27  1  0.325477  0.279261  0.929729  1
  O  O28  1  0.326369  0.307692  0.231727  1
  O  O29  1  0.342760  0.325075  0.585538  1
  O  O30  1  0.679240  0.720428  0.067157  1
  O  O31  1  0.675046  0.694055  0.422743  1
  O  O32  1  0.667499  0.691315  0.763392  1
  O  O33  1  0.638758  0.320499  0.085884  1
  O  O34  1  0.681585  0.361180  0.419322  1
  O  O35  1  0.679596  0.318282  0.752533  1
  O  O36  1  0.981288  0.673436  0.565075  1
  O  O37  1  0.953781  0.674457  0.263131  1
  O  O38  1  0.982344  0.657414  0.918911  1
  O  O39  1  0.720770  0.046130  0.596464  1
  O  O40  1  0.675058  0.017771  0.252262  1
  O  O41  1  0.692193  0.018653  0.898473  1
