# generated using pymatgen
data_RbTiPS5
_symmetry_space_group_name_H-M   'P 1'
_cell_length_a   7.16685602
_cell_length_b   9.95981567
_cell_length_c   13.94466563
_cell_angle_alpha   97.19558643
_cell_angle_beta   104.74729806
_cell_angle_gamma   68.99546033
_symmetry_Int_Tables_number   1
_chemical_formula_structural   RbTiPS5
_chemical_formula_sum   'Rb4 Ti4 P4 S20'
_cell_volume   897.98827720
_cell_formula_units_Z   4
loop_
 _symmetry_equiv_pos_site_id
 _symmetry_equiv_pos_as_xyz
  1  'x, y, z'
loop_
 _atom_site_type_symbol
 _atom_site_label
 _atom_site_symmetry_multiplicity
 _atom_site_fract_x
 _atom_site_fract_y
 _atom_site_fract_z
 _atom_site_occupancy
  Rb  Rb0  1  0.336853  0.962224  0.637290  1
  Rb  Rb1  1  0.298160  0.543879  0.142572  1
  Rb  Rb2  1  0.702112  0.453261  0.856409  1
  Rb  Rb3  1  0.664141  0.036294  0.362916  1
  Ti  Ti4  1  0.277023  0.498862  0.499821  1
  Ti  Ti5  1  0.723705  0.498816  0.500287  1
  Ti  Ti6  1  0.222260  0.998204  0.000755  1
  Ti  Ti7  1  0.778587  0.998228  0.000738  1
  P  P8  1  0.666868  0.758478  0.094959  1
  P  P9  1  0.926636  0.746673  0.598318  1
  P  P10  1  0.076495  0.251069  0.401966  1
  P  P11  1  0.332847  0.238034  0.905440  1
  S  S12  1  0.829878  0.957785  0.616876  1
  S  S13  1  0.410943  0.864900  0.153108  1
  S  S14  1  0.873966  0.865425  0.152857  1
  S  S15  1  0.023898  0.865486  0.914792  1
  S  S16  1  0.560112  0.825907  0.948137  1
  S  S17  1  0.893766  0.666653  0.450463  1
  S  S18  1  0.237687  0.645278  0.652627  1
  S  S19  1  0.769815  0.645342  0.652367  1
  S  S20  1  0.396655  0.622780  0.413050  1
  S  S21  1  0.780069  0.548058  0.110257  1
  S  S22  1  0.220970  0.448155  0.889305  1
  S  S23  1  0.605407  0.375777  0.587705  1
  S  S24  1  0.765043  0.351934  0.348184  1
  S  S25  1  0.230409  0.353649  0.346780  1
  S  S26  1  0.110913  0.330093  0.549996  1
  S  S27  1  0.438555  0.170479  0.052404  1
  S  S28  1  0.977482  0.130377  0.087040  1
  S  S29  1  0.125457  0.131571  0.847823  1
  S  S30  1  0.590145  0.131623  0.848474  1
  S  S31  1  0.173848  0.039188  0.383682  1
