# generated using pymatgen
data_Cr(PO3)2
_symmetry_space_group_name_H-M   'P 1'
_cell_length_a   5.68438048
_cell_length_b   5.68438048
_cell_length_c   16.51113407
_cell_angle_alpha   87.39548619
_cell_angle_beta   92.60451381
_cell_angle_gamma   90.11606611
_symmetry_Int_Tables_number   1
_chemical_formula_structural   Cr(PO3)2
_chemical_formula_sum   'Cr4 P8 O24'
_cell_volume   532.40908882
_cell_formula_units_Z   4
loop_
 _symmetry_equiv_pos_site_id
 _symmetry_equiv_pos_as_xyz
  1  'x, y, z'
loop_
 _atom_site_type_symbol
 _atom_site_label
 _atom_site_symmetry_multiplicity
 _atom_site_fract_x
 _atom_site_fract_y
 _atom_site_fract_z
 _atom_site_occupancy
  Cr  Cr0  1  0.935906  0.852361  0.906547  1
  Cr  Cr1  1  0.147639  0.064094  0.406548  1
  Cr  Cr2  1  0.323033  0.063425  0.615069  1
  Cr  Cr3  1  0.936575  0.676967  0.115069  1
  P  P4  1  0.995791  0.562724  0.650386  1
  P  P5  1  0.437276  0.004209  0.150386  1
  P  P6  1  0.434936  0.522262  0.873567  1
  P  P7  1  0.727187  0.791373  0.511112  1
  P  P8  1  0.477737  0.565064  0.373567  1
  P  P9  1  0.208627  0.272813  0.011112  1
  P  P10  1  0.705231  0.256071  0.759381  1
  P  P11  1  0.743929  0.294769  0.259380  1
  O  O12  1  0.116243  0.790145  0.665729  1
  O  O13  1  0.209855  0.883757  0.165729  1
  O  O14  1  0.227750  0.679692  0.859460  1
  O  O15  1  0.320308  0.772250  0.359460  1
  O  O16  1  0.495777  0.911518  0.523620  1
  O  O17  1  0.088482  0.504223  0.023620  1
  O  O18  1  0.137083  0.362705  0.621888  1
  O  O19  1  0.637295  0.862917  0.121888  1
  O  O20  1  0.665483  0.622196  0.903492  1
  O  O21  1  0.373452  0.301714  0.935226  1
  O  O22  1  0.943994  0.939543  0.499068  1
  O  O23  1  0.377804  0.334517  0.403492  1
  O  O24  1  0.474721  0.384406  0.791994  1
  O  O25  1  0.698286  0.626548  0.435226  1
  O  O26  1  0.060457  0.056006  0.999068  1
  O  O27  1  0.615594  0.525279  0.291994  1
  O  O28  1  0.773520  0.605061  0.585543  1
  O  O29  1  0.394939  0.226480  0.085543  1
  O  O30  1  0.860078  0.481471  0.730260  1
  O  O31  1  0.518529  0.139922  0.230260  1
  O  O32  1  0.621477  0.120072  0.688235  1
  O  O33  1  0.879928  0.378523  0.188235  1
  O  O34  1  0.840053  0.131705  0.828069  1
  O  O35  1  0.868295  0.159947  0.328069  1
