# generated using pymatgen
data_Li7Cr2P7O24
_symmetry_space_group_name_H-M   'P 1'
_cell_length_a   15.07091398
_cell_length_b   5.05855550
_cell_length_c   12.13068117
_cell_angle_alpha   90.00000000
_cell_angle_beta   96.31941444
_cell_angle_gamma   90.00000000
_symmetry_Int_Tables_number   1
_chemical_formula_structural   Li7Cr2P7O24
_chemical_formula_sum   'Li14 Cr4 P14 O48'
_cell_volume   919.18801228
_cell_formula_units_Z   2
loop_
 _symmetry_equiv_pos_site_id
 _symmetry_equiv_pos_as_xyz
  1  'x, y, z'
loop_
 _atom_site_type_symbol
 _atom_site_label
 _atom_site_symmetry_multiplicity
 _atom_site_fract_x
 _atom_site_fract_y
 _atom_site_fract_z
 _atom_site_occupancy
  Li  Li0  1  0.054930  0.734837  0.517795  1
  Li  Li1  1  0.132972  0.820978  0.890353  1
  Li  Li2  1  0.054930  0.265163  0.017795  1
  Li  Li3  1  0.132972  0.179022  0.390353  1
  Li  Li4  1  0.404231  0.166175  0.565773  1
  Li  Li5  1  0.404231  0.833825  0.065773  1
  Li  Li6  1  0.500000  0.710202  0.750000  1
  Li  Li7  1  0.500000  0.289798  0.250000  1
  Li  Li8  1  0.595769  0.166175  0.934227  1
  Li  Li9  1  0.595769  0.833825  0.434227  1
  Li  Li10  1  0.867028  0.820978  0.609647  1
  Li  Li11  1  0.945070  0.734837  0.982205  1
  Li  Li12  1  0.867028  0.179022  0.109647  1
  Li  Li13  1  0.945070  0.265163  0.482205  1
  Cr  Cr14  1  0.285574  0.626668  0.706764  1
  Cr  Cr15  1  0.285574  0.373332  0.206764  1
  Cr  Cr16  1  0.714426  0.626668  0.793236  1
  Cr  Cr17  1  0.714426  0.373332  0.293236  1
  P  P18  1  0.000000  0.435557  0.750000  1
  P  P19  1  0.000000  0.564443  0.250000  1
  P  P20  1  0.140817  0.125271  0.656349  1
  P  P21  1  0.140817  0.874729  0.156349  1
  P  P22  1  0.267566  0.377964  0.949708  1
  P  P23  1  0.267566  0.622036  0.449708  1
  P  P24  1  0.394387  0.139866  0.809585  1
  P  P25  1  0.394387  0.860134  0.309585  1
  P  P26  1  0.605613  0.139866  0.690415  1
  P  P27  1  0.605613  0.860134  0.190415  1
  P  P28  1  0.732434  0.377964  0.550292  1
  P  P29  1  0.732434  0.622036  0.050292  1
  P  P30  1  0.859183  0.125271  0.843651  1
  P  P31  1  0.859183  0.874729  0.343651  1
  O  O32  1  0.015442  0.586223  0.857897  1
  O  O33  1  0.015442  0.413777  0.357897  1
  O  O34  1  0.081528  0.229220  0.752377  1
  O  O35  1  0.080342  0.126656  0.547360  1
  O  O36  1  0.081528  0.770780  0.252377  1
  O  O37  1  0.080342  0.873344  0.047360  1
  O  O38  1  0.170818  0.851086  0.700223  1
  O  O39  1  0.180635  0.264095  0.974291  1
  O  O40  1  0.219242  0.312139  0.657636  1
  O  O41  1  0.170818  0.148914  0.200223  1
  O  O42  1  0.180635  0.735905  0.474291  1
  O  O43  1  0.258185  0.611321  0.867155  1
  O  O44  1  0.219242  0.687861  0.157636  1
  O  O45  1  0.258185  0.388679  0.367155  1
  O  O46  1  0.317787  0.137522  0.891451  1
  O  O47  1  0.317787  0.862478  0.391451  1
  O  O48  1  0.363014  0.948106  0.714197  1
  O  O49  1  0.333799  0.552601  0.552943  1
  O  O50  1  0.400766  0.423084  0.762907  1
  O  O51  1  0.363014  0.051894  0.214197  1
  O  O52  1  0.333799  0.447399  0.052943  1
  O  O53  1  0.400766  0.576916  0.262907  1
  O  O54  1  0.478703  0.039357  0.875544  1
  O  O55  1  0.478703  0.960643  0.375544  1
  O  O56  1  0.521297  0.039357  0.624456  1
  O  O57  1  0.521297  0.960643  0.124456  1
  O  O58  1  0.599234  0.423084  0.737093  1
  O  O59  1  0.666201  0.552601  0.947057  1
  O  O60  1  0.636986  0.948106  0.785803  1
  O  O61  1  0.599234  0.576916  0.237093  1
  O  O62  1  0.666201  0.447399  0.447057  1
  O  O63  1  0.636986  0.051894  0.285803  1
  O  O64  1  0.682213  0.137522  0.608549  1
  O  O65  1  0.682213  0.862478  0.108549  1
  O  O66  1  0.741815  0.611321  0.632845  1
  O  O67  1  0.780758  0.312139  0.842364  1
  O  O68  1  0.741815  0.388679  0.132845  1
  O  O69  1  0.819365  0.264095  0.525709  1
  O  O70  1  0.829182  0.851086  0.799777  1
  O  O71  1  0.780758  0.687861  0.342364  1
  O  O72  1  0.819365  0.735905  0.025709  1
  O  O73  1  0.829182  0.148914  0.299777  1
  O  O74  1  0.919658  0.126656  0.952640  1
  O  O75  1  0.918472  0.229220  0.747623  1
  O  O76  1  0.919658  0.873344  0.452640  1
  O  O77  1  0.918472  0.770780  0.247623  1
  O  O78  1  0.984558  0.586223  0.642103  1
  O  O79  1  0.984558  0.413777  0.142103  1
