# generated using pymatgen
data_Li4Fe2Cu3Te3O16
_symmetry_space_group_name_H-M   'P 1'
_cell_length_a   6.28014760
_cell_length_b   6.11329991
_cell_length_c   9.70003070
_cell_angle_alpha   89.38413977
_cell_angle_beta   87.81844321
_cell_angle_gamma   118.81438368
_symmetry_Int_Tables_number   1
_chemical_formula_structural   Li4Fe2Cu3Te3O16
_chemical_formula_sum   'Li4 Fe2 Cu3 Te3 O16'
_cell_volume   325.88173374
_cell_formula_units_Z   1
loop_
 _symmetry_equiv_pos_site_id
 _symmetry_equiv_pos_as_xyz
  1  'x, y, z'
loop_
 _atom_site_type_symbol
 _atom_site_label
 _atom_site_symmetry_multiplicity
 _atom_site_fract_x
 _atom_site_fract_y
 _atom_site_fract_z
 _atom_site_occupancy
  Li  Li0  1  0.347458  0.683887  0.904196  1
  Li  Li1  1  0.005534  0.993494  0.010186  1
  Li  Li2  1  0.050934  0.024142  0.480108  1
  Li  Li3  1  0.691313  0.347120  0.382131  1
  Fe  Fe4  1  0.298774  0.632257  0.473868  1
  Fe  Fe5  1  0.620416  0.316371  0.006883  1
  Cu  Cu6  1  0.162169  0.828783  0.211975  1
  Cu  Cu7  1  0.161692  0.334205  0.209499  1
  Cu  Cu8  1  0.338877  0.182760  0.711565  1
  Te  Te9  1  0.647425  0.825319  0.218115  1
  Te  Te10  1  0.839838  0.663963  0.716526  1
  Te  Te11  1  0.823692  0.161841  0.719047  1
  O  O12  1  0.147646  0.822392  0.602661  1
  O  O13  1  0.050840  0.521549  0.337947  1
  O  O14  1  0.341858  0.675439  0.115391  1
  O  O15  1  0.975619  0.986972  0.295376  1
  O  O16  1  0.978602  0.961764  0.825364  1
  O  O17  1  0.194508  0.331983  0.587316  1
  O  O18  1  0.516104  0.967338  0.355709  1
  O  O19  1  0.516434  0.541394  0.347783  1
  O  O20  1  0.310247  0.159340  0.096636  1
  O  O21  1  0.704783  0.830476  0.601509  1
  O  O22  1  0.536213  0.499719  0.831995  1
  O  O23  1  0.511974  0.046898  0.837130  1
  O  O24  1  0.706943  0.376179  0.596021  1
  O  O25  1  0.777442  0.657142  0.094865  1
  O  O26  1  0.963656  0.504391  0.846472  1
  O  O27  1  0.779009  0.123182  0.091565  1
