# generated using pymatgen
data_Li2FeO2F
_symmetry_space_group_name_H-M   'P 1'
_cell_length_a   4.10695539
_cell_length_b   8.91490076
_cell_length_c   5.91208778
_cell_angle_alpha   90.00000000
_cell_angle_beta   90.00020374
_cell_angle_gamma   90.00000000
_symmetry_Int_Tables_number   1
_chemical_formula_structural   Li2FeO2F
_chemical_formula_sum   'Li8 Fe4 O8 F4'
_cell_volume   216.45985937
_cell_formula_units_Z   4
loop_
 _symmetry_equiv_pos_site_id
 _symmetry_equiv_pos_as_xyz
  1  'x, y, z'
loop_
 _atom_site_type_symbol
 _atom_site_label
 _atom_site_symmetry_multiplicity
 _atom_site_fract_x
 _atom_site_fract_y
 _atom_site_fract_z
 _atom_site_occupancy
  Li  Li0  1  0.249988  0.746735  0.857069  1
  Li  Li1  1  0.249988  0.753265  0.357069  1
  Li  Li2  1  0.250008  0.418022  0.885081  1
  Li  Li3  1  0.250008  0.081978  0.385081  1
  Li  Li4  1  0.749992  0.918022  0.614919  1
  Li  Li5  1  0.749992  0.581978  0.114919  1
  Li  Li6  1  0.750012  0.246735  0.642931  1
  Li  Li7  1  0.750012  0.253265  0.142931  1
  Fe  Fe8  1  0.249992  0.103246  0.895993  1
  Fe  Fe9  1  0.249992  0.396754  0.395993  1
  Fe  Fe10  1  0.750008  0.603246  0.604007  1
  Fe  Fe11  1  0.750008  0.896754  0.104007  1
  O  O12  1  0.250004  0.577668  0.608210  1
  O  O13  1  0.250004  0.922332  0.108210  1
  O  O14  1  0.250003  0.245232  0.639093  1
  O  O15  1  0.250003  0.254768  0.139093  1
  O  O16  1  0.749997  0.745232  0.860907  1
  O  O17  1  0.749997  0.754768  0.360907  1
  O  O18  1  0.749996  0.077668  0.891790  1
  O  O19  1  0.749996  0.422332  0.391790  1
  F  F20  1  0.249970  0.925930  0.625618  1
  F  F21  1  0.249970  0.574070  0.125618  1
  F  F22  1  0.750030  0.425930  0.874382  1
  F  F23  1  0.750030  0.074070  0.374382  1
