# generated using pymatgen
data_VCr(P2O7)2
_symmetry_space_group_name_H-M   'P 1'
_cell_length_a   4.84691288
_cell_length_b   7.98981370
_cell_length_c   6.98577489
_cell_angle_alpha   90.60242638
_cell_angle_beta   107.64469635
_cell_angle_gamma   89.34196482
_symmetry_Int_Tables_number   1
_chemical_formula_structural   VCr(P2O7)2
_chemical_formula_sum   'V1 Cr1 P4 O14'
_cell_volume   257.77936266
_cell_formula_units_Z   1
loop_
 _symmetry_equiv_pos_site_id
 _symmetry_equiv_pos_as_xyz
  1  'x, y, z'
loop_
 _atom_site_type_symbol
 _atom_site_label
 _atom_site_symmetry_multiplicity
 _atom_site_fract_x
 _atom_site_fract_y
 _atom_site_fract_z
 _atom_site_occupancy
  V  V0  1  0.210133  0.505280  0.721202  1
  Cr  Cr1  1  0.787360  0.005781  0.273693  1
  P  P2  1  0.402074  0.174954  0.521134  1
  P  P3  1  0.222358  0.781758  0.089711  1
  P  P4  1  0.779967  0.279096  0.911685  1
  P  P5  1  0.600465  0.683526  0.476254  1
  O  O6  1  0.041797  0.338100  0.849681  1
  O  O7  1  0.153714  0.673376  0.893330  1
  O  O8  1  0.173146  0.042661  0.477725  1
  O  O9  1  0.264985  0.352623  0.534672  1
  O  O10  1  0.397126  0.670699  0.608974  1
  O  O11  1  0.573027  0.432972  0.900936  1
  O  O12  1  0.602521  0.144726  0.750722  1
  O  O13  1  0.409058  0.643088  0.250313  1
  O  O14  1  0.405472  0.932306  0.083854  1
  O  O15  1  0.593361  0.185651  0.388077  1
  O  O16  1  0.728309  0.855123  0.486212  1
  O  O17  1  0.835521  0.544911  0.533516  1
  O  O18  1  0.873567  0.192468  0.109817  1
  O  O19  1  0.945920  0.819977  0.138119  1
