# generated using pymatgen
data_K5YH8(CO2)8
_symmetry_space_group_name_H-M   'P 1'
_cell_length_a   8.53013777
_cell_length_b   8.53013777
_cell_length_c   15.15831978
_cell_angle_alpha   76.20514287
_cell_angle_beta   103.79485713
_cell_angle_gamma   90.17273829
_symmetry_Int_Tables_number   1
_chemical_formula_structural   K5YH8(CO2)8
_chemical_formula_sum   'K10 Y2 H16 C16 O32'
_cell_volume   1038.56105601
_cell_formula_units_Z   2
loop_
 _symmetry_equiv_pos_site_id
 _symmetry_equiv_pos_as_xyz
  1  'x, y, z'
loop_
 _atom_site_type_symbol
 _atom_site_label
 _atom_site_symmetry_multiplicity
 _atom_site_fract_x
 _atom_site_fract_y
 _atom_site_fract_z
 _atom_site_occupancy
  K  K0  1  0.000000  0.000000  0.000000  1
  K  K1  1  0.000000  0.000000  0.500000  1
  K  K2  1  0.400934  0.215952  0.979688  1
  K  K3  1  0.215952  0.400934  0.520312  1
  K  K4  1  0.599066  0.784048  0.020312  1
  K  K5  1  0.784048  0.599066  0.479688  1
  K  K6  1  0.207692  0.594735  0.999548  1
  K  K7  1  0.594735  0.207692  0.500452  1
  K  K8  1  0.792308  0.405265  0.000452  1
  K  K9  1  0.405265  0.792308  0.499548  1
  Y  Y10  1  0.805224  0.805224  0.750000  1
  Y  Y11  1  0.194776  0.194776  0.250000  1
  H  H12  1  0.003904  0.398654  0.780465  1
  H  H13  1  0.398654  0.003904  0.719535  1
  H  H14  1  0.996096  0.601346  0.219535  1
  H  H15  1  0.601346  0.996096  0.280465  1
  H  H16  1  0.639557  0.417959  0.743348  1
  H  H17  1  0.417959  0.639557  0.756652  1
  H  H18  1  0.360443  0.582041  0.256652  1
  H  H19  1  0.582041  0.360443  0.243348  1
  H  H20  1  0.187746  0.961449  0.755340  1
  H  H21  1  0.961449  0.187746  0.744660  1
  H  H22  1  0.812254  0.038551  0.244660  1
  H  H23  1  0.038551  0.812254  0.255340  1
  H  H24  1  0.021360  0.546110  0.648497  1
  H  H25  1  0.546110  0.021360  0.851503  1
  H  H26  1  0.978640  0.453890  0.351503  1
  H  H27  1  0.453890  0.978640  0.148497  1
  C  C28  1  0.005662  0.421123  0.849820  1
  C  C29  1  0.421123  0.005662  0.650180  1
  C  C30  1  0.994338  0.578877  0.150180  1
  C  C31  1  0.578877  0.994338  0.349820  1
  C  C32  1  0.618072  0.486479  0.668947  1
  C  C33  1  0.486479  0.618072  0.831053  1
  C  C34  1  0.381928  0.513521  0.331053  1
  C  C35  1  0.513521  0.381928  0.168947  1
  C  C36  1  0.186569  0.924979  0.830676  1
  C  C37  1  0.924979  0.186569  0.669324  1
  C  C38  1  0.813431  0.075021  0.169324  1
  C  C39  1  0.075021  0.813431  0.330676  1
  C  C40  1  0.069702  0.668205  0.639593  1
  C  C41  1  0.668205  0.069702  0.860407  1
  C  C42  1  0.930298  0.331795  0.360407  1
  C  C43  1  0.331795  0.930298  0.139593  1
  O  O44  1  0.936159  0.553725  0.849633  1
  O  O45  1  0.553725  0.936159  0.650367  1
  O  O46  1  0.063841  0.446275  0.150367  1
  O  O47  1  0.446275  0.063841  0.349633  1
  O  O48  1  0.075714  0.316139  0.922729  1
  O  O49  1  0.316139  0.075714  0.577271  1
  O  O50  1  0.924286  0.683861  0.077271  1
  O  O51  1  0.683861  0.924286  0.422729  1
  O  O52  1  0.675078  0.627570  0.653399  1
  O  O53  1  0.627570  0.675078  0.846601  1
  O  O54  1  0.324922  0.372430  0.346601  1
  O  O55  1  0.372430  0.324922  0.153399  1
  O  O56  1  0.307009  0.951663  0.890701  1
  O  O57  1  0.951663  0.307009  0.609299  1
  O  O58  1  0.692991  0.048337  0.109299  1
  O  O59  1  0.048337  0.692991  0.390701  1
  O  O60  1  0.060011  0.856959  0.848547  1
  O  O61  1  0.856959  0.060011  0.651453  1
  O  O62  1  0.939989  0.143041  0.151453  1
  O  O63  1  0.143041  0.939989  0.348547  1
  O  O64  1  0.992527  0.776045  0.661367  1
  O  O65  1  0.776045  0.992527  0.838633  1
  O  O66  1  0.007473  0.223955  0.338633  1
  O  O67  1  0.223955  0.007473  0.161367  1
  O  O68  1  0.189287  0.689413  0.604238  1
  O  O69  1  0.689413  0.189287  0.895762  1
  O  O70  1  0.810713  0.310587  0.395762  1
  O  O71  1  0.310587  0.810713  0.104238  1
  O  O72  1  0.541442  0.421241  0.606730  1
  O  O73  1  0.421241  0.541442  0.893270  1
  O  O74  1  0.458558  0.578759  0.393270  1
  O  O75  1  0.578759  0.458558  0.106730  1
