# generated using pymatgen
data_Na5Ni2P2(CO7)2
_symmetry_space_group_name_H-M   'P 1'
_cell_length_a   10.25069220
_cell_length_b   10.48173733
_cell_length_c   6.62726654
_cell_angle_alpha   90.00000000
_cell_angle_beta   90.00000000
_cell_angle_gamma   60.46291739
_symmetry_Int_Tables_number   1
_chemical_formula_structural   Na5Ni2P2(CO7)2
_chemical_formula_sum   'Na10 Ni4 P4 C4 O28'
_cell_volume   619.52456394
_cell_formula_units_Z   2
loop_
 _symmetry_equiv_pos_site_id
 _symmetry_equiv_pos_as_xyz
  1  'x, y, z'
loop_
 _atom_site_type_symbol
 _atom_site_label
 _atom_site_symmetry_multiplicity
 _atom_site_fract_x
 _atom_site_fract_y
 _atom_site_fract_z
 _atom_site_occupancy
  Na  Na0  1  0.015304  0.245973  0.486223  1
  Na  Na1  1  0.015304  0.245973  0.013777  1
  Na  Na2  1  0.484696  0.254027  0.986223  1
  Na  Na3  1  0.484696  0.254027  0.513777  1
  Na  Na4  1  0.851350  0.064670  0.750000  1
  Na  Na5  1  0.648650  0.435330  0.250000  1
  Na  Na6  1  0.494707  0.760296  0.005536  1
  Na  Na7  1  0.494707  0.760296  0.494464  1
  Na  Na8  1  0.005293  0.739704  0.994464  1
  Na  Na9  1  0.005293  0.739704  0.505536  1
  Ni  Ni10  1  0.285475  0.067563  0.750000  1
  Ni  Ni11  1  0.214525  0.432437  0.250000  1
  Ni  Ni12  1  0.784613  0.564847  0.750000  1
  Ni  Ni13  1  0.715387  0.935153  0.250000  1
  P  P14  1  0.355443  0.065937  0.250000  1
  P  P15  1  0.144557  0.434063  0.750000  1
  P  P16  1  0.852643  0.567555  0.250000  1
  P  P17  1  0.647357  0.932445  0.750000  1
  C  C18  1  0.818392  0.112326  0.250000  1
  C  C19  1  0.328732  0.599309  0.250000  1
  C  C20  1  0.681608  0.387674  0.750000  1
  C  C21  1  0.171268  0.900691  0.750000  1
  O  O22  1  0.093823  0.044701  0.750000  1
  O  O23  1  0.270588  0.055979  0.061609  1
  O  O24  1  0.270588  0.055979  0.438391  1
  O  O25  1  0.138785  0.289026  0.750000  1
  O  O26  1  0.016954  0.433850  0.250000  1
  O  O27  1  0.483046  0.066150  0.750000  1
  O  O28  1  0.361215  0.210974  0.250000  1
  O  O29  1  0.229412  0.444021  0.938391  1
  O  O30  1  0.229412  0.444021  0.561609  1
  O  O31  1  0.673135  0.163758  0.250000  1
  O  O32  1  0.184397  0.655470  0.250000  1
  O  O33  1  0.406177  0.455299  0.250000  1
  O  O34  1  0.627377  0.300603  0.750000  1
  O  O35  1  0.102605  0.827471  0.750000  1
  O  O36  1  0.872623  0.199397  0.250000  1
  O  O37  1  0.397395  0.672529  0.250000  1
  O  O38  1  0.598848  0.529360  0.750000  1
  O  O39  1  0.826865  0.336242  0.750000  1
  O  O40  1  0.315603  0.844530  0.750000  1
  O  O41  1  0.766932  0.554295  0.063587  1
  O  O42  1  0.766932  0.554295  0.436413  1
  O  O43  1  0.639385  0.788780  0.750000  1
  O  O44  1  0.519519  0.932257  0.250000  1
  O  O45  1  0.980481  0.567743  0.750000  1
  O  O46  1  0.860615  0.711220  0.250000  1
  O  O47  1  0.733068  0.945705  0.563587  1
  O  O48  1  0.733068  0.945705  0.936413  1
  O  O49  1  0.901152  0.970640  0.250000  1
