# generated using pymatgen
data_Fe10O11F9
_symmetry_space_group_name_H-M   'P 1'
_cell_length_a   4.72703536
_cell_length_b   4.72590281
_cell_length_c   15.42406875
_cell_angle_alpha   90.36884812
_cell_angle_beta   89.69269559
_cell_angle_gamma   92.40351890
_symmetry_Int_Tables_number   1
_chemical_formula_structural   Fe10O11F9
_chemical_formula_sum   'Fe10 O11 F9'
_cell_volume   344.25139574
_cell_formula_units_Z   1
loop_
 _symmetry_equiv_pos_site_id
 _symmetry_equiv_pos_as_xyz
  1  'x, y, z'
loop_
 _atom_site_type_symbol
 _atom_site_label
 _atom_site_symmetry_multiplicity
 _atom_site_fract_x
 _atom_site_fract_y
 _atom_site_fract_z
 _atom_site_occupancy
  Fe  Fe0  1  0.989620  0.991307  0.998505  1
  Fe  Fe1  1  0.020204  0.032807  0.194332  1
  Fe  Fe2  1  0.000421  0.980584  0.405814  1
  Fe  Fe3  1  0.041208  0.998169  0.601494  1
  Fe  Fe4  1  0.038377  0.999949  0.800662  1
  Fe  Fe5  1  0.521017  0.458350  0.095551  1
  Fe  Fe6  1  0.466574  0.510266  0.494029  1
  Fe  Fe7  1  0.491726  0.488511  0.304671  1
  Fe  Fe8  1  0.459962  0.500201  0.699918  1
  Fe  Fe9  1  0.460596  0.515571  0.906015  1
  O  O10  1  0.187812  0.807185  0.499704  1
  O  O11  1  0.199335  0.813800  0.700836  1
  O  O12  1  0.179611  0.812029  0.903506  1
  O  O13  1  0.295474  0.290199  0.001336  1
  O  O14  1  0.326060  0.307998  0.200873  1
  O  O15  1  0.290632  0.293939  0.396873  1
  O  O16  1  0.307558  0.316872  0.597617  1
  O  O17  1  0.304029  0.321142  0.802992  1
  O  O18  1  0.692183  0.689643  0.001127  1
  O  O19  1  0.691761  0.694044  0.396994  1
  O  O20  1  0.818132  0.177890  0.098091  1
  F  F21  1  0.203722  0.792735  0.103635  1
  F  F22  1  0.192609  0.807086  0.296130  1
  F  F23  1  0.715987  0.698042  0.202705  1
  F  F24  1  0.698050  0.707179  0.600135  1
  F  F25  1  0.695288  0.709088  0.799404  1
  F  F26  1  0.798806  0.196380  0.501488  1
  F  F27  1  0.812095  0.189216  0.298434  1
  F  F28  1  0.796333  0.197407  0.897268  1
  F  F29  1  0.804819  0.202410  0.699862  1
