# generated using pymatgen
data_Cs3YO3
_symmetry_space_group_name_H-M   'P 1'
_cell_length_a   12.23763685
_cell_length_b   7.63534261
_cell_length_c   8.39358056
_cell_angle_alpha   90.00000000
_cell_angle_beta   95.48184086
_cell_angle_gamma   90.00000000
_symmetry_Int_Tables_number   1
_chemical_formula_structural   Cs3YO3
_chemical_formula_sum   'Cs12 Y4 O12'
_cell_volume   780.69709465
_cell_formula_units_Z   4
loop_
 _symmetry_equiv_pos_site_id
 _symmetry_equiv_pos_as_xyz
  1  'x, y, z'
loop_
 _atom_site_type_symbol
 _atom_site_label
 _atom_site_symmetry_multiplicity
 _atom_site_fract_x
 _atom_site_fract_y
 _atom_site_fract_z
 _atom_site_occupancy
  Cs  Cs0  1  0.075544  0.339156  0.651443  1
  Cs  Cs1  1  0.155805  0.617757  0.055822  1
  Cs  Cs2  1  0.194227  0.820944  0.618816  1
  Cs  Cs3  1  0.305773  0.320944  0.381184  1
  Cs  Cs4  1  0.344195  0.117757  0.944178  1
  Cs  Cs5  1  0.424456  0.839156  0.348557  1
  Cs  Cs6  1  0.575544  0.160844  0.651443  1
  Cs  Cs7  1  0.655805  0.882243  0.055822  1
  Cs  Cs8  1  0.694227  0.679056  0.618816  1
  Cs  Cs9  1  0.805773  0.179056  0.381184  1
  Cs  Cs10  1  0.844195  0.382243  0.944178  1
  Cs  Cs11  1  0.924456  0.660844  0.348557  1
  Y  Y12  1  0.067699  0.085522  0.157905  1
  Y  Y13  1  0.432301  0.585522  0.842095  1
  Y  Y14  1  0.567699  0.414478  0.157905  1
  Y  Y15  1  0.932301  0.914478  0.842095  1
  O  O16  1  0.043845  0.344841  0.246116  1
  O  O17  1  0.089019  0.056192  0.898671  1
  O  O18  1  0.192274  0.943719  0.298901  1
  O  O19  1  0.307726  0.443719  0.701099  1
  O  O20  1  0.410981  0.556192  0.101329  1
  O  O21  1  0.456155  0.844841  0.753884  1
  O  O22  1  0.543845  0.155159  0.246116  1
  O  O23  1  0.589019  0.443808  0.898671  1
  O  O24  1  0.692274  0.556281  0.298901  1
  O  O25  1  0.807726  0.056281  0.701099  1
  O  O26  1  0.910981  0.943808  0.101329  1
  O  O27  1  0.956155  0.655159  0.753884  1
