# generated using pymatgen
data_TmBiO3
_symmetry_space_group_name_H-M   'P 1'
_cell_length_a   5.96712776
_cell_length_b   6.10516551
_cell_length_c   5.96712774
_cell_angle_alpha   119.25484086
_cell_angle_beta   59.99999991
_cell_angle_gamma   119.25484399
_symmetry_Int_Tables_number   1
_chemical_formula_structural   TmBiO3
_chemical_formula_sum   'Tm2 Bi2 O6'
_cell_volume   155.42248838
_cell_formula_units_Z   2
loop_
 _symmetry_equiv_pos_site_id
 _symmetry_equiv_pos_as_xyz
  1  'x, y, z'
loop_
 _atom_site_type_symbol
 _atom_site_label
 _atom_site_symmetry_multiplicity
 _atom_site_fract_x
 _atom_site_fract_y
 _atom_site_fract_z
 _atom_site_occupancy
  Tm  Tm0  1  0.222012  0.666035  0.222012  1
  Tm  Tm1  1  0.722012  0.166035  0.722012  1
  Bi  Bi2  1  0.007874  0.023623  0.007874  1
  Bi  Bi3  1  0.507874  0.523623  0.507874  1
  O  O4  1  0.075179  0.348524  0.415054  1
  O  O5  1  0.575179  0.848524  0.358291  1
  O  O6  1  0.358291  0.848524  0.915054  1
  O  O7  1  0.415054  0.348524  0.858291  1
  O  O8  1  0.858291  0.348524  0.075179  1
  O  O9  1  0.915054  0.848524  0.575179  1
