# generated using pymatgen
data_Li2Ti2Fe3O10
_symmetry_space_group_name_H-M   'P 1'
_cell_length_a   5.21587779
_cell_length_b   5.11913158
_cell_length_c   7.80852074
_cell_angle_alpha   76.38870869
_cell_angle_beta   104.33037091
_cell_angle_gamma   102.68724791
_symmetry_Int_Tables_number   1
_chemical_formula_structural   Li2Ti2Fe3O10
_chemical_formula_sum   'Li2 Ti2 Fe3 O10'
_cell_volume   193.42808063
_cell_formula_units_Z   1
loop_
 _symmetry_equiv_pos_site_id
 _symmetry_equiv_pos_as_xyz
  1  'x, y, z'
loop_
 _atom_site_type_symbol
 _atom_site_label
 _atom_site_symmetry_multiplicity
 _atom_site_fract_x
 _atom_site_fract_y
 _atom_site_fract_z
 _atom_site_occupancy
  Li  Li0  1  0.217876  0.541196  0.394196  1
  Li  Li1  1  0.782124  0.458804  0.605804  1
  Ti  Ti2  1  0.128463  0.010274  0.682323  1
  Ti  Ti3  1  0.871537  0.989726  0.317677  1
  Fe  Fe4  1  0.000000  0.500000  0.000000  1
  Fe  Fe5  1  0.688895  0.968272  0.892470  1
  Fe  Fe6  1  0.311105  0.031728  0.107530  1
  O  O7  1  0.039233  0.217776  0.857977  1
  O  O8  1  0.068537  0.773998  0.513565  1
  O  O9  1  0.321153  0.784000  0.935942  1
  O  O10  1  0.185989  0.285371  0.210976  1
  O  O11  1  0.474563  0.175959  0.680627  1
  O  O12  1  0.525437  0.824041  0.319373  1
  O  O13  1  0.814011  0.714629  0.789024  1
  O  O14  1  0.678847  0.216000  0.064058  1
  O  O15  1  0.931463  0.226002  0.486435  1
  O  O16  1  0.960767  0.782224  0.142023  1
