# generated using pymatgen
data_LiMnV(P2O7)2
_symmetry_space_group_name_H-M   'P 1'
_cell_length_a   18.05912786
_cell_length_b   8.15984812
_cell_length_c   7.14837307
_cell_angle_alpha   91.21575368
_cell_angle_beta   90.36524410
_cell_angle_gamma   88.38771768
_symmetry_Int_Tables_number   1
_chemical_formula_structural   LiMnV(P2O7)2
_chemical_formula_sum   'Li4 Mn4 V4 P16 O56'
_cell_volume   1052.71074556
_cell_formula_units_Z   4
loop_
 _symmetry_equiv_pos_site_id
 _symmetry_equiv_pos_as_xyz
  1  'x, y, z'
loop_
 _atom_site_type_symbol
 _atom_site_label
 _atom_site_symmetry_multiplicity
 _atom_site_fract_x
 _atom_site_fract_y
 _atom_site_fract_z
 _atom_site_occupancy
  Li  Li0  1  0.124158  0.863519  0.796497  1
  Li  Li1  1  0.374330  0.863501  0.046669  1
  Li  Li2  1  0.624915  0.864176  0.297527  1
  Li  Li3  1  0.873837  0.357801  0.200953  1
  Mn  Mn4  1  0.128767  0.007139  0.396341  1
  Mn  Mn5  1  0.379076  0.006688  0.645454  1
  Mn  Mn6  1  0.629732  0.007430  0.894894  1
  Mn  Mn7  1  0.878034  0.992667  0.155800  1
  V  V8  1  0.122329  0.494910  0.839973  1
  V  V9  1  0.371698  0.493618  0.091395  1
  V  V10  1  0.621344  0.495518  0.341548  1
  V  V11  1  0.871812  0.506155  0.597035  1
  P  P12  1  0.032249  0.780224  0.123381  1
  P  P13  1  0.029596  0.678286  0.514829  1
  P  P14  1  0.217754  0.287004  0.132535  1
  P  P15  1  0.220855  0.176102  0.741763  1
  P  P16  1  0.281632  0.781654  0.373140  1
  P  P17  1  0.279953  0.678899  0.763943  1
  P  P18  1  0.468157  0.286383  0.382623  1
  P  P19  1  0.529739  0.679731  0.014514  1
  P  P20  1  0.470992  0.175948  0.992057  1
  P  P21  1  0.531668  0.781914  0.623922  1
  P  P22  1  0.720605  0.177683  0.243098  1
  P  P23  1  0.718913  0.288539  0.631985  1
  P  P24  1  0.778747  0.683100  0.261991  1
  P  P25  1  0.782025  0.782358  0.872020  1
  P  P26  1  0.970209  0.174686  0.488452  1
  P  P27  1  0.968467  0.288024  0.877769  1
  O  O28  1  0.039405  0.651602  0.291789  1
  O  O29  1  0.077778  0.932462  0.163537  1
  O  O30  1  0.052592  0.174632  0.444078  1
  O  O31  1  0.059270  0.843774  0.570905  1
  O  O32  1  0.073757  0.535208  0.601858  1
  O  O33  1  0.171173  0.439508  0.072174  1
  O  O34  1  0.050585  0.332905  0.893316  1
  O  O35  1  0.064346  0.686032  0.952319  1
  O  O36  1  0.193065  0.202473  0.302925  1
  O  O37  1  0.199734  0.826071  0.343478  1
  O  O38  1  0.174422  0.038451  0.657583  1
  O  O39  1  0.187519  0.347800  0.702956  1
  O  O40  1  0.195563  0.672145  0.800944  1
  O  O41  1  0.299930  0.335791  0.145143  1
  O  O42  1  0.313008  0.687133  0.201364  1
  O  O43  1  0.213369  0.149869  0.964465  1
  O  O44  1  0.289487  0.652518  0.540699  1
  O  O45  1  0.328053  0.932734  0.412902  1
  O  O46  1  0.302421  0.172615  0.691076  1
  O  O47  1  0.310434  0.844133  0.819842  1
  O  O48  1  0.322718  0.534888  0.851283  1
  O  O49  1  0.445403  0.671888  0.051249  1
  O  O50  1  0.421625  0.439263  0.322547  1
  O  O51  1  0.463040  0.149125  0.214336  1
  O  O52  1  0.442911  0.202109  0.552780  1
  O  O53  1  0.449787  0.825896  0.593730  1
  O  O54  1  0.424600  0.038583  0.907014  1
  O  O55  1  0.560594  0.844832  0.069908  1
  O  O56  1  0.437348  0.347607  0.953589  1
  O  O57  1  0.572685  0.536455  0.102754  1
  O  O58  1  0.550351  0.333487  0.394347  1
  O  O59  1  0.562979  0.687575  0.452296  1
  O  O60  1  0.539656  0.652664  0.791396  1
  O  O61  1  0.577979  0.933095  0.663546  1
  O  O62  1  0.552643  0.172280  0.941535  1
  O  O63  1  0.675855  0.038707  0.156771  1
  O  O64  1  0.687075  0.348433  0.203433  1
  O  O65  1  0.694862  0.671665  0.302625  1
  O  O66  1  0.671122  0.438754  0.570936  1
  O  O67  1  0.714129  0.150353  0.464826  1
  O  O68  1  0.788149  0.650174  0.038817  1
  O  O69  1  0.694281  0.204101  0.803299  1
  O  O70  1  0.802896  0.176986  0.192204  1
  O  O71  1  0.700190  0.828919  0.842028  1
  O  O72  1  0.807259  0.848465  0.314556  1
  O  O73  1  0.824033  0.537478  0.343242  1
  O  O74  1  0.800348  0.342513  0.642967  1
  O  O75  1  0.809884  0.683081  0.702029  1
  O  O76  1  0.940740  0.210398  0.052614  1
  O  O77  1  0.950434  0.819988  0.090007  1
  O  O78  1  0.828129  0.931349  0.922651  1
  O  O79  1  0.926721  0.037933  0.396611  1
  O  O80  1  0.933853  0.344576  0.447829  1
  O  O81  1  0.945967  0.662105  0.551829  1
  O  O82  1  0.920787  0.441831  0.828712  1
  O  O83  1  0.962149  0.151455  0.712170  1
