# generated using pymatgen
data_Mn6O11F
_symmetry_space_group_name_H-M   'P 1'
_cell_length_a   10.16936141
_cell_length_b   6.31942870
_cell_length_c   2.96680099
_cell_angle_alpha   90.00000000
_cell_angle_beta   90.00000000
_cell_angle_gamma   108.09793937
_symmetry_Int_Tables_number   1
_chemical_formula_structural   Mn6O11F
_chemical_formula_sum   'Mn6 O11 F1'
_cell_volume   181.22759601
_cell_formula_units_Z   1
loop_
 _symmetry_equiv_pos_site_id
 _symmetry_equiv_pos_as_xyz
  1  'x, y, z'
loop_
 _atom_site_type_symbol
 _atom_site_label
 _atom_site_symmetry_multiplicity
 _atom_site_fract_x
 _atom_site_fract_y
 _atom_site_fract_z
 _atom_site_occupancy
  Mn  Mn0  1  0.014721  0.007337  0.000000  1
  Mn  Mn1  1  0.339951  0.169973  0.500000  1
  Mn  Mn2  1  0.000144  0.500060  0.500000  1
  Mn  Mn3  1  0.667063  0.333525  0.000000  1
  Mn  Mn4  1  0.329137  0.664612  0.000000  1
  Mn  Mn5  1  0.652042  0.826031  0.500000  1
  O  O6  1  0.136022  0.068071  0.500000  1
  O  O7  1  0.997274  0.301674  0.000000  1
  O  O8  1  0.333549  0.361306  0.000000  1
  O  O9  1  0.997311  0.695594  0.000000  1
  O  O10  1  0.668008  0.027064  0.000000  1
  O  O11  1  0.539007  0.269519  0.500000  1
  O  O12  1  0.201114  0.600511  0.500000  1
  O  O13  1  0.458590  0.729266  0.500000  1
  O  O14  1  0.796055  0.398123  0.500000  1
  O  O15  1  0.667994  0.640970  0.000000  1
  O  O16  1  0.333579  0.972262  0.000000  1
  F  F17  1  0.868437  0.934103  0.500000  1
