# generated using pymatgen
data_Li4ScFe3(SiO3)8
_symmetry_space_group_name_H-M   'P 1'
_cell_length_a   9.54697973
_cell_length_b   13.91926932
_cell_length_c   7.37187186
_cell_angle_alpha   89.87817985
_cell_angle_beta   110.05214699
_cell_angle_gamma   106.17630393
_symmetry_Int_Tables_number   1
_chemical_formula_structural   Li4ScFe3(SiO3)8
_chemical_formula_sum   'Li8 Sc2 Fe6 Si16 O48'
_cell_volume   879.05992137
_cell_formula_units_Z   2
loop_
 _symmetry_equiv_pos_site_id
 _symmetry_equiv_pos_as_xyz
  1  'x, y, z'
loop_
 _atom_site_type_symbol
 _atom_site_label
 _atom_site_symmetry_multiplicity
 _atom_site_fract_x
 _atom_site_fract_y
 _atom_site_fract_z
 _atom_site_occupancy
  Li  Li0  1  0.939815  0.316520  0.059501  1
  Li  Li1  1  0.559544  0.184873  0.440687  1
  Li  Li2  1  0.191466  0.066307  0.809139  1
  Li  Li3  1  0.690042  0.565075  0.309380  1
  Li  Li4  1  0.808090  0.933502  0.191407  1
  Li  Li5  1  0.309801  0.434391  0.690707  1
  Li  Li6  1  0.441611  0.814933  0.559223  1
  Li  Li7  1  0.058280  0.682963  0.941425  1
  Sc  Sc8  1  0.988450  0.113591  0.011674  1
  Sc  Sc9  1  0.237730  0.862539  0.762339  1
  Fe  Fe10  1  0.759687  0.136255  0.240746  1
  Fe  Fe11  1  0.739424  0.364683  0.260402  1
  Fe  Fe12  1  0.511019  0.385813  0.489637  1
  Fe  Fe13  1  0.489044  0.613791  0.510945  1
  Fe  Fe14  1  0.260582  0.633952  0.738988  1
  Fe  Fe15  1  0.009122  0.884417  0.990117  1
  Si  Si16  1  0.934487  0.273761  0.655350  1
  Si  Si17  1  0.602021  0.014325  0.806392  1
  Si  Si18  1  0.898980  0.486879  0.692415  1
  Si  Si19  1  0.565978  0.228396  0.842122  1
  Si  Si20  1  0.685152  0.522090  0.907100  1
  Si  Si21  1  0.848422  0.762947  0.555357  1
  Si  Si22  1  0.648704  0.735773  0.943219  1
  Si  Si23  1  0.815018  0.976988  0.589733  1
  Si  Si24  1  0.185206  0.022907  0.407384  1
  Si  Si25  1  0.354277  0.265045  0.057120  1
  Si  Si26  1  0.149543  0.237817  0.445482  1
  Si  Si27  1  0.315144  0.477818  0.093164  1
  Si  Si28  1  0.435774  0.771245  0.159067  1
  Si  Si29  1  0.100581  0.513560  0.306281  1
  Si  Si30  1  0.399236  0.986818  0.196221  1
  Si  Si31  1  0.064247  0.726435  0.340740  1
  O  O32  1  0.963840  0.002288  0.797915  1
  O  O33  1  0.904835  0.206319  0.824593  1
  O  O34  1  0.966871  0.389821  0.741667  1
  O  O35  1  0.841544  0.045352  0.419515  1
  O  O36  1  0.996625  0.208226  0.241364  1
  O  O37  1  0.841222  0.514061  0.867292  1
  O  O38  1  0.960663  0.414828  0.302068  1
  O  O39  1  0.786520  0.245684  0.445230  1
  O  O40  1  0.715861  0.638379  0.993384  1
  O  O41  1  0.534808  0.111865  0.756744  1
  O  O42  1  0.788458  0.835336  0.948602  1
  O  O43  1  0.592136  0.295708  0.670422  1
  O  O44  1  0.750291  0.044603  0.015510  1
  O  O45  1  0.747316  0.455714  0.486038  1
  O  O46  1  0.410346  0.237621  0.880922  1
  O  O47  1  0.909947  0.736298  0.383439  1
  O  O48  1  0.709515  0.663878  0.550242  1
  O  O49  1  0.713556  0.255632  0.052816  1
  O  O50  1  0.536693  0.494653  0.697100  1
  O  O51  1  0.539135  0.085488  0.199960  1
  O  O52  1  0.781486  0.860587  0.502636  1
  O  O53  1  0.342643  0.014380  0.371838  1
  O  O54  1  0.341832  0.545007  0.921218  1
  O  O55  1  0.505237  0.296146  0.264141  1
  O  O56  1  0.497203  0.704827  0.736676  1
  O  O57  1  0.658557  0.454535  0.078466  1
  O  O58  1  0.661477  0.987801  0.632389  1
  O  O59  1  0.215659  0.139561  0.490418  1
  O  O60  1  0.464962  0.914665  0.801680  1
  O  O61  1  0.463361  0.505575  0.303079  1
  O  O62  1  0.286892  0.741431  0.950153  1
  O  O63  1  0.289825  0.336044  0.449153  1
  O  O64  1  0.092191  0.264642  0.620857  1
  O  O65  1  0.591588  0.763677  0.118324  1
  O  O66  1  0.252301  0.544378  0.513139  1
  O  O67  1  0.246494  0.957518  0.991970  1
  O  O68  1  0.409830  0.704597  0.331063  1
  O  O69  1  0.216397  0.165675  0.053897  1
  O  O70  1  0.464430  0.888037  0.241914  1
  O  O71  1  0.285387  0.361783  0.007346  1
  O  O72  1  0.213658  0.752325  0.548035  1
  O  O73  1  0.039332  0.585893  0.698036  1
  O  O74  1  0.158887  0.486020  0.132203  1
  O  O75  1  0.997498  0.792939  0.764218  1
  O  O76  1  0.156158  0.956363  0.577160  1
  O  O77  1  0.032296  0.610519  0.253561  1
  O  O78  1  0.091023  0.794531  0.169862  1
  O  O79  1  0.036741  0.992378  0.198280  1
