# generated using pymatgen
data_Ti17(NO4)6
_symmetry_space_group_name_H-M   'P 1'
_cell_length_a   10.39998436
_cell_length_b   10.71156801
_cell_length_c   10.73826124
_cell_angle_alpha   71.46362966
_cell_angle_beta   82.46704657
_cell_angle_gamma   95.30093975
_symmetry_Int_Tables_number   1
_chemical_formula_structural   Ti17(NO4)6
_chemical_formula_sum   'Ti34 N12 O48'
_cell_volume   1112.90097451
_cell_formula_units_Z   2
loop_
 _symmetry_equiv_pos_site_id
 _symmetry_equiv_pos_as_xyz
  1  'x, y, z'
loop_
 _atom_site_type_symbol
 _atom_site_label
 _atom_site_symmetry_multiplicity
 _atom_site_fract_x
 _atom_site_fract_y
 _atom_site_fract_z
 _atom_site_occupancy
  Ti  Ti0  1  0.186654  0.096638  0.071707  1
  Ti  Ti1  1  0.373678  0.021898  0.571184  1
  Ti  Ti2  1  0.378392  0.150718  0.250984  1
  Ti  Ti3  1  0.688268  0.094734  0.073217  1
  Ti  Ti4  1  0.292989  0.311436  0.428816  1
  Ti  Ti5  1  0.874621  0.146700  0.250849  1
  Ti  Ti6  1  0.288275  0.182615  0.749016  1
  Ti  Ti7  1  0.043476  0.361242  0.554813  1
  Ti  Ti8  1  0.864906  0.017192  0.576989  1
  Ti  Ti9  1  0.352706  0.431428  0.070168  1
  Ti  Ti10  1  0.801760  0.316141  0.423011  1
  Ti  Ti11  1  0.480013  0.236695  0.928293  1
  Ti  Ti12  1  0.857019  0.432635  0.076781  1
  Ti  Ti13  1  0.792046  0.186633  0.749151  1
  Ti  Ti14  1  0.540841  0.354679  0.570756  1
  Ti  Ti15  1  0.545711  0.483125  0.248881  1
  Ti  Ti16  1  0.019598  0.756868  0.077415  1
  Ti  Ti17  1  0.145622  0.565122  0.943369  1
  Ti  Ti18  1  0.978399  0.238599  0.926783  1
  Ti  Ti19  1  0.462221  0.644281  0.425597  1
  Ti  Ti20  1  0.521045  0.768212  0.056631  1
  Ti  Ti21  1  0.204446  0.689052  0.574403  1
  Ti  Ti22  1  0.456459  0.516885  0.749796  1
  Ti  Ti23  1  0.210208  0.816449  0.250204  1
  Ti  Ti24  1  0.125825  0.978654  0.429244  1
  Ti  Ti25  1  0.647069  0.576466  0.922585  1
  Ti  Ti26  1  0.120956  0.850209  0.751119  1
  Ti  Ti27  1  0.961729  0.641831  0.422948  1
  Ti  Ti28  1  0.955139  0.519852  0.749932  1
  Ti  Ti29  1  0.704938  0.691502  0.577052  1
  Ti  Ti30  1  0.711528  0.813481  0.250068  1
  Ti  Ti31  1  0.313960  0.901906  0.929832  1
  Ti  Ti32  1  0.623191  0.972091  0.445187  1
  Ti  Ti33  1  0.809648  0.900698  0.923219  1
  N  N34  1  0.232517  0.007041  0.250204  1
  N  N35  1  0.732282  0.006442  0.249264  1
  N  N36  1  0.403591  0.339631  0.249730  1
  N  N37  1  0.434149  0.326292  0.749796  1
  N  N38  1  0.885353  0.329402  0.250419  1
  N  N39  1  0.064698  0.687477  0.250335  1
  N  N40  1  0.934385  0.326892  0.750736  1
  N  N41  1  0.097712  0.659404  0.750626  1
  N  N42  1  0.568954  0.673929  0.249374  1
  N  N43  1  0.601969  0.645857  0.749665  1
  N  N44  1  0.263075  0.993702  0.750270  1
  N  N45  1  0.781313  0.003931  0.749581  1
  O  O46  1  0.023743  0.142786  0.118843  1
  O  O47  1  0.479822  0.057591  0.377109  1
  O  O48  1  0.312557  0.248511  0.064090  1
  O  O49  1  0.523925  0.143890  0.117494  1
  O  O50  1  0.249215  0.125921  0.434545  1
  O  O51  1  0.417452  0.207412  0.565455  1
  O  O52  1  0.981998  0.058105  0.379308  1
  O  O53  1  0.148843  0.384429  0.390297  1
  O  O54  1  0.142742  0.189443  0.882506  1
  O  O55  1  0.186845  0.275742  0.622891  1
  O  O56  1  0.354110  0.084823  0.935910  1
  O  O57  1  0.751631  0.122321  0.438161  1
  O  O58  1  0.813985  0.247648  0.063274  1
  O  O59  1  0.195497  0.477380  0.109273  1
  O  O60  1  0.019946  0.416934  0.936746  1
  O  O61  1  0.082026  0.541131  0.564198  1
  O  O62  1  0.417627  0.459326  0.435074  1
  O  O63  1  0.480689  0.583707  0.062316  1
  O  O64  1  0.915035  0.211012  0.561839  1
  O  O65  1  0.689863  0.474122  0.120742  1
  O  O66  1  0.642924  0.190548  0.881157  1
  O  O67  1  0.852681  0.085686  0.936726  1
  O  O68  1  0.646906  0.389865  0.382626  1
  O  O69  1  0.684668  0.275228  0.620692  1
  O  O70  1  0.311267  0.524839  0.877318  1
  O  O71  1  0.581187  0.541422  0.562115  1
  O  O72  1  0.520825  0.416183  0.935009  1
  O  O73  1  0.353444  0.611821  0.618002  1
  O  O74  1  0.085479  0.791911  0.437885  1
  O  O75  1  0.145841  0.917151  0.064991  1
  O  O76  1  0.313223  0.721512  0.381998  1
  O  O77  1  0.355400  0.808494  0.122682  1
  O  O78  1  0.971897  0.590493  0.050987  1
  O  O79  1  0.906181  0.458243  0.449678  1
  O  O80  1  0.185978  0.749627  0.937684  1
  O  O81  1  0.584641  0.792202  0.435802  1
  O  O82  1  0.812174  0.719516  0.379771  1
  O  O83  1  0.808870  0.521625  0.880849  1
  O  O84  1  0.019761  0.943468  0.617374  1
  O  O85  1  0.249040  0.874007  0.564926  1
  O  O86  1  0.857796  0.811708  0.119151  1
  O  O87  1  0.646721  0.916400  0.063254  1
  O  O88  1  0.854492  0.613817  0.620229  1
  O  O89  1  0.694770  0.742840  0.949013  1
  O  O90  1  0.517824  0.948904  0.609703  1
  O  O91  1  0.471169  0.855953  0.890727  1
  O  O92  1  0.760486  0.875091  0.550322  1
  O  O93  1  0.976804  0.859211  0.879258  1
