# generated using pymatgen
data_Al2CuO4
_symmetry_space_group_name_H-M   'P 1'
_cell_length_a   5.67720627
_cell_length_b   5.82222979
_cell_length_c   5.58745608
_cell_angle_alpha   118.67483381
_cell_angle_beta   90.00000339
_cell_angle_gamma   60.82059678
_symmetry_Int_Tables_number   1
_chemical_formula_structural   Al2CuO4
_chemical_formula_sum   'Al4 Cu2 O8'
_cell_volume   134.71506464
_cell_formula_units_Z   2
loop_
 _symmetry_equiv_pos_site_id
 _symmetry_equiv_pos_as_xyz
  1  'x, y, z'
loop_
 _atom_site_type_symbol
 _atom_site_label
 _atom_site_symmetry_multiplicity
 _atom_site_fract_x
 _atom_site_fract_y
 _atom_site_fract_z
 _atom_site_occupancy
  Al  Al0  1  0.012829  0.974343  0.987171  1
  Al  Al1  1  0.237171  0.525657  0.262829  1
  Al  Al2  1  0.125000  0.250000  0.625000  1
  Al  Al3  1  0.625000  0.250000  0.625000  1
  Cu  Cu4  1  0.625000  0.750000  0.125000  1
  Cu  Cu5  1  0.625000  0.750000  0.625000  1
  O  O6  1  0.359227  0.788368  0.394185  1
  O  O7  1  0.852405  0.788368  0.394185  1
  O  O8  1  0.397595  0.711632  0.855815  1
  O  O9  1  0.358467  0.283066  0.407436  1
  O  O10  1  0.358467  0.283066  0.875630  1
  O  O11  1  0.890773  0.711632  0.855815  1
  O  O12  1  0.891533  0.216934  0.374370  1
  O  O13  1  0.891533  0.216934  0.842564  1
