# generated using pymatgen
data_Sn3P6WO24
_symmetry_space_group_name_H-M   'P 1'
_cell_length_a   9.00402339
_cell_length_b   9.00402333
_cell_length_c   9.00402299
_cell_angle_alpha   58.29107125
_cell_angle_beta   58.29106972
_cell_angle_gamma   58.29107193
_symmetry_Int_Tables_number   1
_chemical_formula_structural   Sn3P6WO24
_chemical_formula_sum   'Sn3 P6 W1 O24'
_cell_volume   495.97013325
_cell_formula_units_Z   1
loop_
 _symmetry_equiv_pos_site_id
 _symmetry_equiv_pos_as_xyz
  1  'x, y, z'
loop_
 _atom_site_type_symbol
 _atom_site_label
 _atom_site_symmetry_multiplicity
 _atom_site_fract_x
 _atom_site_fract_y
 _atom_site_fract_z
 _atom_site_occupancy
  Sn  Sn0  1  0.143248  0.143248  0.143248  1
  Sn  Sn1  1  0.358503  0.358503  0.358503  1
  Sn  Sn2  1  0.643238  0.643238  0.643238  1
  P  P3  1  0.037321  0.749739  0.461902  1
  P  P4  1  0.461902  0.037321  0.749739  1
  P  P5  1  0.749739  0.461902  0.037321  1
  P  P6  1  0.252501  0.535257  0.962401  1
  P  P7  1  0.535257  0.962401  0.252501  1
  P  P8  1  0.962401  0.252501  0.535257  1
  W  W9  1  0.857350  0.857350  0.857350  1
  O  O10  1  0.131434  0.268856  0.519568  1
  O  O11  1  0.268856  0.519568  0.131434  1
  O  O12  1  0.059857  0.920613  0.289386  1
  O  O13  1  0.519568  0.131434  0.268856  1
  O  O14  1  0.214467  0.578851  0.450405  1
  O  O15  1  0.995603  0.785384  0.637936  1
  O  O16  1  0.289386  0.059857  0.920613  1
  O  O17  1  0.450405  0.214467  0.578851  1
  O  O18  1  0.578851  0.450405  0.214467  1
  O  O19  1  0.219256  0.373135  0.987849  1
  O  O20  1  0.073008  0.714835  0.931670  1
  O  O21  1  0.373135  0.987849  0.219256  1
  O  O22  1  0.637936  0.995603  0.785384  1
  O  O23  1  0.920613  0.289386  0.059857  1
  O  O24  1  0.785384  0.637936  0.995603  1
  O  O25  1  0.414674  0.567978  0.782034  1
  O  O26  1  0.567978  0.782034  0.414674  1
  O  O27  1  0.714835  0.931670  0.073008  1
  O  O28  1  0.987849  0.219256  0.373135  1
  O  O29  1  0.782034  0.414674  0.567978  1
  O  O30  1  0.489321  0.870481  0.721935  1
  O  O31  1  0.931670  0.073008  0.714835  1
  O  O32  1  0.721935  0.489321  0.870481  1
  O  O33  1  0.870481  0.721935  0.489321  1
