# generated using pymatgen
data_Li4Ti3(CoO3)6
_symmetry_space_group_name_H-M   'P 1'
_cell_length_a   8.82142188
_cell_length_b   24.64260320
_cell_length_c   2.87656033
_cell_angle_alpha   90.00000025
_cell_angle_beta   90.00000302
_cell_angle_gamma   90.04175185
_symmetry_Int_Tables_number   1
_chemical_formula_structural   Li4Ti3(CoO3)6
_chemical_formula_sum   'Li8 Ti6 Co12 O36'
_cell_volume   625.31456993
_cell_formula_units_Z   2
loop_
 _symmetry_equiv_pos_site_id
 _symmetry_equiv_pos_as_xyz
  1  'x, y, z'
loop_
 _atom_site_type_symbol
 _atom_site_label
 _atom_site_symmetry_multiplicity
 _atom_site_fract_x
 _atom_site_fract_y
 _atom_site_fract_z
 _atom_site_occupancy
  Li  Li0  1  0.187002  0.993267  0.000000  1
  Li  Li1  1  0.190882  0.208869  0.000000  1
  Li  Li2  1  0.308841  0.708376  -0.000000  1
  Li  Li3  1  0.316006  0.493451  1.000000  1
  Li  Li4  1  0.678206  0.503074  0.000000  1
  Li  Li5  1  0.689028  0.295994  0.000000  1
  Li  Li6  1  0.811794  0.795791  0.000000  1
  Li  Li7  1  0.818685  0.002340  0.000000  1
  Ti  Ti8  1  0.014144  0.103674  0.000000  1
  Ti  Ti9  1  0.483073  0.603224  0.000000  1
  Ti  Ti10  1  0.510939  0.394907  0.000001  1
  Ti  Ti11  1  0.650762  0.695033  0.500000  1
  Ti  Ti12  1  0.849338  0.195550  0.500000  1
  Ti  Ti13  1  0.998082  0.893019  1.000000  1
  Co  Co14  1  0.996478  0.500884  1.000000  1
  Co  Co15  1  0.030603  0.312412  -0.000000  1
  Co  Co16  1  0.129640  0.585924  0.500000  1
  Co  Co17  1  0.146887  0.805100  0.499999  1
  Co  Co18  1  0.351999  0.305143  0.500001  1
  Co  Co19  1  0.369717  0.086149  0.500000  1
  Co  Co20  1  0.469084  0.811895  1.000000  1
  Co  Co21  1  0.502858  0.000801  0.000000  1
  Co  Co22  1  0.511123  0.190623  0.000000  1
  Co  Co23  1  0.633295  0.914367  0.500000  1
  Co  Co24  1  0.868493  0.414579  0.500000  1
  Co  Co25  1  0.990288  0.691427  1.000000  1
  O  O26  1  0.003886  0.425981  -0.000000  1
  O  O27  1  0.992905  0.575746  0.999999  1
  O  O28  1  0.045180  0.941621  0.500000  1
  O  O29  1  0.057656  0.161551  0.500000  1
  O  O30  1  0.103213  0.661807  0.500000  1
  O  O31  1  0.113056  0.757990  0.999999  1
  O  O32  1  0.140143  0.507632  0.499999  1
  O  O33  1  0.149911  0.281810  0.500000  1
  O  O34  1  0.187810  0.854765  1.000000  1
  O  O35  1  0.227117  0.086629  0.000000  1
  O  O36  1  0.274945  0.586155  1.000000  1
  O  O37  1  0.311909  0.353577  0.000001  1
  O  O38  1  0.351318  0.781932  0.499999  1
  O  O39  1  0.358407  0.009136  0.500000  1
  O  O40  1  0.387578  0.257975  -0.000002  1
  O  O41  1  0.395664  0.160708  0.500000  1
  O  O42  1  0.443002  0.661600  0.500000  1
  O  O43  1  0.452258  0.441398  0.500001  1
  O  O44  1  0.505589  0.077701  0.000000  1
  O  O45  1  0.497570  0.924548  -0.000000  1
  O  O46  1  0.539104  0.555926  0.500000  1
  O  O47  1  0.551097  0.336211  0.500000  1
  O  O48  1  0.585440  0.841438  0.500000  1
  O  O49  1  0.609979  0.746197  0.000000  1
  O  O50  1  0.648379  0.991157  0.500000  1
  O  O51  1  0.637692  0.216511  0.500000  1
  O  O52  1  0.683913  0.643006  1.000000  1
  O  O53  1  0.719890  0.411000  0.000000  1
  O  O54  1  0.775600  0.911227  0.000000  1
  O  O55  1  0.816597  0.142537  0.000000  1
  O  O56  1  0.863072  0.716606  0.500000  1
  O  O57  1  0.852176  0.492773  0.500000  1
  O  O58  1  0.890352  0.245549  0.000000  1
  O  O59  1  0.913433  0.340515  0.500000  1
  O  O60  1  0.944817  0.836875  0.500000  1
  O  O61  1  0.962092  0.056338  0.500000  1
