# generated using pymatgen
data_Li2VCr(P2O7)2
_symmetry_space_group_name_H-M   'P 1'
_cell_length_a   9.54961844
_cell_length_b   9.54903449
_cell_length_c   7.01796106
_cell_angle_alpha   99.44045763
_cell_angle_beta   99.45246923
_cell_angle_gamma   118.72051285
_symmetry_Int_Tables_number   1
_chemical_formula_structural   Li2VCr(P2O7)2
_chemical_formula_sum   'Li4 V2 Cr2 P8 O28'
_cell_volume   531.33319862
_cell_formula_units_Z   2
loop_
 _symmetry_equiv_pos_site_id
 _symmetry_equiv_pos_as_xyz
  1  'x, y, z'
loop_
 _atom_site_type_symbol
 _atom_site_label
 _atom_site_symmetry_multiplicity
 _atom_site_fract_x
 _atom_site_fract_y
 _atom_site_fract_z
 _atom_site_occupancy
  Li  Li0  1  0.156455  0.019700  0.677094  1
  Li  Li1  1  0.730509  0.093764  0.322475  1
  Li  Li2  1  0.230034  0.593410  0.322937  1
  Li  Li3  1  0.656325  0.519666  0.677296  1
  V  V4  1  0.858637  0.357796  0.729305  1
  V  V5  1  0.892509  0.891632  0.270960  1
  Cr  Cr6  1  0.392693  0.392388  0.272398  1
  Cr  Cr7  1  0.357382  0.857053  0.727461  1
  P  P8  1  0.110534  0.290406  0.521140  1
  P  P9  1  0.750901  0.035666  0.914390  1
  P  P10  1  0.253061  0.536210  0.914561  1
  P  P11  1  0.459403  0.139842  0.477695  1
  P  P12  1  0.609240  0.789755  0.522692  1
  P  P13  1  0.712891  0.497399  0.086312  1
  P  P14  1  0.215211  0.998594  0.084794  1
  P  P15  1  0.960563  0.640331  0.478486  1
  O  O16  1  0.074707  0.111649  0.481851  1
  O  O17  1  0.359449  0.038653  0.606435  1
  O  O18  1  0.582877  0.017554  0.916397  1
  O  O19  1  0.084955  0.518879  0.919115  1
  O  O20  1  0.221145  0.373243  0.753618  1
  O  O21  1  0.376746  0.028644  0.246159  1
  O  O22  1  0.232349  0.166270  0.082401  1
  O  O23  1  0.212401  0.390680  0.393245  1
  O  O24  1  0.452919  0.298905  0.491020  1
  O  O25  1  0.138509  0.675170  0.518509  1
  O  O26  1  0.638065  0.175806  0.517906  1
  O  O27  1  0.863881  0.187215  0.851076  1
  O  O28  1  0.365177  0.688729  0.853507  1
  O  O29  1  0.218519  0.911851  0.883312  1
  O  O30  1  0.716652  0.412757  0.884828  1
  O  O31  1  0.338213  0.531507  0.116283  1
  O  O32  1  0.837372  0.033580  0.115635  1
  O  O33  1  0.062896  0.885654  0.147205  1
  O  O34  1  0.561123  0.385305  0.147872  1
  O  O35  1  0.574082  0.611705  0.481585  1
  O  O36  1  0.450545  0.796898  0.508799  1
  O  O37  1  0.951467  0.295758  0.505373  1
  O  O38  1  0.859159  0.537437  0.606067  1
  O  O39  1  0.721174  0.873359  0.753485  1
  O  O40  1  0.876664  0.529051  0.246766  1
  O  O41  1  0.731319  0.666100  0.082352  1
  O  O42  1  0.711192  0.890593  0.394069  1
  O  O43  1  0.954509  0.799021  0.495137  1
