# generated using pymatgen
data_LiVOF3
_symmetry_space_group_name_H-M   'P 1'
_cell_length_a   6.87885558
_cell_length_b   6.87885558
_cell_length_c   6.39179969
_cell_angle_alpha   89.50016969
_cell_angle_beta   90.49983031
_cell_angle_gamma   66.34517485
_symmetry_Int_Tables_number   1
_chemical_formula_structural   LiVOF3
_chemical_formula_sum   'Li4 V4 O4 F12'
_cell_volume   277.00394802
_cell_formula_units_Z   4
loop_
 _symmetry_equiv_pos_site_id
 _symmetry_equiv_pos_as_xyz
  1  'x, y, z'
loop_
 _atom_site_type_symbol
 _atom_site_label
 _atom_site_symmetry_multiplicity
 _atom_site_fract_x
 _atom_site_fract_y
 _atom_site_fract_z
 _atom_site_occupancy
  Li  Li0  1  0.237260  0.092761  0.102499  1
  Li  Li1  1  0.809547  0.059547  0.875000  1
  Li  Li2  1  0.272836  0.522836  0.375000  1
  Li  Li3  1  0.842761  0.487260  0.647501  1
  V  V4  1  0.659038  0.909038  0.375000  1
  V  V5  1  0.690525  0.449996  0.139528  1
  V  V6  1  0.199996  0.940525  0.610472  1
  V  V7  1  0.288964  0.538964  0.875000  1
  O  O8  1  0.371502  0.994089  0.406301  1
  O  O9  1  0.744089  0.621502  0.343699  1
  O  O10  1  0.563856  0.355594  0.922545  1
  O  O11  1  0.105594  0.813856  0.827455  1
  F  F12  1  0.937919  0.196960  0.114391  1
  F  F13  1  0.689523  0.959769  0.104057  1
  F  F14  1  0.389698  0.673294  0.127206  1
  F  F15  1  0.946960  0.187919  0.635609  1
  F  F16  1  0.585005  0.299944  0.344964  1
  F  F17  1  0.194643  0.418446  0.102059  1
  F  F18  1  0.168446  0.444643  0.647941  1
  F  F19  1  0.788315  0.580519  0.924646  1
  F  F20  1  0.049944  0.835005  0.405036  1
  F  F21  1  0.423294  0.639698  0.622794  1
  F  F22  1  0.330519  0.038315  0.825354  1
  F  F23  1  0.709769  0.939523  0.645943  1
