# generated using pymatgen
data_Bi2B2O7
_symmetry_space_group_name_H-M   'P 1'
_cell_length_a   6.53247342
_cell_length_b   8.46881438
_cell_length_c   6.58365309
_cell_angle_alpha   116.69492235
_cell_angle_beta   88.91060669
_cell_angle_gamma   110.72255644
_symmetry_Int_Tables_number   1
_chemical_formula_structural   Bi2B2O7
_chemical_formula_sum   'Bi4 B4 O14'
_cell_volume   300.05014683
_cell_formula_units_Z   2
loop_
 _symmetry_equiv_pos_site_id
 _symmetry_equiv_pos_as_xyz
  1  'x, y, z'
loop_
 _atom_site_type_symbol
 _atom_site_label
 _atom_site_symmetry_multiplicity
 _atom_site_fract_x
 _atom_site_fract_y
 _atom_site_fract_z
 _atom_site_occupancy
  Bi  Bi0  1  0.243770  0.864723  0.083208  1
  Bi  Bi1  1  0.292552  0.287530  0.642854  1
  Bi  Bi2  1  0.707448  0.712470  0.357146  1
  Bi  Bi3  1  0.756230  0.135277  0.916792  1
  B  B4  1  0.320986  0.872151  0.534891  1
  B  B5  1  0.308193  0.266402  0.110622  1
  B  B6  1  0.691807  0.733598  0.889378  1
  B  B7  1  0.679014  0.127849  0.465109  1
  O  O8  1  0.184717  0.937314  0.458234  1
  O  O9  1  0.385790  0.941366  0.766890  1
  O  O10  1  0.001921  0.431839  0.408743  1
  O  O11  1  0.471363  0.615393  0.837143  1
  O  O12  1  0.160482  0.259225  0.953629  1
  O  O13  1  0.220343  0.149287  0.214872  1
  O  O14  1  0.385723  0.742007  0.354530  1
  O  O15  1  0.614277  0.257993  0.645470  1
  O  O16  1  0.779657  0.850713  0.785128  1
  O  O17  1  0.839518  0.740775  0.046371  1
  O  O18  1  0.528637  0.384607  0.162857  1
  O  O19  1  0.998079  0.568161  0.591257  1
  O  O20  1  0.614210  0.058634  0.233110  1
  O  O21  1  0.815283  0.062686  0.541766  1
