# generated using pymatgen
data_LiFe2(BO3)2
_symmetry_space_group_name_H-M   'P 1'
_cell_length_a   5.28148806
_cell_length_b   9.11018452
_cell_length_c   10.11292465
_cell_angle_alpha   90.61749932
_cell_angle_beta   90.83205591
_cell_angle_gamma   89.01671844
_symmetry_Int_Tables_number   1
_chemical_formula_structural   LiFe2(BO3)2
_chemical_formula_sum   'Li4 Fe8 B8 O24'
_cell_volume   486.43678801
_cell_formula_units_Z   4
loop_
 _symmetry_equiv_pos_site_id
 _symmetry_equiv_pos_as_xyz
  1  'x, y, z'
loop_
 _atom_site_type_symbol
 _atom_site_label
 _atom_site_symmetry_multiplicity
 _atom_site_fract_x
 _atom_site_fract_y
 _atom_site_fract_z
 _atom_site_occupancy
  Li  Li0  1  0.816629  0.837828  0.158616  1
  Li  Li1  1  0.666691  0.675225  0.886241  1
  Li  Li2  1  0.315297  0.332402  0.151000  1
  Li  Li3  1  0.176063  0.164490  0.410758  1
  Fe  Fe4  1  0.829843  0.166668  0.637295  1
  Fe  Fe5  1  0.819853  0.503707  0.130431  1
  Fe  Fe6  1  0.683935  0.002686  0.878657  1
  Fe  Fe7  1  0.674679  0.342054  0.378756  1
  Fe  Fe8  1  0.328643  0.661058  0.628538  1
  Fe  Fe9  1  0.311718  0.002253  0.120472  1
  Fe  Fe10  1  0.172266  0.835101  0.380937  1
  Fe  Fe11  1  0.172060  0.495746  0.878755  1
  B  B12  1  0.834672  0.500305  0.635187  1
  B  B13  1  0.823242  0.168887  0.134522  1
  B  B14  1  0.664175  0.009382  0.372777  1
  B  B15  1  0.674387  0.340588  0.874347  1
  B  B16  1  0.336046  0.000617  0.625956  1
  B  B17  1  0.330159  0.668337  0.120867  1
  B  B18  1  0.166814  0.494652  0.381849  1
  B  B19  1  0.168832  0.826583  0.880869  1
  O  O20  1  0.914499  0.493728  0.339744  1
  O  O21  1  0.911304  0.824402  0.886241  1
  O  O22  1  0.802883  0.216817  0.828698  1
  O  O23  1  0.777626  0.141333  0.424779  1
  O  O24  1  0.814084  0.890766  0.349550  1
  O  O25  1  0.815540  0.463039  0.915622  1
  O  O26  1  0.676657  0.616608  0.655490  1
  O  O27  1  0.698658  0.044275  0.091695  1
  O  O28  1  0.749176  0.369877  0.576363  1
  O  O29  1  0.677999  0.293826  0.177297  1
  O  O30  1  0.589217  0.674800  0.106318  1
  O  O31  1  0.586754  0.015769  0.666143  1
  O  O32  1  0.406836  0.014053  0.344645  1
  O  O33  1  0.417049  0.345947  0.882318  1
  O  O34  1  0.302377  0.693920  0.839355  1
  O  O35  1  0.269907  0.619453  0.436561  1
  O  O36  1  0.311301  0.367448  0.363373  1
  O  O37  1  0.315221  0.943106  0.917033  1
  O  O38  1  0.203720  0.537064  0.084265  1
  O  O39  1  0.178622  0.121324  0.609807  1
  O  O40  1  0.247577  0.861895  0.593025  1
  O  O41  1  0.191011  0.787552  0.166879  1
  O  O42  1  0.081277  0.177628  0.138844  1
  O  O43  1  0.088809  0.503528  0.677613  1
