# generated using pymatgen
data_Li2H2SeO5
_symmetry_space_group_name_H-M   'P 1'
_cell_length_a   5.95028179
_cell_length_b   5.03041143
_cell_length_c   8.99153034
_cell_angle_alpha   90.00000000
_cell_angle_beta   114.76298072
_cell_angle_gamma   90.00000000
_symmetry_Int_Tables_number   1
_chemical_formula_structural   Li2H2SeO5
_chemical_formula_sum   'Li4 H4 Se2 O10'
_cell_volume   244.39009701
_cell_formula_units_Z   2
loop_
 _symmetry_equiv_pos_site_id
 _symmetry_equiv_pos_as_xyz
  1  'x, y, z'
loop_
 _atom_site_type_symbol
 _atom_site_label
 _atom_site_symmetry_multiplicity
 _atom_site_fract_x
 _atom_site_fract_y
 _atom_site_fract_z
 _atom_site_occupancy
  Li  Li0  1  0.308607  0.990966  0.996213  1
  Li  Li1  1  0.442584  0.471509  0.579172  1
  Li  Li2  1  0.557416  0.971509  0.420828  1
  Li  Li3  1  0.691393  0.490966  0.003787  1
  H  H4  1  0.956534  0.865616  0.643872  1
  H  H5  1  0.997660  0.542625  0.485326  1
  H  H6  1  0.002340  0.042625  0.514674  1
  H  H7  1  0.043466  0.365616  0.356128  1
  Se  Se8  1  0.318731  0.483412  0.197625  1
  Se  Se9  1  0.681269  0.983412  0.802375  1
  O  O10  1  0.970285  0.887739  0.842250  1
  O  O11  1  0.086719  0.381386  0.475373  1
  O  O12  1  0.598804  0.867277  0.947001  1
  O  O13  1  0.347682  0.814986  0.206676  1
  O  O14  1  0.508156  0.363430  0.382034  1
  O  O15  1  0.491844  0.863430  0.617966  1
  O  O16  1  0.652318  0.314986  0.793324  1
  O  O17  1  0.401196  0.367277  0.052999  1
  O  O18  1  0.913281  0.881386  0.524627  1
  O  O19  1  0.029715  0.387739  0.157750  1
