# generated using pymatgen
data_LiFe2F9
_symmetry_space_group_name_H-M   'P 1'
_cell_length_a   7.83954114
_cell_length_b   7.31588027
_cell_length_c   8.08532356
_cell_angle_alpha   115.44444997
_cell_angle_beta   118.99941196
_cell_angle_gamma   57.60254738
_symmetry_Int_Tables_number   1
_chemical_formula_structural   LiFe2F9
_chemical_formula_sum   'Li2 Fe4 F18'
_cell_volume   333.26762810
_cell_formula_units_Z   2
loop_
 _symmetry_equiv_pos_site_id
 _symmetry_equiv_pos_as_xyz
  1  'x, y, z'
loop_
 _atom_site_type_symbol
 _atom_site_label
 _atom_site_symmetry_multiplicity
 _atom_site_fract_x
 _atom_site_fract_y
 _atom_site_fract_z
 _atom_site_occupancy
  Li  Li0  1  0.044312  0.971621  0.781140  1
  Li  Li1  1  0.765207  0.471621  0.281140  1
  Fe  Fe2  1  0.050830  0.878306  0.295291  1
  Fe  Fe3  1  0.841868  0.602481  0.798629  1
  Fe  Fe4  1  0.366155  0.378306  0.795291  1
  Fe  Fe5  1  0.354281  0.102481  0.298629  1
  F  F6  1  0.822906  0.865415  0.814306  1
  F  F7  1  0.246216  0.014479  0.414611  1
  F  F8  1  0.010570  0.921968  0.517026  1
  F  F9  1  0.881658  0.728075  0.098288  1
  F  F10  1  0.584142  0.841518  0.316218  1
  F  F11  1  0.248813  0.631889  0.727424  1
  F  F12  1  0.561959  0.701495  0.749622  1
  F  F13  1  0.866810  0.491803  0.552200  1
  F  F14  1  0.279454  0.627233  0.299669  1
  F  F15  1  0.125985  0.365415  0.314306  1
  F  F16  1  0.584487  0.421968  0.017026  1
  F  F17  1  0.153915  0.514479  0.914611  1
  F  F18  1  0.846724  0.131889  0.227424  1
  F  F19  1  0.488555  0.228075  0.598288  1
  F  F20  1  0.890558  0.341518  0.816218  1
  F  F21  1  0.486167  0.201495  0.249622  1
  F  F22  1  0.193588  0.991803  0.052200  1
  F  F23  1  0.392982  0.127233  0.799669  1
