# generated using pymatgen
data_Na5Co2P(CO4)4
_symmetry_space_group_name_H-M   'P 1'
_cell_length_a   9.97715921
_cell_length_b   9.85933297
_cell_length_c   9.97715921
_cell_angle_alpha   60.42123313
_cell_angle_beta   89.11310330
_cell_angle_gamma   119.57876687
_symmetry_Int_Tables_number   1
_chemical_formula_structural   Na5Co2P(CO4)4
_chemical_formula_sum   'Na10 Co4 P2 C8 O32'
_cell_volume   697.36895419
_cell_formula_units_Z   2
loop_
 _symmetry_equiv_pos_site_id
 _symmetry_equiv_pos_as_xyz
  1  'x, y, z'
loop_
 _atom_site_type_symbol
 _atom_site_label
 _atom_site_symmetry_multiplicity
 _atom_site_fract_x
 _atom_site_fract_y
 _atom_site_fract_z
 _atom_site_occupancy
  Na  Na0  1  0.908762  0.239942  0.345508  1
  Na  Na1  1  0.654680  0.323940  0.090844  1
  Na  Na2  1  0.654493  0.739942  0.091238  1
  Na  Na3  1  0.909156  0.823940  0.345320  1
  Na  Na4  1  0.912955  0.250000  0.912955  1
  Na  Na5  1  0.087045  0.750000  0.087045  1
  Na  Na6  1  0.090844  0.176060  0.654680  1
  Na  Na7  1  0.345508  0.260058  0.908762  1
  Na  Na8  1  0.345320  0.676060  0.909156  1
  Na  Na9  1  0.091238  0.760058  0.654493  1
  Co  Co10  1  0.500000  0.000000  0.000000  1
  Co  Co11  1  0.500000  0.000000  0.500000  1
  Co  Co12  1  0.500000  0.500000  0.500000  1
  Co  Co13  1  0.000000  0.500000  0.500000  1
  P  P14  1  0.124264  0.250000  0.124264  1
  P  P15  1  0.875736  0.750000  0.875736  1
  C  C16  1  0.714707  0.070586  0.714072  1
  C  C17  1  0.717552  0.433452  0.353884  1
  C  C18  1  0.353884  0.066548  0.717552  1
  C  C19  1  0.714072  0.429414  0.714707  1
  C  C20  1  0.646116  0.933452  0.282448  1
  C  C21  1  0.285928  0.570586  0.285293  1
  C  C22  1  0.285293  0.929414  0.285928  1
  C  C23  1  0.282448  0.566548  0.646116  1
  O  O24  1  0.652101  0.049956  0.138289  1
  O  O25  1  0.859180  0.207930  0.601529  1
  O  O26  1  0.689705  0.291179  0.350394  1
  O  O27  1  0.403296  0.038138  0.314415  1
  O  O28  1  0.861711  0.549956  0.347899  1
  O  O29  1  0.314983  0.378446  0.056217  1
  O  O30  1  0.059915  0.119994  0.061104  1
  O  O31  1  0.605962  0.465294  0.353079  1
  O  O32  1  0.689594  0.036937  0.859178  1
  O  O33  1  0.353079  0.034706  0.605962  1
  O  O34  1  0.859178  0.463063  0.689594  1
  O  O35  1  0.061104  0.380006  0.059915  1
  O  O36  1  0.056217  0.121554  0.314983  1
  O  O37  1  0.649606  0.791179  0.310295  1
  O  O38  1  0.398471  0.707930  0.140820  1
  O  O39  1  0.685585  0.538138  0.596704  1
  O  O40  1  0.314415  0.461862  0.403296  1
  O  O41  1  0.350394  0.208821  0.689705  1
  O  O42  1  0.601529  0.292070  0.859180  1
  O  O43  1  0.938896  0.619994  0.940085  1
  O  O44  1  0.943783  0.878446  0.685017  1
  O  O45  1  0.140822  0.536937  0.310406  1
  O  O46  1  0.646921  0.965294  0.394038  1
  O  O47  1  0.310406  0.963063  0.140822  1
  O  O48  1  0.394038  0.534706  0.646921  1
  O  O49  1  0.940085  0.880006  0.938896  1
  O  O50  1  0.685017  0.621554  0.943783  1
  O  O51  1  0.138289  0.450044  0.652101  1
  O  O52  1  0.596704  0.961862  0.685585  1
  O  O53  1  0.310295  0.708821  0.649606  1
  O  O54  1  0.140820  0.792070  0.398471  1
  O  O55  1  0.347899  0.950044  0.861711  1
