# generated using pymatgen
data_Na5LiMn2P2(CO7)2
_symmetry_space_group_name_H-M   'P 1'
_cell_length_a   8.96273795
_cell_length_b   6.81277370
_cell_length_c   10.32978841
_cell_angle_alpha   90.11229147
_cell_angle_beta   89.88059518
_cell_angle_gamma   89.76562661
_symmetry_Int_Tables_number   1
_chemical_formula_structural   Na5LiMn2P2(CO7)2
_chemical_formula_sum   'Na10 Li2 Mn4 P4 C4 O28'
_cell_volume   630.74042950
_cell_formula_units_Z   2
loop_
 _symmetry_equiv_pos_site_id
 _symmetry_equiv_pos_as_xyz
  1  'x, y, z'
loop_
 _atom_site_type_symbol
 _atom_site_label
 _atom_site_symmetry_multiplicity
 _atom_site_fract_x
 _atom_site_fract_y
 _atom_site_fract_z
 _atom_site_occupancy
  Na  Na0  1  0.082874  0.250115  0.879738  1
  Na  Na1  1  0.082353  0.248902  0.380579  1
  Na  Na2  1  0.258501  0.001726  0.624180  1
  Na  Na3  1  0.258538  0.498384  0.624063  1
  Na  Na4  1  0.259290  0.002322  0.123957  1
  Na  Na5  1  0.259410  0.497759  0.123860  1
  Na  Na6  1  0.740874  0.501838  0.875372  1
  Na  Na7  1  0.741042  0.998179  0.875486  1
  Na  Na8  1  0.741491  0.502624  0.376876  1
  Na  Na9  1  0.916280  0.751034  0.120599  1
  Li  Li10  1  0.735886  0.994327  0.378686  1
  Li  Li11  1  0.916081  0.751114  0.619744  1
  Mn  Mn12  1  0.361302  0.749990  0.888538  1
  Mn  Mn13  1  0.361793  0.750152  0.388792  1
  Mn  Mn14  1  0.640915  0.248380  0.610282  1
  Mn  Mn15  1  0.639631  0.249135  0.112320  1
  P  P16  1  0.411159  0.249941  0.850842  1
  P  P17  1  0.412586  0.247313  0.350722  1
  P  P18  1  0.592637  0.750063  0.647815  1
  P  P19  1  0.590339  0.752078  0.149935  1
  C  C20  1  0.058902  0.750045  0.865207  1
  C  C21  1  0.054282  0.753786  0.370868  1
  C  C22  1  0.940054  0.249277  0.631608  1
  C  C23  1  0.939782  0.248749  0.132897  1
  O  O24  1  0.083428  0.250327  0.641962  1
  O  O25  1  0.083314  0.250350  0.143207  1
  O  O26  1  0.120504  0.750245  0.979730  1
  O  O27  1  0.112405  0.749602  0.486570  1
  O  O28  1  0.143712  0.750212  0.762881  1
  O  O29  1  0.142013  0.749518  0.269646  1
  O  O30  1  0.318762  0.067184  0.892146  1
  O  O31  1  0.318369  0.433447  0.892316  1
  O  O32  1  0.318528  0.066316  0.392339  1
  O  O33  1  0.322331  0.432455  0.393476  1
  O  O34  1  0.428921  0.249696  0.700074  1
  O  O35  1  0.433709  0.750043  0.588117  1
  O  O36  1  0.427678  0.249534  0.200041  1
  O  O37  1  0.431138  0.750204  0.090850  1
  O  O38  1  0.569207  0.250016  0.911375  1
  O  O39  1  0.573032  0.751775  0.798355  1
  O  O40  1  0.573052  0.240140  0.408544  1
  O  O41  1  0.575899  0.757908  0.301304  1
  O  O42  1  0.686878  0.567130  0.607576  1
  O  O43  1  0.687171  0.930500  0.604538  1
  O  O44  1  0.681620  0.567222  0.108774  1
  O  O45  1  0.681864  0.933477  0.106093  1
  O  O46  1  0.855719  0.249382  0.734829  1
  O  O47  1  0.855169  0.246348  0.235991  1
  O  O48  1  0.876676  0.248217  0.517878  1
  O  O49  1  0.876993  0.249905  0.018974  1
  O  O50  1  0.915308  0.749738  0.852405  1
  O  O51  1  0.910596  0.761874  0.357045  1
