# generated using pymatgen
data_Hf2N2O
_symmetry_space_group_name_H-M   'P 1'
_cell_length_a   5.49479387
_cell_length_b   5.49302186
_cell_length_c   10.25951447
_cell_angle_alpha   90.29925841
_cell_angle_beta   75.09654241
_cell_angle_gamma   59.29350149
_symmetry_Int_Tables_number   1
_chemical_formula_structural   Hf2N2O
_chemical_formula_sum   'Hf8 N8 O4'
_cell_volume   253.79156280
_cell_formula_units_Z   4
loop_
 _symmetry_equiv_pos_site_id
 _symmetry_equiv_pos_as_xyz
  1  'x, y, z'
loop_
 _atom_site_type_symbol
 _atom_site_label
 _atom_site_symmetry_multiplicity
 _atom_site_fract_x
 _atom_site_fract_y
 _atom_site_fract_z
 _atom_site_occupancy
  Hf  Hf0  1  0.132010  0.429530  0.285756  1
  Hf  Hf1  1  0.118079  0.924472  0.788221  1
  Hf  Hf2  1  0.362598  0.344193  0.964148  1
  Hf  Hf3  1  0.634275  0.201296  0.535323  1
  Hf  Hf4  1  0.354462  0.833357  0.466607  1
  Hf  Hf5  1  0.833844  0.080314  0.215518  1
  Hf  Hf6  1  0.642316  0.685524  0.036553  1
  Hf  Hf7  1  0.848572  0.572616  0.715629  1
  N  N8  1  0.465540  0.112116  0.370500  1
  N  N9  1  0.556463  0.366394  0.118568  1
  N  N10  1  0.250433  0.575354  0.633596  1
  N  N11  1  0.756355  0.414549  0.380369  1
  N  N12  1  0.455968  0.627676  0.873611  1
  N  N13  1  0.955921  0.662517  0.126734  1
  N  N14  1  0.961923  0.168610  0.625496  1
  N  N15  1  0.745197  0.920248  0.878892  1
  O  O16  1  0.247046  0.062889  0.134307  1
  O  O17  1  0.071678  0.804146  0.375388  1
  O  O18  1  0.056806  0.316720  0.876797  1
  O  O19  1  0.571900  0.868812  0.617007  1
