# generated using pymatgen
data_FeOF
_symmetry_space_group_name_H-M   'P 1'
_cell_length_a   9.46383047
_cell_length_b   14.25668328
_cell_length_c   3.08528457
_cell_angle_alpha   90.00000000
_cell_angle_beta   90.00000000
_cell_angle_gamma   90.04681290
_symmetry_Int_Tables_number   1
_chemical_formula_structural   FeOF
_chemical_formula_sum   'Fe12 O12 F12'
_cell_volume   416.27519750
_cell_formula_units_Z   12
loop_
 _symmetry_equiv_pos_site_id
 _symmetry_equiv_pos_as_xyz
  1  'x, y, z'
loop_
 _atom_site_type_symbol
 _atom_site_label
 _atom_site_symmetry_multiplicity
 _atom_site_fract_x
 _atom_site_fract_y
 _atom_site_fract_z
 _atom_site_occupancy
  Fe  Fe0  1  0.019392  0.999441  0.000000  1
  Fe  Fe1  1  0.005044  0.334869  0.000000  1
  Fe  Fe2  1  0.016630  0.661752  0.000000  1
  Fe  Fe3  1  0.255928  0.148684  0.500000  1
  Fe  Fe4  1  0.227151  0.495284  0.500000  1
  Fe  Fe5  1  0.225949  0.829151  0.500000  1
  Fe  Fe6  1  0.518785  0.331286  0.000000  1
  Fe  Fe7  1  0.506252  0.001909  0.000000  1
  Fe  Fe8  1  0.516821  0.665111  0.000000  1
  Fe  Fe9  1  0.762217  0.186159  0.500000  1
  Fe  Fe10  1  0.724769  0.500049  0.500000  1
  Fe  Fe11  1  0.724708  0.834551  0.500000  1
  O  O12  1  0.088909  0.594817  0.500000  1
  O  O13  1  0.096994  0.936213  0.500000  1
  O  O14  1  0.147945  0.107573  0.000000  1
  O  O15  1  0.150609  0.765097  0.000000  1
  O  O16  1  0.149395  0.429177  0.000000  1
  O  O17  1  0.410782  0.066234  0.500000  1
  O  O18  1  0.598009  0.269167  0.500000  1
  O  O19  1  0.601102  0.940189  0.500000  1
  O  O20  1  0.588917  0.599406  0.500000  1
  O  O21  1  0.653004  0.434483  0.000000  1
  O  O22  1  0.650360  0.767700  0.000000  1
  O  O23  1  0.860507  0.239713  0.000000  1
  F  F24  1  0.104661  0.272444  0.500000  1
  F  F25  1  0.344705  0.237904  0.000000  1
  F  F26  1  0.340551  0.562791  0.000000  1
  F  F27  1  0.347469  0.892062  0.000000  1
  F  F28  1  0.399557  0.399054  0.500000  1
  F  F29  1  0.397008  0.727646  0.500000  1
  F  F30  1  0.669892  0.109082  0.000000  1
  F  F31  1  0.849556  0.898088  0.000000  1
  F  F32  1  0.843687  0.565775  0.000000  1
  F  F33  1  0.899101  0.066010  0.500000  1
  F  F34  1  0.903453  0.404159  0.500000  1
  F  F35  1  0.900184  0.726965  0.500000  1
