# generated using pymatgen
data_LiV(PO3)4
_symmetry_space_group_name_H-M   'P 1'
_cell_length_a   7.28663170
_cell_length_b   7.77437848
_cell_length_c   8.47870043
_cell_angle_alpha   90.00000000
_cell_angle_beta   90.00000000
_cell_angle_gamma   93.29469216
_symmetry_Int_Tables_number   1
_chemical_formula_structural   LiV(PO3)4
_chemical_formula_sum   'Li2 V2 P8 O24'
_cell_volume   479.51629492
_cell_formula_units_Z   2
loop_
 _symmetry_equiv_pos_site_id
 _symmetry_equiv_pos_as_xyz
  1  'x, y, z'
loop_
 _atom_site_type_symbol
 _atom_site_label
 _atom_site_symmetry_multiplicity
 _atom_site_fract_x
 _atom_site_fract_y
 _atom_site_fract_z
 _atom_site_occupancy
  Li  Li0  1  0.257688  0.857113  0.695579  1
  Li  Li1  1  0.742312  0.142887  0.195579  1
  V  V2  1  0.257172  0.331751  0.495976  1
  V  V3  1  0.742828  0.668249  0.995976  1
  P  P4  1  0.086760  0.974439  0.289919  1
  P  P5  1  0.064878  0.373533  0.879297  1
  P  P6  1  0.351649  0.807406  0.070025  1
  P  P7  1  0.369289  0.443990  0.125679  1
  P  P8  1  0.630711  0.556010  0.625679  1
  P  P9  1  0.648351  0.192594  0.570025  1
  P  P10  1  0.935122  0.626467  0.379297  1
  P  P11  1  0.913240  0.025561  0.789919  1
  O  O12  1  0.065409  0.800816  0.399222  1
  O  O13  1  0.050362  0.480984  0.422928  1
  O  O14  1  0.266343  0.805261  0.911522  1
  O  O15  1  0.075908  0.016117  0.686474  1
  O  O16  1  0.160967  0.380570  0.723127  1
  O  O17  1  0.272488  0.943487  0.190554  1
  O  O18  1  0.136151  0.121610  0.397044  1
  O  O19  1  0.213672  0.345833  0.018187  1
  O  O20  1  0.291075  0.628237  0.162012  1
  O  O21  1  0.380424  0.345364  0.276415  1
  O  O22  1  0.558845  0.836605  0.083163  1
  O  O23  1  0.450912  0.535407  0.536547  1
  O  O24  1  0.549088  0.464593  0.036547  1
  O  O25  1  0.441155  0.163395  0.583163  1
  O  O26  1  0.619576  0.654636  0.776415  1
  O  O27  1  0.708925  0.371763  0.662012  1
  O  O28  1  0.786328  0.654167  0.518187  1
  O  O29  1  0.863850  0.878390  0.897044  1
  O  O30  1  0.727512  0.056513  0.690554  1
  O  O31  1  0.839033  0.619430  0.223127  1
  O  O32  1  0.924092  0.983883  0.186474  1
  O  O33  1  0.733657  0.194739  0.411522  1
  O  O34  1  0.949638  0.519016  0.922927  1
  O  O35  1  0.934591  0.199184  0.899222  1
