# generated using pymatgen
data_LiVPO4
_symmetry_space_group_name_H-M   'P 1'
_cell_length_a   7.51664818
_cell_length_b   7.51541512
_cell_length_c   9.77954063
_cell_angle_alpha   90.00898719
_cell_angle_beta   89.99550831
_cell_angle_gamma   119.99457181
_symmetry_Int_Tables_number   1
_chemical_formula_structural   LiVPO4
_chemical_formula_sum   'Li6 V6 P6 O24'
_cell_volume   478.46484269
_cell_formula_units_Z   6
loop_
 _symmetry_equiv_pos_site_id
 _symmetry_equiv_pos_as_xyz
  1  'x, y, z'
loop_
 _atom_site_type_symbol
 _atom_site_label
 _atom_site_symmetry_multiplicity
 _atom_site_fract_x
 _atom_site_fract_y
 _atom_site_fract_z
 _atom_site_occupancy
  Li  Li0  1  0.202047  0.949570  0.253788  1
  Li  Li1  1  0.050465  0.252509  0.253785  1
  Li  Li2  1  0.252511  0.050460  0.753775  1
  Li  Li3  1  0.747489  0.797950  0.253775  1
  Li  Li4  1  0.797953  0.747522  0.753788  1
  Li  Li5  1  0.949535  0.202045  0.753785  1
  V  V6  1  0.054729  0.574747  0.476102  1
  V  V7  1  0.520066  0.945299  0.476111  1
  V  V8  1  0.425222  0.479919  0.476083  1
  V  V9  1  0.479934  0.425232  0.976111  1
  V  V10  1  0.574778  0.054697  0.976083  1
  V  V11  1  0.945271  0.520017  0.976102  1
  P  P12  1  0.333356  0.666593  0.176586  1
  P  P13  1  -0.000015  0.999995  0.002067  1
  P  P14  1  0.000015  0.000011  0.502067  1
  P  P15  1  0.333381  0.666895  0.768270  1
  P  P16  1  0.666644  0.333238  0.676586  1
  P  P17  1  0.666619  0.333513  0.268270  1
  O  O18  1  0.102607  0.877685  0.445927  1
  O  O19  1  0.170407  0.719518  0.127499  1
  O  O20  1  0.377011  0.879760  0.815376  1
  O  O21  1  0.120005  0.497041  0.815421  1
  O  O22  1  0.280523  0.451044  0.127510  1
  O  O23  1  0.333342  0.666700  0.340849  1
  O  O24  1  0.999993  0.000000  0.160354  1
  O  O25  1  0.000007  0.000008  0.660354  1
  O  O26  1  0.333321  0.666624  0.605618  1
  O  O27  1  0.122300  0.224911  0.445935  1
  O  O28  1  0.549036  0.829578  0.127495  1
  O  O29  1  0.224911  0.122317  0.945928  1
  O  O30  1  0.502908  0.622896  0.815413  1
  O  O31  1  0.775089  0.897407  0.445928  1
  O  O32  1  0.450964  0.280542  0.627495  1
  O  O33  1  0.497092  0.119988  0.315413  1
  O  O34  1  0.622989  0.502749  0.315376  1
  O  O35  1  0.829593  0.549111  0.627499  1
  O  O36  1  0.666658  0.333357  0.840849  1
  O  O37  1  0.666679  0.333304  0.105618  1
  O  O38  1  0.897393  0.775079  0.945927  1
  O  O39  1  0.719477  0.170522  0.627510  1
  O  O40  1  0.879995  0.377037  0.315421  1
  O  O41  1  0.877700  0.102611  0.945935  1
