# generated using pymatgen
data_Li5Mn8(BO3)8
_symmetry_space_group_name_H-M   'P 1'
_cell_length_a   5.32507334
_cell_length_b   9.10670003
_cell_length_c   10.32817038
_cell_angle_alpha   89.65888382
_cell_angle_beta   91.05397202
_cell_angle_gamma   89.97458622
_symmetry_Int_Tables_number   1
_chemical_formula_structural   Li5Mn8(BO3)8
_chemical_formula_sum   'Li5 Mn8 B8 O24'
_cell_volume   500.75900931
_cell_formula_units_Z   1
loop_
 _symmetry_equiv_pos_site_id
 _symmetry_equiv_pos_as_xyz
  1  'x, y, z'
loop_
 _atom_site_type_symbol
 _atom_site_label
 _atom_site_symmetry_multiplicity
 _atom_site_fract_x
 _atom_site_fract_y
 _atom_site_fract_z
 _atom_site_occupancy
  Li  Li0  1  0.132876  0.985180  0.669659  1
  Li  Li1  1  0.160723  0.008296  0.174251  1
  Li  Li2  1  0.630018  0.518179  0.156049  1
  Li  Li3  1  0.660463  0.484657  0.685495  1
  Li  Li4  1  0.844276  0.012572  0.407716  1
  Mn  Mn5  1  0.143694  0.321288  0.132562  1
  Mn  Mn6  1  0.164999  0.638056  0.624590  1
  Mn  Mn7  1  0.338295  0.155893  0.881896  1
  Mn  Mn8  1  0.355271  0.812052  0.378023  1
  Mn  Mn9  1  0.650194  0.171332  0.631792  1
  Mn  Mn10  1  0.659329  0.858786  0.118519  1
  Mn  Mn11  1  0.827023  0.356779  0.385781  1
  Mn  Mn12  1  0.862990  0.685107  0.877985  1
  B  B13  1  0.168439  0.323136  0.626450  1
  B  B14  1  0.164619  0.667850  0.129562  1
  B  B15  1  0.333701  0.811091  0.867443  1
  B  B16  1  0.332831  0.163957  0.369459  1
  B  B17  1  0.675696  0.826573  0.620663  1
  B  B18  1  0.668555  0.180540  0.134643  1
  B  B19  1  0.837334  0.330427  0.884537  1
  B  B20  1  0.829980  0.692880  0.366422  1
  O  O21  1  0.067884  0.297960  0.950009  1
  O  O22  1  0.062405  0.698510  0.429122  1
  O  O23  1  0.216539  0.680099  0.829484  1
  O  O24  1  0.219507  0.942409  0.849333  1
  O  O25  1  0.196721  0.287794  0.321802  1
  O  O26  1  0.213194  0.029185  0.366786  1
  O  O27  1  0.251531  0.184352  0.666959  1
  O  O28  1  0.273215  0.535218  0.135685  1
  O  O29  1  0.281197  0.795583  0.185281  1
  O  O30  1  0.333109  0.437758  0.622257  1
  O  O31  1  0.411726  0.163793  0.101573  1
  O  O32  1  0.432237  0.805741  0.568350  1
  O  O33  1  0.569633  0.801042  0.926525  1
  O  O34  1  0.578204  0.178202  0.415714  1
  O  O35  1  0.703264  0.211964  0.835000  1
  O  O36  1  0.711169  0.566537  0.338920  1
  O  O37  1  0.714635  0.828931  0.332917  1
  O  O38  1  0.760048  0.470464  0.865887  1
  O  O39  1  0.782944  0.703838  0.685208  1
  O  O40  1  0.764361  0.319840  0.163329  1
  O  O41  1  0.798938  0.956076  0.605484  1
  O  O42  1  0.820932  0.060537  0.138245  1
  O  O43  1  0.914294  0.344251  0.589619  1
  O  O44  1  0.928514  0.693360  0.070297  1
