# generated using pymatgen
data_H5C8NO2
_symmetry_space_group_name_H-M   'P 1'
_cell_length_a   23.12421309
_cell_length_b   7.72845749
_cell_length_c   3.85409187
_cell_angle_alpha   90.00000000
_cell_angle_beta   91.44847264
_cell_angle_gamma   90.00000000
_symmetry_Int_Tables_number   1
_chemical_formula_structural   H5C8NO2
_chemical_formula_sum   'H20 C32 N4 O8'
_cell_volume   688.56200213
_cell_formula_units_Z   4
loop_
 _symmetry_equiv_pos_site_id
 _symmetry_equiv_pos_as_xyz
  1  'x, y, z'
loop_
 _atom_site_type_symbol
 _atom_site_label
 _atom_site_symmetry_multiplicity
 _atom_site_fract_x
 _atom_site_fract_y
 _atom_site_fract_z
 _atom_site_occupancy
  H  H0  1  0.449374  0.067035  0.406899  1
  H  H1  1  0.949374  0.432965  0.906899  1
  H  H2  1  0.550626  0.932965  0.593101  1
  H  H3  1  0.050626  0.567035  0.093101  1
  H  H4  1  0.359946  0.249721  0.380551  1
  H  H5  1  0.859946  0.250279  0.880551  1
  H  H6  1  0.640054  0.750279  0.619449  1
  H  H7  1  0.140054  0.749721  0.119449  1
  H  H8  1  0.268172  0.134337  0.130014  1
  H  H9  1  0.768172  0.365663  0.630014  1
  H  H10  1  0.731828  0.865663  0.869986  1
  H  H11  1  0.231828  0.634337  0.369986  1
  H  H12  1  0.263519  0.838412  0.873804  1
  H  H13  1  0.763519  0.661588  0.373804  1
  H  H14  1  0.736481  0.161588  0.126196  1
  H  H15  1  0.236481  0.338412  0.626196  1
  H  H16  1  0.444868  0.460183  0.905318  1
  H  H17  1  0.944868  0.039817  0.405318  1
  H  H18  1  0.555132  0.539817  0.094682  1
  H  H19  1  0.055132  0.960183  0.594682  1
  C  C20  1  0.409267  0.016959  0.290867  1
  C  C21  1  0.909267  0.483041  0.790867  1
  C  C22  1  0.590733  0.983041  0.709133  1
  C  C23  1  0.090733  0.516959  0.209133  1
  C  C24  1  0.358930  0.118530  0.276045  1
  C  C25  1  0.858930  0.381470  0.776045  1
  C  C26  1  0.641070  0.881470  0.723955  1
  C  C27  1  0.141070  0.618530  0.223955  1
  C  C28  1  0.306920  0.053769  0.133299  1
  C  C29  1  0.806920  0.446231  0.633299  1
  C  C30  1  0.693080  0.946231  0.866701  1
  C  C31  1  0.193080  0.553769  0.366701  1
  C  C32  1  0.303647  0.886389  0.993039  1
  C  C33  1  0.803647  0.613611  0.493039  1
  C  C34  1  0.696353  0.113611  0.006961  1
  C  C35  1  0.196353  0.386389  0.506961  1
  C  C36  1  0.353596  0.786636  0.007861  1
  C  C37  1  0.853596  0.713364  0.507861  1
  C  C38  1  0.646404  0.213364  0.992139  1
  C  C39  1  0.146404  0.286636  0.492139  1
  C  C40  1  0.405451  0.850870  0.154899  1
  C  C41  1  0.905451  0.649130  0.654899  1
  C  C42  1  0.594549  0.149130  0.845101  1
  C  C43  1  0.094549  0.350870  0.345101  1
  C  C44  1  0.364610  0.607421  0.882183  1
  C  C45  1  0.864610  0.892579  0.382183  1
  C  C46  1  0.635390  0.392579  0.117817  1
  C  C47  1  0.135390  0.107421  0.617817  1
  C  C48  1  0.450238  0.713598  0.122896  1
  C  C49  1  0.950238  0.786402  0.622896  1
  C  C50  1  0.549762  0.286402  0.877104  1
  C  C51  1  0.049762  0.213598  0.377104  1
  N  N52  1  0.423060  0.573536  0.962997  1
  N  N53  1  0.923060  0.926464  0.462997  1
  N  N54  1  0.576940  0.426464  0.037003  1
  N  N55  1  0.076940  0.073536  0.537003  1
  O  O56  1  0.331302  0.506703  0.734801  1
  O  O57  1  0.831302  0.993297  0.234801  1
  O  O58  1  0.668698  0.493297  0.265199  1
  O  O59  1  0.168698  0.006703  0.765199  1
  O  O60  1  0.501783  0.718122  0.213861  1
  O  O61  1  0.001783  0.781878  0.713861  1
  O  O62  1  0.498217  0.281878  0.786139  1
  O  O63  1  0.998217  0.218122  0.286139  1
