# generated using pymatgen
data_Li2P2WO8
_symmetry_space_group_name_H-M   'P 1'
_cell_length_a   7.75846449
_cell_length_b   8.09505059
_cell_length_c   5.12494112
_cell_angle_alpha   90.00000000
_cell_angle_beta   92.14879850
_cell_angle_gamma   90.00000000
_symmetry_Int_Tables_number   1
_chemical_formula_structural   Li2P2WO8
_chemical_formula_sum   'Li4 P4 W2 O16'
_cell_volume   321.64642606
_cell_formula_units_Z   2
loop_
 _symmetry_equiv_pos_site_id
 _symmetry_equiv_pos_as_xyz
  1  'x, y, z'
loop_
 _atom_site_type_symbol
 _atom_site_label
 _atom_site_symmetry_multiplicity
 _atom_site_fract_x
 _atom_site_fract_y
 _atom_site_fract_z
 _atom_site_occupancy
  Li  Li0  1  0.088445  0.369702  0.598672  1
  Li  Li1  1  0.411555  0.869703  0.901328  1
  Li  Li2  1  0.588445  0.130298  0.098672  1
  Li  Li3  1  0.911555  0.630297  0.401328  1
  P  P4  1  0.202684  0.193791  0.033112  1
  P  P5  1  0.297316  0.693791  0.466888  1
  P  P6  1  0.702684  0.306209  0.533112  1
  P  P7  1  0.797316  0.806209  0.966888  1
  W  W8  1  0.000000  0.000000  0.500000  1
  W  W9  1  0.500000  0.500000  0.000000  1
  O  O10  1  0.058104  0.157794  0.821993  1
  O  O11  1  0.151418  0.572371  0.463342  1
  O  O12  1  0.114121  0.193740  0.305968  1
  O  O13  1  0.234257  0.874237  0.532387  1
  O  O14  1  0.265743  0.374237  0.967613  1
  O  O15  1  0.385879  0.693740  0.194032  1
  O  O16  1  0.348582  0.072371  0.036658  1
  O  O17  1  0.441896  0.657794  0.678007  1
  O  O18  1  0.558104  0.342206  0.321993  1
  O  O19  1  0.651418  0.927629  0.963342  1
  O  O20  1  0.614121  0.306260  0.805968  1
  O  O21  1  0.734257  0.625763  0.032387  1
  O  O22  1  0.765743  0.125763  0.467613  1
  O  O23  1  0.885879  0.806260  0.694032  1
  O  O24  1  0.848582  0.427629  0.536658  1
  O  O25  1  0.941896  0.842206  0.178007  1
