# generated using pymatgen
data_Ca2Ga2Si(HO4)2
_symmetry_space_group_name_H-M   'P 1'
_cell_length_a   7.82083042
_cell_length_b   7.82083042
_cell_length_c   7.82083042
_cell_angle_alpha   109.07549134
_cell_angle_beta   109.07549134
_cell_angle_gamma   110.26561170
_symmetry_Int_Tables_number   1
_chemical_formula_structural   Ca2Ga2Si(HO4)2
_chemical_formula_sum   'Ca4 Ga4 Si2 H4 O16'
_cell_volume   368.19170358
_cell_formula_units_Z   2
loop_
 _symmetry_equiv_pos_site_id
 _symmetry_equiv_pos_as_xyz
  1  'x, y, z'
loop_
 _atom_site_type_symbol
 _atom_site_label
 _atom_site_symmetry_multiplicity
 _atom_site_fract_x
 _atom_site_fract_y
 _atom_site_fract_z
 _atom_site_occupancy
  Ca  Ca0  1  0.724588  0.003922  0.009294  1
  Ca  Ca1  1  0.284706  0.275412  0.279334  1
  Ca  Ca2  1  0.994628  0.715294  0.990706  1
  Ca  Ca3  1  0.996078  0.005372  0.720666  1
  Ga  Ga4  1  0.755791  0.502564  0.255901  1
  Ga  Ga5  1  0.500110  0.244209  0.746773  1
  Ga  Ga6  1  0.497436  0.753337  0.253227  1
  Ga  Ga7  1  0.246663  0.499890  0.744099  1
  Si  Si8  1  0.750000  0.250000  0.500000  1
  Si  Si9  1  0.250000  0.750000  0.500000  1
  H  H10  1  0.010530  0.362721  0.024581  1
  H  H11  1  0.338140  0.985949  0.975419  1
  H  H12  1  0.637279  0.661860  0.647809  1
  H  H13  1  0.014051  0.989470  0.352191  1
  O  O14  1  0.739879  0.442580  0.000712  1
  O  O15  1  0.730935  0.022070  0.461720  1
  O  O16  1  0.225743  0.002752  0.991621  1
  O  O17  1  0.730785  0.269065  0.291136  1
  O  O18  1  0.977930  0.439650  0.708864  1
  O  O19  1  0.011131  0.234122  0.008379  1
  O  O20  1  0.997248  0.988869  0.222991  1
  O  O21  1  0.560350  0.269215  0.538280  1
  O  O22  1  0.557420  0.558131  0.297300  1
  O  O23  1  0.441869  0.739167  0.999288  1
  O  O24  1  0.260833  0.260121  0.702700  1
  O  O25  1  0.264412  0.729862  0.288485  1
  O  O26  1  0.765878  0.774257  0.777009  1
  O  O27  1  0.270138  0.558624  0.534550  1
  O  O28  1  0.024074  0.735588  0.465450  1
  O  O29  1  0.441376  0.975926  0.711515  1
