# generated using pymatgen
data_LiSnPO4
_symmetry_space_group_name_H-M   'P 1'
_cell_length_a   5.62216303
_cell_length_b   5.37542362
_cell_length_c   14.19081836
_cell_angle_alpha   90.00000000
_cell_angle_beta   90.00000000
_cell_angle_gamma   90.00000000
_symmetry_Int_Tables_number   1
_chemical_formula_structural   LiSnPO4
_chemical_formula_sum   'Li4 Sn4 P4 O16'
_cell_volume   428.86792984
_cell_formula_units_Z   4
loop_
 _symmetry_equiv_pos_site_id
 _symmetry_equiv_pos_as_xyz
  1  'x, y, z'
loop_
 _atom_site_type_symbol
 _atom_site_label
 _atom_site_symmetry_multiplicity
 _atom_site_fract_x
 _atom_site_fract_y
 _atom_site_fract_z
 _atom_site_occupancy
  Li  Li0  1  0.888089  0.048600  -0.000011  1
  Li  Li1  1  0.611911  0.951400  0.499989  1
  Li  Li2  1  0.388089  0.451400  0.000011  1
  Li  Li3  1  0.111911  0.548600  0.500011  1
  Sn  Sn4  1  0.220507  0.543386  0.778189  1
  Sn  Sn5  1  0.279493  0.456614  0.278189  1
  Sn  Sn6  1  0.720507  0.956614  0.221811  1
  Sn  Sn7  1  0.779493  0.043386  0.721811  1
  P  P8  1  0.084760  0.005358  0.376531  1
  P  P9  1  0.415240  0.994642  0.876531  1
  P  P10  1  0.584760  0.494642  0.623469  1
  P  P11  1  0.915240  0.505358  0.123469  1
  O  O12  1  0.176453  0.445814  0.103192  1
  O  O13  1  0.329459  0.737648  0.915111  1
  O  O14  1  0.246581  0.206225  0.907928  1
  O  O15  1  0.100068  0.041471  0.264005  1
  O  O16  1  0.399932  0.958529  0.764005  1
  O  O17  1  0.253419  0.793775  0.407928  1
  O  O18  1  0.170541  0.262352  0.415111  1
  O  O19  1  0.323547  0.554186  0.603192  1
  O  O20  1  0.676453  0.054186  0.896808  1
  O  O21  1  0.829459  0.762352  0.084889  1
  O  O22  1  0.746581  0.293775  0.092072  1
  O  O23  1  0.600068  0.458529  0.735995  1
  O  O24  1  0.899932  0.541471  0.235995  1
  O  O25  1  0.753419  0.706225  0.592072  1
  O  O26  1  0.670541  0.237648  0.584889  1
  O  O27  1  0.823547  0.945814  0.396808  1
