# generated using pymatgen
data_Fe5(O4F)2
_symmetry_space_group_name_H-M   'P 1'
_cell_length_a   4.65205092
_cell_length_b   7.60503433
_cell_length_c   9.77847027
_cell_angle_alpha   109.92980178
_cell_angle_beta   91.44199568
_cell_angle_gamma   88.76710393
_symmetry_Int_Tables_number   1
_chemical_formula_structural   Fe5(O4F)2
_chemical_formula_sum   'Fe10 O16 F4'
_cell_volume   325.09998907
_cell_formula_units_Z   2
loop_
 _symmetry_equiv_pos_site_id
 _symmetry_equiv_pos_as_xyz
  1  'x, y, z'
loop_
 _atom_site_type_symbol
 _atom_site_label
 _atom_site_symmetry_multiplicity
 _atom_site_fract_x
 _atom_site_fract_y
 _atom_site_fract_z
 _atom_site_occupancy
  Fe  Fe0  1  0.493518  0.301616  0.895489  1
  Fe  Fe1  1  0.509021  0.102804  0.311211  1
  Fe  Fe2  1  0.468554  0.893687  0.708179  1
  Fe  Fe3  1  0.535706  0.692762  0.092662  1
  Fe  Fe4  1  0.527148  0.507944  0.491668  1
  Fe  Fe5  1  0.991581  0.604021  0.805306  1
  Fe  Fe6  1  0.997218  0.205433  0.603720  1
  Fe  Fe7  1  0.006173  0.802147  0.397846  1
  Fe  Fe8  1  0.996525  0.384281  0.199365  1
  Fe  Fe9  1  0.978558  0.005207  0.995574  1
  O  O10  1  0.812172  0.765470  0.976107  1
  O  O11  1  0.825199  0.564024  0.370335  1
  O  O12  1  0.812179  0.367674  0.776402  1
  O  O13  1  0.802354  0.146446  0.173001  1
  O  O14  1  0.674081  0.064033  0.872549  1
  O  O15  1  0.694519  0.664277  0.677986  1
  O  O16  1  0.697839  0.451155  0.072556  1
  O  O17  1  0.698889  0.858951  0.278606  1
  O  O18  1  0.701503  0.269677  0.485529  1
  O  O19  1  0.295185  0.138118  0.721923  1
  O  O20  1  0.304940  0.740271  0.523207  1
  O  O21  1  0.313787  0.340652  0.325345  1
  O  O22  1  0.308538  0.538479  0.919319  1
  O  O23  1  0.188109  0.039804  0.427996  1
  O  O24  1  0.176291  0.839178  0.830197  1
  O  O25  1  0.184404  0.228921  0.022404  1
  F  F26  1  0.793779  0.961457  0.581064  1
  F  F27  1  0.304654  0.933049  0.124584  1
  F  F28  1  0.198991  0.449475  0.624957  1
  F  F29  1  0.208583  0.638988  0.214917  1
