# generated using pymatgen
data_Li2Cr4Si4O13
_symmetry_space_group_name_H-M   'P 1'
_cell_length_a   10.34148923
_cell_length_b   7.87320959
_cell_length_c   6.93987594
_cell_angle_alpha   80.20031419
_cell_angle_beta   91.71898408
_cell_angle_gamma   108.07467422
_symmetry_Int_Tables_number   1
_chemical_formula_structural   Li2Cr4Si4O13
_chemical_formula_sum   'Li4 Cr8 Si8 O26'
_cell_volume   529.17130274
_cell_formula_units_Z   2
loop_
 _symmetry_equiv_pos_site_id
 _symmetry_equiv_pos_as_xyz
  1  'x, y, z'
loop_
 _atom_site_type_symbol
 _atom_site_label
 _atom_site_symmetry_multiplicity
 _atom_site_fract_x
 _atom_site_fract_y
 _atom_site_fract_z
 _atom_site_occupancy
  Li  Li0  1  0.111429  0.598024  0.221190  1
  Li  Li1  1  0.412172  0.410044  0.752481  1
  Li  Li2  1  0.587828  0.589956  0.247519  1
  Li  Li3  1  0.888571  0.401976  0.778810  1
  Cr  Cr4  1  0.997353  0.813428  0.917637  1
  Cr  Cr5  1  0.007126  0.811463  0.433439  1
  Cr  Cr6  1  0.379800  0.788634  0.428305  1
  Cr  Cr7  1  0.376398  0.784906  0.931301  1
  Cr  Cr8  1  0.623602  0.215094  0.068699  1
  Cr  Cr9  1  0.620200  0.211366  0.571695  1
  Cr  Cr10  1  0.992874  0.188537  0.566561  1
  Cr  Cr11  1  0.002647  0.186572  0.082363  1
  Si  Si12  1  0.166955  0.574669  0.723189  1
  Si  Si13  1  0.297563  0.392029  0.280625  1
  Si  Si14  1  0.276956  0.091525  0.623421  1
  Si  Si15  1  0.281234  0.084096  0.072220  1
  Si  Si16  1  0.718766  0.915904  0.927780  1
  Si  Si17  1  0.723044  0.908475  0.376579  1
  Si  Si18  1  0.702437  0.607971  0.719375  1
  Si  Si19  1  0.833045  0.425331  0.276811  1
  O  O20  1  0.117748  0.002542  0.114450  1
  O  O21  1  0.073812  0.361518  0.769504  1
  O  O22  1  0.141329  0.667686  0.500037  1
  O  O23  1  0.145551  0.681707  0.903273  1
  O  O24  1  0.135563  0.356636  0.258021  1
  O  O25  1  0.114065  0.010527  0.598089  1
  O  O26  1  0.369550  0.946049  0.144368  1
  O  O27  1  0.374521  0.971825  0.600451  1
  O  O28  1  0.336539  0.608873  0.726602  1
  O  O29  1  0.390587  0.605254  0.237216  1
  O  O30  1  0.309850  0.149789  0.838429  1
  O  O31  1  0.336925  0.302784  0.499493  1
  O  O32  1  0.355738  0.283447  0.136705  1
  O  O33  1  0.644262  0.716553  0.863295  1
  O  O34  1  0.663075  0.697216  0.500507  1
  O  O35  1  0.690150  0.850211  0.161571  1
  O  O36  1  0.609413  0.394746  0.762784  1
  O  O37  1  0.663461  0.391127  0.273398  1
  O  O38  1  0.625479  0.028175  0.399549  1
  O  O39  1  0.630450  0.053951  0.855632  1
  O  O40  1  0.885935  0.989473  0.401911  1
  O  O41  1  0.864437  0.643364  0.741979  1
  O  O42  1  0.854449  0.318293  0.096727  1
  O  O43  1  0.858671  0.332314  0.499963  1
  O  O44  1  0.926188  0.638482  0.230496  1
  O  O45  1  0.882252  0.997458  0.885550  1
