# generated using pymatgen
data_Ho(ClO4)3
_symmetry_space_group_name_H-M   'P 1'
_cell_length_a   9.45682052
_cell_length_b   9.45682052
_cell_length_c   9.45682033
_cell_angle_alpha   51.73889836
_cell_angle_beta   51.73889836
_cell_angle_gamma   51.73889640
_symmetry_Int_Tables_number   1
_chemical_formula_structural   Ho(ClO4)3
_chemical_formula_sum   'Ho2 Cl6 O24'
_cell_volume   481.78977148
_cell_formula_units_Z   2
loop_
 _symmetry_equiv_pos_site_id
 _symmetry_equiv_pos_as_xyz
  1  'x, y, z'
loop_
 _atom_site_type_symbol
 _atom_site_label
 _atom_site_symmetry_multiplicity
 _atom_site_fract_x
 _atom_site_fract_y
 _atom_site_fract_z
 _atom_site_occupancy
  Ho  Ho0  1  0.058118  0.058118  0.058118  1
  Ho  Ho1  1  0.558118  0.558118  0.558118  1
  Cl  Cl2  1  0.345134  0.966147  0.689511  1
  Cl  Cl3  1  0.466147  0.845134  0.189511  1
  Cl  Cl4  1  0.189511  0.466147  0.845134  1
  Cl  Cl5  1  0.966147  0.689511  0.345134  1
  Cl  Cl6  1  0.689511  0.345134  0.966147  1
  Cl  Cl7  1  0.845134  0.189511  0.466147  1
  O  O8  1  0.076340  0.753176  0.130878  1
  O  O9  1  0.281678  0.885495  0.202417  1
  O  O10  1  -0.000137  0.574298  0.947756  1
  O  O11  1  0.392494  0.918193  0.841015  1
  O  O12  1  0.418193  0.892494  0.341015  1
  O  O13  1  0.074298  0.499863  0.447756  1
  O  O14  1  0.385495  0.781678  0.702417  1
  O  O15  1  0.574298  0.947756  -0.000137  1
  O  O16  1  0.253176  0.576340  0.630878  1
  O  O17  1  0.202417  0.281678  0.885495  1
  O  O18  1  0.341015  0.418193  0.892494  1
  O  O19  1  0.576340  0.630878  0.253176  1
  O  O20  1  0.499863  0.447756  0.074298  1
  O  O21  1  0.130878  0.076340  0.753176  1
  O  O22  1  0.918193  0.841015  0.392494  1
  O  O23  1  0.781678  0.702417  0.385495  1
  O  O24  1  0.702417  0.385495  0.781678  1
  O  O25  1  0.447756  0.074298  0.499863  1
  O  O26  1  0.630878  0.253176  0.576340  1
  O  O27  1  0.841015  0.392494  0.918193  1
  O  O28  1  0.892494  0.341015  0.418193  1
  O  O29  1  0.753176  0.130878  0.076340  1
  O  O30  1  0.885495  0.202417  0.281678  1
  O  O31  1  0.947756  -0.000137  0.574298  1
