# generated using pymatgen
data_FeOF
_symmetry_space_group_name_H-M   'P 1'
_cell_length_a   9.50637212
_cell_length_b   14.34589433
_cell_length_c   3.09677367
_cell_angle_alpha   90.00000000
_cell_angle_beta   90.00000000
_cell_angle_gamma   90.67530765
_symmetry_Int_Tables_number   1
_chemical_formula_structural   FeOF
_chemical_formula_sum   'Fe12 O12 F12'
_cell_volume   422.30063795
_cell_formula_units_Z   12
loop_
 _symmetry_equiv_pos_site_id
 _symmetry_equiv_pos_as_xyz
  1  'x, y, z'
loop_
 _atom_site_type_symbol
 _atom_site_label
 _atom_site_symmetry_multiplicity
 _atom_site_fract_x
 _atom_site_fract_y
 _atom_site_fract_z
 _atom_site_occupancy
  Fe  Fe0  1  0.020957  0.000392  0.000000  1
  Fe  Fe1  1  0.009693  0.338151  0.000000  1
  Fe  Fe2  1  0.018932  0.666203  0.000000  1
  Fe  Fe3  1  0.260898  0.144683  0.500000  1
  Fe  Fe4  1  0.229092  0.499329  0.500000  1
  Fe  Fe5  1  0.228542  0.833573  0.500000  1
  Fe  Fe6  1  0.519577  0.330362  0.000000  1
  Fe  Fe7  1  0.510023  0.003613  0.000000  1
  Fe  Fe8  1  0.520890  0.669601  0.000000  1
  Fe  Fe9  1  0.728920  0.163968  0.500000  1
  Fe  Fe10  1  0.721936  0.502208  0.500000  1
  Fe  Fe11  1  0.724230  0.839356  0.500000  1
  O  O12  1  0.096468  0.599210  0.500000  1
  O  O13  1  0.097424  0.936521  0.500000  1
  O  O14  1  0.151610  0.105462  0.000000  1
  O  O15  1  0.152021  0.768040  0.000000  1
  O  O16  1  0.148426  0.430806  0.000000  1
  O  O17  1  0.408154  0.062137  0.500000  1
  O  O18  1  0.599078  0.269544  0.500000  1
  O  O19  1  0.596362  0.936573  0.500000  1
  O  O20  1  0.593136  0.603860  0.500000  1
  O  O21  1  0.660099  0.103408  0.000000  1
  O  O22  1  0.653396  0.435296  0.000000  1
  O  O23  1  0.653201  0.770668  0.000000  1
  F  F24  1  0.094401  0.270064  0.500000  1
  F  F25  1  0.346094  0.235656  0.000000  1
  F  F26  1  0.343137  0.562106  0.000000  1
  F  F27  1  0.344877  0.893351  0.000000  1
  F  F28  1  0.400511  0.399777  0.500000  1
  F  F29  1  0.401085  0.730293  0.500000  1
  F  F30  1  0.857575  0.237576  0.000000  1
  F  F31  1  0.848740  0.900487  0.000000  1
  F  F32  1  0.846917  0.563869  0.000000  1
  F  F33  1  0.904968  0.067504  0.500000  1
  F  F34  1  0.903730  0.397441  0.500000  1
  F  F35  1  0.904900  0.728913  0.500000  1
