# generated using pymatgen
data_Co3(OF2)2
_symmetry_space_group_name_H-M   'P 1'
_cell_length_a   4.58299346
_cell_length_b   7.73275386
_cell_length_c   5.65901711
_cell_angle_alpha   92.13429883
_cell_angle_beta   90.00000000
_cell_angle_gamma   90.00000000
_symmetry_Int_Tables_number   1
_chemical_formula_structural   Co3(OF2)2
_chemical_formula_sum   'Co6 O4 F8'
_cell_volume   200.41168837
_cell_formula_units_Z   2
loop_
 _symmetry_equiv_pos_site_id
 _symmetry_equiv_pos_as_xyz
  1  'x, y, z'
loop_
 _atom_site_type_symbol
 _atom_site_label
 _atom_site_symmetry_multiplicity
 _atom_site_fract_x
 _atom_site_fract_y
 _atom_site_fract_z
 _atom_site_occupancy
  Co  Co0  1  0.504127  0.016803  0.485145  1
  Co  Co1  1  0.466656  0.339220  0.816915  1
  Co  Co2  1  0.521634  0.666802  0.146759  1
  Co  Co3  1  0.021634  0.666532  0.686575  1
  Co  Co4  1  0.004127  0.316531  0.348188  1
  Co  Co5  1  0.966656  0.994114  0.016418  1
  O  O6  1  0.798529  0.767075  0.966171  1
  O  O7  1  0.802506  0.101257  0.304368  1
  O  O8  1  0.298529  0.566258  0.867163  1
  O  O9  1  0.302506  0.232076  0.528966  1
  F  F10  1  0.803376  0.439741  0.634718  1
  F  F11  1  0.702717  0.771113  0.469148  1
  F  F12  1  0.694776  0.111988  0.799339  1
  F  F13  1  0.705679  0.426063  0.137540  1
  F  F14  1  0.303376  0.893592  0.198616  1
  F  F15  1  0.194776  0.221345  0.033994  1
  F  F16  1  0.205679  0.907271  0.695794  1
  F  F17  1  0.202717  0.562220  0.364185  1
