# generated using pymatgen
data_Sr2Li2NiO4
_symmetry_space_group_name_H-M   'P 1'
_cell_length_a   8.62960678
_cell_length_b   5.44246776
_cell_length_c   5.58388485
_cell_angle_alpha   98.08812173
_cell_angle_beta   67.76030749
_cell_angle_gamma   101.62319047
_symmetry_Int_Tables_number   1
_chemical_formula_structural   Sr2Li2NiO4
_chemical_formula_sum   'Sr4 Li4 Ni2 O8'
_cell_volume   237.16607160
_cell_formula_units_Z   2
loop_
 _symmetry_equiv_pos_site_id
 _symmetry_equiv_pos_as_xyz
  1  'x, y, z'
loop_
 _atom_site_type_symbol
 _atom_site_label
 _atom_site_symmetry_multiplicity
 _atom_site_fract_x
 _atom_site_fract_y
 _atom_site_fract_z
 _atom_site_occupancy
  Sr  Sr0  1  0.025134  0.275057  0.754049  1
  Sr  Sr1  1  0.306209  0.833940  0.549769  1
  Sr  Sr2  1  0.693791  0.166060  0.450231  1
  Sr  Sr3  1  0.974866  0.724943  0.245951  1
  Li  Li4  1  0.453834  0.802431  0.925062  1
  Li  Li5  1  0.412910  0.415261  0.702224  1
  Li  Li6  1  0.587090  0.584739  0.297776  1
  Li  Li7  1  0.546166  0.197569  0.074938  1
  Ni  Ni8  1  0.245216  0.293783  0.143905  1
  Ni  Ni9  1  0.754784  0.706217  0.856095  1
  O  O10  1  0.237202  0.577892  0.954250  1
  O  O11  1  0.995924  0.201439  0.305448  1
  O  O12  1  0.422904  0.125608  0.842776  1
  O  O13  1  0.359912  0.331909  0.396512  1
  O  O14  1  0.640088  0.668091  0.603488  1
  O  O15  1  0.577096  0.874392  0.157224  1
  O  O16  1  0.004076  0.798561  0.694552  1
  O  O17  1  0.762798  0.422108  0.045750  1
