# generated using pymatgen
data_Cr2Fe3Cu(PO4)6
_symmetry_space_group_name_H-M   'P 1'
_cell_length_a   8.38852355
_cell_length_b   8.38852395
_cell_length_c   8.38852398
_cell_angle_alpha   61.84276992
_cell_angle_beta   61.84276808
_cell_angle_gamma   61.84276752
_symmetry_Int_Tables_number   1
_chemical_formula_structural   Cr2Fe3Cu(PO4)6
_chemical_formula_sum   'Cr2 Fe3 Cu1 P6 O24'
_cell_volume   434.61319362
_cell_formula_units_Z   1
loop_
 _symmetry_equiv_pos_site_id
 _symmetry_equiv_pos_as_xyz
  1  'x, y, z'
loop_
 _atom_site_type_symbol
 _atom_site_label
 _atom_site_symmetry_multiplicity
 _atom_site_fract_x
 _atom_site_fract_y
 _atom_site_fract_z
 _atom_site_occupancy
  Cr  Cr0  1  0.999173  0.999173  0.999173  1
  Cr  Cr1  1  0.499470  0.499470  0.499470  1
  Fe  Fe2  1  0.145152  0.145152  0.145152  1
  Fe  Fe3  1  0.353453  0.353453  0.353453  1
  Fe  Fe4  1  0.645753  0.645753  0.645753  1
  Cu  Cu5  1  0.854113  0.854113  0.854113  1
  P  P6  1  0.048442  0.749943  0.453329  1
  P  P7  1  0.453329  0.048442  0.749943  1
  P  P8  1  0.749943  0.453329  0.048442  1
  P  P9  1  0.248683  0.548276  0.950542  1
  P  P10  1  0.548276  0.950542  0.248683  1
  P  P11  1  0.950542  0.248683  0.548276  1
  O  O12  1  0.105160  0.323959  0.504769  1
  O  O13  1  0.323959  0.504769  0.105160  1
  O  O14  1  0.060306  0.905010  0.249384  1
  O  O15  1  0.504769  0.105160  0.323959  1
  O  O16  1  0.017020  0.819352  0.607235  1
  O  O17  1  0.253335  0.595456  0.433058  1
  O  O18  1  0.249384  0.060306  0.905010  1
  O  O19  1  0.433058  0.253335  0.595456  1
  O  O20  1  0.174399  0.393798  0.993763  1
  O  O21  1  0.595456  0.433058  0.253335  1
  O  O22  1  0.094550  0.750999  0.940624  1
  O  O23  1  0.393798  0.993763  0.174399  1
  O  O24  1  0.607235  0.017020  0.819352  1
  O  O25  1  0.905010  0.249384  0.060306  1
  O  O26  1  0.403860  0.563460  0.747262  1
  O  O27  1  0.819352  0.607235  0.017020  1
  O  O28  1  0.563460  0.747262  0.403860  1
  O  O29  1  0.750999  0.940624  0.094550  1
  O  O30  1  0.747262  0.403860  0.563460  1
  O  O31  1  0.993763  0.174399  0.393798  1
  O  O32  1  0.498271  0.893893  0.674750  1
  O  O33  1  0.940624  0.094550  0.750999  1
  O  O34  1  0.674750  0.498271  0.893893  1
  O  O35  1  0.893893  0.674750  0.498271  1
