# generated using pymatgen
data_Li3Cu(NiO3)2
_symmetry_space_group_name_H-M   'P 1'
_cell_length_a   14.98182005
_cell_length_b   9.65800959
_cell_length_c   9.65800962
_cell_angle_alpha   17.48933964
_cell_angle_beta   16.68086616
_cell_angle_gamma   16.68086421
_symmetry_Int_Tables_number   1
_chemical_formula_structural   Li3Cu(NiO3)2
_chemical_formula_sum   'Li3 Cu1 Ni2 O6'
_cell_volume   103.45531436
_cell_formula_units_Z   1
loop_
 _symmetry_equiv_pos_site_id
 _symmetry_equiv_pos_as_xyz
  1  'x, y, z'
loop_
 _atom_site_type_symbol
 _atom_site_label
 _atom_site_symmetry_multiplicity
 _atom_site_fract_x
 _atom_site_fract_y
 _atom_site_fract_z
 _atom_site_occupancy
  Li  Li0  1  0.166667  0.500000  0.500000  1
  Li  Li1  1  0.493968  0.504312  0.504312  1
  Li  Li2  1  0.839365  0.495688  0.495688  1
  Cu  Cu3  1  0.666667  0.000000  0.000000  1
  Ni  Ni4  1  0.998647  -0.000056  -0.000056  1
  Ni  Ni5  1  0.334687  0.000056  0.000056  1
  O  O6  1  0.246279  0.257918  0.257918  1
  O  O7  1  0.593574  0.248292  0.248292  1
  O  O8  1  0.087054  0.742082  0.742082  1
  O  O9  1  0.931794  0.245633  0.245633  1
  O  O10  1  0.401540  0.754367  0.754367  1
  O  O11  1  0.739760  0.751708  0.751708  1
