# generated using pymatgen
data_TiNi(PO4)2
_symmetry_space_group_name_H-M   'P 1'
_cell_length_a   9.88753678
_cell_length_b   5.86982962
_cell_length_c   4.88308794
_cell_angle_alpha   90.00000000
_cell_angle_beta   89.29344467
_cell_angle_gamma   90.00000000
_symmetry_Int_Tables_number   1
_chemical_formula_structural   TiNi(PO4)2
_chemical_formula_sum   'Ti2 Ni2 P4 O16'
_cell_volume   283.38387220
_cell_formula_units_Z   2
loop_
 _symmetry_equiv_pos_site_id
 _symmetry_equiv_pos_as_xyz
  1  'x, y, z'
loop_
 _atom_site_type_symbol
 _atom_site_label
 _atom_site_symmetry_multiplicity
 _atom_site_fract_x
 _atom_site_fract_y
 _atom_site_fract_z
 _atom_site_occupancy
  Ti  Ti0  1  0.227392  0.750000  0.476785  1
  Ti  Ti1  1  0.772608  0.250000  0.523215  1
  Ni  Ni2  1  0.270132  0.250000  0.964925  1
  Ni  Ni3  1  0.729868  0.750000  0.035075  1
  P  P4  1  0.097363  0.250000  0.437457  1
  P  P5  1  0.404157  0.750000  0.902045  1
  P  P6  1  0.595843  0.250000  0.097955  1
  P  P7  1  0.902637  0.750000  0.562543  1
  O  O8  1  0.053439  0.750000  0.650152  1
  O  O9  1  0.105433  0.250000  0.744248  1
  O  O10  1  0.171990  0.042679  0.295706  1
  O  O11  1  0.171990  0.457321  0.295706  1
  O  O12  1  0.327125  0.949647  0.752550  1
  O  O13  1  0.327125  0.550353  0.752550  1
  O  O14  1  0.368207  0.750000  0.210708  1
  O  O15  1  0.446743  0.250000  0.149654  1
  O  O16  1  0.553257  0.750000  0.850346  1
  O  O17  1  0.631793  0.250000  0.789292  1
  O  O18  1  0.672875  0.050353  0.247450  1
  O  O19  1  0.672875  0.449647  0.247450  1
  O  O20  1  0.828010  0.542679  0.704294  1
  O  O21  1  0.828010  0.957321  0.704294  1
  O  O22  1  0.894567  0.750000  0.255752  1
  O  O23  1  0.946561  0.250000  0.349848  1
