# generated using pymatgen
data_Li3Mn2P2(CO7)2
_symmetry_space_group_name_H-M   'P 1'
_cell_length_a   9.40746040
_cell_length_b   8.20153494
_cell_length_c   8.27185490
_cell_angle_alpha   75.86405696
_cell_angle_beta   73.82844699
_cell_angle_gamma   107.60812114
_symmetry_Int_Tables_number   1
_chemical_formula_structural   Li3Mn2P2(CO7)2
_chemical_formula_sum   'Li6 Mn4 P4 C4 O28'
_cell_volume   545.34133546
_cell_formula_units_Z   2
loop_
 _symmetry_equiv_pos_site_id
 _symmetry_equiv_pos_as_xyz
  1  'x, y, z'
loop_
 _atom_site_type_symbol
 _atom_site_label
 _atom_site_symmetry_multiplicity
 _atom_site_fract_x
 _atom_site_fract_y
 _atom_site_fract_z
 _atom_site_occupancy
  Li  Li0  1  0.751556  0.993393  0.496794  1
  Li  Li1  1  0.745940  0.764049  0.255751  1
  Li  Li2  1  0.730119  0.474155  0.977200  1
  Li  Li3  1  0.269881  0.525845  0.022800  1
  Li  Li4  1  0.254060  0.235951  0.744249  1
  Li  Li5  1  0.248444  0.006607  0.503206  1
  Mn  Mn6  1  0.667201  0.311704  0.440793  1
  Mn  Mn7  1  0.667126  0.819988  0.933474  1
  Mn  Mn8  1  0.332874  0.180012  0.066526  1
  Mn  Mn9  1  0.332799  0.688296  0.559207  1
  P  P10  1  0.580242  0.057130  0.209508  1
  P  P11  1  0.577068  0.545626  0.695398  1
  P  P12  1  0.419758  0.942870  0.790492  1
  P  P13  1  0.422932  0.454374  0.304602  1
  C  C14  1  0.950482  0.492075  0.249815  1
  C  C15  1  0.952343  0.991973  0.751360  1
  C  C16  1  0.047657  0.008027  0.248640  1
  C  C17  1  0.049518  0.507925  0.750185  1
  O  O18  1  0.892743  0.858156  0.908110  1
  O  O19  1  0.896719  0.351029  0.399716  1
  O  O20  1  0.899020  0.916994  0.337710  1
  O  O21  1  0.827175  0.529650  0.225717  1
  O  O22  1  0.908648  0.422229  0.856169  1
  O  O23  1  0.839119  0.020034  0.700475  1
  O  O24  1  0.671842  0.959999  0.117954  1
  O  O25  1  0.674886  0.463916  0.580994  1
  O  O26  1  0.678361  0.631717  0.791141  1
  O  O27  1  0.690096  0.162377  0.293336  1
  O  O28  1  0.590412  0.599941  0.166256  1
  O  O29  1  0.545840  0.695408  0.563923  1
  O  O30  1  0.543964  0.198158  0.080602  1
  O  O31  1  0.586250  0.080425  0.640724  1
  O  O32  1  0.413750  0.919575  0.359276  1
  O  O33  1  0.456036  0.801841  0.919398  1
  O  O34  1  0.454160  0.304592  0.436077  1
  O  O35  1  0.409588  0.400059  0.833744  1
  O  O36  1  0.309904  0.837623  0.706664  1
  O  O37  1  0.325114  0.536084  0.419006  1
  O  O38  1  0.321639  0.368283  0.208859  1
  O  O39  1  0.328158  0.040001  0.882046  1
  O  O40  1  0.160881  0.979966  0.299525  1
  O  O41  1  0.091352  0.577771  0.143831  1
  O  O42  1  0.172825  0.470350  0.774283  1
  O  O43  1  0.100980  0.083006  0.662290  1
  O  O44  1  0.107257  0.141844  0.091890  1
  O  O45  1  0.103281  0.648971  0.600284  1
