# generated using pymatgen
data_Bi8Rh8O27
_symmetry_space_group_name_H-M   'P 1'
_cell_length_a   7.31483859
_cell_length_b   7.31483859
_cell_length_c   12.66669251
_cell_angle_alpha   106.78271859
_cell_angle_beta   90.00000000
_cell_angle_gamma   60.00000000
_symmetry_Int_Tables_number   1
_chemical_formula_structural   Bi8Rh8O27
_chemical_formula_sum   'Bi8 Rh8 O27'
_cell_volume   553.36835675
_cell_formula_units_Z   1
loop_
 _symmetry_equiv_pos_site_id
 _symmetry_equiv_pos_as_xyz
  1  'x, y, z'
loop_
 _atom_site_type_symbol
 _atom_site_label
 _atom_site_symmetry_multiplicity
 _atom_site_fract_x
 _atom_site_fract_y
 _atom_site_fract_z
 _atom_site_occupancy
  Bi  Bi0  1  0.496049  0.507901  0.011851  1
  Bi  Bi1  1  0.742694  0.501060  0.244814  1
  Bi  Bi2  1  0.256246  0.501060  0.244814  1
  Bi  Bi3  1  0.000987  0.498026  0.497039  1
  Bi  Bi4  1  0.256246  0.987508  0.244814  1
  Bi  Bi5  1  0.748622  0.501636  0.753014  1
  Bi  Bi6  1  0.249741  0.501636  0.753014  1
  Bi  Bi7  1  0.748622  0.002755  0.753014  1
  Rh  Rh8  1  0.000652  0.498698  0.999184  1
  Rh  Rh9  1  0.499513  0.999836  0.999184  1
  Rh  Rh10  1  0.000652  0.999836  0.999184  1
  Rh  Rh11  1  0.749275  0.001451  0.252176  1
  Rh  Rh12  1  0.501158  0.497683  0.499963  1
  Rh  Rh13  1  0.997720  0.001121  0.499963  1
  Rh  Rh14  1  0.501158  0.001121  0.499963  1
  Rh  Rh15  1  0.249991  0.000019  0.750027  1
  O  O16  1  0.291961  0.916078  0.039991  1
  O  O17  1  0.919051  0.661897  0.168875  1
  O  O18  1  0.996896  0.918639  0.334175  1
  O  O19  1  0.876087  0.331952  0.039991  1
  O  O20  1  0.584464  0.918639  0.334175  1
  O  O21  1  0.291961  0.331952  0.039991  1
  O  O22  1  0.790963  0.918072  0.542171  1
  O  O23  1  0.493023  0.087926  0.168875  1
  O  O24  1  0.208153  0.663073  0.454919  1
  O  O25  1  0.628774  0.663073  0.454919  1
  O  O26  1  0.919051  0.087926  0.168875  1
  O  O27  1  0.068577  0.362845  0.294268  1
  O  O28  1  0.584464  0.331071  0.334175  1
  O  O29  1  0.416513  0.666973  0.666884  1
  O  O30  1  0.790963  0.333135  0.542171  1
  O  O31  1  0.938363  0.623274  0.684911  1
  O  O32  1  0.375901  0.333135  0.542171  1
  O  O33  1  0.082612  0.915762  0.833151  1
  O  O34  1  0.501625  0.915762  0.833151  1
  O  O35  1  0.208153  0.083694  0.454919  1
  O  O36  1  0.000089  0.083398  0.666884  1
  O  O37  1  0.127700  0.665936  0.959572  1
  O  O38  1  0.416513  0.083398  0.666884  1
  O  O39  1  0.706364  0.665936  0.959572  1
  O  O40  1  0.555971  0.388058  0.832087  1
  O  O41  1  0.082612  0.334775  0.833151  1
  O  O42  1  0.706364  0.087273  0.959572  1
