# generated using pymatgen
data_NaNiPO4
_symmetry_space_group_name_H-M   'P 1'
_cell_length_a   10.22963894
_cell_length_b   6.16704839
_cell_length_c   4.98790114
_cell_angle_alpha   90.00001684
_cell_angle_beta   89.99998565
_cell_angle_gamma   89.99999911
_symmetry_Int_Tables_number   1
_chemical_formula_structural   NaNiPO4
_chemical_formula_sum   'Na4 Ni4 P4 O16'
_cell_volume   314.67011489
_cell_formula_units_Z   4
loop_
 _symmetry_equiv_pos_site_id
 _symmetry_equiv_pos_as_xyz
  1  'x, y, z'
loop_
 _atom_site_type_symbol
 _atom_site_label
 _atom_site_symmetry_multiplicity
 _atom_site_fract_x
 _atom_site_fract_y
 _atom_site_fract_z
 _atom_site_occupancy
  Na  Na0  1  0.000001  1.000000  0.000003  1
  Na  Na1  1  0.000001  0.500001  0.000003  1
  Na  Na2  1  0.500001  1.000000  0.499997  1
  Na  Na3  1  0.500001  0.500000  0.499997  1
  Ni  Ni4  1  0.220199  0.750000  0.485893  1
  Ni  Ni5  1  0.279802  0.250000  0.985892  1
  Ni  Ni6  1  0.720199  0.749999  0.014108  1
  Ni  Ni7  1  0.779802  0.249999  0.514108  1
  P  P8  1  0.106076  0.250000  0.434421  1
  P  P9  1  0.393923  0.750000  0.934420  1
  P  P10  1  0.606076  0.250000  0.065578  1
  P  P11  1  0.893923  0.750000  0.565580  1
  O  O12  1  0.039009  0.750000  0.659973  1
  O  O13  1  0.114505  0.250000  0.741764  1
  O  O14  1  0.176593  0.051651  0.297477  1
  O  O15  1  0.176594  0.448350  0.297477  1
  O  O16  1  0.323406  0.551650  0.797473  1
  O  O17  1  0.323405  0.948350  0.797472  1
  O  O18  1  0.385495  0.750000  0.241758  1
  O  O19  1  0.460992  0.250000  0.159966  1
  O  O20  1  0.539008  0.750000  0.840027  1
  O  O21  1  0.614505  0.250000  0.758236  1
  O  O22  1  0.676593  0.051651  0.202523  1
  O  O23  1  0.676594  0.448350  0.202522  1
  O  O24  1  0.823406  0.551650  0.702528  1
  O  O25  1  0.823406  0.948350  0.702527  1
  O  O26  1  0.885496  0.750000  0.258241  1
  O  O27  1  0.960993  0.250000  0.340034  1
