# generated using pymatgen
data_V4O9
_symmetry_space_group_name_H-M   'P 1'
_cell_length_a   6.93423284
_cell_length_b   6.93423284
_cell_length_c   15.16334524
_cell_angle_alpha   90.00000000
_cell_angle_beta   90.00000000
_cell_angle_gamma   102.27291818
_symmetry_Int_Tables_number   1
_chemical_formula_structural   V4O9
_chemical_formula_sum   'V16 O36'
_cell_volume   712.44508102
_cell_formula_units_Z   4
loop_
 _symmetry_equiv_pos_site_id
 _symmetry_equiv_pos_as_xyz
  1  'x, y, z'
loop_
 _atom_site_type_symbol
 _atom_site_label
 _atom_site_symmetry_multiplicity
 _atom_site_fract_x
 _atom_site_fract_y
 _atom_site_fract_z
 _atom_site_occupancy
  V  V0  1  0.691652  0.691652  0.367781  1
  V  V1  1  0.308348  0.308348  0.632219  1
  V  V2  1  0.691652  0.691652  0.132219  1
  V  V3  1  0.308348  0.308348  0.867781  1
  V  V4  1  0.322351  0.322351  0.373772  1
  V  V5  1  0.677649  0.677649  0.626228  1
  V  V6  1  0.322351  0.322351  0.126228  1
  V  V7  1  0.677649  0.677649  0.873772  1
  V  V8  1  0.790499  0.216197  0.385374  1
  V  V9  1  0.783803  0.209501  0.614626  1
  V  V10  1  0.790499  0.216197  0.114626  1
  V  V11  1  0.783803  0.209501  0.885374  1
  V  V12  1  0.209501  0.783803  0.614626  1
  V  V13  1  0.216197  0.790499  0.385374  1
  V  V14  1  0.209501  0.783803  0.885374  1
  V  V15  1  0.216197  0.790499  0.114626  1
  O  O16  1  0.331794  0.331794  0.250000  1
  O  O17  1  0.668206  0.668206  0.750000  1
  O  O18  1  0.681461  0.681461  0.250000  1
  O  O19  1  0.318539  0.318539  0.750000  1
  O  O20  1  0.027192  0.300320  0.357346  1
  O  O21  1  0.699680  0.972808  0.642654  1
  O  O22  1  0.027192  0.300320  0.142654  1
  O  O23  1  0.699680  0.972808  0.857346  1
  O  O24  1  0.972808  0.699680  0.642654  1
  O  O25  1  0.300320  0.027192  0.357346  1
  O  O26  1  0.972808  0.699680  0.857346  1
  O  O27  1  0.300320  0.027192  0.142654  1
  O  O28  1  0.969012  0.705657  0.360382  1
  O  O29  1  0.294343  0.030988  0.639618  1
  O  O30  1  0.969012  0.705657  0.139618  1
  O  O31  1  0.294343  0.030988  0.860382  1
  O  O32  1  0.030988  0.294343  0.639618  1
  O  O33  1  0.705657  0.969012  0.360382  1
  O  O34  1  0.030988  0.294343  0.860382  1
  O  O35  1  0.705657  0.969012  0.139618  1
  O  O36  1  0.794238  0.205762  0.500000  1
  O  O37  1  0.794238  0.205762  0.000000  1
  O  O38  1  0.205762  0.794238  0.500000  1
  O  O39  1  0.205762  0.794238  0.000000  1
  O  O40  1  0.310967  0.310967  0.491816  1
  O  O41  1  0.689033  0.689033  0.508184  1
  O  O42  1  0.310967  0.310967  0.008184  1
  O  O43  1  0.689033  0.689033  0.991816  1
  O  O44  1  0.633259  0.385979  0.367504  1
  O  O45  1  0.614021  0.366741  0.632496  1
  O  O46  1  0.633259  0.385979  0.132496  1
  O  O47  1  0.614021  0.366741  0.867504  1
  O  O48  1  0.366741  0.614021  0.632496  1
  O  O49  1  0.385979  0.633259  0.367504  1
  O  O50  1  0.366741  0.614021  0.867504  1
  O  O51  1  0.385979  0.633259  0.132496  1
