# generated using pymatgen
data_Cr4OF11
_symmetry_space_group_name_H-M   'P 1'
_cell_length_a   5.05377956
_cell_length_b   5.34672636
_cell_length_c   16.91745249
_cell_angle_alpha   91.45074176
_cell_angle_beta   98.61317247
_cell_angle_gamma   61.82044779
_symmetry_Int_Tables_number   1
_chemical_formula_structural   Cr4OF11
_chemical_formula_sum   'Cr8 O2 F22'
_cell_volume   397.86134117
_cell_formula_units_Z   2
loop_
 _symmetry_equiv_pos_site_id
 _symmetry_equiv_pos_as_xyz
  1  'x, y, z'
loop_
 _atom_site_type_symbol
 _atom_site_label
 _atom_site_symmetry_multiplicity
 _atom_site_fract_x
 _atom_site_fract_y
 _atom_site_fract_z
 _atom_site_occupancy
  Cr  Cr0  1  0.744710  0.613815  0.129509  1
  Cr  Cr1  1  0.775445  0.111262  0.628048  1
  Cr  Cr2  1  0.482572  0.757056  0.745671  1
  Cr  Cr3  1  0.512205  0.258414  0.247711  1
  Cr  Cr4  1  0.256382  0.874253  0.374805  1
  Cr  Cr5  1  0.246295  0.373460  0.874430  1
  Cr  Cr6  1  0.008105  0.495760  0.501357  1
  Cr  Cr7  1  0.997347  0.994997  0.000403  1
  O  O8  1  0.690590  0.464445  0.218654  1
  O  O9  1  0.189988  0.908324  0.656810  1
  F  F10  1  0.810067  0.782103  0.035756  1
  F  F11  1  0.749560  0.932765  0.188503  1
  F  F12  1  0.758569  0.808710  0.564457  1
  F  F13  1  0.749641  0.313886  0.061693  1
  F  F14  1  0.689783  0.966325  0.719933  1
  F  F15  1  0.693458  0.655904  0.407693  1
  F  F16  1  0.811008  0.590195  0.839300  1
  F  F17  1  0.817957  0.089847  0.342536  1
  F  F18  1  0.821067  0.275361  0.532863  1
  F  F19  1  0.312489  0.844696  0.094524  1
  F  F20  1  0.746206  0.438473  0.686661  1
  F  F21  1  0.261719  0.558859  0.312455  1
  F  F22  1  0.685537  0.151079  0.906483  1
  F  F23  1  0.186314  0.406355  0.156519  1
  F  F24  1  0.194632  0.713968  0.468444  1
  F  F25  1  0.315460  0.526727  0.780556  1
  F  F26  1  0.329156  0.336154  0.593444  1
  F  F27  1  0.322272  0.036770  0.282554  1
  F  F28  1  0.246919  0.682247  0.938196  1
  F  F29  1  0.249238  0.186292  0.437720  1
  F  F30  1  0.253195  0.056430  0.813007  1
  F  F31  1  0.185107  0.213529  0.967638  1
