# generated using pymatgen
data_HoCrO3
_symmetry_space_group_name_H-M   'P 1'
_cell_length_a   5.28600234
_cell_length_b   5.61142530
_cell_length_c   7.64354727
_cell_angle_alpha   90.00000000
_cell_angle_beta   90.00000000
_cell_angle_gamma   90.00000000
_symmetry_Int_Tables_number   1
_chemical_formula_structural   HoCrO3
_chemical_formula_sum   'Ho4 Cr4 O12'
_cell_volume   226.72295466
_cell_formula_units_Z   4
loop_
 _symmetry_equiv_pos_site_id
 _symmetry_equiv_pos_as_xyz
  1  'x, y, z'
loop_
 _atom_site_type_symbol
 _atom_site_label
 _atom_site_symmetry_multiplicity
 _atom_site_fract_x
 _atom_site_fract_y
 _atom_site_fract_z
 _atom_site_occupancy
  Ho  Ho0  1  0.020476  0.930087  0.750000  1
  Ho  Ho1  1  0.479524  0.430087  0.750000  1
  Ho  Ho2  1  0.520476  0.569913  0.250000  1
  Ho  Ho3  1  0.979524  0.069913  0.250000  1
  Cr  Cr4  1  0.000000  0.500000  0.000000  1
  Cr  Cr5  1  0.000000  0.500000  0.500000  1
  Cr  Cr6  1  0.500000  0.000000  0.000000  1
  Cr  Cr7  1  0.500000  0.000000  0.500000  1
  O  O8  1  0.115604  0.457891  0.250000  1
  O  O9  1  0.191392  0.196204  0.558963  1
  O  O10  1  0.191392  0.196204  0.941037  1
  O  O11  1  0.308608  0.696204  0.558963  1
  O  O12  1  0.308608  0.696204  0.941037  1
  O  O13  1  0.384396  0.957891  0.250000  1
  O  O14  1  0.615604  0.042109  0.750000  1
  O  O15  1  0.691392  0.303796  0.058963  1
  O  O16  1  0.691392  0.303796  0.441037  1
  O  O17  1  0.808608  0.803796  0.058963  1
  O  O18  1  0.808608  0.803796  0.441037  1
  O  O19  1  0.884396  0.542109  0.750000  1
