# generated using pymatgen
data_Li24Ti7Cr5O36
_symmetry_space_group_name_H-M   'P 1'
_cell_length_a   5.07264456
_cell_length_b   13.41193628
_cell_length_c   9.79981481
_cell_angle_alpha   97.18828857
_cell_angle_beta   94.84197958
_cell_angle_gamma   100.68346831
_symmetry_Int_Tables_number   1
_chemical_formula_structural   Li24Ti7Cr5O36
_chemical_formula_sum   'Li24 Ti7 Cr5 O36'
_cell_volume   646.04309429
_cell_formula_units_Z   1
loop_
 _symmetry_equiv_pos_site_id
 _symmetry_equiv_pos_as_xyz
  1  'x, y, z'
loop_
 _atom_site_type_symbol
 _atom_site_label
 _atom_site_symmetry_multiplicity
 _atom_site_fract_x
 _atom_site_fract_y
 _atom_site_fract_z
 _atom_site_occupancy
  Li  Li0  1  0.832935  0.166708  0.999262  1
  Li  Li1  1  0.953149  0.387639  0.999806  1
  Li  Li2  1  0.999066  0.748731  0.249811  1
  Li  Li3  1  0.667541  0.084334  0.249795  1
  Li  Li4  1  0.952767  0.887302  0.500046  1
  Li  Li5  1  0.615813  0.219729  0.501078  1
  Li  Li6  1  0.839009  0.665698  0.499642  1
  Li  Li7  1  0.497708  0.000654  0.501555  1
  Li  Li8  1  0.713301  0.446259  0.499587  1
  Li  Li9  1  0.667237  0.584157  0.749826  1
  Li  Li10  1  0.506447  0.499310  0.000405  1
  Li  Li11  1  0.714893  0.946528  0.999455  1
  Li  Li12  1  0.380034  0.278337  0.998876  1
  Li  Li13  1  0.614792  0.719340  0.998703  1
  Li  Li14  1  0.288378  0.055221  0.000753  1
  Li  Li15  1  0.332451  0.415994  0.250361  1
  Li  Li16  1  0.279672  0.552967  0.499836  1
  Li  Li17  1  0.167135  0.333276  0.499520  1
  Li  Li18  1  0.383615  0.780264  0.500554  1
  Li  Li19  1  0.051494  0.113713  0.499928  1
  Li  Li20  1  0.332510  0.916857  0.749977  1
  Li  Li21  1  0.163194  0.834028  0.999427  1
  Li  Li22  1  0.998596  0.249643  0.750320  1
  Li  Li23  1  0.047499  0.612816  0.001006  1
  Ti  Ti24  1  0.887992  0.024582  0.747234  1
  Ti  Ti25  1  0.778886  0.305931  0.253224  1
  Ti  Ti26  1  0.562334  0.360682  0.753203  1
  Ti  Ti27  1  0.555631  0.861184  0.250212  1
  Ti  Ti28  1  0.443416  0.638608  0.248935  1
  Ti  Ti29  1  0.114724  0.474831  0.749131  1
  Ti  Ti30  1  0.107601  0.973336  0.248315  1
  Cr  Cr31  1  0.887227  0.525951  0.250005  1
  Cr  Cr32  1  0.774183  0.801894  0.749455  1
  Cr  Cr33  1  0.439874  0.139102  0.750547  1
  Cr  Cr34  1  0.225821  0.193907  0.249596  1
  Cr  Cr35  1  0.224928  0.698453  0.750349  1
  O  O36  1  0.995876  0.071465  0.136337  1
  O  O37  1  0.934617  0.213956  0.364435  1
  O  O38  1  0.000780  0.574160  0.638415  1
  O  O39  1  0.856311  0.357020  0.636077  1
  O  O40  1  0.732406  0.118770  0.636536  1
  O  O41  1  0.667383  0.406232  0.137687  1
  O  O42  1  0.923761  0.717614  0.864035  1
  O  O43  1  0.809217  0.477479  0.863936  1
  O  O44  1  0.593821  0.048817  0.863989  1
  O  O45  1  0.856534  0.856969  0.136280  1
  O  O46  1  0.735160  0.618775  0.134254  1
  O  O47  1  0.515418  0.189301  0.137729  1
  O  O48  1  0.673072  0.263209  0.864429  1
  O  O49  1  0.810205  0.977695  0.363686  1
  O  O50  1  0.604803  0.546972  0.364369  1
  O  O51  1  0.477372  0.310691  0.363216  1
  O  O52  1  0.667763  0.761833  0.364029  1
  O  O53  1  0.336594  0.098032  0.361841  1
  O  O54  1  0.665684  0.901937  0.637091  1
  O  O55  1  0.330552  0.234182  0.638448  1
  O  O56  1  0.531704  0.692422  0.637782  1
  O  O57  1  0.402281  0.451487  0.633638  1
  O  O58  1  0.186568  0.021263  0.635347  1
  O  O59  1  0.331430  0.737547  0.136067  1
  O  O60  1  0.467587  0.807656  0.861725  1
  O  O61  1  0.263875  0.382526  0.866096  1
  O  O62  1  0.152307  0.143605  0.862118  1
  O  O63  1  0.403464  0.952113  0.133688  1
  O  O64  1  0.183608  0.522133  0.138663  1
  O  O65  1  0.071779  0.284545  0.135542  1
  O  O66  1  0.335039  0.598034  0.862105  1
  O  O67  1  0.264204  0.882507  0.365894  1
  O  O68  1  0.142022  0.642511  0.362652  1
  O  O69  1  0.002425  0.428460  0.363936  1
  O  O70  1  0.076033  0.783182  0.635594  1
  O  O71  1  0.996488  0.926938  0.862594  1
