# generated using pymatgen
data_Li6Sn5(P2O7)4
_symmetry_space_group_name_H-M   'P 1'
_cell_length_a   13.65259112
_cell_length_b   9.62673271
_cell_length_c   11.72735138
_cell_angle_alpha   63.77024968
_cell_angle_beta   89.82225371
_cell_angle_gamma   74.83760897
_symmetry_Int_Tables_number   1
_chemical_formula_structural   Li6Sn5(P2O7)4
_chemical_formula_sum   'Li12 Sn10 P16 O56'
_cell_volume   1323.16830428
_cell_formula_units_Z   2
loop_
 _symmetry_equiv_pos_site_id
 _symmetry_equiv_pos_as_xyz
  1  'x, y, z'
loop_
 _atom_site_type_symbol
 _atom_site_label
 _atom_site_symmetry_multiplicity
 _atom_site_fract_x
 _atom_site_fract_y
 _atom_site_fract_z
 _atom_site_occupancy
  Li  Li0  1  0.174488  0.088415  0.871592  1
  Li  Li1  1  0.077961  0.908044  0.654017  1
  Li  Li2  1  0.250000  0.500000  0.500000  1
  Li  Li3  1  0.422039  0.091956  0.345983  1
  Li  Li4  1  0.325512  0.911585  0.128408  1
  Li  Li5  1  0.502426  0.768032  0.057231  1
  Li  Li6  1  0.698973  0.076707  0.872813  1
  Li  Li7  1  0.594053  0.876791  0.704273  1
  Li  Li8  1  0.750000  0.500000  0.500000  1
  Li  Li9  1  0.905947  0.123209  0.295727  1
  Li  Li10  1  0.801027  0.923293  0.127187  1
  Li  Li11  1  0.997574  0.231968  0.942769  1
  Sn  Sn12  1  0.152920  0.109098  0.294082  1
  Sn  Sn13  1  0.997877  0.803743  0.002076  1
  Sn  Sn14  1  0.178787  0.472030  0.267762  1
  Sn  Sn15  1  0.321213  0.527970  0.732238  1
  Sn  Sn16  1  0.502123  0.196257  0.997924  1
  Sn  Sn17  1  0.347080  0.890903  0.705918  1
  Sn  Sn18  1  0.649031  0.108029  0.305527  1
  Sn  Sn19  1  0.671720  0.476266  0.258036  1
  Sn  Sn20  1  0.828280  0.523734  0.741964  1
  Sn  Sn21  1  0.850969  0.891971  0.694473  1
  P  P22  1  0.154591  0.194389  0.581291  1
  P  P23  1  0.090666  0.530715  0.789965  1
  P  P24  1  0.032789  0.805162  0.297599  1
  P  P25  1  0.236273  0.274029  0.007895  1
  P  P26  1  0.263727  0.725971  0.992105  1
  P  P27  1  0.467211  0.194838  0.702401  1
  P  P28  1  0.409334  0.469285  0.210035  1
  P  P29  1  0.345409  0.805611  0.418709  1
  P  P30  1  0.655745  0.194489  0.580394  1
  P  P31  1  0.592081  0.522714  0.812515  1
  P  P32  1  0.533043  0.804718  0.300911  1
  P  P33  1  0.754961  0.271289  0.015026  1
  P  P34  1  0.745039  0.728711  0.984974  1
  P  P35  1  0.966957  0.195282  0.699089  1
  P  P36  1  0.907919  0.477286  0.187485  1
  P  P37  1  0.844255  0.805511  0.419606  1
  O  O38  1  0.023277  0.118087  0.835863  1
  O  O39  1  0.042083  0.282387  0.600242  1
  O  O40  1  0.984929  0.577858  0.163516  1
  O  O41  1  0.145011  0.069439  0.536287  1
  O  O42  1  0.044423  0.711128  0.748339  1
  O  O43  1  0.181981  0.154638  0.004699  1
  O  O44  1  0.158252  0.456690  0.932093  1
  O  O45  1  0.042902  0.942727  0.325919  1
  O  O46  1  0.221656  0.103598  0.713049  1
  O  O47  1  0.195207  0.330477  0.487874  1
  O  O48  1  0.264756  0.244511  0.143738  1
  O  O49  1  0.130247  0.664170  0.333765  1
  O  O50  1  0.169259  0.498735  0.702411  1
  O  O51  1  0.168906  0.724218  0.068073  1
  O  O52  1  0.331094  0.275782  0.931927  1
  O  O53  1  0.330741  0.501265  0.297589  1
  O  O54  1  0.369753  0.335830  0.666235  1
  O  O55  1  0.235244  0.755489  0.856262  1
  O  O56  1  0.304793  0.669523  0.512126  1
  O  O57  1  0.278344  0.896402  0.286951  1
  O  O58  1  0.457098  0.057273  0.674081  1
  O  O59  1  0.341748  0.543310  0.067907  1
  O  O60  1  0.318019  0.845362  0.995301  1
  O  O61  1  0.455577  0.288872  0.251661  1
  O  O62  1  0.519479  0.121591  0.842816  1
  O  O63  1  0.354989  0.930561  0.463713  1
  O  O64  1  0.515071  0.422142  0.836484  1
  O  O65  1  0.544852  0.277846  0.608040  1
  O  O66  1  0.457917  0.717613  0.399758  1
  O  O67  1  0.487272  0.563353  0.186462  1
  O  O68  1  0.643546  0.070963  0.534263  1
  O  O69  1  0.476723  0.881913  0.164137  1
  O  O70  1  0.536889  0.697924  0.780217  1
  O  O71  1  0.709978  0.147361  0.000804  1
  O  O72  1  0.663181  0.443191  0.952377  1
  O  O73  1  0.546910  0.935656  0.337026  1
  O  O74  1  0.725919  0.099429  0.709787  1
  O  O75  1  0.693177  0.333176  0.487644  1
  O  O76  1  0.779233  0.228570  0.155400  1
  O  O77  1  0.630796  0.666491  0.329799  1
  O  O78  1  0.664522  0.502229  0.717485  1
  O  O79  1  0.653331  0.704748  0.060394  1
  O  O80  1  0.846669  0.295252  0.939605  1
  O  O81  1  0.835478  0.497771  0.282515  1
  O  O82  1  0.869204  0.333509  0.670201  1
  O  O83  1  0.720767  0.771430  0.844600  1
  O  O84  1  0.806823  0.666824  0.512356  1
  O  O85  1  0.774081  0.900571  0.290213  1
  O  O86  1  0.953090  0.064344  0.662974  1
  O  O87  1  0.836819  0.556809  0.047623  1
  O  O88  1  0.790022  0.852639  0.999196  1
  O  O89  1  0.963111  0.302076  0.219783  1
  O  O90  1  0.856454  0.929037  0.465737  1
  O  O91  1  0.012728  0.436647  0.813538  1
  O  O92  1  0.955148  0.722154  0.391960  1
  O  O93  1  0.980521  0.878409  0.157184  1
