# generated using pymatgen
data_Li6V3P8O29
_symmetry_space_group_name_H-M   'P 1'
_cell_length_a   9.80608379
_cell_length_b   9.81848835
_cell_length_c   13.92500962
_cell_angle_alpha   90.02160285
_cell_angle_beta   90.02840000
_cell_angle_gamma   60.18166308
_symmetry_Int_Tables_number   1
_chemical_formula_structural   Li6V3P8O29
_chemical_formula_sum   'Li12 V6 P16 O58'
_cell_volume   1163.21073250
_cell_formula_units_Z   2
loop_
 _symmetry_equiv_pos_site_id
 _symmetry_equiv_pos_as_xyz
  1  'x, y, z'
loop_
 _atom_site_type_symbol
 _atom_site_label
 _atom_site_symmetry_multiplicity
 _atom_site_fract_x
 _atom_site_fract_y
 _atom_site_fract_z
 _atom_site_occupancy
  Li  Li0  1  0.770776  0.905711  0.560435  1
  Li  Li1  1  0.906695  0.321387  0.558718  1
  Li  Li2  1  0.669310  0.672283  0.885894  1
  Li  Li3  1  0.764484  0.327395  0.063588  1
  Li  Li4  1  0.329151  0.903029  0.063691  1
  Li  Li5  1  0.676435  0.227647  0.438587  1
  Li  Li6  1  0.320356  0.771810  0.558308  1
  Li  Li7  1  0.231218  0.665266  0.943456  1
  Li  Li8  1  0.094845  0.674632  0.435527  1
  Li  Li9  1  0.228775  0.094619  0.438072  1
  Li  Li10  1  0.099701  0.235751  0.940901  1
  Li  Li11  1  0.959491  0.982888  0.000080  1
  V  V12  1  0.567311  0.432129  0.250372  1
  V  V13  1  0.433656  0.564497  0.751346  1
  V  V14  1  0.569929  0.002934  0.753464  1
  V  V15  1  0.435066  0.001082  0.248899  1
  V  V16  1  0.996673  0.571374  0.245382  1
  V  V17  1  0.004077  0.431541  0.748031  1
  P  P18  1  0.912576  0.775322  0.841527  1
  P  P19  1  0.768013  0.913550  0.342020  1
  P  P20  1  0.913140  0.320100  0.341835  1
  P  P21  1  0.666088  0.665646  0.126541  1
  P  P22  1  0.666288  0.666573  0.628321  1
  P  P23  1  0.775116  0.316548  0.843359  1
  P  P24  1  0.681157  0.231993  0.658613  1
  P  P25  1  0.315336  0.911178  0.844206  1
  P  P26  1  0.689747  0.085706  0.156665  1
  P  P27  1  0.320799  0.768448  0.341278  1
  P  P28  1  0.228311  0.684048  0.158254  1
  P  P29  1  0.330716  0.335104  0.371199  1
  P  P30  1  0.334993  0.332152  0.872973  1
  P  P31  1  0.086291  0.683185  0.655344  1
  P  P32  1  0.234448  0.085092  0.658388  1
  P  P33  1  0.087522  0.228589  0.158223  1
  O  O34  1  0.997641  0.753131  0.563813  1
  O  O35  1  0.915158  0.749087  0.341168  1
  O  O36  1  0.788965  0.005304  0.072216  1
  O  O37  1  0.742769  0.915859  0.839257  1
  O  O38  1  0.900927  0.624304  0.832673  1
  O  O39  1  0.807014  0.675314  0.169617  1
  O  O40  1  0.905578  0.477608  0.323399  1
  O  O41  1  0.001194  0.226458  0.068477  1
  O  O42  1  0.922668  0.338320  0.837676  1
  O  O43  1  0.672668  0.812324  0.668812  1
  O  O44  1  0.618296  0.902277  0.322451  1
  O  O45  1  0.814319  0.512344  0.667350  1
  O  O46  1  0.664649  0.662341  0.018089  1
  O  O47  1  0.658974  0.665745  0.521307  1
  O  O48  1  0.676714  0.509953  0.165014  1
  O  O49  1  0.480338  0.891980  0.830472  1
  O  O50  1  0.510089  0.810817  0.163968  1
  O  O51  1  0.747720  0.337090  0.343145  1
  O  O52  1  0.791588  0.211436  0.750785  1
  O  O53  1  0.759605  0.243058  0.568322  1
  O  O54  1  0.781640  0.232851  0.934252  1
  O  O55  1  0.627356  0.481190  0.830994  1
  O  O56  1  0.514806  0.668672  0.673445  1
  O  O57  1  0.660387  0.257547  0.163111  1
  O  O58  1  0.480095  0.619499  0.322254  1
  O  O59  1  0.337831  0.916277  0.342323  1
  O  O60  1  0.789528  0.006387  0.254582  1
  O  O61  1  0.753247  0.000930  0.434033  1
  O  O62  1  0.244975  0.996532  0.567881  1
  O  O63  1  0.668918  0.080972  0.659570  1
  O  O64  1  0.520775  0.378885  0.675012  1
  O  O65  1  0.330174  0.747692  0.845225  1
  O  O66  1  0.486848  0.326368  0.332393  1
  O  O67  1  0.381042  0.528868  0.169709  1
  O  O68  1  0.223310  0.774501  0.068642  1
  O  O69  1  0.243882  0.754212  0.431399  1
  O  O70  1  0.208649  0.793047  0.250482  1
  O  O71  1  0.250064  0.666916  0.656432  1
  O  O72  1  0.483513  0.192171  0.828493  1
  O  O73  1  0.534056  0.085962  0.167379  1
  O  O74  1  0.330485  0.487581  0.830588  1
  O  O75  1  0.328043  0.343317  0.979693  1
  O  O76  1  0.331913  0.331005  0.478723  1
  O  O77  1  0.185312  0.488004  0.331423  1
  O  O78  1  0.385064  0.091935  0.678135  1
  O  O79  1  0.325451  0.186967  0.329582  1
  O  O80  1  0.084445  0.660655  0.162471  1
  O  O81  1  0.991466  0.795152  0.743867  1
  O  O82  1  0.005780  0.784662  0.923904  1
  O  O83  1  0.097130  0.523199  0.677823  1
  O  O84  1  0.188404  0.326292  0.831911  1
  O  O85  1  0.095995  0.377867  0.171377  1
  O  O86  1  0.254079  0.081171  0.160178  1
  O  O87  1  0.229683  0.004049  0.932538  1
  O  O88  1  0.210185  0.998385  0.750200  1
  O  O89  1  0.086421  0.250377  0.657383  1
  O  O90  1  0.002863  0.241032  0.432078  1
  O  O91  1  0.000162  0.207138  0.250842  1
