# generated using pymatgen
data_Li2MnWO6
_symmetry_space_group_name_H-M   'P 1'
_cell_length_a   5.33248567
_cell_length_b   5.33254560
_cell_length_c   9.37214124
_cell_angle_alpha   28.50562429
_cell_angle_beta   51.71500949
_cell_angle_gamma   57.01215158
_symmetry_Int_Tables_number   1
_chemical_formula_structural   Li2MnWO6
_chemical_formula_sum   'Li2 Mn1 W1 O6'
_cell_volume   99.83440953
_cell_formula_units_Z   1
loop_
 _symmetry_equiv_pos_site_id
 _symmetry_equiv_pos_as_xyz
  1  'x, y, z'
loop_
 _atom_site_type_symbol
 _atom_site_label
 _atom_site_symmetry_multiplicity
 _atom_site_fract_x
 _atom_site_fract_y
 _atom_site_fract_z
 _atom_site_occupancy
  Li  Li0  1  0.288564  0.999953  0.288532  1
  Li  Li1  1  0.772877  0.000007  0.772830  1
  Mn  Mn2  1  0.000666  0.000007  0.000657  1
  W  W3  1  0.501746  0.000021  0.501724  1
  O  O4  1  0.362572  0.607067  0.132333  1
  O  O5  1  0.238853  0.235058  0.631803  1
  O  O6  1  0.132338  0.623230  0.739347  1
  O  O7  1  0.866861  0.392887  0.238909  1
  O  O8  1  0.739349  0.769770  0.362581  1
  O  O9  1  0.631772  0.372001  0.866884  1
