# generated using pymatgen
data_Na3Ni2P2(CO7)2
_symmetry_space_group_name_H-M   'P 1'
_cell_length_a   10.20747571
_cell_length_b   10.44694476
_cell_length_c   6.49486281
_cell_angle_alpha   90.84238471
_cell_angle_beta   91.01697775
_cell_angle_gamma   59.93068810
_symmetry_Int_Tables_number   1
_chemical_formula_structural   Na3Ni2P2(CO7)2
_chemical_formula_sum   'Na6 Ni4 P4 C4 O28'
_cell_volume   599.27521297
_cell_formula_units_Z   2
loop_
 _symmetry_equiv_pos_site_id
 _symmetry_equiv_pos_as_xyz
  1  'x, y, z'
loop_
 _atom_site_type_symbol
 _atom_site_label
 _atom_site_symmetry_multiplicity
 _atom_site_fract_x
 _atom_site_fract_y
 _atom_site_fract_z
 _atom_site_occupancy
  Na  Na0  1  0.002104  0.244104  0.484440  1
  Na  Na1  1  0.005033  0.240606  0.009282  1
  Na  Na2  1  0.494967  0.259394  0.990718  1
  Na  Na3  1  0.497896  0.255896  0.515560  1
  Na  Na4  1  0.504731  0.746293  0.032212  1
  Na  Na5  1  0.995269  0.753707  0.967788  1
  Ni  Ni6  1  0.284996  0.062684  0.746532  1
  Ni  Ni7  1  0.215004  0.437316  0.253468  1
  Ni  Ni8  1  0.778064  0.567473  0.745954  1
  Ni  Ni9  1  0.721936  0.932527  0.254046  1
  P  P10  1  0.356697  0.073071  0.248240  1
  P  P11  1  0.143303  0.426929  0.751760  1
  P  P12  1  0.855157  0.572388  0.249350  1
  P  P13  1  0.644843  0.927612  0.750650  1
  C  C14  1  0.820812  0.101906  0.247252  1
  C  C15  1  0.315985  0.604535  0.253058  1
  C  C16  1  0.679188  0.398094  0.752748  1
  C  C17  1  0.184015  0.895465  0.746942  1
  O  O18  1  0.098883  0.039291  0.738263  1
  O  O19  1  0.266866  0.059782  0.062344  1
  O  O20  1  0.268465  0.066002  0.433784  1
  O  O21  1  0.139602  0.280657  0.752983  1
  O  O22  1  0.021901  0.440158  0.240337  1
  O  O23  1  0.478099  0.059842  0.759663  1
  O  O24  1  0.360398  0.219343  0.247017  1
  O  O25  1  0.233134  0.440218  0.937656  1
  O  O26  1  0.231535  0.433998  0.566216  1
  O  O27  1  0.676127  0.145781  0.252469  1
  O  O28  1  0.172493  0.648268  0.249327  1
  O  O29  1  0.401117  0.460709  0.261737  1
  O  O30  1  0.630217  0.309705  0.758547  1
  O  O31  1  0.132432  0.810233  0.752881  1
  O  O32  1  0.869783  0.190295  0.241453  1
  O  O33  1  0.367568  0.689767  0.247119  1
  O  O34  1  0.595177  0.539988  0.751008  1
  O  O35  1  0.823873  0.354219  0.747531  1
  O  O36  1  0.327507  0.851732  0.750673  1
  O  O37  1  0.765472  0.558050  0.063906  1
  O  O38  1  0.776779  0.551893  0.435737  1
  O  O39  1  0.641277  0.782595  0.754614  1
  O  O40  1  0.523155  0.944089  0.240501  1
  O  O41  1  0.976845  0.555911  0.759499  1
  O  O42  1  0.858723  0.717405  0.245386  1
  O  O43  1  0.723221  0.948107  0.564263  1
  O  O44  1  0.734528  0.941950  0.936094  1
  O  O45  1  0.904823  0.960012  0.248992  1
