# generated using pymatgen
data_Li2MnF6
_symmetry_space_group_name_H-M   'P 1'
_cell_length_a   4.98838926
_cell_length_b   4.63390096
_cell_length_c   16.88517497
_cell_angle_alpha   90.00000000
_cell_angle_beta   89.97871718
_cell_angle_gamma   90.00000000
_symmetry_Int_Tables_number   1
_chemical_formula_structural   Li2MnF6
_chemical_formula_sum   'Li8 Mn4 F24'
_cell_volume   390.31264247
_cell_formula_units_Z   4
loop_
 _symmetry_equiv_pos_site_id
 _symmetry_equiv_pos_as_xyz
  1  'x, y, z'
loop_
 _atom_site_type_symbol
 _atom_site_label
 _atom_site_symmetry_multiplicity
 _atom_site_fract_x
 _atom_site_fract_y
 _atom_site_fract_z
 _atom_site_occupancy
  Li  Li0  1  0.252243  0.514199  0.771508  1
  Li  Li1  1  0.253776  0.009892  0.947065  1
  Li  Li2  1  0.252243  0.985801  0.271508  1
  Li  Li3  1  0.253776  0.490108  0.447065  1
  Li  Li4  1  0.746224  0.509892  0.552935  1
  Li  Li5  1  0.747757  0.014199  0.728492  1
  Li  Li6  1  0.746224  0.990108  0.052935  1
  Li  Li7  1  0.747757  0.485801  0.228492  1
  Mn  Mn8  1  0.247265  0.009336  0.619896  1
  Mn  Mn9  1  0.247265  0.490664  0.119896  1
  Mn  Mn10  1  0.752735  0.509336  0.880104  1
  Mn  Mn11  1  0.752735  0.990664  0.380104  1
  F  F12  1  0.052359  0.740984  0.875021  1
  F  F13  1  0.916372  0.297140  0.799644  1
  F  F14  1  0.095029  0.730974  0.046198  1
  F  F15  1  0.052359  0.759016  0.375021  1
  F  F16  1  0.916372  0.202860  0.299644  1
  F  F17  1  0.095029  0.769026  0.546198  1
  F  F18  1  0.401717  0.244283  0.544739  1
  F  F19  1  0.546737  0.778651  0.626125  1
  F  F20  1  0.411466  0.227599  0.699273  1
  F  F21  1  0.588534  0.727599  0.800727  1
  F  F22  1  0.401717  0.255717  0.044739  1
  F  F23  1  0.453263  0.278651  0.873875  1
  F  F24  1  0.546737  0.721349  0.126125  1
  F  F25  1  0.598283  0.744283  0.955261  1
  F  F26  1  0.411466  0.272401  0.199273  1
  F  F27  1  0.588534  0.772401  0.300727  1
  F  F28  1  0.453263  0.221349  0.373875  1
  F  F29  1  0.598283  0.755717  0.455261  1
  F  F30  1  0.904971  0.230974  0.453802  1
  F  F31  1  0.083628  0.797140  0.700356  1
  F  F32  1  0.947641  0.240984  0.624979  1
  F  F33  1  0.904971  0.269026  0.953802  1
  F  F34  1  0.083628  0.702860  0.200356  1
  F  F35  1  0.947641  0.259016  0.124979  1
