# generated using pymatgen
data_LiFe7(O3F5)2
_symmetry_space_group_name_H-M   'P 1'
_cell_length_a   5.12019185
_cell_length_b   4.59692766
_cell_length_c   11.36089565
_cell_angle_alpha   90.01248781
_cell_angle_beta   89.97568066
_cell_angle_gamma   90.73458795
_symmetry_Int_Tables_number   1
_chemical_formula_structural   LiFe7(O3F5)2
_chemical_formula_sum   'Li1 Fe7 O6 F10'
_cell_volume   267.38111513
_cell_formula_units_Z   1
loop_
 _symmetry_equiv_pos_site_id
 _symmetry_equiv_pos_as_xyz
  1  'x, y, z'
loop_
 _atom_site_type_symbol
 _atom_site_label
 _atom_site_symmetry_multiplicity
 _atom_site_fract_x
 _atom_site_fract_y
 _atom_site_fract_z
 _atom_site_occupancy
  Li  Li0  1  0.753819  0.498293  0.671803  1
  Fe  Fe1  1  0.253837  0.497438  0.838786  1
  Fe  Fe2  1  0.249469  0.999439  0.565294  1
  Fe  Fe3  1  0.246433  0.501971  0.325748  1
  Fe  Fe4  1  0.249470  0.001859  0.079976  1
  Fe  Fe5  1  0.752267  0.996737  0.914266  1
  Fe  Fe6  1  0.748252  0.003108  0.431592  1
  Fe  Fe7  1  0.747082  0.501759  0.173627  1
  O  O8  1  0.075934  0.219447  0.941311  1
  O  O9  1  0.071931  0.230675  0.441472  1
  O  O10  1  0.068562  0.278992  0.190608  1
  O  O11  1  0.428832  0.775725  0.941505  1
  O  O12  1  0.424554  0.774120  0.440505  1
  O  O13  1  0.426551  0.724666  0.190401  1
  F  F14  1  0.104222  0.257376  0.694057  1
  F  F15  1  0.399112  0.737449  0.693172  1
  F  F16  1  0.584914  0.272839  0.807922  1
  F  F17  1  0.580625  0.233722  0.561036  1
  F  F18  1  0.582493  0.262998  0.308638  1
  F  F19  1  0.588143  0.234688  0.055520  1
  F  F20  1  0.921770  0.720880  0.808349  1
  F  F21  1  0.916458  0.769331  0.560608  1
  F  F22  1  0.911890  0.742816  0.308167  1
  F  F23  1  0.913383  0.763673  0.055637  1
