# generated using pymatgen
data_Cu2OF2
_symmetry_space_group_name_H-M   'P 1'
_cell_length_a   8.44075604
_cell_length_b   8.44355771
_cell_length_c   8.39366510
_cell_angle_alpha   108.67235196
_cell_angle_beta   108.71161463
_cell_angle_gamma   109.91915852
_symmetry_Int_Tables_number   1
_chemical_formula_structural   Cu2OF2
_chemical_formula_sum   'Cu16 O8 F16'
_cell_volume   466.65814101
_cell_formula_units_Z   8
loop_
 _symmetry_equiv_pos_site_id
 _symmetry_equiv_pos_as_xyz
  1  'x, y, z'
loop_
 _atom_site_type_symbol
 _atom_site_label
 _atom_site_symmetry_multiplicity
 _atom_site_fract_x
 _atom_site_fract_y
 _atom_site_fract_z
 _atom_site_occupancy
  Cu  Cu0  1  0.820766  0.323135  0.052004  1
  Cu  Cu1  1  0.035838  0.025703  0.035753  1
  Cu  Cu2  1  0.518583  0.005166  0.496241  1
  Cu  Cu3  1  0.474210  0.513137  0.987853  1
  Cu  Cu4  1  0.519180  0.276657  0.248864  1
  Cu  Cu5  1  0.939770  0.187574  0.750580  1
  Cu  Cu6  1  0.730284  0.452932  0.666180  1
  Cu  Cu7  1  0.759820  0.969010  0.244070  1
  Cu  Cu8  1  0.296619  0.249828  0.494460  1
  Cu  Cu9  1  0.726276  0.745642  0.476769  1
  Cu  Cu10  1  0.270351  0.041431  0.807756  1
  Cu  Cu11  1  0.219973  0.522375  0.259207  1
  Cu  Cu12  1  0.044427  0.794795  0.272597  1
  Cu  Cu13  1  0.981416  0.500049  0.480795  1
  Cu  Cu14  1  0.472669  0.744521  0.781112  1
  Cu  Cu15  1  0.209042  0.720018  0.954013  1
  O  O16  1  0.742793  0.989686  0.479340  1
  O  O17  1  0.278366  0.064990  0.045448  1
  O  O18  1  0.014228  0.565371  0.289858  1
  O  O19  1  0.503845  0.216181  0.444956  1
  O  O20  1  0.024409  0.279627  0.026629  1
  O  O21  1  0.447268  0.729702  0.993623  1
  O  O22  1  0.750024  0.521767  0.464468  1
  O  O23  1  0.076199  0.031462  0.275354  1
  F  F24  1  0.756347  0.195809  0.250149  1
  F  F25  1  0.781067  0.732167  0.221258  1
  F  F26  1  0.444138  0.535799  0.231162  1
  F  F27  1  0.717290  0.257812  0.778514  1
  F  F28  1  0.936054  0.919300  0.745227  1
  F  F29  1  0.198276  0.435915  0.490960  1
  F  F30  1  0.578285  0.330530  0.041580  1
  F  F31  1  0.270485  0.793490  0.229994  1
  F  F32  1  0.947262  0.680156  0.909872  1
  F  F33  1  0.513373  0.475420  0.748341  1
  F  F34  1  0.481963  0.770614  0.561054  1
  F  F35  1  0.214288  0.246127  0.787102  1
  F  F36  1  0.756896  0.927987  0.973426  1
  F  F37  1  0.010209  0.435501  0.694303  1
  F  F38  1  0.309735  0.012071  0.583301  1
  F  F39  1  0.227980  0.780543  0.725826  1
