# generated using pymatgen
data_CrH9C6(S2O)3
_symmetry_space_group_name_H-M   'P 1'
_cell_length_a   9.77934718
_cell_length_b   14.07020099
_cell_length_c   11.54473317
_cell_angle_alpha   90.00000000
_cell_angle_beta   107.05330205
_cell_angle_gamma   90.00000000
_symmetry_Int_Tables_number   1
_chemical_formula_structural   CrH9C6(S2O)3
_chemical_formula_sum   'Cr4 H36 C24 S24 O12'
_cell_volume   1518.68132921
_cell_formula_units_Z   4
loop_
 _symmetry_equiv_pos_site_id
 _symmetry_equiv_pos_as_xyz
  1  'x, y, z'
loop_
 _atom_site_type_symbol
 _atom_site_label
 _atom_site_symmetry_multiplicity
 _atom_site_fract_x
 _atom_site_fract_y
 _atom_site_fract_z
 _atom_site_occupancy
  Cr  Cr0  1  0.822426  0.984340  0.231640  1
  Cr  Cr1  1  0.322426  0.515660  0.731640  1
  Cr  Cr2  1  0.177574  0.015660  0.768360  1
  Cr  Cr3  1  0.677574  0.484340  0.268360  1
  H  H4  1  0.239065  0.033868  0.300489  1
  H  H5  1  0.739065  0.466132  0.800489  1
  H  H6  1  0.760935  0.966132  0.699511  1
  H  H7  1  0.260935  0.533868  0.199511  1
  H  H8  1  0.284859  0.025829  0.161103  1
  H  H9  1  0.784859  0.474171  0.661103  1
  H  H10  1  0.715141  0.974171  0.838897  1
  H  H11  1  0.215141  0.525829  0.338897  1
  H  H12  1  0.354929  0.121634  0.264306  1
  H  H13  1  0.854929  0.378366  0.764306  1
  H  H14  1  0.645071  0.878366  0.735694  1
  H  H15  1  0.145071  0.621634  0.235694  1
  H  H16  1  0.944280  0.630676  0.986622  1
  H  H17  1  0.444280  0.869324  0.486622  1
  H  H18  1  0.055720  0.369324  0.013378  1
  H  H19  1  0.555720  0.130676  0.513378  1
  H  H20  1  0.854079  0.738225  0.925225  1
  H  H21  1  0.354079  0.761775  0.425225  1
  H  H22  1  0.145921  0.261775  0.074775  1
  H  H23  1  0.645921  0.238225  0.574775  1
  H  H24  1  0.782391  0.664273  0.020837  1
  H  H25  1  0.282391  0.835727  0.520837  1
  H  H26  1  0.217609  0.335727  0.979163  1
  H  H27  1  0.717609  0.164273  0.479163  1
  H  H28  1  0.193492  0.332674  0.364755  1
  H  H29  1  0.693492  0.167326  0.864755  1
  H  H30  1  0.806508  0.667326  0.635245  1
  H  H31  1  0.306508  0.832674  0.135245  1
  H  H32  1  0.038506  0.301102  0.411276  1
  H  H33  1  0.538506  0.198898  0.911276  1
  H  H34  1  0.961494  0.698898  0.588724  1
  H  H35  1  0.461494  0.801102  0.088724  1
  H  H36  1  0.192930  0.224692  0.447002  1
  H  H37  1  0.692930  0.275308  0.947002  1
  H  H38  1  0.807070  0.775308  0.552998  1
  H  H39  1  0.307070  0.724692  0.052998  1
  C  C40  1  0.322381  0.046787  0.256650  1
  C  C41  1  0.822381  0.453213  0.756650  1
  C  C42  1  0.677619  0.953213  0.743350  1
  C  C43  1  0.177619  0.546787  0.243350  1
  C  C44  1  0.880143  0.689923  0.002961  1
  C  C45  1  0.380143  0.810077  0.502961  1
  C  C46  1  0.119857  0.310077  0.997039  1
  C  C47  1  0.619857  0.189923  0.497039  1
  C  C48  1  0.127271  0.274311  0.380416  1
  C  C49  1  0.627271  0.225689  0.880416  1
  C  C50  1  0.872729  0.725689  0.619584  1
  C  C51  1  0.372729  0.774311  0.119584  1
  C  C52  1  0.561883  0.988931  0.288831  1
  C  C53  1  0.061883  0.511069  0.788831  1
  C  C54  1  0.438117  0.011069  0.711169  1
  C  C55  1  0.938117  0.488931  0.211169  1
  C  C56  1  0.916753  0.816219  0.147427  1
  C  C57  1  0.416753  0.683781  0.647427  1
  C  C58  1  0.083247  0.183781  0.852573  1
  C  C59  1  0.583247  0.316219  0.352573  1
  C  C60  1  0.989300  0.150799  0.256762  1
  C  C61  1  0.489300  0.349201  0.756762  1
  C  C62  1  0.010700  0.849201  0.743238  1
  C  C63  1  0.510700  0.650799  0.243238  1
  S  S64  1  0.585920  0.059204  0.177230  1
  S  S65  1  0.085920  0.440796  0.677230  1
  S  S66  1  0.414080  0.940796  0.822770  1
  S  S67  1  0.914080  0.559204  0.322770  1
  S  S68  1  0.696423  0.916310  0.365810  1
  S  S69  1  0.196423  0.583690  0.865810  1
  S  S70  1  0.303577  0.083690  0.634190  1
  S  S71  1  0.803577  0.416310  0.134190  1
  S  S72  1  0.755646  0.864013  0.073144  1
  S  S73  1  0.255646  0.635987  0.573144  1
  S  S74  1  0.244354  0.135987  0.926856  1
  S  S75  1  0.744354  0.364013  0.426856  1
  S  S76  1  0.017919  0.869112  0.276145  1
  S  S77  1  0.517919  0.630888  0.776145  1
  S  S78  1  0.982081  0.130888  0.723855  1
  S  S79  1  0.482081  0.369112  0.223855  1
  S  S80  1  0.926974  0.097084  0.119591  1
  S  S81  1  0.426974  0.402916  0.619591  1
  S  S82  1  0.073026  0.902916  0.880409  1
  S  S83  1  0.573026  0.597084  0.380409  1
  S  S84  1  0.948699  0.103524  0.377672  1
  S  S85  1  0.448699  0.396476  0.877672  1
  S  S86  1  0.051301  0.896476  0.622328  1
  S  S87  1  0.551301  0.603524  0.122328  1
  O  O88  1  0.441563  0.987192  0.321377  1
  O  O89  1  0.941563  0.512808  0.821377  1
  O  O90  1  0.558437  0.012808  0.678623  1
  O  O91  1  0.058437  0.487192  0.178623  1
  O  O92  1  0.968947  0.738463  0.109881  1
  O  O93  1  0.468947  0.761537  0.609881  1
  O  O94  1  0.031053  0.261537  0.890119  1
  O  O95  1  0.531053  0.238463  0.390119  1
  O  O96  1  0.071583  0.227488  0.263839  1
  O  O97  1  0.571583  0.272512  0.763839  1
  O  O98  1  0.928417  0.772512  0.736161  1
  O  O99  1  0.428417  0.727488  0.236161  1
