# generated using pymatgen
data_Li4V5Cr2O12
_symmetry_space_group_name_H-M   'P 1'
_cell_length_a   5.11076667
_cell_length_b   9.14871584
_cell_length_c   9.92793554
_cell_angle_alpha   89.99999849
_cell_angle_beta   101.94334119
_cell_angle_gamma   89.99999777
_symmetry_Int_Tables_number   1
_chemical_formula_structural   Li4V5Cr2O12
_chemical_formula_sum   'Li8 V10 Cr4 O24'
_cell_volume   454.15133884
_cell_formula_units_Z   2
loop_
 _symmetry_equiv_pos_site_id
 _symmetry_equiv_pos_as_xyz
  1  'x, y, z'
loop_
 _atom_site_type_symbol
 _atom_site_label
 _atom_site_symmetry_multiplicity
 _atom_site_fract_x
 _atom_site_fract_y
 _atom_site_fract_z
 _atom_site_occupancy
  Li  Li0  1  0.244459  0.086084  0.988825  1
  Li  Li1  1  0.754011  0.078070  0.506236  1
  Li  Li2  1  0.490616  0.418473  0.752217  1
  Li  Li3  1  0.744534  0.414330  0.512091  1
  Li  Li4  1  0.255541  0.586084  0.511175  1
  Li  Li5  1  0.745989  0.578070  0.993764  1
  Li  Li6  1  0.009384  0.918473  0.747783  1
  Li  Li7  1  0.755466  0.914330  0.987909  1
  V  V8  1  0.987830  0.078745  0.252768  1
  V  V9  1  0.500679  0.073052  0.742967  1
  V  V10  1  0.253221  0.251107  0.504911  1
  V  V11  1  0.740035  0.258908  0.990786  1
  V  V12  1  0.995663  0.425412  0.254555  1
  V  V13  1  0.999321  0.573052  0.757033  1
  V  V14  1  0.246779  0.751107  0.995089  1
  V  V15  1  0.512170  0.578745  0.247232  1
  V  V16  1  0.759965  0.758908  0.509214  1
  V  V17  1  0.504337  0.925412  0.245445  1
  Cr  Cr18  1  0.003180  0.250202  0.752647  1
  Cr  Cr19  1  0.489918  0.254414  0.245381  1
  Cr  Cr20  1  0.010082  0.754414  0.254619  1
  Cr  Cr21  1  0.496820  0.750201  0.747353  1
  O  O22  1  0.129942  0.106075  0.628150  1
  O  O23  1  0.370308  0.100546  0.360694  1
  O  O24  1  0.386829  0.229487  0.864537  1
  O  O25  1  0.868011  0.096533  0.869145  1
  O  O26  1  0.102001  0.246003  0.137564  1
  O  O27  1  0.617738  0.102061  0.126119  1
  O  O28  1  0.621521  0.238435  0.625392  1
  O  O29  1  0.115554  0.408296  0.634980  1
  O  O30  1  0.383572  0.406561  0.372739  1
  O  O31  1  0.877989  0.249656  0.371046  1
  O  O32  1  0.865365  0.404389  0.868564  1
  O  O33  1  0.621416  0.411076  0.131639  1
  O  O34  1  0.370058  0.606075  0.871850  1
  O  O35  1  0.129692  0.600546  0.139306  1
  O  O36  1  0.113171  0.729487  0.635463  1
  O  O37  1  0.631989  0.596533  0.630855  1
  O  O38  1  0.397999  0.746003  0.362436  1
  O  O39  1  0.882262  0.602061  0.373881  1
  O  O40  1  0.878479  0.738435  0.874608  1
  O  O41  1  0.384446  0.908296  0.865020  1
  O  O42  1  0.116428  0.906561  0.127261  1
  O  O43  1  0.622011  0.749656  0.128954  1
  O  O44  1  0.634635  0.904389  0.631436  1
  O  O45  1  0.878584  0.911076  0.368361  1
