# generated using pymatgen
data_Li3Cr2CoO6
_symmetry_space_group_name_H-M   'P 1'
_cell_length_a   6.60617252
_cell_length_b   2.96328365
_cell_length_c   5.92981813
_cell_angle_alpha   90.05936115
_cell_angle_beta   102.94446908
_cell_angle_gamma   77.00979697
_symmetry_Int_Tables_number   1
_chemical_formula_structural   Li3Cr2CoO6
_chemical_formula_sum   'Li3 Cr2 Co1 O6'
_cell_volume   110.08801704
_cell_formula_units_Z   1
loop_
 _symmetry_equiv_pos_site_id
 _symmetry_equiv_pos_as_xyz
  1  'x, y, z'
loop_
 _atom_site_type_symbol
 _atom_site_label
 _atom_site_symmetry_multiplicity
 _atom_site_fract_x
 _atom_site_fract_y
 _atom_site_fract_z
 _atom_site_occupancy
  Li  Li0  1  0.005231  0.988696  0.502400  1
  Li  Li1  1  0.335056  0.329565  0.835686  1
  Li  Li2  1  0.659457  0.662343  0.164941  1
  Cr  Cr3  1  0.999288  0.997155  0.000595  1
  Cr  Cr4  1  0.664218  0.663976  0.664288  1
  Co  Co5  1  0.331773  0.331350  0.332246  1
  O  O6  1  0.009511  0.493006  0.236396  1
  O  O7  1  0.341789  0.828634  0.569017  1
  O  O8  1  0.675096  0.159527  0.900945  1
  O  O9  1  0.321931  0.834101  0.094602  1
  O  O10  1  0.654405  0.167870  0.428536  1
  O  O11  1  0.987704  0.501731  0.764204  1
