# generated using pymatgen
data_LiVBO3
_symmetry_space_group_name_H-M   'P 1'
_cell_length_a   8.16961807
_cell_length_b   8.16916304
_cell_length_c   3.23786277
_cell_angle_alpha   90.00000000
_cell_angle_beta   90.00000000
_cell_angle_gamma   119.99238248
_symmetry_Int_Tables_number   1
_chemical_formula_structural   LiVBO3
_chemical_formula_sum   'Li3 V3 B3 O9'
_cell_volume   187.15512246
_cell_formula_units_Z   3
loop_
 _symmetry_equiv_pos_site_id
 _symmetry_equiv_pos_as_xyz
  1  'x, y, z'
loop_
 _atom_site_type_symbol
 _atom_site_label
 _atom_site_symmetry_multiplicity
 _atom_site_fract_x
 _atom_site_fract_y
 _atom_site_fract_z
 _atom_site_occupancy
  Li  Li0  1  0.265223  0.970353  0.500000  1
  Li  Li1  1  0.029684  0.294874  0.500000  1
  Li  Li2  1  0.705126  0.734803  0.500000  1
  V  V3  1  0.394187  0.372905  0.000000  1
  V  V4  1  0.627048  0.021234  0.000000  1
  V  V5  1  0.978723  0.605829  0.000000  1
  B  B6  1  0.333429  0.666736  0.500000  1
  B  B7  1  0.000021  0.000043  0.000000  1
  B  B8  1  0.666682  0.333275  0.500000  1
  O  O9  1  0.100517  0.903455  0.000000  1
  O  O10  1  0.138042  0.581654  0.500000  1
  O  O11  1  0.096519  0.196967  0.000000  1
  O  O12  1  0.443503  0.861852  0.500000  1
  O  O13  1  0.418359  0.556460  0.500000  1
  O  O14  1  0.470067  0.239234  0.500000  1
  O  O15  1  0.802993  0.899500  0.000000  1
  O  O16  1  0.769138  0.529949  0.500000  1
  O  O17  1  0.760741  0.230877  0.500000  1
