# generated using pymatgen
data_Li4Ti5VO12
_symmetry_space_group_name_H-M   'P 1'
_cell_length_a   8.89447578
_cell_length_b   8.91468227
_cell_length_c   10.43406963
_cell_angle_alpha   91.13987321
_cell_angle_beta   91.61267400
_cell_angle_gamma   60.31598077
_symmetry_Int_Tables_number   1
_chemical_formula_structural   Li4Ti5VO12
_chemical_formula_sum   'Li12 Ti15 V3 O36'
_cell_volume   718.45958084
_cell_formula_units_Z   3
loop_
 _symmetry_equiv_pos_site_id
 _symmetry_equiv_pos_as_xyz
  1  'x, y, z'
loop_
 _atom_site_type_symbol
 _atom_site_label
 _atom_site_symmetry_multiplicity
 _atom_site_fract_x
 _atom_site_fract_y
 _atom_site_fract_z
 _atom_site_occupancy
  Li  Li0  1  0.941747  0.615251  0.731220  1
  Li  Li1  1  0.882943  0.577532  0.226837  1
  Li  Li2  1  0.957220  0.270309  0.729332  1
  Li  Li3  1  0.450226  0.755938  0.773116  1
  Li  Li4  1  0.913266  0.221020  0.223577  1
  Li  Li5  1  0.391392  0.717924  0.268636  1
  Li  Li6  1  0.051728  0.879185  0.753250  1
  Li  Li7  1  0.607276  0.298557  0.734876  1
  Li  Li8  1  0.725939  0.034989  0.265289  1
  Li  Li9  1  0.281574  0.454158  0.246745  1
  Li  Li10  1  0.419943  0.112218  0.776401  1
  Li  Li11  1  0.376190  0.062851  0.270666  1
  Ti  Ti12  1  0.828590  0.834047  0.500686  1
  Ti  Ti13  1  0.328008  0.997216  0.006934  1
  Ti  Ti14  1  0.005135  0.336442  0.993045  1
  Ti  Ti15  1  0.508716  0.832963  0.499939  1
  Ti  Ti16  1  0.824463  0.500001  0.499978  1
  Ti  Ti17  1  0.329687  0.661131  0.992932  1
  Ti  Ti18  1  0.665784  0.338180  0.008571  1
  Ti  Ti19  1  0.163045  0.831723  0.491783  1
  Ti  Ti20  1  0.505493  0.498908  0.499219  1
  Ti  Ti21  1  0.832456  0.163446  0.500373  1
  Ti  Ti22  1  0.003569  0.672452  0.007062  1
  Ti  Ti23  1  0.667445  0.995321  0.991479  1
  Ti  Ti24  1  0.170310  0.501325  0.508228  1
  Ti  Ti25  1  0.501097  0.169779  0.499776  1
  Ti  Ti26  1  0.166647  0.166642  0.499984  1
  V  V27  1  0.666586  0.666788  0.999986  1
  V  V28  1  0.330988  0.333213  0.998088  1
  V  V29  1  0.002236  0.000330  0.001942  1
  O  O30  1  0.935290  0.948286  0.393804  1
  O  O31  1  0.883733  0.880884  0.895763  1
  O  O32  1  0.602967  0.953198  0.388700  1
  O  O33  1  0.943106  0.607645  0.402664  1
  O  O34  1  0.786733  0.787000  0.103922  1
  O  O35  1  0.729541  0.715998  0.607137  1
  O  O36  1  0.540113  0.902355  0.892370  1
  O  O37  1  0.902876  0.547311  0.897720  1
  O  O38  1  0.430267  0.786302  0.102252  1
  O  O39  1  0.793089  0.431204  0.107626  1
  O  O40  1  0.280585  0.944064  0.392208  1
  O  O41  1  0.942074  0.275403  0.398729  1
  O  O42  1  0.603677  0.617368  0.392518  1
  O  O43  1  0.546461  0.546496  0.896057  1
  O  O44  1  0.390426  0.725540  0.597277  1
  O  O45  1  0.730565  0.379854  0.611642  1
  O  O46  1  0.232781  0.877275  0.890261  1
  O  O47  1  0.878672  0.237334  0.898021  1
  O  O48  1  0.126356  0.762728  0.103486  1
  O  O49  1  0.769074  0.120865  0.105485  1
  O  O50  1  0.278618  0.607213  0.390924  1
  O  O51  1  0.611875  0.271498  0.394977  1
  O  O52  1  0.449486  0.452699  0.104279  1
  O  O53  1  0.398195  0.384919  0.606133  1
  O  O54  1  0.054876  0.725896  0.609170  1
  O  O55  1  0.721661  0.061488  0.605086  1
  O  O56  1  0.206881  0.570811  0.896543  1
  O  O57  1  0.564167  0.212645  0.894603  1
  O  O58  1  0.100403  0.456310  0.109723  1
  O  O59  1  0.454562  0.096196  0.102021  1
  O  O60  1  0.277127  0.276913  0.394414  1
  O  O61  1  0.213579  0.211378  0.893998  1
  O  O62  1  0.052838  0.389110  0.607817  1
  O  O63  1  0.391478  0.057634  0.601139  1
  O  O64  1  0.119620  0.122227  0.105967  1
  O  O65  1  0.056521  0.056129  0.605618  1
