# generated using pymatgen
data_TiNb3(PO4)6
_symmetry_space_group_name_H-M   'P 1'
_cell_length_a   8.98233729
_cell_length_b   8.98233730
_cell_length_c   8.98233760
_cell_angle_alpha   58.63905427
_cell_angle_beta   58.63905628
_cell_angle_gamma   58.63905286
_symmetry_Int_Tables_number   1
_chemical_formula_structural   TiNb3(PO4)6
_chemical_formula_sum   'Ti1 Nb3 P6 O24'
_cell_volume   496.51033883
_cell_formula_units_Z   1
loop_
 _symmetry_equiv_pos_site_id
 _symmetry_equiv_pos_as_xyz
  1  'x, y, z'
loop_
 _atom_site_type_symbol
 _atom_site_label
 _atom_site_symmetry_multiplicity
 _atom_site_fract_x
 _atom_site_fract_y
 _atom_site_fract_z
 _atom_site_occupancy
  Ti  Ti0  1  0.858455  0.858455  0.858455  1
  Nb  Nb1  1  0.141069  0.141069  0.141069  1
  Nb  Nb2  1  0.358508  0.358508  0.358508  1
  Nb  Nb3  1  0.640665  0.640665  0.640665  1
  P  P4  1  0.033263  0.750626  0.469978  1
  P  P5  1  0.469978  0.033263  0.750626  1
  P  P6  1  0.750626  0.469978  0.033263  1
  P  P7  1  0.244386  0.539490  0.964419  1
  P  P8  1  0.539490  0.964419  0.244386  1
  P  P9  1  0.964419  0.244386  0.539490  1
  O  O10  1  0.132248  0.280633  0.504636  1
  O  O11  1  0.280633  0.504636  0.132248  1
  O  O12  1  0.062190  0.919308  0.289801  1
  O  O13  1  0.504636  0.132248  0.280633  1
  O  O14  1  0.210434  0.580662  0.437675  1
  O  O15  1  0.002793  0.781357  0.636352  1
  O  O16  1  0.289801  0.062190  0.919308  1
  O  O17  1  0.437675  0.210434  0.580662  1
  O  O18  1  0.580662  0.437675  0.210434  1
  O  O19  1  0.219144  0.366671  0.995653  1
  O  O20  1  0.076519  0.713828  0.936228  1
  O  O21  1  0.366671  0.995653  0.219144  1
  O  O22  1  0.636352  0.002793  0.781357  1
  O  O23  1  0.919308  0.289801  0.062190  1
  O  O24  1  0.781357  0.636352  0.002793  1
  O  O25  1  0.418853  0.563334  0.789043  1
  O  O26  1  0.563334  0.789043  0.418853  1
  O  O27  1  0.713828  0.936228  0.076519  1
  O  O28  1  0.995653  0.219144  0.366671  1
  O  O29  1  0.789043  0.418853  0.563334  1
  O  O30  1  0.496868  0.866130  0.718783  1
  O  O31  1  0.936228  0.076519  0.713828  1
  O  O32  1  0.718783  0.496868  0.866130  1
  O  O33  1  0.866130  0.718783  0.496868  1
