# generated using pymatgen
data_Li3Fe(PO4)2
_symmetry_space_group_name_H-M   'P 1'
_cell_length_a   8.74233059
_cell_length_b   9.20292272
_cell_length_c   8.75059836
_cell_angle_alpha   87.82702003
_cell_angle_beta   113.37148502
_cell_angle_gamma   92.65107035
_symmetry_Int_Tables_number   1
_chemical_formula_structural   Li3Fe(PO4)2
_chemical_formula_sum   'Li12 Fe4 P8 O32'
_cell_volume   645.42655963
_cell_formula_units_Z   4
loop_
 _symmetry_equiv_pos_site_id
 _symmetry_equiv_pos_as_xyz
  1  'x, y, z'
loop_
 _atom_site_type_symbol
 _atom_site_label
 _atom_site_symmetry_multiplicity
 _atom_site_fract_x
 _atom_site_fract_y
 _atom_site_fract_z
 _atom_site_occupancy
  Li  Li0  1  0.351821  0.784115  0.866064  1
  Li  Li1  1  0.122133  0.291371  0.635409  1
  Li  Li2  1  0.043964  0.451441  0.154906  1
  Li  Li3  1  0.068791  0.768973  0.104642  1
  Li  Li4  1  0.581925  0.760319  0.579191  1
  Li  Li5  1  0.435731  0.246834  0.436659  1
  Li  Li6  1  0.895784  0.234884  0.895059  1
  Li  Li7  1  0.959950  0.537627  0.842309  1
  Li  Li8  1  0.136634  0.034407  0.044895  1
  Li  Li9  1  0.878569  0.667235  0.397119  1
  Li  Li10  1  0.631814  0.235051  0.139737  1
  Li  Li11  1  0.709737  0.891139  0.110888  1
  Fe  Fe12  1  0.247364  0.911913  0.500310  1
  Fe  Fe13  1  0.506181  0.409672  0.762489  1
  Fe  Fe14  1  0.492574  0.594950  0.233434  1
  Fe  Fe15  1  0.765333  0.091669  0.504889  1
  P  P16  1  0.013282  0.929045  0.711399  1
  P  P17  1  0.289198  0.432107  0.983138  1
  P  P18  1  0.243896  0.570641  0.426234  1
  P  P19  1  0.582340  0.072021  0.767703  1
  P  P20  1  0.428678  0.926765  0.239609  1
  P  P21  1  0.762072  0.429895  0.568997  1
  P  P22  1  0.716193  0.576011  0.009835  1
  P  P23  1  0.984937  0.077663  0.277509  1
  O  O24  1  0.034097  0.880923  0.887547  1
  O  O25  1  0.113439  0.389219  0.974196  1
  O  O26  1  0.153414  0.860563  0.670352  1
  O  O27  1  0.313923  0.368994  0.833248  1
  O  O28  1  0.056783  0.547527  0.377095  1
  O  O29  1  0.634316  0.054528  0.954310  1
  O  O30  1  0.955479  0.908858  0.262442  1
  O  O31  1  0.685793  0.407398  0.018827  1
  O  O32  1  0.577609  0.623422  0.838915  1
  O  O33  1  0.154262  0.105558  0.433678  1
  O  O34  1  0.478265  0.936953  0.668124  1
  O  O35  1  0.346045  0.438693  0.527695  1
  O  O36  1  0.320098  0.709333  0.526291  1
  O  O37  1  0.471580  0.205496  0.691395  1
  O  O38  1  0.268822  0.581271  0.259133  1
  O  O39  1  0.739014  0.093650  0.726718  1
  O  O40  1  0.257005  0.915022  0.256899  1
  O  O41  1  0.732796  0.417563  0.734028  1
  O  O42  1  0.531896  0.792421  0.326212  1
  O  O43  1  0.683574  0.294293  0.463920  1
  O  O44  1  0.668114  0.563851  0.463679  1
  O  O45  1  0.525974  0.061283  0.343359  1
  O  O46  1  0.839670  0.880644  0.573377  1
  O  O47  1  0.430733  0.381238  0.151748  1
  O  O48  1  0.320104  0.602223  0.984860  1
  O  O49  1  0.017705  0.099415  0.687228  1
  O  O50  1  0.400177  0.938507  0.057100  1
  O  O51  1  0.949451  0.453156  0.620761  1
  O  O52  1  0.690343  0.655554  0.153402  1
  O  O53  1  0.839594  0.140681  0.313837  1
  O  O54  1  0.893921  0.611648  0.018931  1
  O  O55  1  0.999722  0.153136  0.124084  1
