# generated using pymatgen
data_UCd3O6
_symmetry_space_group_name_H-M   'P 1'
_cell_length_a   5.70779457
_cell_length_b   5.83041790
_cell_length_c   8.46601199
_cell_angle_alpha   90.00000000
_cell_angle_beta   89.08365345
_cell_angle_gamma   90.00000000
_symmetry_Int_Tables_number   1
_chemical_formula_structural   UCd3O6
_chemical_formula_sum   'U2 Cd6 O12'
_cell_volume   281.70292221
_cell_formula_units_Z   2
loop_
 _symmetry_equiv_pos_site_id
 _symmetry_equiv_pos_as_xyz
  1  'x, y, z'
loop_
 _atom_site_type_symbol
 _atom_site_label
 _atom_site_symmetry_multiplicity
 _atom_site_fract_x
 _atom_site_fract_y
 _atom_site_fract_z
 _atom_site_occupancy
  U  U0  1  0.000000  0.000000  0.000000  1
  U  U1  1  0.500000  0.500000  0.500000  1
  Cd  Cd2  1  0.000000  0.000000  0.500000  1
  Cd  Cd3  1  0.001491  0.541989  0.747598  1
  Cd  Cd4  1  0.498509  0.041989  0.752402  1
  Cd  Cd5  1  0.500000  0.500000  0.000000  1
  Cd  Cd6  1  0.501491  0.958011  0.247598  1
  Cd  Cd7  1  0.998509  0.458011  0.252402  1
  O  O8  1  0.121803  0.084177  0.235265  1
  O  O9  1  0.161258  0.299192  0.922955  1
  O  O10  1  0.194814  0.326899  0.559392  1
  O  O11  1  0.305186  0.826899  0.940608  1
  O  O12  1  0.338742  0.799192  0.577045  1
  O  O13  1  0.378197  0.584177  0.264735  1
  O  O14  1  0.621803  0.415823  0.735265  1
  O  O15  1  0.661258  0.200808  0.422955  1
  O  O16  1  0.694814  0.173101  0.059392  1
  O  O17  1  0.805186  0.673101  0.440608  1
  O  O18  1  0.838742  0.700808  0.077045  1
  O  O19  1  0.878197  0.915823  0.764735  1
