# generated using pymatgen
data_LiVCrP2(HO5)2
_symmetry_space_group_name_H-M   'P 1'
_cell_length_a   14.51604154
_cell_length_b   7.36325976
_cell_length_c   5.20352101
_cell_angle_alpha   74.48900594
_cell_angle_beta   86.14953872
_cell_angle_gamma   91.84160652
_symmetry_Int_Tables_number   1
_chemical_formula_structural   LiVCrP2(HO5)2
_chemical_formula_sum   'Li3 V3 Cr3 P6 H6 O30'
_cell_volume   533.98768109
_cell_formula_units_Z   3
loop_
 _symmetry_equiv_pos_site_id
 _symmetry_equiv_pos_as_xyz
  1  'x, y, z'
loop_
 _atom_site_type_symbol
 _atom_site_label
 _atom_site_symmetry_multiplicity
 _atom_site_fract_x
 _atom_site_fract_y
 _atom_site_fract_z
 _atom_site_occupancy
  Li  Li0  1  0.186036  0.035288  0.741310  1
  Li  Li1  1  0.479887  0.631154  0.592930  1
  Li  Li2  1  0.813409  0.963909  0.258665  1
  V  V3  1  0.165484  0.659929  0.338824  1
  V  V4  1  0.500220  0.005949  0.995543  1
  V  V5  1  0.833491  0.339301  0.662237  1
  Cr  Cr6  1  0.999796  0.000114  0.000160  1
  Cr  Cr7  1  0.333070  0.333528  0.666855  1
  Cr  Cr8  1  0.665920  0.664124  0.335794  1
  P  P9  1  0.041498  0.264707  0.407363  1
  P  P10  1  0.291459  0.061797  0.257375  1
  P  P11  1  0.374764  0.604610  0.076485  1
  P  P12  1  0.624970  0.400209  0.926608  1
  P  P13  1  0.708343  0.936734  0.743610  1
  P  P14  1  0.957963  0.734791  0.593067  1
  H  H15  1  0.094670  0.747664  0.898894  1
  H  H16  1  0.230368  0.567350  0.785344  1
  H  H17  1  0.436369  0.099646  0.548586  1
  H  H18  1  0.571237  0.917344  0.436542  1
  H  H19  1  0.768881  0.431131  0.215899  1
  H  H20  1  0.905171  0.252306  0.102110  1
  O  O21  1  0.058643  0.128384  0.237882  1
  O  O22  1  0.071928  0.182365  0.691113  1
  O  O23  1  0.062329  0.684332  0.592661  1
  O  O24  1  0.101808  0.451155  0.274633  1
  O  O25  1  0.108069  0.826915  0.020198  1
  O  O26  1  0.264632  0.137503  0.968891  1
  O  O27  1  0.229397  0.510756  0.633326  1
  O  O28  1  0.274700  0.202687  0.425369  1
  O  O29  1  0.395792  0.012131  0.261660  1
  O  O30  1  0.227807  0.885376  0.404855  1
  O  O31  1  0.270671  0.654170  0.072127  1
  O  O32  1  0.392030  0.464330  0.907721  1
  O  O33  1  0.437035  0.155953  0.700951  1
  O  O34  1  0.402002  0.528825  0.364530  1
  O  O35  1  0.438627  0.781343  0.929170  1
  O  O36  1  0.564609  0.214529  0.061060  1
  O  O37  1  0.593740  0.483147  0.643711  1
  O  O38  1  0.557820  0.838125  0.314968  1
  O  O39  1  0.609281  0.539300  0.092717  1
  O  O40  1  0.728813  0.347948  0.923734  1
  O  O41  1  0.771975  0.113847  0.597819  1
  O  O42  1  0.603771  0.984495  0.736027  1
  O  O43  1  0.726346  0.797768  0.573353  1
  O  O44  1  0.769638  0.487304  0.368278  1
  O  O45  1  0.733992  0.862191  0.033295  1
  O  O46  1  0.891513  0.172997  0.981049  1
  O  O47  1  0.897890  0.548639  0.725496  1
  O  O48  1  0.937393  0.314998  0.407850  1
  O  O49  1  0.928005  0.817448  0.308904  1
  O  O50  1  0.941399  0.871556  0.762148  1
