# generated using pymatgen
data_LiFePH2O5
_symmetry_space_group_name_H-M   'P 1'
_cell_length_a   10.30561681
_cell_length_b   16.89628816
_cell_length_c   5.08747097
_cell_angle_alpha   90.00000000
_cell_angle_beta   90.00000000
_cell_angle_gamma   90.00000000
_symmetry_Int_Tables_number   1
_chemical_formula_structural   LiFePH2O5
_chemical_formula_sum   'Li8 Fe8 P8 H16 O40'
_cell_volume   885.86438528
_cell_formula_units_Z   8
loop_
 _symmetry_equiv_pos_site_id
 _symmetry_equiv_pos_as_xyz
  1  'x, y, z'
loop_
 _atom_site_type_symbol
 _atom_site_label
 _atom_site_symmetry_multiplicity
 _atom_site_fract_x
 _atom_site_fract_y
 _atom_site_fract_z
 _atom_site_occupancy
  Li  Li0  1  0.175585  0.495932  0.470668  1
  Li  Li1  1  0.175585  0.995932  0.529332  1
  Li  Li2  1  0.395695  0.247294  0.911725  1
  Li  Li3  1  0.395695  0.747294  0.088275  1
  Li  Li4  1  0.675585  0.004068  0.470668  1
  Li  Li5  1  0.675585  0.504068  0.529332  1
  Li  Li6  1  0.895695  0.752706  0.088275  1
  Li  Li7  1  0.895695  0.252706  0.911725  1
  Fe  Fe8  1  0.147054  0.688950  0.457358  1
  Fe  Fe9  1  0.147054  0.188950  0.542642  1
  Fe  Fe10  1  0.421511  0.942201  0.113856  1
  Fe  Fe11  1  0.421511  0.442201  0.886144  1
  Fe  Fe12  1  0.647054  0.311050  0.542642  1
  Fe  Fe13  1  0.647054  0.811050  0.457358  1
  Fe  Fe14  1  0.921511  0.557799  0.113856  1
  Fe  Fe15  1  0.921511  0.057799  0.886144  1
  P  P16  1  0.227606  0.091829  0.014784  1
  P  P17  1  0.227606  0.591829  0.985216  1
  P  P18  1  0.345028  0.340983  0.410641  1
  P  P19  1  0.345028  0.840983  0.589359  1
  P  P20  1  0.727606  0.408171  0.014784  1
  P  P21  1  0.727606  0.908171  0.985216  1
  P  P22  1  0.845028  0.659017  0.589359  1
  P  P23  1  0.845028  0.159017  0.410641  1
  H  H24  1  0.003124  0.371611  0.091591  1
  H  H25  1  0.003124  0.871611  0.908409  1
  H  H26  1  0.052057  0.380610  0.636086  1
  H  H27  1  0.052057  0.880610  0.363914  1
  H  H28  1  0.110719  0.307962  0.134439  1
  H  H29  1  0.110719  0.807962  0.865561  1
  H  H30  1  0.448598  0.053419  0.623949  1
  H  H31  1  0.448598  0.553419  0.376051  1
  H  H32  1  0.503124  0.128389  0.091591  1
  H  H33  1  0.503124  0.628389  0.908409  1
  H  H34  1  0.552057  0.619390  0.363914  1
  H  H35  1  0.552057  0.119390  0.636086  1
  H  H36  1  0.610719  0.692038  0.865561  1
  H  H37  1  0.610719  0.192038  0.134439  1
  H  H38  1  0.948598  0.446581  0.623949  1
  H  H39  1  0.948598  0.946581  0.376051  1
  O  O40  1  0.024908  0.426194  0.529377  1
  O  O41  1  0.024908  0.926195  0.470623  1
  O  O42  1  0.039623  0.323443  0.013204  1
  O  O43  1  0.039623  0.823443  0.986796  1
  O  O44  1  0.117795  0.047966  0.860318  1
  O  O45  1  0.117795  0.547966  0.139682  1
  O  O46  1  0.194117  0.094438  0.312242  1
  O  O47  1  0.194117  0.594438  0.687758  1
  O  O48  1  0.216679  0.794269  0.578471  1
  O  O49  1  0.216679  0.294269  0.421529  1
  O  O50  1  0.241518  0.176640  0.897713  1
  O  O51  1  0.241518  0.676640  0.102287  1
  O  O52  1  0.326034  0.924969  0.465831  1
  O  O53  1  0.326034  0.424969  0.534169  1
  O  O54  1  0.356096  0.046293  0.969915  1
  O  O55  1  0.356096  0.546293  0.030085  1
  O  O56  1  0.389334  0.347094  0.120374  1
  O  O57  1  0.389334  0.847094  0.879626  1
  O  O58  1  0.451330  0.297311  0.575459  1
  O  O59  1  0.451330  0.797311  0.424541  1
  O  O60  1  0.524908  0.573805  0.470623  1
  O  O61  1  0.524908  0.073805  0.529377  1
  O  O62  1  0.539623  0.676557  0.986796  1
  O  O63  1  0.539623  0.176557  0.013204  1
  O  O64  1  0.617795  0.952034  0.139682  1
  O  O65  1  0.617795  0.452034  0.860318  1
  O  O66  1  0.694117  0.905562  0.687758  1
  O  O67  1  0.694117  0.405562  0.312242  1
  O  O68  1  0.716679  0.205731  0.421529  1
  O  O69  1  0.716679  0.705731  0.578471  1
  O  O70  1  0.741518  0.823360  0.102287  1
  O  O71  1  0.741518  0.323360  0.897713  1
  O  O72  1  0.826034  0.575031  0.465831  1
  O  O73  1  0.826034  0.075031  0.534169  1
  O  O74  1  0.856096  0.453707  0.969915  1
  O  O75  1  0.856096  0.953707  0.030085  1
  O  O76  1  0.889334  0.652906  0.879626  1
  O  O77  1  0.889334  0.152906  0.120374  1
  O  O78  1  0.951330  0.702689  0.424541  1
  O  O79  1  0.951330  0.202689  0.575459  1
