# generated using pymatgen
data_Ta2BeO6
_symmetry_space_group_name_H-M   'P 1'
_cell_length_a   11.53034928
_cell_length_b   7.43095038
_cell_length_c   4.94265075
_cell_angle_alpha   90.00000000
_cell_angle_beta   90.00000000
_cell_angle_gamma   90.00000000
_symmetry_Int_Tables_number   1
_chemical_formula_structural   Ta2BeO6
_chemical_formula_sum   'Ta8 Be4 O24'
_cell_volume   423.49349973
_cell_formula_units_Z   4
loop_
 _symmetry_equiv_pos_site_id
 _symmetry_equiv_pos_as_xyz
  1  'x, y, z'
loop_
 _atom_site_type_symbol
 _atom_site_label
 _atom_site_symmetry_multiplicity
 _atom_site_fract_x
 _atom_site_fract_y
 _atom_site_fract_z
 _atom_site_occupancy
  Ta  Ta0  1  0.132967  0.496461  0.105522  1
  Ta  Ta1  1  0.132967  0.003539  0.105522  1
  Ta  Ta2  1  0.367033  0.996461  0.605522  1
  Ta  Ta3  1  0.367033  0.503539  0.605522  1
  Ta  Ta4  1  0.632967  0.496461  0.394478  1
  Ta  Ta5  1  0.632967  0.003539  0.394478  1
  Ta  Ta6  1  0.867033  0.996461  0.894478  1
  Ta  Ta7  1  0.867033  0.503539  0.894478  1
  Be  Be8  1  0.938521  0.250000  0.400807  1
  Be  Be9  1  0.561479  0.750000  0.900807  1
  Be  Be10  1  0.438521  0.250000  0.099193  1
  Be  Be11  1  0.061479  0.750000  0.599193  1
  O  O12  1  0.034454  0.575679  0.771917  1
  O  O13  1  0.034454  0.924321  0.771917  1
  O  O14  1  0.103304  0.750000  0.295762  1
  O  O15  1  0.140537  0.250000  0.987982  1
  O  O16  1  0.231184  0.065946  0.406232  1
  O  O17  1  0.231184  0.434054  0.406232  1
  O  O18  1  0.268816  0.934054  0.906232  1
  O  O19  1  0.268816  0.565946  0.906232  1
  O  O20  1  0.359463  0.750000  0.487982  1
  O  O21  1  0.396696  0.250000  0.795762  1
  O  O22  1  0.465546  0.075679  0.271917  1
  O  O23  1  0.465546  0.424321  0.271917  1
  O  O24  1  0.534454  0.575679  0.728083  1
  O  O25  1  0.534454  0.924321  0.728083  1
  O  O26  1  0.603304  0.750000  0.204238  1
  O  O27  1  0.640537  0.250000  0.512018  1
  O  O28  1  0.731184  0.065946  0.093768  1
  O  O29  1  0.731184  0.434054  0.093768  1
  O  O30  1  0.768816  0.565946  0.593768  1
  O  O31  1  0.768816  0.934054  0.593768  1
  O  O32  1  0.859463  0.750000  0.012018  1
  O  O33  1  0.896696  0.250000  0.704238  1
  O  O34  1  0.965546  0.075679  0.228083  1
  O  O35  1  0.965546  0.424321  0.228083  1
