# generated using pymatgen
data_Na2LiMnPCO7
_symmetry_space_group_name_H-M   'P 1'
_cell_length_a   8.88558249
_cell_length_b   6.78714483
_cell_length_c   10.26288729
_cell_angle_alpha   90.00000000
_cell_angle_beta   89.47990647
_cell_angle_gamma   90.00000000
_symmetry_Int_Tables_number   1
_chemical_formula_structural   Na2LiMnPCO7
_chemical_formula_sum   'Na8 Li4 Mn4 P4 C4 O28'
_cell_volume   618.90599059
_cell_formula_units_Z   4
loop_
 _symmetry_equiv_pos_site_id
 _symmetry_equiv_pos_as_xyz
  1  'x, y, z'
loop_
 _atom_site_type_symbol
 _atom_site_label
 _atom_site_symmetry_multiplicity
 _atom_site_fract_x
 _atom_site_fract_y
 _atom_site_fract_z
 _atom_site_occupancy
  Na  Na0  1  0.083558  0.251352  0.879343  1
  Na  Na1  1  0.083558  0.248648  0.379343  1
  Na  Na2  1  0.255451  0.998934  0.624818  1
  Na  Na3  1  0.255451  0.501066  0.124818  1
  Na  Na4  1  0.743654  0.501437  0.876425  1
  Na  Na5  1  0.743242  0.998253  0.875993  1
  Na  Na6  1  0.743242  0.501747  0.375993  1
  Na  Na7  1  0.743654  0.998563  0.376425  1
  Li  Li8  1  0.270437  0.483580  0.617748  1
  Li  Li9  1  0.270437  0.016420  0.117748  1
  Li  Li10  1  0.914449  0.742599  0.626433  1
  Li  Li11  1  0.914449  0.757401  0.126433  1
  Mn  Mn12  1  0.359978  0.751703  0.889122  1
  Mn  Mn13  1  0.359978  0.748297  0.389122  1
  Mn  Mn14  1  0.639728  0.249079  0.612002  1
  Mn  Mn15  1  0.639728  0.250921  0.112002  1
  P  P16  1  0.408938  0.254598  0.853389  1
  P  P17  1  0.408938  0.245402  0.353389  1
  P  P18  1  0.590710  0.745079  0.649115  1
  P  P19  1  0.590710  0.754921  0.149115  1
  C  C20  1  0.053156  0.749015  0.865098  1
  C  C21  1  0.053156  0.750985  0.365098  1
  C  C22  1  0.944839  0.258334  0.631614  1
  C  C23  1  0.944839  0.241666  0.131614  1
  O  O24  1  0.090486  0.275123  0.640648  1
  O  O25  1  0.090486  0.224877  0.140648  1
  O  O26  1  0.092511  0.749024  0.986860  1
  O  O27  1  0.092511  0.750976  0.486860  1
  O  O28  1  0.154639  0.748351  0.772346  1
  O  O29  1  0.154639  0.751649  0.272346  1
  O  O30  1  0.316799  0.069528  0.895524  1
  O  O31  1  0.318104  0.436927  0.899936  1
  O  O32  1  0.318104  0.063073  0.399936  1
  O  O33  1  0.316799  0.430472  0.395524  1
  O  O34  1  0.422687  0.261990  0.700804  1
  O  O35  1  0.430179  0.731689  0.589267  1
  O  O36  1  0.422687  0.238010  0.200804  1
  O  O37  1  0.430179  0.768311  0.089267  1
  O  O38  1  0.569701  0.249783  0.910763  1
  O  O39  1  0.571508  0.748804  0.800238  1
  O  O40  1  0.569701  0.250217  0.410763  1
  O  O41  1  0.571508  0.751196  0.300238  1
  O  O42  1  0.691955  0.566915  0.609559  1
  O  O43  1  0.679809  0.931735  0.605971  1
  O  O44  1  0.679809  0.568265  0.105971  1
  O  O45  1  0.691955  0.933085  0.109559  1
  O  O46  1  0.860856  0.248874  0.736136  1
  O  O47  1  0.860856  0.251126  0.236136  1
  O  O48  1  0.880626  0.249724  0.518582  1
  O  O49  1  0.880626  0.250276  0.018582  1
  O  O50  1  0.912000  0.750030  0.832270  1
  O  O51  1  0.912000  0.749970  0.332270  1
