# generated using pymatgen
data_Ba3Nb2ZnO9
_symmetry_space_group_name_H-M   'P 1'
_cell_length_a   5.88136043
_cell_length_b   5.88136043
_cell_length_c   7.22666169
_cell_angle_alpha   90.00000000
_cell_angle_beta   90.00000000
_cell_angle_gamma   120.00000005
_symmetry_Int_Tables_number   1
_chemical_formula_structural   Ba3Nb2ZnO9
_chemical_formula_sum   'Ba3 Nb2 Zn1 O9'
_cell_volume   216.48307403
_cell_formula_units_Z   1
loop_
 _symmetry_equiv_pos_site_id
 _symmetry_equiv_pos_as_xyz
  1  'x, y, z'
loop_
 _atom_site_type_symbol
 _atom_site_label
 _atom_site_symmetry_multiplicity
 _atom_site_fract_x
 _atom_site_fract_y
 _atom_site_fract_z
 _atom_site_occupancy
  O  O0  1  0.828325  0.171677  0.675214  1
  O  O1  1  0.828323  0.656648  0.675214  1
  O  O2  1  0.343352  0.171677  0.675214  1
  O  O3  1  0.656648  0.828324  0.324787  1
  O  O4  1  0.171676  0.343351  0.324787  1
  O  O5  1  0.171676  0.828324  0.324787  1
  O  O6  1  0.499999  0.000000  0.000000  1
  O  O7  1  0.500000  0.499999  0.000000  1
  O  O8  1  0.999999  0.499999  0.000000  1
  Zn  Zn9  1  0.000000  0.000000  0.499999  1
  Nb  Nb10  1  0.333333  0.666667  0.176566  1
  Nb  Nb11  1  0.666667  0.333334  0.823433  1
  Ba  Ba12  1  0.666667  0.333334  0.335691  1
  Ba  Ba13  1  0.333333  0.666667  0.664308  1
  Ba  Ba14  1  0.000000  0.000000  0.000000  1
