# generated using pymatgen
data_Na3MnSiBO7
_symmetry_space_group_name_H-M   'P 1'
_cell_length_a   8.97862025
_cell_length_b   6.47429529
_cell_length_c   5.26979404
_cell_angle_alpha   90.00000000
_cell_angle_beta   87.76463728
_cell_angle_gamma   90.00000000
_symmetry_Int_Tables_number   1
_chemical_formula_structural   Na3MnSiBO7
_chemical_formula_sum   'Na6 Mn2 Si2 B2 O14'
_cell_volume   306.10127570
_cell_formula_units_Z   2
loop_
 _symmetry_equiv_pos_site_id
 _symmetry_equiv_pos_as_xyz
  1  'x, y, z'
loop_
 _atom_site_type_symbol
 _atom_site_label
 _atom_site_symmetry_multiplicity
 _atom_site_fract_x
 _atom_site_fract_y
 _atom_site_fract_z
 _atom_site_occupancy
  Na  Na0  1  0.082407  0.250000  0.762822  1
  Na  Na1  1  0.261563  0.008899  0.253375  1
  Na  Na2  1  0.261563  0.491101  0.253375  1
  Na  Na3  1  0.738437  0.508899  0.746625  1
  Na  Na4  1  0.738437  0.991101  0.746625  1
  Na  Na5  1  0.917593  0.750000  0.237178  1
  Mn  Mn6  1  0.334757  0.750000  0.783704  1
  Mn  Mn7  1  0.665243  0.250000  0.216296  1
  Si  Si8  1  0.429804  0.250000  0.718422  1
  Si  Si9  1  0.570196  0.750000  0.281578  1
  B  B10  1  0.068258  0.750000  0.730471  1
  B  B11  1  0.931742  0.250000  0.269529  1
  O  O12  1  0.078362  0.250000  0.302971  1
  O  O13  1  0.136128  0.750000  0.965774  1
  O  O14  1  0.179070  0.750000  0.533875  1
  O  O15  1  0.318049  0.052354  0.781572  1
  O  O16  1  0.318049  0.447646  0.781572  1
  O  O17  1  0.479235  0.250000  0.412700  1
  O  O18  1  0.422932  0.750000  0.112376  1
  O  O19  1  0.577067  0.250000  0.887624  1
  O  O20  1  0.520765  0.750000  0.587300  1
  O  O21  1  0.681951  0.552354  0.218428  1
  O  O22  1  0.681951  0.947646  0.218428  1
  O  O23  1  0.820930  0.250000  0.466125  1
  O  O24  1  0.863872  0.250000  0.034226  1
  O  O25  1  0.921638  0.750000  0.697029  1
