# generated using pymatgen
data_Cr4OF11
_symmetry_space_group_name_H-M   'P 1'
_cell_length_a   5.09968683
_cell_length_b   5.32902645
_cell_length_c   16.89029526
_cell_angle_alpha   92.42630507
_cell_angle_beta   98.66549146
_cell_angle_gamma   61.38974473
_symmetry_Int_Tables_number   1
_chemical_formula_structural   Cr4OF11
_chemical_formula_sum   'Cr8 O2 F22'
_cell_volume   398.13457310
_cell_formula_units_Z   2
loop_
 _symmetry_equiv_pos_site_id
 _symmetry_equiv_pos_as_xyz
  1  'x, y, z'
loop_
 _atom_site_type_symbol
 _atom_site_label
 _atom_site_symmetry_multiplicity
 _atom_site_fract_x
 _atom_site_fract_y
 _atom_site_fract_z
 _atom_site_occupancy
  Cr  Cr0  1  0.754379  0.608568  0.121532  1
  Cr  Cr1  1  0.750959  0.120454  0.624217  1
  Cr  Cr2  1  0.500000  0.750000  0.750000  1
  Cr  Cr3  1  0.500000  0.250000  0.250000  1
  Cr  Cr4  1  0.245621  0.891432  0.378468  1
  Cr  Cr5  1  0.249041  0.379546  0.875783  1
  Cr  Cr6  1  0.009408  0.481968  0.496274  1
  Cr  Cr7  1  0.990592  0.018032  0.003726  1
  O  O8  1  0.751914  0.312920  0.062534  1
  O  O9  1  0.248086  0.187080  0.437466  1
  F  F10  1  0.818056  0.782061  0.032664  1
  F  F11  1  0.741663  0.932587  0.186202  1
  F  F12  1  0.760717  0.805406  0.560746  1
  F  F13  1  0.684336  0.968258  0.717543  1
  F  F14  1  0.683030  0.657143  0.407658  1
  F  F15  1  0.686013  0.467104  0.216758  1
  F  F16  1  0.813842  0.593825  0.842950  1
  F  F17  1  0.813467  0.092747  0.343164  1
  F  F18  1  0.813230  0.281473  0.531553  1
  F  F19  1  0.316970  0.842857  0.092342  1
  F  F20  1  0.748909  0.435437  0.687216  1
  F  F21  1  0.258337  0.567413  0.313798  1
  F  F22  1  0.686001  0.158065  0.908367  1
  F  F23  1  0.186158  0.906175  0.657050  1
  F  F24  1  0.186533  0.407253  0.156836  1
  F  F25  1  0.181944  0.717939  0.467336  1
  F  F26  1  0.315664  0.531742  0.782457  1
  F  F27  1  0.313999  0.341935  0.591633  1
  F  F28  1  0.313987  0.032896  0.283242  1
  F  F29  1  0.239283  0.694594  0.939254  1
  F  F30  1  0.251091  0.064563  0.812784  1
  F  F31  1  0.186770  0.218527  0.968447  1
