# generated using pymatgen
data_FeOF
_symmetry_space_group_name_H-M   'P 1'
_cell_length_a   4.74314214
_cell_length_b   14.19509250
_cell_length_c   3.12166012
_cell_angle_alpha   90.00000000
_cell_angle_beta   90.00000000
_cell_angle_gamma   90.15110383
_symmetry_Int_Tables_number   1
_chemical_formula_structural   FeOF
_chemical_formula_sum   'Fe6 O6 F6'
_cell_volume   210.17858929
_cell_formula_units_Z   6
loop_
 _symmetry_equiv_pos_site_id
 _symmetry_equiv_pos_as_xyz
  1  'x, y, z'
loop_
 _atom_site_type_symbol
 _atom_site_label
 _atom_site_symmetry_multiplicity
 _atom_site_fract_x
 _atom_site_fract_y
 _atom_site_fract_z
 _atom_site_occupancy
  Fe  Fe0  1  0.028972  0.995409  0.000000  1
  Fe  Fe1  1  0.025343  0.327113  0.000000  1
  Fe  Fe2  1  0.032016  0.659317  0.000000  1
  Fe  Fe3  1  0.518843  0.187920  0.500000  1
  Fe  Fe4  1  0.454200  0.493244  0.500000  1
  Fe  Fe5  1  0.454265  0.827614  0.500000  1
  O  O6  1  0.195721  0.267696  0.500000  1
  O  O7  1  0.189266  0.600381  0.500000  1
  O  O8  1  0.199153  0.938385  0.500000  1
  O  O9  1  0.296255  0.768222  0.000000  1
  O  O10  1  0.298570  0.433366  0.000000  1
  O  O11  1  0.706947  0.234076  0.000000  1
  F  F12  1  0.307846  0.102659  0.000000  1
  F  F13  1  0.690007  0.566118  0.000000  1
  F  F14  1  0.696545  0.899291  0.000000  1
  F  F15  1  0.806327  0.063552  0.500000  1
  F  F16  1  0.801598  0.402778  0.500000  1
  F  F17  1  0.798127  0.732858  0.500000  1
