# generated using pymatgen
data_Li2Cr3BiO8
_symmetry_space_group_name_H-M   'P 1'
_cell_length_a   8.70385317
_cell_length_b   8.67883193
_cell_length_c   8.65749322
_cell_angle_alpha   90.43112905
_cell_angle_beta   90.65268801
_cell_angle_gamma   90.24625119
_symmetry_Int_Tables_number   1
_chemical_formula_structural   Li2Cr3BiO8
_chemical_formula_sum   'Li8 Cr12 Bi4 O32'
_cell_volume   653.91356473
_cell_formula_units_Z   4
loop_
 _symmetry_equiv_pos_site_id
 _symmetry_equiv_pos_as_xyz
  1  'x, y, z'
loop_
 _atom_site_type_symbol
 _atom_site_label
 _atom_site_symmetry_multiplicity
 _atom_site_fract_x
 _atom_site_fract_y
 _atom_site_fract_z
 _atom_site_occupancy
  Li  Li0  1  0.999147  0.998110  0.000281  1
  Li  Li1  1  0.249849  0.249997  0.248408  1
  Li  Li2  1  0.250305  0.751611  0.751415  1
  Li  Li3  1  0.500985  0.998816  0.499751  1
  Li  Li4  1  0.500467  0.499078  0.000037  1
  Li  Li5  1  0.751708  0.249915  0.749850  1
  Li  Li6  1  0.750110  0.752532  0.248883  1
  Li  Li7  1  0.998074  0.498638  0.500186  1
  Cr  Cr8  1  0.109864  0.139897  0.625741  1
  Cr  Cr9  1  0.125038  0.391933  0.858037  1
  Cr  Cr10  1  0.138624  0.623720  0.111164  1
  Cr  Cr11  1  0.360415  0.376457  0.613276  1
  Cr  Cr12  1  0.374222  0.609312  0.355108  1
  Cr  Cr13  1  0.391116  0.861549  0.125885  1
  Cr  Cr14  1  0.613743  0.362749  0.374312  1
  Cr  Cr15  1  0.626206  0.109349  0.138838  1
  Cr  Cr16  1  0.638822  0.875394  0.889909  1
  Cr  Cr17  1  0.857227  0.125526  0.391644  1
  Cr  Cr18  1  0.874596  0.888351  0.638404  1
  Cr  Cr19  1  0.888222  0.637997  0.874623  1
  Bi  Bi20  1  0.123094  0.875506  0.374148  1
  Bi  Bi21  1  0.375871  0.124164  0.876404  1
  Bi  Bi22  1  0.624607  0.626132  0.624765  1
  Bi  Bi23  1  0.874810  0.374403  0.123357  1
  O  O24  1  0.085409  0.136797  0.392652  1
  O  O25  1  0.104502  0.908195  0.635725  1
  O  O26  1  0.117801  0.611169  0.877495  1
  O  O27  1  0.114595  0.165539  0.859219  1
  O  O28  1  0.135489  0.390178  0.084856  1
  O  O29  1  0.132297  0.373080  0.638262  1
  O  O30  1  0.146808  0.612906  0.343618  1
  O  O31  1  0.158254  0.854226  0.116253  1
  O  O32  1  0.341671  0.146003  0.614325  1
  O  O33  1  0.354627  0.386677  0.843189  1
  O  O34  1  0.368862  0.626102  0.139139  1
  O  O35  1  0.374769  0.612604  0.591536  1
  O  O36  1  0.385339  0.833960  0.361701  1
  O  O37  1  0.382949  0.391042  0.379798  1
  O  O38  1  0.395068  0.092021  0.137195  1
  O  O39  1  0.406202  0.865111  0.894442  1
  O  O40  1  0.596187  0.376782  0.610298  1
  O  O41  1  0.608831  0.597625  0.373696  1
  O  O42  1  0.618976  0.880851  0.118289  1
  O  O43  1  0.617216  0.344449  0.144313  1
  O  O44  1  0.635102  0.107339  0.906592  1
  O  O45  1  0.638877  0.132741  0.373152  1
  O  O46  1  0.639075  0.874283  0.651422  1
  O  O47  1  0.652297  0.638329  0.874334  1
  O  O48  1  0.843229  0.355184  0.385554  1
  O  O49  1  0.859872  0.114272  0.166054  1
  O  O50  1  0.867864  0.867463  0.867804  1
  O  O51  1  0.865394  0.895272  0.405936  1
  O  O52  1  0.873180  0.651984  0.638020  1
  O  O53  1  0.878114  0.118215  0.611428  1
  O  O54  1  0.896238  0.405402  0.863307  1
  O  O55  1  0.907788  0.633200  0.106106  1
