# generated using pymatgen
data_Li4Cr2Co3Sn3O16
_symmetry_space_group_name_H-M   'P 1'
_cell_length_a   5.94828996
_cell_length_b   6.00709489
_cell_length_c   9.54484770
_cell_angle_alpha   89.71804955
_cell_angle_beta   89.40434987
_cell_angle_gamma   119.97591346
_symmetry_Int_Tables_number   1
_chemical_formula_structural   Li4Cr2Co3Sn3O16
_chemical_formula_sum   'Li4 Cr2 Co3 Sn3 O16'
_cell_volume   295.39866749
_cell_formula_units_Z   1
loop_
 _symmetry_equiv_pos_site_id
 _symmetry_equiv_pos_as_xyz
  1  'x, y, z'
loop_
 _atom_site_type_symbol
 _atom_site_label
 _atom_site_symmetry_multiplicity
 _atom_site_fract_x
 _atom_site_fract_y
 _atom_site_fract_z
 _atom_site_occupancy
  Li  Li0  1  0.355360  0.680016  0.886040  1
  Li  Li1  1  0.948658  0.974132  0.991653  1
  Li  Li2  1  0.968243  0.987302  0.503196  1
  Li  Li3  1  0.675611  0.337754  0.399046  1
  Cr  Cr4  1  0.335759  0.663735  0.490347  1
  Cr  Cr5  1  0.677870  0.337478  0.981383  1
  Co  Co6  1  0.661382  0.830394  0.216802  1
  Co  Co7  1  0.831728  0.663714  0.711152  1
  Co  Co8  1  0.832606  0.173412  0.714556  1
  Sn  Sn9  1  0.171466  0.833173  0.212712  1
  Sn  Sn10  1  0.171430  0.338179  0.213044  1
  Sn  Sn11  1  0.338765  0.170259  0.712800  1
  O  O12  1  0.144604  0.823287  0.599493  1
  O  O13  1  0.039378  0.519879  0.350716  1
  O  O14  1  0.356821  0.678061  0.099049  1
  O  O15  1  0.979873  0.989904  0.317170  1
  O  O16  1  0.978165  0.987818  0.807128  1
  O  O17  1  0.153334  0.321349  0.596077  1
  O  O18  1  0.494829  0.964223  0.343657  1
  O  O19  1  0.495786  0.531076  0.343002  1
  O  O20  1  0.325909  0.163373  0.087196  1
  O  O21  1  0.668267  0.826152  0.614690  1
  O  O22  1  0.543666  0.498735  0.839804  1
  O  O23  1  0.536589  0.044431  0.841084  1
  O  O24  1  0.691174  0.347149  0.607384  1
  O  O25  1  0.828504  0.670713  0.101006  1
  O  O26  1  0.965383  0.486537  0.826825  1
  O  O27  1  0.828842  0.158065  0.100823  1
