# generated using pymatgen
data_Li2VFe(P2O7)2
_symmetry_space_group_name_H-M   'P 1'
_cell_length_a   4.89307958
_cell_length_b   24.72827713
_cell_length_c   7.04944662
_cell_angle_alpha   89.90470782
_cell_angle_beta   108.83734096
_cell_angle_gamma   90.02960781
_symmetry_Int_Tables_number   1
_chemical_formula_structural   Li2VFe(P2O7)2
_chemical_formula_sum   'Li6 V3 Fe3 P12 O42'
_cell_volume   807.27816506
_cell_formula_units_Z   3
loop_
 _symmetry_equiv_pos_site_id
 _symmetry_equiv_pos_as_xyz
  1  'x, y, z'
loop_
 _atom_site_type_symbol
 _atom_site_label
 _atom_site_symmetry_multiplicity
 _atom_site_fract_x
 _atom_site_fract_y
 _atom_site_fract_z
 _atom_site_occupancy
  Li  Li0  1  0.176049  0.620945  0.674785  1
  Li  Li1  1  0.175719  0.954364  0.675917  1
  Li  Li2  1  0.176201  0.287577  0.676710  1
  Li  Li3  1  0.823828  0.120779  0.324669  1
  Li  Li4  1  0.824657  0.454646  0.324330  1
  Li  Li5  1  0.823835  0.787365  0.324583  1
  V  V6  1  0.214786  0.166906  0.728234  1
  V  V7  1  0.215290  0.833223  0.728214  1
  V  V8  1  0.783643  0.332908  0.271393  1
  Fe  Fe9  1  0.217061  0.499543  0.732701  1
  Fe  Fe10  1  0.783667  0.666705  0.268346  1
  Fe  Fe11  1  0.783160  0.999893  0.267676  1
  P  P12  1  0.400685  0.059898  0.521860  1
  P  P13  1  0.399253  0.393681  0.521959  1
  P  P14  1  0.400719  0.726610  0.521924  1
  P  P15  1  0.213222  0.261394  0.086260  1
  P  P16  1  0.212377  0.594544  0.085360  1
  P  P17  1  0.212704  0.927801  0.086327  1
  P  P18  1  0.786682  0.094670  0.914570  1
  P  P19  1  0.786947  0.427973  0.913160  1
  P  P20  1  0.786779  0.761318  0.914513  1
  P  P21  1  0.599711  0.226677  0.477828  1
  P  P22  1  0.600102  0.560100  0.478258  1
  P  P23  1  0.600655  0.893558  0.478217  1
  O  O24  1  0.049762  0.107846  0.852782  1
  O  O25  1  0.049528  0.774648  0.852627  1
  O  O26  1  0.051004  0.441592  0.853060  1
  O  O27  1  0.132480  0.898417  0.885942  1
  O  O28  1  0.131435  0.232018  0.885962  1
  O  O29  1  0.132629  0.564629  0.884172  1
  O  O30  1  0.187925  0.012365  0.482518  1
  O  O31  1  0.187704  0.679121  0.482360  1
  O  O32  1  0.187064  0.346047  0.482489  1
  O  O33  1  0.247063  0.781255  0.506809  1
  O  O34  1  0.246963  0.114552  0.506502  1
  O  O35  1  0.247915  0.448503  0.507417  1
  O  O36  1  0.397487  0.226004  0.605218  1
  O  O37  1  0.398063  0.559726  0.605391  1
  O  O38  1  0.397770  0.892666  0.604768  1
  O  O39  1  0.602591  0.144551  0.917731  1
  O  O40  1  0.600999  0.477742  0.915829  1
  O  O41  1  0.602290  0.811188  0.917616  1
  O  O42  1  0.596099  0.050840  0.753656  1
  O  O43  1  0.595097  0.384221  0.752774  1
  O  O44  1  0.596408  0.717461  0.753555  1
  O  O45  1  0.404379  0.217465  0.247520  1
  O  O46  1  0.405231  0.884201  0.247427  1
  O  O47  1  0.404839  0.550846  0.246320  1
  O  O48  1  0.398218  0.311286  0.082896  1
  O  O49  1  0.398666  0.644389  0.083159  1
  O  O50  1  0.398711  0.977767  0.083833  1
  O  O51  1  0.602215  0.059673  0.394194  1
  O  O52  1  0.602194  0.392800  0.395320  1
  O  O53  1  0.601966  0.726291  0.394052  1
  O  O54  1  0.752231  0.281370  0.494170  1
  O  O55  1  0.752706  0.615137  0.491644  1
  O  O56  1  0.751910  0.948560  0.492855  1
  O  O57  1  0.812922  0.179341  0.517795  1
  O  O58  1  0.812517  0.512571  0.517553  1
  O  O59  1  0.812780  0.846111  0.517567  1
  O  O60  1  0.868288  0.064898  0.116220  1
  O  O61  1  0.868192  0.731517  0.116125  1
  O  O62  1  0.868146  0.398588  0.114137  1
  O  O63  1  0.951012  0.274787  0.148294  1
  O  O64  1  0.948339  0.608048  0.145422  1
  O  O65  1  0.948532  0.941461  0.146526  1
