# generated using pymatgen
data_Li2AgF6
_symmetry_space_group_name_H-M   'P 1'
_cell_length_a   4.78268089
_cell_length_b   4.78269041
_cell_length_c   9.31713573
_cell_angle_alpha   89.99996280
_cell_angle_beta   89.99996613
_cell_angle_gamma   89.98270340
_symmetry_Int_Tables_number   1
_chemical_formula_structural   Li2AgF6
_chemical_formula_sum   'Li4 Ag2 F12'
_cell_volume   213.12091763
_cell_formula_units_Z   2
loop_
 _symmetry_equiv_pos_site_id
 _symmetry_equiv_pos_as_xyz
  1  'x, y, z'
loop_
 _atom_site_type_symbol
 _atom_site_label
 _atom_site_symmetry_multiplicity
 _atom_site_fract_x
 _atom_site_fract_y
 _atom_site_fract_z
 _atom_site_occupancy
  Li  Li0  1  0.000000  0.000000  0.336728  1
  Li  Li1  1  1.000000  0.000000  0.663272  1
  Li  Li2  1  0.500001  0.500001  0.163111  1
  Li  Li3  1  0.500000  0.500000  0.836889  1
  Ag  Ag4  1  0.000002  0.000001  -0.000004  1
  Ag  Ag5  1  0.499998  0.500000  0.500005  1
  F  F6  1  0.192449  0.807550  0.164820  1
  F  F7  1  0.192450  0.807550  0.835183  1
  F  F8  1  0.195336  0.804665  0.500000  1
  F  F9  1  0.304687  0.304690  -0.000001  1
  F  F10  1  0.307587  0.307588  0.335326  1
  F  F11  1  0.307588  0.307590  0.664673  1
  F  F12  1  0.692411  0.692411  0.335326  1
  F  F13  1  0.692413  0.692410  0.664671  1
  F  F14  1  0.695312  0.695310  -0.000001  1
  F  F15  1  0.804663  0.195337  0.499999  1
  F  F16  1  0.807551  0.192450  0.164818  1
  F  F17  1  0.807553  0.192447  0.835185  1
