# generated using pymatgen
data_TeP4H26(NO5)4
_symmetry_space_group_name_H-M   'P 1'
_cell_length_a   7.90227998
_cell_length_b   22.30069439
_cell_length_c   6.87707187
_cell_angle_alpha   90.00000000
_cell_angle_beta   115.48921071
_cell_angle_gamma   90.00000000
_symmetry_Int_Tables_number   1
_chemical_formula_structural   TeP4H26(NO5)4
_chemical_formula_sum   'Te2 P8 H52 N8 O40'
_cell_volume   1093.96041889
_cell_formula_units_Z   2
loop_
 _symmetry_equiv_pos_site_id
 _symmetry_equiv_pos_as_xyz
  1  'x, y, z'
loop_
 _atom_site_type_symbol
 _atom_site_label
 _atom_site_symmetry_multiplicity
 _atom_site_fract_x
 _atom_site_fract_y
 _atom_site_fract_z
 _atom_site_occupancy
  Te  Te0  1  0.500000  0.500000  0.500000  1
  Te  Te1  1  0.000000  0.000000  0.000000  1
  P  P2  1  0.982829  0.286498  0.494399  1
  P  P3  1  0.482829  0.213502  0.994399  1
  P  P4  1  0.017171  0.713502  0.505601  1
  P  P5  1  0.517171  0.786498  0.005601  1
  P  P6  1  0.862168  0.378240  0.144574  1
  P  P7  1  0.362168  0.121760  0.644574  1
  P  P8  1  0.137832  0.621760  0.855426  1
  P  P9  1  0.637832  0.878240  0.355426  1
  H  H10  1  0.463208  0.292237  0.606983  1
  H  H11  1  0.963208  0.207762  0.106983  1
  H  H12  1  0.536792  0.707762  0.393017  1
  H  H13  1  0.036792  0.792238  0.893017  1
  H  H14  1  0.515215  0.632084  0.422250  1
  H  H15  1  0.015215  0.867916  0.922250  1
  H  H16  1  0.484785  0.367916  0.577750  1
  H  H17  1  0.984785  0.132084  0.077750  1
  H  H18  1  0.326631  0.328694  0.372244  1
  H  H19  1  0.826631  0.171306  0.872244  1
  H  H20  1  0.673369  0.671306  0.627756  1
  H  H21  1  0.173369  0.828694  0.127756  1
  H  H22  1  0.943324  0.817088  0.056244  1
  H  H23  1  0.443324  0.682912  0.556244  1
  H  H24  1  0.056676  0.182912  0.943756  1
  H  H25  1  0.556676  0.317088  0.443756  1
  H  H26  1  0.019811  0.551583  0.270784  1
  H  H27  1  0.519811  0.948417  0.770784  1
  H  H28  1  0.980189  0.448417  0.729216  1
  H  H29  1  0.480189  0.051583  0.229216  1
  H  H30  1  0.606605  0.077972  0.480478  1
  H  H31  1  0.106605  0.422028  0.980478  1
  H  H32  1  0.393395  0.922028  0.519522  1
  H  H33  1  0.893395  0.577972  0.019522  1
  H  H34  1  0.783922  0.543959  0.155020  1
  H  H35  1  0.283922  0.956041  0.655020  1
  H  H36  1  0.216078  0.456041  0.844980  1
  H  H37  1  0.716078  0.043959  0.344980  1
  H  H38  1  0.880783  0.614027  0.228889  1
  H  H39  1  0.380783  0.885973  0.728889  1
  H  H40  1  0.119217  0.385973  0.771111  1
  H  H41  1  0.619217  0.114027  0.271111  1
  H  H42  1  0.168224  0.464846  0.321063  1
  H  H43  1  0.668224  0.035154  0.821063  1
  H  H44  1  0.831776  0.535154  0.678937  1
  H  H45  1  0.331776  0.964846  0.178937  1
  H  H46  1  0.416984  0.564554  0.158960  1
  H  H47  1  0.916984  0.935446  0.658960  1
  H  H48  1  0.583016  0.435446  0.841040  1
  H  H49  1  0.083016  0.064554  0.341040  1
  H  H50  1  0.573827  0.439882  0.231834  1
  H  H51  1  0.073827  0.060118  0.731834  1
  H  H52  1  0.426173  0.560118  0.768166  1
  H  H53  1  0.926173  0.939882  0.268166  1
  H  H54  1  0.754358  0.724438  0.099045  1
  H  H55  1  0.254358  0.775562  0.599045  1
  H  H56  1  0.245642  0.275562  0.900955  1
  H  H57  1  0.745642  0.224438  0.400955  1
  H  H58  1  0.282676  0.702197  0.058194  1
  H  H59  1  0.782676  0.797803  0.558194  1
  H  H60  1  0.717324  0.297803  0.941806  1
  H  H61  1  0.217324  0.202197  0.441806  1
  N  N62  1  0.957712  0.174277  -0.001024  1
  N  N63  1  0.457712  0.325723  0.498976  1
  N  N64  1  0.042288  0.825723  0.001024  1
  N  N65  1  0.542288  0.674277  0.501024  1
  N  N66  1  0.892674  0.571466  0.169770  1
  N  N67  1  0.392674  0.928534  0.669770  1
  N  N68  1  0.107326  0.428534  0.830230  1
  N  N69  1  0.607326  0.071466  0.330230  1
  O  O70  1  0.226768  0.505474  0.376316  1
  O  O71  1  0.726768  0.994526  0.876316  1
  O  O72  1  0.773232  0.494526  0.623684  1
  O  O73  1  0.273232  0.005474  0.123684  1
  O  O74  1  0.985371  0.065025  0.184590  1
  O  O75  1  0.485371  0.434975  0.684590  1
  O  O76  1  0.014629  0.934975  0.815410  1
  O  O77  1  0.514629  0.565025  0.315410  1
  O  O78  1  0.470237  0.440703  0.279062  1
  O  O79  1  0.970237  0.059297  0.779062  1
  O  O80  1  0.529763  0.559297  0.720938  1
  O  O81  1  0.029763  0.940703  0.220938  1
  O  O82  1  0.622334  0.187392  0.207468  1
  O  O83  1  0.122334  0.312608  0.707468  1
  O  O84  1  0.377666  0.812608  0.792532  1
  O  O85  1  0.877666  0.687392  0.292532  1
  O  O86  1  0.063604  0.251709  0.365464  1
  O  O87  1  0.563604  0.248291  0.865464  1
  O  O88  1  0.936396  0.748291  0.634536  1
  O  O89  1  0.436396  0.751709  0.134536  1
  O  O90  1  0.828919  0.249540  0.532405  1
  O  O91  1  0.328919  0.250460  0.032405  1
  O  O92  1  0.171081  0.750460  0.467595  1
  O  O93  1  0.671081  0.749540  0.967595  1
  O  O94  1  0.792440  0.924702  0.412120  1
  O  O95  1  0.292440  0.575298  0.912120  1
  O  O96  1  0.207560  0.075298  0.587880  1
  O  O97  1  0.707560  0.424702  0.087880  1
  O  O98  1  0.057507  0.401980  0.201354  1
  O  O99  1  0.557507  0.098020  0.701354  1
  O  O100  1  0.942493  0.598020  0.798646  1
  O  O101  1  0.442493  0.901980  0.298646  1
  O  O102  1  0.817323  0.329263  0.964492  1
  O  O103  1  0.317323  0.170737  0.464492  1
  O  O104  1  0.182677  0.670737  0.035508  1
  O  O105  1  0.682677  0.829263  0.535508  1
  O  O106  1  0.859723  0.343326  0.352101  1
  O  O107  1  0.359723  0.156674  0.852101  1
  O  O108  1  0.140277  0.656674  0.647899  1
  O  O109  1  0.640277  0.843326  0.147899  1
