# generated using pymatgen
data_Li4TiMn8O18
_symmetry_space_group_name_H-M   'P 1'
_cell_length_a   9.04412725
_cell_length_b   25.15065486
_cell_length_c   2.92310434
_cell_angle_alpha   90.00004072
_cell_angle_beta   90.00011999
_cell_angle_gamma   89.98778343
_symmetry_Int_Tables_number   1
_chemical_formula_structural   Li4TiMn8O18
_chemical_formula_sum   'Li8 Ti2 Mn16 O36'
_cell_volume   664.90602683
_cell_formula_units_Z   2
loop_
 _symmetry_equiv_pos_site_id
 _symmetry_equiv_pos_as_xyz
  1  'x, y, z'
loop_
 _atom_site_type_symbol
 _atom_site_label
 _atom_site_symmetry_multiplicity
 _atom_site_fract_x
 _atom_site_fract_y
 _atom_site_fract_z
 _atom_site_occupancy
  Li  Li0  1  0.175692  0.999189  0.999998  1
  Li  Li1  1  0.192368  0.206931  1.000000  1
  Li  Li2  1  0.307357  0.706867  0.999999  1
  Li  Li3  1  0.324007  0.499395  0.000001  1
  Li  Li4  1  0.687892  0.520782  0.000001  1
  Li  Li5  1  0.687426  0.292874  -0.000000  1
  Li  Li6  1  0.812350  0.792920  1.000000  1
  Li  Li7  1  0.812214  0.020744  1.000000  1
  Ti  Ti8  1  0.498543  0.394809  0.000000  1
  Ti  Ti9  1  0.001327  0.895040  0.000001  1
  Mn  Mn10  1  0.996172  0.500628  0.000002  1
  Mn  Mn11  1  0.005495  0.106308  0.000001  1
  Mn  Mn12  1  0.019556  0.307980  0.000000  1
  Mn  Mn13  1  0.143169  0.585583  0.500000  1
  Mn  Mn14  1  0.149815  0.804943  0.500002  1
  Mn  Mn15  1  0.350170  0.304719  0.500000  1
  Mn  Mn16  1  0.356782  0.085643  0.500002  1
  Mn  Mn17  1  0.480206  0.807883  -0.000001  1
  Mn  Mn18  1  0.494464  0.606350  0.999997  1
  Mn  Mn19  1  0.504139  0.000729  0.999997  1
  Mn  Mn20  1  0.520407  0.187471  0.999999  1
  Mn  Mn21  1  0.650158  0.913394  0.499999  1
  Mn  Mn22  1  0.653677  0.692309  0.499999  1
  Mn  Mn23  1  0.846487  0.192247  0.499996  1
  Mn  Mn24  1  0.850074  0.413519  0.500001  1
  Mn  Mn25  1  0.979736  0.687626  0.000001  1
  O  O26  1  0.990620  0.424142  0.999997  1
  O  O27  1  0.999624  0.576965  0.000001  1
  O  O28  1  0.052564  0.939315  0.500001  1
  O  O29  1  0.045055  0.160197  0.500000  1
  O  O30  1  0.107092  0.661888  0.500003  1
  O  O31  1  0.108499  0.757487  0.000000  1
  O  O32  1  0.154272  0.508222  0.499998  1
  O  O33  1  0.146052  0.279632  0.500001  1
  O  O34  1  0.190046  0.854007  0.000001  1
  O  O35  1  0.216383  0.086397  -0.000001  1
  O  O36  1  0.283342  0.586600  0.000001  1
  O  O37  1  0.309967  0.353869  1.000000  1
  O  O38  1  0.353750  0.779677  0.500000  1
  O  O39  1  0.346965  0.008105  0.500002  1
  O  O40  1  0.391468  0.257300  1.000000  1
  O  O41  1  0.392784  0.161842  0.499999  1
  O  O42  1  0.455124  0.660222  0.500001  1
  O  O43  1  0.447681  0.439097  0.500001  1
  O  O44  1  0.500126  0.077187  0.999999  1
  O  O45  1  0.509153  0.924346  0.999994  1
  O  O46  1  0.542071  0.558277  0.500000  1
  O  O47  1  0.545973  0.337829  0.500001  1
  O  O48  1  0.601232  0.836735  0.500000  1
  O  O49  1  0.612805  0.740263  0.000001  1
  O  O50  1  0.658607  0.994768  0.499992  1
  O  O51  1  0.642464  0.216378  0.500001  1
  O  O52  1  0.696003  0.644274  0.000001  1
  O  O53  1  0.708342  0.409764  0.000005  1
  O  O54  1  0.792359  0.910103  0.000000  1
  O  O55  1  0.804264  0.144164  0.999999  1
  O  O56  1  0.857755  0.716541  0.500002  1
  O  O57  1  0.839855  0.493940  0.500003  1
  O  O58  1  0.887225  0.240261  0.000000  1
  O  O59  1  0.898672  0.337123  0.500001  1
  O  O60  1  0.954180  0.837968  0.500000  1
  O  O61  1  0.957946  0.058228  0.499999  1
