# generated using pymatgen
data_CoH5SeClO5
_symmetry_space_group_name_H-M   'P 1'
_cell_length_a   9.47725612
_cell_length_b   17.36121525
_cell_length_c   7.38482617
_cell_angle_alpha   90.00000000
_cell_angle_beta   90.00000000
_cell_angle_gamma   90.00000000
_symmetry_Int_Tables_number   1
_chemical_formula_structural   CoH5SeClO5
_chemical_formula_sum   'Co8 H40 Se8 Cl8 O40'
_cell_volume   1215.07480608
_cell_formula_units_Z   8
loop_
 _symmetry_equiv_pos_site_id
 _symmetry_equiv_pos_as_xyz
  1  'x, y, z'
loop_
 _atom_site_type_symbol
 _atom_site_label
 _atom_site_symmetry_multiplicity
 _atom_site_fract_x
 _atom_site_fract_y
 _atom_site_fract_z
 _atom_site_occupancy
  Co  Co0  1  0.000000  0.000000  0.000000  1
  Co  Co1  1  0.000000  0.500000  0.000000  1
  Co  Co2  1  0.151501  0.750000  0.936454  1
  Co  Co3  1  0.348499  0.250000  0.436454  1
  Co  Co4  1  0.500000  0.000000  0.500000  1
  Co  Co5  1  0.500000  0.500000  0.500000  1
  Co  Co6  1  0.651501  0.750000  0.563546  1
  Co  Co7  1  0.848499  0.250000  0.063546  1
  H  H8  1  0.045690  0.562900  0.602872  1
  H  H9  1  0.045690  0.937100  0.602872  1
  H  H10  1  0.085787  0.703066  0.598211  1
  H  H11  1  0.085787  0.796934  0.598211  1
  H  H12  1  0.153953  0.165518  0.261810  1
  H  H13  1  0.153953  0.334482  0.261810  1
  H  H14  1  0.201451  0.205903  0.735841  1
  H  H15  1  0.201451  0.294097  0.735841  1
  H  H16  1  0.233060  0.109338  0.397281  1
  H  H17  1  0.233060  0.390662  0.397281  1
  H  H18  1  0.266940  0.609338  0.897281  1
  H  H19  1  0.266940  0.890662  0.897281  1
  H  H20  1  0.298549  0.794097  0.235841  1
  H  H21  1  0.298549  0.705903  0.235841  1
  H  H22  1  0.346047  0.834483  0.761810  1
  H  H23  1  0.346047  0.665517  0.761810  1
  H  H24  1  0.414213  0.296934  0.098211  1
  H  H25  1  0.414213  0.203066  0.098211  1
  H  H26  1  0.454310  0.062900  0.102872  1
  H  H27  1  0.454310  0.437100  0.102872  1
  H  H28  1  0.545690  0.562900  0.897128  1
  H  H29  1  0.545690  0.937100  0.897128  1
  H  H30  1  0.585787  0.703066  0.901789  1
  H  H31  1  0.585787  0.796934  0.901789  1
  H  H32  1  0.653953  0.165518  0.238190  1
  H  H33  1  0.653953  0.334482  0.238190  1
  H  H34  1  0.701451  0.205903  0.764159  1
  H  H35  1  0.701451  0.294097  0.764159  1
  H  H36  1  0.733060  0.109338  0.102719  1
  H  H37  1  0.733060  0.390662  0.102719  1
  H  H38  1  0.766940  0.609338  0.602719  1
  H  H39  1  0.766940  0.890662  0.602719  1
  H  H40  1  0.798549  0.705903  0.264159  1
  H  H41  1  0.798549  0.794097  0.264159  1
  H  H42  1  0.846047  0.665517  0.738190  1
  H  H43  1  0.846047  0.834483  0.738190  1
  H  H44  1  0.914213  0.203066  0.401789  1
  H  H45  1  0.914213  0.296934  0.401789  1
  H  H46  1  0.954310  0.062900  0.397128  1
  H  H47  1  0.954310  0.437100  0.397128  1
  Se  Se48  1  0.184877  0.551377  0.342087  1
  Se  Se49  1  0.184877  0.948623  0.342087  1
  Se  Se50  1  0.315123  0.051377  0.842087  1
  Se  Se51  1  0.315123  0.448623  0.842087  1
  Se  Se52  1  0.684877  0.551377  0.157913  1
  Se  Se53  1  0.684877  0.948623  0.157913  1
  Se  Se54  1  0.815123  0.051377  0.657913  1
  Se  Se55  1  0.815123  0.448623  0.657913  1
  Cl  Cl56  1  0.024491  0.148850  0.978891  1
  Cl  Cl57  1  0.024491  0.351150  0.978891  1
  Cl  Cl58  1  0.475509  0.851150  0.478891  1
  Cl  Cl59  1  0.475509  0.648850  0.478891  1
  Cl  Cl60  1  0.524491  0.148850  0.521109  1
  Cl  Cl61  1  0.524491  0.351150  0.521109  1
  Cl  Cl62  1  0.975509  0.648850  0.021109  1
  Cl  Cl63  1  0.975509  0.851150  0.021109  1
  O  O64  1  0.043535  0.002934  0.270873  1
  O  O65  1  0.043535  0.497066  0.270873  1
  O  O66  1  0.083385  0.750000  0.673259  1
  O  O67  1  0.106699  0.600368  0.531235  1
  O  O68  1  0.106699  0.899632  0.531235  1
  O  O69  1  0.201008  0.163792  0.379856  1
  O  O70  1  0.201008  0.336208  0.379856  1
  O  O71  1  0.215375  0.518083  0.947473  1
  O  O72  1  0.215375  0.981917  0.947473  1
  O  O73  1  0.237773  0.750000  0.207760  1
  O  O74  1  0.262227  0.250000  0.707760  1
  O  O75  1  0.284625  0.018083  0.447473  1
  O  O76  1  0.284625  0.481917  0.447473  1
  O  O77  1  0.298992  0.836208  0.879857  1
  O  O78  1  0.298992  0.663792  0.879857  1
  O  O79  1  0.393301  0.100368  0.031235  1
  O  O80  1  0.393301  0.399632  0.031235  1
  O  O81  1  0.416615  0.250000  0.173259  1
  O  O82  1  0.456465  0.997066  0.770873  1
  O  O83  1  0.456465  0.502934  0.770873  1
  O  O84  1  0.543535  0.002934  0.229127  1
  O  O85  1  0.543535  0.497066  0.229127  1
  O  O86  1  0.583385  0.750000  0.826741  1
  O  O87  1  0.606699  0.600368  0.968765  1
  O  O88  1  0.606699  0.899632  0.968765  1
  O  O89  1  0.701008  0.163792  0.120144  1
  O  O90  1  0.701008  0.336208  0.120144  1
  O  O91  1  0.715375  0.518083  0.552527  1
  O  O92  1  0.715375  0.981917  0.552527  1
  O  O93  1  0.737773  0.750000  0.292240  1
  O  O94  1  0.762227  0.250000  0.792240  1
  O  O95  1  0.784625  0.018083  0.052527  1
  O  O96  1  0.784625  0.481917  0.052527  1
  O  O97  1  0.798992  0.663792  0.620143  1
  O  O98  1  0.798992  0.836208  0.620143  1
  O  O99  1  0.893301  0.100368  0.468765  1
  O  O100  1  0.893301  0.399632  0.468765  1
  O  O101  1  0.916615  0.250000  0.326741  1
  O  O102  1  0.956465  0.502934  0.729127  1
  O  O103  1  0.956465  0.997066  0.729127  1
