# generated using pymatgen
data_Li3Fe2(SiO4)2
_symmetry_space_group_name_H-M   'P 1'
_cell_length_a   6.18676291
_cell_length_b   11.08150924
_cell_length_c   5.06885157
_cell_angle_alpha   90.00000000
_cell_angle_beta   90.08529114
_cell_angle_gamma   90.00000000
_symmetry_Int_Tables_number   1
_chemical_formula_structural   Li3Fe2(SiO4)2
_chemical_formula_sum   'Li6 Fe4 Si4 O16'
_cell_volume   347.51333832
_cell_formula_units_Z   2
loop_
 _symmetry_equiv_pos_site_id
 _symmetry_equiv_pos_as_xyz
  1  'x, y, z'
loop_
 _atom_site_type_symbol
 _atom_site_label
 _atom_site_symmetry_multiplicity
 _atom_site_fract_x
 _atom_site_fract_y
 _atom_site_fract_z
 _atom_site_occupancy
  Li  Li0  1  0.010385  0.087634  0.680086  1
  Li  Li1  1  0.489615  0.587634  0.819914  1
  Li  Li2  1  0.496518  0.920753  0.331070  1
  Li  Li3  1  0.497868  0.414638  0.186318  1
  Li  Li4  1  0.003482  0.420753  0.168930  1
  Li  Li5  1  0.002132  0.914638  0.313682  1
  Fe  Fe6  1  0.267016  0.164529  0.161316  1
  Fe  Fe7  1  0.232984  0.664529  0.338684  1
  Fe  Fe8  1  0.751451  0.329036  0.680412  1
  Fe  Fe9  1  0.748549  0.829036  0.819588  1
  Si  Si10  1  0.253889  0.834074  0.835684  1
  Si  Si11  1  0.246111  0.334074  0.664316  1
  Si  Si12  1  0.743018  0.660885  0.320472  1
  Si  Si13  1  0.756982  0.160885  0.179528  1
  O  O14  1  0.025467  0.903619  0.723738  1
  O  O15  1  0.021524  0.401317  0.774485  1
  O  O16  1  0.248034  0.339367  0.340466  1
  O  O17  1  0.251966  0.839367  0.159534  1
  O  O18  1  0.256254  0.696220  0.725880  1
  O  O19  1  0.243746  0.196220  0.774120  1
  O  O20  1  0.478476  0.901317  0.725515  1
  O  O21  1  0.474533  0.403619  0.776262  1
  O  O22  1  0.526819  0.590738  0.211047  1
  O  O23  1  0.541513  0.086488  0.257735  1
  O  O24  1  0.726538  0.679177  0.645041  1
  O  O25  1  0.773462  0.179177  0.854959  1
  O  O26  1  0.748245  0.303462  0.302598  1
  O  O27  1  0.751755  0.803462  0.197402  1
  O  O28  1  0.958487  0.586488  0.242265  1
  O  O29  1  0.973181  0.090738  0.288953  1
