# generated using pymatgen
data_Li4Si2NiO7
_symmetry_space_group_name_H-M   'P 1'
_cell_length_a   4.50084904
_cell_length_b   5.34673292
_cell_length_c   6.76507130
_cell_angle_alpha   80.82214166
_cell_angle_beta   88.68670234
_cell_angle_gamma   64.64114816
_symmetry_Int_Tables_number   1
_chemical_formula_structural   Li4Si2NiO7
_chemical_formula_sum   'Li4 Si2 Ni1 O7'
_cell_volume   145.04192462
_cell_formula_units_Z   1
loop_
 _symmetry_equiv_pos_site_id
 _symmetry_equiv_pos_as_xyz
  1  'x, y, z'
loop_
 _atom_site_type_symbol
 _atom_site_label
 _atom_site_symmetry_multiplicity
 _atom_site_fract_x
 _atom_site_fract_y
 _atom_site_fract_z
 _atom_site_occupancy
  Li  Li0  1  0.166279  0.700943  0.438039  1
  Li  Li1  1  0.727208  0.564936  0.143584  1
  Li  Li2  1  0.297398  0.417850  0.853234  1
  Li  Li3  1  0.866245  0.293269  0.566921  1
  Si  Si4  1  0.561346  0.852501  0.708613  1
  Si  Si5  1  0.420255  0.147677  0.286383  1
  Ni  Ni6  1  0.015276  0.973921  0.006759  1
  O  O7  1  0.343232  0.894164  0.226327  1
  O  O8  1  0.857212  0.737792  0.883263  1
  O  O9  1  0.493954  0.596170  0.654624  1
  O  O10  1  0.092810  0.408371  0.340635  1
  O  O11  1  0.609511  0.256681  0.106077  1
  O  O12  1  0.225512  0.104628  0.776007  1
  O  O13  1  0.682350  0.002077  0.496718  1
