# generated using pymatgen
data_Na5GdO4
_symmetry_space_group_name_H-M   'P 1'
_cell_length_a   7.91711596
_cell_length_b   7.59843252
_cell_length_c   5.59570656
_cell_angle_alpha   90.00000000
_cell_angle_beta   90.00000000
_cell_angle_gamma   90.00000000
_symmetry_Int_Tables_number   1
_chemical_formula_structural   Na5GdO4
_chemical_formula_sum   'Na10 Gd2 O8'
_cell_volume   336.62467635
_cell_formula_units_Z   2
loop_
 _symmetry_equiv_pos_site_id
 _symmetry_equiv_pos_as_xyz
  1  'x, y, z'
loop_
 _atom_site_type_symbol
 _atom_site_label
 _atom_site_symmetry_multiplicity
 _atom_site_fract_x
 _atom_site_fract_y
 _atom_site_fract_z
 _atom_site_occupancy
  Na  Na0  1  0.057523  0.011145  0.744769  1
  Na  Na1  1  0.057523  0.488855  0.744769  1
  Na  Na2  1  0.250000  0.750000  0.204668  1
  Na  Na3  1  0.442477  0.488855  0.744769  1
  Na  Na4  1  0.442477  0.011145  0.744769  1
  Na  Na5  1  0.557523  0.511145  0.255231  1
  Na  Na6  1  0.557523  0.988855  0.255231  1
  Na  Na7  1  0.750000  0.250000  0.795332  1
  Na  Na8  1  0.942477  0.511145  0.255231  1
  Na  Na9  1  0.942477  0.988855  0.255231  1
  Gd  Gd10  1  0.250000  0.250000  0.220572  1
  Gd  Gd11  1  0.750000  0.750000  0.779428  1
  O  O12  1  0.015278  0.250000  0.011602  1
  O  O13  1  0.250000  0.489182  0.431248  1
  O  O14  1  0.250000  0.010818  0.431248  1
  O  O15  1  0.484722  0.250000  0.011602  1
  O  O16  1  0.515278  0.750000  0.988398  1
  O  O17  1  0.750000  0.510818  0.568752  1
  O  O18  1  0.750000  0.989182  0.568752  1
  O  O19  1  0.984722  0.750000  0.988398  1
