# generated using pymatgen
data_Sr2RhO4
_symmetry_space_group_name_H-M   'P 1'
_cell_length_a   5.49458117
_cell_length_b   13.71693377
_cell_length_c   5.49458117
_cell_angle_alpha   78.44639786
_cell_angle_beta   90.00000000
_cell_angle_gamma   101.55360214
_symmetry_Int_Tables_number   1
_chemical_formula_structural   Sr2RhO4
_chemical_formula_sum   'Sr8 Rh4 O16'
_cell_volume   397.16078293
_cell_formula_units_Z   4
loop_
 _symmetry_equiv_pos_site_id
 _symmetry_equiv_pos_as_xyz
  1  'x, y, z'
loop_
 _atom_site_type_symbol
 _atom_site_label
 _atom_site_symmetry_multiplicity
 _atom_site_fract_x
 _atom_site_fract_y
 _atom_site_fract_z
 _atom_site_occupancy
  Sr  Sr0  1  0.949791  0.399581  0.300209  1
  Sr  Sr1  1  0.800209  0.100418  0.449791  1
  Sr  Sr2  1  0.550209  0.600418  0.199791  1
  Sr  Sr3  1  0.699791  0.899582  0.050209  1
  Sr  Sr4  1  0.300209  0.100418  0.949791  1
  Sr  Sr5  1  0.449791  0.399581  0.800209  1
  Sr  Sr6  1  0.050209  0.600418  0.699791  1
  Sr  Sr7  1  0.199791  0.899582  0.550209  1
  Rh  Rh8  1  0.125000  0.750000  0.125000  1
  Rh  Rh9  1  0.375000  0.250000  0.375000  1
  Rh  Rh10  1  0.875000  0.250000  0.875000  1
  Rh  Rh11  1  0.625000  0.750000  0.625000  1
  O  O12  1  0.568455  0.250000  0.068455  1
  O  O13  1  0.068455  0.250000  0.181545  1
  O  O14  1  0.044958  0.589915  0.205042  1
  O  O15  1  0.205042  0.910085  0.044958  1
  O  O16  1  0.294958  0.089915  0.455042  1
  O  O17  1  0.455042  0.410085  0.294958  1
  O  O18  1  0.681545  0.250000  0.568455  1
  O  O19  1  0.818455  0.750000  0.318455  1
  O  O20  1  0.318455  0.750000  0.431545  1
  O  O21  1  0.181545  0.250000  0.681545  1
  O  O22  1  0.955042  0.410085  0.794958  1
  O  O23  1  0.544958  0.589915  0.705042  1
  O  O24  1  0.705042  0.910085  0.544958  1
  O  O25  1  0.794958  0.089915  0.955042  1
  O  O26  1  0.931545  0.750000  0.818455  1
  O  O27  1  0.431545  0.750000  0.931545  1
