# generated using pymatgen
data_Li3Fe4CoO8
_symmetry_space_group_name_H-M   'P 1'
_cell_length_a   6.02827357
_cell_length_b   6.02827355
_cell_length_c   6.01800477
_cell_angle_alpha   89.46887873
_cell_angle_beta   59.71586780
_cell_angle_gamma   59.61390558
_symmetry_Int_Tables_number   1
_chemical_formula_structural   Li3Fe4CoO8
_chemical_formula_sum   'Li3 Fe4 Co1 O8'
_cell_volume   153.78425484
_cell_formula_units_Z   1
loop_
 _symmetry_equiv_pos_site_id
 _symmetry_equiv_pos_as_xyz
  1  'x, y, z'
loop_
 _atom_site_type_symbol
 _atom_site_label
 _atom_site_symmetry_multiplicity
 _atom_site_fract_x
 _atom_site_fract_y
 _atom_site_fract_z
 _atom_site_occupancy
  Li  Li0  1  0.000000  0.000000  0.500000  1
  Li  Li1  1  0.500000  0.000000  0.500000  1
  Li  Li2  1  0.500000  0.500000  0.500000  1
  Fe  Fe3  1  0.000000  0.500000  0.500000  1
  Fe  Fe4  1  0.000000  0.000000  0.000000  1
  Fe  Fe5  1  0.500000  0.000000  0.000000  1
  Fe  Fe6  1  0.000000  0.500000  0.000000  1
  Co  Co7  1  0.500000  0.500000  0.000000  1
  O  O8  1  0.480269  0.254338  0.774069  1
  O  O9  1  0.999770  0.264029  0.751943  1
  O  O10  1  0.512087  0.751713  0.751943  1
  O  O11  1  0.991098  0.742336  0.751238  1
  O  O12  1  0.008902  0.257664  0.248762  1
  O  O13  1  0.487913  0.248287  0.248057  1
  O  O14  1  0.000230  0.735971  0.248057  1
  O  O15  1  0.519731  0.745662  0.225931  1
