# generated using pymatgen
data_Li2SbS2
_symmetry_space_group_name_H-M   'P 1'
_cell_length_a   12.57277150
_cell_length_b   8.68949855
_cell_length_c   7.61808680
_cell_angle_alpha   90.00000000
_cell_angle_beta   90.00000000
_cell_angle_gamma   90.00000000
_symmetry_Int_Tables_number   1
_chemical_formula_structural   Li2SbS2
_chemical_formula_sum   'Li16 Sb8 S16'
_cell_volume   832.28420829
_cell_formula_units_Z   8
loop_
 _symmetry_equiv_pos_site_id
 _symmetry_equiv_pos_as_xyz
  1  'x, y, z'
loop_
 _atom_site_type_symbol
 _atom_site_label
 _atom_site_symmetry_multiplicity
 _atom_site_fract_x
 _atom_site_fract_y
 _atom_site_fract_z
 _atom_site_occupancy
  Li  Li0  1  0.015991  0.943996  0.909378  1
  Li  Li1  1  0.143191  0.370865  0.185035  1
  Li  Li2  1  0.138422  0.651023  0.860936  1
  Li  Li3  1  0.108844  0.717232  0.435781  1
  Li  Li4  1  0.391156  0.282768  0.935781  1
  Li  Li5  1  0.361578  0.348977  0.360936  1
  Li  Li6  1  0.356809  0.629135  0.685035  1
  Li  Li7  1  0.484009  0.056004  0.409378  1
  Li  Li8  1  0.515991  0.556004  0.090622  1
  Li  Li9  1  0.643191  0.129135  0.814965  1
  Li  Li10  1  0.638422  0.848977  0.139064  1
  Li  Li11  1  0.608844  0.782768  0.564219  1
  Li  Li12  1  0.891156  0.217232  0.064219  1
  Li  Li13  1  0.861578  0.151023  0.639064  1
  Li  Li14  1  0.856809  0.870865  0.314965  1
  Li  Li15  1  0.984009  0.443996  0.590622  1
  Sb  Sb16  1  0.118671  0.058338  0.427465  1
  Sb  Sb17  1  0.201656  0.243295  0.708361  1
  Sb  Sb18  1  0.298344  0.756705  0.208361  1
  Sb  Sb19  1  0.381329  0.941662  0.927465  1
  Sb  Sb20  1  0.618671  0.441662  0.572535  1
  Sb  Sb21  1  0.701656  0.256705  0.291639  1
  Sb  Sb22  1  0.798344  0.743295  0.791639  1
  Sb  Sb23  1  0.881329  0.558338  0.072535  1
  S  S24  1  0.029572  0.740131  0.142357  1
  S  S25  1  0.026907  0.274469  0.846272  1
  S  S26  1  0.204997  0.482222  0.525764  1
  S  S27  1  0.259188  0.138682  0.226104  1
  S  S28  1  0.240812  0.861318  0.726104  1
  S  S29  1  0.295003  0.517778  0.025764  1
  S  S30  1  0.473093  0.725531  0.346272  1
  S  S31  1  0.470428  0.259869  0.642357  1
  S  S32  1  0.529572  0.759869  0.857643  1
  S  S33  1  0.526907  0.225532  0.153728  1
  S  S34  1  0.704997  0.017778  0.474236  1
  S  S35  1  0.759188  0.361318  0.773896  1
  S  S36  1  0.740812  0.638682  0.273896  1
  S  S37  1  0.795003  0.982222  0.974236  1
  S  S38  1  0.973093  0.774469  0.653728  1
  S  S39  1  0.970428  0.240131  0.357643  1
