# generated using pymatgen
data_Li2MnCSO7
_symmetry_space_group_name_H-M   'P 1'
_cell_length_a   8.91166329
_cell_length_b   6.55214972
_cell_length_c   5.01177675
_cell_angle_alpha   90.00000000
_cell_angle_beta   87.39875879
_cell_angle_gamma   90.00000000
_symmetry_Int_Tables_number   1
_chemical_formula_structural   Li2MnCSO7
_chemical_formula_sum   'Li4 Mn2 C2 S2 O14'
_cell_volume   292.33887120
_cell_formula_units_Z   2
loop_
 _symmetry_equiv_pos_site_id
 _symmetry_equiv_pos_as_xyz
  1  'x, y, z'
loop_
 _atom_site_type_symbol
 _atom_site_label
 _atom_site_symmetry_multiplicity
 _atom_site_fract_x
 _atom_site_fract_y
 _atom_site_fract_z
 _atom_site_occupancy
  Li  Li0  1  0.181825  0.523811  0.226132  1
  Li  Li1  1  0.181825  0.976189  0.226132  1
  Li  Li2  1  0.818175  0.476189  0.773868  1
  Li  Li3  1  0.818175  0.023811  0.773868  1
  Mn  Mn4  1  0.358661  0.750000  0.766976  1
  Mn  Mn5  1  0.641339  0.250000  0.233024  1
  C  C6  1  0.061605  0.750000  0.735226  1
  C  C7  1  0.938395  0.250000  0.264774  1
  S  S8  1  0.416271  0.250000  0.719549  1
  S  S9  1  0.583729  0.750000  0.280451  1
  O  O10  1  0.081245  0.250000  0.284255  1
  O  O11  1  0.123451  0.750000  0.967679  1
  O  O12  1  0.154735  0.750000  0.523924  1
  O  O13  1  0.335387  0.068314  0.827897  1
  O  O14  1  0.335387  0.431686  0.827897  1
  O  O15  1  0.423526  0.750000  0.200697  1
  O  O16  1  0.418240  0.250000  0.420686  1
  O  O17  1  0.581760  0.750000  0.579314  1
  O  O18  1  0.576474  0.250000  0.799303  1
  O  O19  1  0.664613  0.568314  0.172103  1
  O  O20  1  0.664613  0.931686  0.172103  1
  O  O21  1  0.845265  0.250000  0.476076  1
  O  O22  1  0.876549  0.250000  0.032321  1
  O  O23  1  0.918755  0.750000  0.715745  1
