# generated using pymatgen
data_Li4V3P8O29
_symmetry_space_group_name_H-M   'P 1'
_cell_length_a   9.78289130
_cell_length_b   9.80585232
_cell_length_c   13.97720110
_cell_angle_alpha   90.00207347
_cell_angle_beta   90.35102465
_cell_angle_gamma   59.91711422
_symmetry_Int_Tables_number   1
_chemical_formula_structural   Li4V3P8O29
_chemical_formula_sum   'Li8 V6 P16 O58'
_cell_volume   1160.19039596
_cell_formula_units_Z   2
loop_
 _symmetry_equiv_pos_site_id
 _symmetry_equiv_pos_as_xyz
  1  'x, y, z'
loop_
 _atom_site_type_symbol
 _atom_site_label
 _atom_site_symmetry_multiplicity
 _atom_site_fract_x
 _atom_site_fract_y
 _atom_site_fract_z
 _atom_site_occupancy
  Li  Li0  1  0.769378  0.907086  0.560824  1
  Li  Li1  1  0.769275  0.323543  0.060834  1
  Li  Li2  1  0.323078  0.902500  0.059224  1
  Li  Li3  1  0.681817  0.231225  0.439214  1
  Li  Li4  1  0.323121  0.774310  0.559266  1
  Li  Li5  1  0.682493  0.086585  0.939106  1
  Li  Li6  1  0.096645  0.674943  0.438659  1
  Li  Li7  1  0.096479  0.228646  0.938772  1
  V  V8  1  0.567295  0.433284  0.248796  1
  V  V9  1  0.428701  0.565476  0.756048  1
  V  V10  1  0.567199  0.999391  0.748706  1
  V  V11  1  0.428788  0.005732  0.256017  1
  V  V12  1  0.995425  0.567528  0.245013  1
  V  V13  1  0.995353  0.437087  0.744924  1
  P  P14  1  0.916437  0.769503  0.844897  1
  P  P15  1  0.770991  0.912066  0.340427  1
  P  P16  1  0.916559  0.314050  0.345134  1
  P  P17  1  0.661963  0.668915  0.127668  1
  P  P18  1  0.661900  0.668998  0.627530  1
  P  P19  1  0.771053  0.316987  0.840393  1
  P  P20  1  0.680477  0.232310  0.656091  1
  P  P21  1  0.319127  0.912808  0.842112  1
  P  P22  1  0.680504  0.087212  0.156089  1
  P  P23  1  0.319090  0.768090  0.342087  1
  P  P24  1  0.228355  0.684414  0.158261  1
  P  P25  1  0.333741  0.336766  0.373275  1
  P  P26  1  0.333573  0.329595  0.873324  1
  P  P27  1  0.086154  0.684083  0.658481  1
  P  P28  1  0.228248  0.087167  0.658291  1
  P  P29  1  0.086156  0.229688  0.158633  1
  O  O30  1  0.000570  0.756773  0.566617  1
  O  O31  1  0.917913  0.744396  0.340019  1
  O  O32  1  0.752468  0.005050  0.065696  1
  O  O33  1  0.745846  0.914994  0.837654  1
  O  O34  1  0.908028  0.616922  0.820598  1
  O  O35  1  0.813691  0.668232  0.174024  1
  O  O36  1  0.908280  0.475058  0.320823  1
  O  O37  1  0.000444  0.242710  0.066808  1
  O  O38  1  0.917799  0.337868  0.840027  1
  O  O39  1  0.672754  0.813911  0.666310  1
  O  O40  1  0.618988  0.901743  0.323600  1
  O  O41  1  0.813638  0.517981  0.673925  1
  O  O42  1  0.667277  0.666348  0.021427  1
  O  O43  1  0.667085  0.666028  0.521334  1
  O  O44  1  0.672853  0.513211  0.166563  1
  O  O45  1  0.478854  0.899133  0.824848  1
  O  O46  1  0.512841  0.817612  0.168992  1
  O  O47  1  0.745980  0.339218  0.337884  1
  O  O48  1  0.791583  0.210261  0.749020  1
  O  O49  1  0.752241  0.242795  0.565666  1
  O  O50  1  0.759356  0.241281  0.930684  1
  O  O51  1  0.618855  0.479345  0.823626  1
  O  O52  1  0.512760  0.669529  0.669016  1
  O  O53  1  0.663643  0.252733  0.160291  1
  O  O54  1  0.478793  0.621818  0.324924  1
  O  O55  1  0.340174  0.915401  0.334280  1
  O  O56  1  0.791565  0.998292  0.249078  1
  O  O57  1  0.759251  0.999425  0.430709  1
  O  O58  1  0.235872  0.995770  0.572798  1
  O  O59  1  0.663684  0.083653  0.660271  1
  O  O60  1  0.520952  0.383523  0.679500  1
  O  O61  1  0.339998  0.744442  0.834308  1
  O  O62  1  0.487030  0.326771  0.333137  1
  O  O63  1  0.381632  0.523715  0.176315  1
  O  O64  1  0.235828  0.768217  0.072703  1
  O  O65  1  0.241868  0.761174  0.432969  1
  O  O66  1  0.203651  0.790037  0.253711  1
  O  O67  1  0.254444  0.662292  0.659917  1
  O  O68  1  0.486877  0.186127  0.833328  1
  O  O69  1  0.521073  0.095427  0.179416  1
  O  O70  1  0.332833  0.481365  0.826694  1
  O  O71  1  0.334626  0.333870  0.979504  1
  O  O72  1  0.335221  0.331523  0.479443  1
  O  O73  1  0.183846  0.486711  0.331330  1
  O  O74  1  0.381586  0.094585  0.676338  1
  O  O75  1  0.332852  0.185824  0.326685  1
  O  O76  1  0.085657  0.656250  0.165589  1
  O  O77  1  0.996463  0.793078  0.747124  1
  O  O78  1  0.004017  0.761670  0.931657  1
  O  O79  1  0.097724  0.521314  0.675894  1
  O  O80  1  0.183724  0.329660  0.831311  1
  O  O81  1  0.097746  0.380987  0.176010  1
  O  O82  1  0.254418  0.083281  0.159962  1
  O  O83  1  0.241971  0.997029  0.932997  1
  O  O84  1  0.203562  0.006399  0.753799  1
  O  O85  1  0.085686  0.258050  0.665531  1
  O  O86  1  0.004343  0.234322  0.431854  1
  O  O87  1  0.996628  0.210416  0.247359  1
