# generated using pymatgen
data_Li2MnH4(SO5)2
_symmetry_space_group_name_H-M   'P 1'
_cell_length_a   5.50395336
_cell_length_b   13.07321966
_cell_length_c   5.48463783
_cell_angle_alpha   90.00000000
_cell_angle_beta   100.78819240
_cell_angle_gamma   90.00000000
_symmetry_Int_Tables_number   1
_chemical_formula_structural   Li2MnH4(SO5)2
_chemical_formula_sum   'Li4 Mn2 H8 S4 O20'
_cell_volume   387.66878176
_cell_formula_units_Z   2
loop_
 _symmetry_equiv_pos_site_id
 _symmetry_equiv_pos_as_xyz
  1  'x, y, z'
loop_
 _atom_site_type_symbol
 _atom_site_label
 _atom_site_symmetry_multiplicity
 _atom_site_fract_x
 _atom_site_fract_y
 _atom_site_fract_z
 _atom_site_occupancy
  Li  Li0  1  0.403294  0.886874  0.729835  1
  Li  Li1  1  0.403294  0.613126  0.229835  1
  Li  Li2  1  0.596706  0.386874  0.770165  1
  Li  Li3  1  0.596706  0.113126  0.270165  1
  Mn  Mn4  1  0.000000  0.500000  0.500000  1
  Mn  Mn5  1  0.000000  0.000000  0.000000  1
  H  H6  1  0.108106  0.706665  0.477961  1
  H  H7  1  0.108106  0.793335  0.977961  1
  H  H8  1  0.328351  0.656631  0.667713  1
  H  H9  1  0.328351  0.843369  0.167713  1
  H  H10  1  0.671649  0.156632  0.832287  1
  H  H11  1  0.671649  0.343369  0.332287  1
  H  H12  1  0.891894  0.206665  0.022039  1
  H  H13  1  0.891894  0.293335  0.522039  1
  S  S14  1  0.241116  0.116345  0.553399  1
  S  S15  1  0.241116  0.383655  0.053399  1
  S  S16  1  0.758884  0.616345  0.946601  1
  S  S17  1  0.758884  0.883655  0.446601  1
  O  O18  1  0.997746  0.669946  0.982586  1
  O  O19  1  0.997746  0.830054  0.482586  1
  O  O20  1  0.255803  0.450797  0.832366  1
  O  O21  1  0.212255  0.643876  0.506693  1
  O  O22  1  0.272498  0.049777  0.781252  1
  O  O23  1  0.255803  0.049203  0.332366  1
  O  O24  1  0.212255  0.856124  0.006693  1
  O  O25  1  0.272498  0.450223  0.281252  1
  O  O26  1  0.457343  0.186686  0.575914  1
  O  O27  1  0.542657  0.686686  0.924086  1
  O  O28  1  0.457343  0.313314  0.075914  1
  O  O29  1  0.542657  0.813314  0.424086  1
  O  O30  1  0.727502  0.549777  0.718748  1
  O  O31  1  0.787745  0.143876  0.993307  1
  O  O32  1  0.744197  0.950797  0.667634  1
  O  O33  1  0.727502  0.950223  0.218748  1
  O  O34  1  0.787745  0.356124  0.493307  1
  O  O35  1  0.744197  0.549203  0.167634  1
  O  O36  1  0.002254  0.169946  0.517414  1
  O  O37  1  0.002254  0.330054  0.017414  1
