# generated using pymatgen
data_LiVCuO4
_symmetry_space_group_name_H-M   'P 1'
_cell_length_a   5.69600092
_cell_length_b   6.15768596
_cell_length_c   6.15257213
_cell_angle_alpha   54.60992637
_cell_angle_beta   62.70834574
_cell_angle_gamma   62.66202526
_symmetry_Int_Tables_number   1
_chemical_formula_structural   LiVCuO4
_chemical_formula_sum   'Li2 V2 Cu2 O8'
_cell_volume   150.64932008
_cell_formula_units_Z   2
loop_
 _symmetry_equiv_pos_site_id
 _symmetry_equiv_pos_as_xyz
  1  'x, y, z'
loop_
 _atom_site_type_symbol
 _atom_site_label
 _atom_site_symmetry_multiplicity
 _atom_site_fract_x
 _atom_site_fract_y
 _atom_site_fract_z
 _atom_site_occupancy
  Li  Li0  1  0.099963  0.148898  0.149222  1
  Li  Li1  1  0.900072  0.851105  0.850724  1
  V  V2  1  0.999672  0.500233  0.499586  1
  V  V3  1  0.499486  0.499721  0.500403  1
  Cu  Cu4  1  0.500004  -0.000001  0.500031  1
  Cu  Cu5  1  0.500063  0.500015  0.000013  1
  O  O6  1  0.242107  0.286227  0.287358  1
  O  O7  1  0.229489  0.291356  0.737127  1
  O  O8  1  0.230584  0.736594  0.291111  1
  O  O9  1  0.684053  0.286096  0.287526  1
  O  O10  1  0.316040  0.713845  0.712575  1
  O  O11  1  0.770810  0.708716  0.262820  1
  O  O12  1  0.769675  0.263408  0.708890  1
  O  O13  1  0.757984  0.713787  0.712612  1
