# generated using pymatgen
data_Li6V3P8O29
_symmetry_space_group_name_H-M   'P 1'
_cell_length_a   9.81972604
_cell_length_b   9.81010021
_cell_length_c   13.92662888
_cell_angle_alpha   90.05465963
_cell_angle_beta   90.12706950
_cell_angle_gamma   60.06412506
_symmetry_Int_Tables_number   1
_chemical_formula_structural   Li6V3P8O29
_chemical_formula_sum   'Li12 V6 P16 O58'
_cell_volume   1162.59550353
_cell_formula_units_Z   2
loop_
 _symmetry_equiv_pos_site_id
 _symmetry_equiv_pos_as_xyz
  1  'x, y, z'
loop_
 _atom_site_type_symbol
 _atom_site_label
 _atom_site_symmetry_multiplicity
 _atom_site_fract_x
 _atom_site_fract_y
 _atom_site_fract_z
 _atom_site_occupancy
  Li  Li0  1  0.910088  0.766483  0.060249  1
  Li  Li1  1  0.906186  0.319588  0.561679  1
  Li  Li2  1  0.663860  0.667104  0.884425  1
  Li  Li3  1  0.771413  0.326176  0.060290  1
  Li  Li4  1  0.328163  0.906777  0.061273  1
  Li  Li5  1  0.689783  0.223122  0.441692  1
  Li  Li6  1  0.317298  0.772240  0.562775  1
  Li  Li7  1  0.666921  0.098740  0.937776  1
  Li  Li8  1  0.334900  0.335168  0.614212  1
  Li  Li9  1  0.079206  0.696815  0.440042  1
  Li  Li10  1  0.224009  0.088420  0.439517  1
  Li  Li11  1  0.041462  0.985980  0.992365  1
  V  V12  1  0.566536  0.434035  0.248600  1
  V  V13  1  0.430629  0.564441  0.754108  1
  V  V14  1  0.567857  0.997854  0.745240  1
  V  V15  1  0.433410  0.999637  0.250358  1
  V  V16  1  0.999025  0.567154  0.248488  1
  V  V17  1  0.004153  0.432993  0.754718  1
  P  P18  1  0.910483  0.776013  0.842912  1
  P  P19  1  0.769190  0.914290  0.340441  1
  P  P20  1  0.912657  0.321236  0.343502  1
  P  P21  1  0.666599  0.666895  0.125205  1
  P  P22  1  0.666437  0.661430  0.628508  1
  P  P23  1  0.773663  0.316946  0.842177  1
  P  P24  1  0.677311  0.231056  0.656623  1
  P  P25  1  0.316780  0.910050  0.844697  1
  P  P26  1  0.683196  0.086819  0.155744  1
  P  P27  1  0.320929  0.765486  0.343828  1
  P  P28  1  0.224700  0.690675  0.158290  1
  P  P29  1  0.332404  0.334486  0.371487  1
  P  P30  1  0.337731  0.328561  0.873265  1
  P  P31  1  0.088929  0.680724  0.656412  1
  P  P32  1  0.229269  0.091300  0.658936  1
  P  P33  1  0.085070  0.224564  0.158549  1
  O  O34  1  0.001099  0.755334  0.566782  1
  O  O35  1  0.914212  0.747161  0.340741  1
  O  O36  1  0.768767  0.005534  0.064692  1
  O  O37  1  0.744543  0.922855  0.838625  1
  O  O38  1  0.892363  0.627234  0.831545  1
  O  O39  1  0.809879  0.680251  0.163682  1
  O  O40  1  0.900271  0.481579  0.321711  1
  O  O41  1  0.996024  0.206335  0.076634  1
  O  O42  1  0.917921  0.336843  0.840291  1
  O  O43  1  0.655201  0.814662  0.674786  1
  O  O44  1  0.617583  0.904689  0.321367  1
  O  O45  1  0.819983  0.518017  0.671475  1
  O  O46  1  0.667175  0.666015  0.016716  1
  O  O47  1  0.663105  0.661193  0.521874  1
  O  O48  1  0.679941  0.510251  0.163842  1
  O  O49  1  0.479066  0.899529  0.834374  1
  O  O50  1  0.510743  0.810637  0.163293  1
  O  O51  1  0.748086  0.337208  0.342001  1
  O  O52  1  0.784435  0.215362  0.748847  1
  O  O53  1  0.756650  0.247973  0.568956  1
  O  O54  1  0.769631  0.228782  0.930289  1
  O  O55  1  0.624674  0.481972  0.832396  1
  O  O56  1  0.520873  0.655926  0.671482  1
  O  O57  1  0.662451  0.255095  0.161272  1
  O  O58  1  0.481592  0.618368  0.321305  1
  O  O59  1  0.336065  0.914710  0.342369  1
  O  O60  1  0.795507  0.992663  0.244447  1
  O  O61  1  0.758089  0.010156  0.425698  1
  O  O62  1  0.247794  0.995595  0.570051  1
  O  O63  1  0.660520  0.084506  0.657558  1
  O  O64  1  0.511242  0.375845  0.671060  1
  O  O65  1  0.340140  0.744298  0.837479  1
  O  O66  1  0.485278  0.328948  0.332178  1
  O  O67  1  0.379685  0.535540  0.166949  1
  O  O68  1  0.207441  0.799042  0.077404  1
  O  O69  1  0.249885  0.749277  0.435574  1
  O  O70  1  0.203790  0.786247  0.257854  1
  O  O71  1  0.252696  0.667963  0.659695  1
  O  O72  1  0.484983  0.179105  0.830006  1
  O  O73  1  0.525800  0.094377  0.170448  1
  O  O74  1  0.340761  0.474373  0.827431  1
  O  O75  1  0.345452  0.326431  0.979603  1
  O  O76  1  0.332729  0.335957  0.479767  1
  O  O77  1  0.185044  0.487187  0.332157  1
  O  O78  1  0.370772  0.118618  0.673326  1
  O  O79  1  0.326211  0.185894  0.334594  1
  O  O80  1  0.082501  0.661505  0.160298  1
  O  O81  1  0.999801  0.786142  0.749469  1
  O  O82  1  0.992456  0.779732  0.932994  1
  O  O83  1  0.113777  0.512723  0.674160  1
  O  O84  1  0.185799  0.335911  0.829028  1
  O  O85  1  0.085052  0.379847  0.167256  1
  O  O86  1  0.256330  0.082340  0.162072  1
  O  O87  1  0.227587  0.991272  0.933856  1
  O  O88  1  0.213355  0.003565  0.751374  1
  O  O89  1  0.078240  0.253079  0.657067  1
  O  O90  1  0.000217  0.249275  0.435582  1
  O  O91  1  0.009118  0.204100  0.257726  1
