# generated using pymatgen
data_Na4Cr2P(CO4)4
_symmetry_space_group_name_H-M   'P 1'
_cell_length_a   9.87943014
_cell_length_b   9.70842356
_cell_length_c   9.87942978
_cell_angle_alpha   60.87332752
_cell_angle_beta   92.48548165
_cell_angle_gamma   60.87332985
_symmetry_Int_Tables_number   1
_chemical_formula_structural   Na4Cr2P(CO4)4
_chemical_formula_sum   'Na8 Cr4 P2 C8 O32'
_cell_volume   672.53307025
_cell_formula_units_Z   2
loop_
 _symmetry_equiv_pos_site_id
 _symmetry_equiv_pos_as_xyz
  1  'x, y, z'
loop_
 _atom_site_type_symbol
 _atom_site_label
 _atom_site_symmetry_multiplicity
 _atom_site_fract_x
 _atom_site_fract_y
 _atom_site_fract_z
 _atom_site_occupancy
  Na  Na0  1  0.084845  0.830310  0.834845  1
  Na  Na1  1  0.085101  0.250000  0.835101  1
  Na  Na2  1  0.335101  0.750000  0.585101  1
  Na  Na3  1  0.334845  0.330310  0.584845  1
  Na  Na4  1  0.665155  0.669690  0.415155  1
  Na  Na5  1  0.664899  0.250000  0.414899  1
  Na  Na6  1  0.914899  0.750000  0.164899  1
  Na  Na7  1  0.915155  0.169690  0.165155  1
  Cr  Cr8  1  0.000000  0.500000  0.000000  1
  Cr  Cr9  1  0.500000  0.000000  0.500000  1
  Cr  Cr10  1  0.500000  0.500000  0.000000  1
  Cr  Cr11  1  0.500000  0.000000  0.000000  1
  P  P12  1  0.125000  0.750000  0.375000  1
  P  P13  1  0.875000  0.250000  0.625000  1
  C  C14  1  0.361111  0.927799  0.780198  1
  C  C15  1  0.280198  0.427799  0.861111  1
  C  C16  1  0.711088  0.927799  0.792002  1
  C  C17  1  0.707998  0.572201  0.788912  1
  C  C18  1  0.292002  0.427799  0.211088  1
  C  C19  1  0.288912  0.072201  0.207998  1
  C  C20  1  0.719802  0.572201  0.138889  1
  C  C21  1  0.638889  0.072201  0.219802  1
  O  O22  1  0.355539  0.788958  0.893052  1
  O  O23  1  0.063272  0.881813  0.436414  1
  O  O24  1  0.365124  0.950167  0.640656  1
  O  O25  1  0.140656  0.450167  0.865124  1
  O  O26  1  0.684709  0.950167  0.909176  1
  O  O27  1  0.305094  0.550400  0.855458  1
  O  O28  1  0.054916  0.881813  0.181774  1
  O  O29  1  0.063586  0.618187  0.436728  1
  O  O30  1  0.405857  0.949600  0.355494  1
  O  O31  1  0.590824  0.549833  0.815291  1
  O  O32  1  0.393052  0.288958  0.855539  1
  O  O33  1  0.318226  0.618187  0.445084  1
  O  O34  1  0.855503  0.788958  0.817990  1
  O  O35  1  0.682010  0.711042  0.644497  1
  O  O36  1  0.355458  0.050400  0.805094  1
  O  O37  1  0.144506  0.550400  0.094143  1
  O  O38  1  0.855494  0.449600  0.905857  1
  O  O39  1  0.644542  0.949600  0.194906  1
  O  O40  1  0.317990  0.288958  0.355503  1
  O  O41  1  0.144497  0.211042  0.182010  1
  O  O42  1  0.681774  0.381813  0.554916  1
  O  O43  1  0.606948  0.711042  0.144461  1
  O  O44  1  0.409176  0.450167  0.184709  1
  O  O45  1  0.594143  0.050400  0.644506  1
  O  O46  1  0.936414  0.381813  0.563272  1
  O  O47  1  0.945084  0.118187  0.818226  1
  O  O48  1  0.694906  0.449600  0.144542  1
  O  O49  1  0.315291  0.049833  0.090824  1
  O  O50  1  0.859344  0.549833  0.134876  1
  O  O51  1  0.634876  0.049833  0.359344  1
  O  O52  1  0.936728  0.118187  0.563586  1
  O  O53  1  0.644461  0.211042  0.106948  1
