# generated using pymatgen
data_Li4Mn3Ni3(SbO8)2
_symmetry_space_group_name_H-M   'P 1'
_cell_length_a   5.92434952
_cell_length_b   5.89009511
_cell_length_c   9.60297825
_cell_angle_alpha   89.93473648
_cell_angle_beta   91.20662843
_cell_angle_gamma   119.86170009
_symmetry_Int_Tables_number   1
_chemical_formula_structural   Li4Mn3Ni3(SbO8)2
_chemical_formula_sum   'Li4 Mn3 Ni3 Sb2 O16'
_cell_volume   290.52369546
_cell_formula_units_Z   1
loop_
 _symmetry_equiv_pos_site_id
 _symmetry_equiv_pos_as_xyz
  1  'x, y, z'
loop_
 _atom_site_type_symbol
 _atom_site_label
 _atom_site_symmetry_multiplicity
 _atom_site_fract_x
 _atom_site_fract_y
 _atom_site_fract_z
 _atom_site_occupancy
  Li  Li0  1  0.320933  0.660489  0.898272  1
  Li  Li1  1  0.997983  0.999072  0.986688  1
  Li  Li2  1  0.003804  0.001819  0.493147  1
  Li  Li3  1  0.656729  0.328648  0.406311  1
  Mn  Mn4  1  0.171278  0.831509  0.213846  1
  Mn  Mn5  1  0.170730  0.339243  0.213436  1
  Mn  Mn6  1  0.343772  0.171649  0.715312  1
  Ni  Ni7  1  0.660267  0.830045  0.213745  1
  Ni  Ni8  1  0.831401  0.661522  0.712309  1
  Ni  Ni9  1  0.831371  0.169835  0.712361  1
  Sb  Sb10  1  0.342636  0.671047  0.490531  1
  Sb  Sb11  1  0.678230  0.338704  0.984457  1
  O  O12  1  0.179539  0.843669  0.596531  1
  O  O13  1  0.033406  0.518663  0.342011  1
  O  O14  1  0.310499  0.655694  0.109902  1
  O  O15  1  0.018060  0.008565  0.303761  1
  O  O16  1  0.015918  0.007939  0.800931  1
  O  O17  1  0.179212  0.335743  0.596548  1
  O  O18  1  0.468566  0.962135  0.343911  1
  O  O19  1  0.469341  0.507403  0.344518  1
  O  O20  1  0.337083  0.167012  0.100266  1
  O  O21  1  0.679745  0.840064  0.588755  1
  O  O22  1  0.501247  0.469695  0.846188  1
  O  O23  1  0.501054  0.031468  0.845945  1
  O  O24  1  0.650118  0.325069  0.609757  1
  O  O25  1  0.843386  0.673556  0.095668  1
  O  O26  1  0.961050  0.480594  0.847364  1
  O  O27  1  0.842642  0.169450  0.095369  1
