# generated using pymatgen
data_H21OsC9NO7
_symmetry_space_group_name_H-M   'P 1'
_cell_length_a   9.37846844
_cell_length_b   12.75175322
_cell_length_c   12.80334583
_cell_angle_alpha   90.00000000
_cell_angle_beta   97.28403942
_cell_angle_gamma   90.00000000
_symmetry_Int_Tables_number   1
_chemical_formula_structural   H21OsC9NO7
_chemical_formula_sum   'H84 Os4 C36 N4 O28'
_cell_volume   1518.81974641
_cell_formula_units_Z   4
loop_
 _symmetry_equiv_pos_site_id
 _symmetry_equiv_pos_as_xyz
  1  'x, y, z'
loop_
 _atom_site_type_symbol
 _atom_site_label
 _atom_site_symmetry_multiplicity
 _atom_site_fract_x
 _atom_site_fract_y
 _atom_site_fract_z
 _atom_site_occupancy
  H  H0  1  0.309563  0.716089  0.079958  1
  H  H1  1  0.809563  0.783911  0.579958  1
  H  H2  1  0.690437  0.283911  0.920042  1
  H  H3  1  0.190437  0.216089  0.420042  1
  H  H4  1  0.145878  0.642247  0.070870  1
  H  H5  1  0.645878  0.857753  0.570870  1
  H  H6  1  0.854122  0.357753  0.929130  1
  H  H7  1  0.354122  0.142247  0.429130  1
  H  H8  1  0.313852  0.577196  0.058633  1
  H  H9  1  0.813852  0.922804  0.558633  1
  H  H10  1  0.686148  0.422804  0.941367  1
  H  H11  1  0.186148  0.077196  0.441367  1
  H  H12  1  0.991079  0.815120  0.427840  1
  H  H13  1  0.491079  0.684880  0.927840  1
  H  H14  1  0.008921  0.184880  0.572160  1
  H  H15  1  0.508921  0.315120  0.072160  1
  H  H16  1  0.136202  0.905793  0.421073  1
  H  H17  1  0.636202  0.594207  0.921073  1
  H  H18  1  0.863798  0.094207  0.578927  1
  H  H19  1  0.363798  0.405793  0.078927  1
  H  H20  1  0.111446  0.845742  0.544459  1
  H  H21  1  0.611446  0.654258  0.044459  1
  H  H22  1  0.888554  0.154258  0.455541  1
  H  H23  1  0.388554  0.345742  0.955541  1
  H  H24  1  0.560866  0.582488  0.740936  1
  H  H25  1  0.060866  0.917512  0.240936  1
  H  H26  1  0.439134  0.417512  0.259064  1
  H  H27  1  0.939134  0.082488  0.759064  1
  H  H28  1  0.483312  0.693308  0.667175  1
  H  H29  1  0.983312  0.806692  0.167175  1
  H  H30  1  0.516688  0.306692  0.332825  1
  H  H31  1  0.016688  0.193308  0.832825  1
  H  H32  1  0.649303  0.639164  0.639175  1
  H  H33  1  0.149303  0.860836  0.139175  1
  H  H34  1  0.350697  0.360836  0.360825  1
  H  H35  1  0.850697  0.139164  0.860825  1
  H  H36  1  0.165132  0.551768  0.582369  1
  H  H37  1  0.665132  0.948232  0.082369  1
  H  H38  1  0.834868  0.448232  0.417631  1
  H  H39  1  0.334868  0.051768  0.917631  1
  H  H40  1  0.974786  0.552714  0.590677  1
  H  H41  1  0.474786  0.947286  0.090677  1
  H  H42  1  0.025214  0.447286  0.409323  1
  H  H43  1  0.525214  0.052714  0.909323  1
  H  H44  1  0.083053  0.659832  0.645246  1
  H  H45  1  0.583053  0.840168  0.145246  1
  H  H46  1  0.916947  0.340168  0.354754  1
  H  H47  1  0.416947  0.159832  0.854754  1
  H  H48  1  0.178994  0.381631  0.663493  1
  H  H49  1  0.678994  0.118369  0.163493  1
  H  H50  1  0.821006  0.618369  0.336507  1
  H  H51  1  0.321006  0.881631  0.836507  1
  H  H52  1  0.112280  0.362057  0.788457  1
  H  H53  1  0.612280  0.137943  0.288457  1
  H  H54  1  0.887720  0.637943  0.211543  1
  H  H55  1  0.387720  0.862057  0.711543  1
  H  H56  1  0.987845  0.384284  0.672599  1
  H  H57  1  0.487845  0.115716  0.172599  1
  H  H58  1  0.012155  0.615716  0.327401  1
  H  H59  1  0.512155  0.884284  0.827401  1
  H  H60  1  0.991608  0.632222  0.812640  1
  H  H61  1  0.491608  0.867778  0.312640  1
  H  H62  1  0.008392  0.367778  0.187360  1
  H  H63  1  0.508392  0.132222  0.687360  1
  H  H64  1  0.882035  0.525840  0.751811  1
  H  H65  1  0.382035  0.974160  0.251811  1
  H  H66  1  0.117965  0.474160  0.248189  1
  H  H67  1  0.617965  0.025840  0.748189  1
  H  H68  1  0.001935  0.504220  0.870273  1
  H  H69  1  0.501935  0.995780  0.370273  1
  H  H70  1  0.998065  0.495780  0.129727  1
  H  H71  1  0.498065  0.004220  0.629727  1
  H  H72  1  0.247420  0.632465  0.801424  1
  H  H73  1  0.747420  0.867535  0.301424  1
  H  H74  1  0.752580  0.367535  0.198576  1
  H  H75  1  0.252580  0.132465  0.698576  1
  H  H76  1  0.333834  0.514763  0.761740  1
  H  H77  1  0.833834  0.985237  0.261740  1
  H  H78  1  0.666166  0.485237  0.238260  1
  H  H79  1  0.166166  0.014763  0.738260  1
  H  H80  1  0.239489  0.514265  0.875486  1
  H  H81  1  0.739489  0.985735  0.375486  1
  H  H82  1  0.760511  0.485735  0.124514  1
  H  H83  1  0.260511  0.014265  0.624514  1
  Os  Os84  1  0.428429  0.606401  0.425248  1
  Os  Os85  1  0.928429  0.893599  0.925248  1
  Os  Os86  1  0.571571  0.393599  0.574752  1
  Os  Os87  1  0.071571  0.106401  0.074752  1
  C  C88  1  0.409509  0.641839  0.264177  1
  C  C89  1  0.909509  0.858161  0.764177  1
  C  C90  1  0.590491  0.358161  0.735823  1
  C  C91  1  0.090491  0.141839  0.235823  1
  C  C92  1  0.330371  0.748067  0.458780  1
  C  C93  1  0.830371  0.751933  0.958780  1
  C  C94  1  0.669629  0.251933  0.541220  1
  C  C95  1  0.169629  0.248067  0.041220  1
  C  C96  1  0.261497  0.640889  0.097554  1
  C  C97  1  0.761497  0.859111  0.597554  1
  C  C98  1  0.738503  0.359111  0.902446  1
  C  C99  1  0.238503  0.140889  0.402446  1
  C  C100  1  0.102377  0.834257  0.458808  1
  C  C101  1  0.602377  0.665743  0.958808  1
  C  C102  1  0.897623  0.165743  0.541192  1
  C  C103  1  0.397623  0.334257  0.041192  1
  C  C104  1  0.543349  0.619487  0.662546  1
  C  C105  1  0.043349  0.880513  0.162546  1
  C  C106  1  0.456651  0.380513  0.337454  1
  C  C107  1  0.956651  0.119487  0.837454  1
  C  C108  1  0.081138  0.575377  0.629619  1
  C  C109  1  0.581138  0.924623  0.129619  1
  C  C110  1  0.918862  0.424623  0.370381  1
  C  C111  1  0.418862  0.075378  0.870381  1
  C  C112  1  0.095474  0.402477  0.712431  1
  C  C113  1  0.595474  0.097523  0.212431  1
  C  C114  1  0.904526  0.597523  0.287569  1
  C  C115  1  0.404526  0.902477  0.787569  1
  C  C116  1  0.984973  0.548054  0.796293  1
  C  C117  1  0.484973  0.951946  0.296293  1
  C  C118  1  0.015027  0.451946  0.203707  1
  C  C119  1  0.515027  0.048054  0.703707  1
  C  C120  1  0.242625  0.546815  0.796669  1
  C  C121  1  0.742625  0.953185  0.296669  1
  C  C122  1  0.757375  0.453185  0.203331  1
  C  C123  1  0.257375  0.046815  0.703331  1
  N  N124  1  0.102736  0.518296  0.732934  1
  N  N125  1  0.602736  0.981704  0.232934  1
  N  N126  1  0.897264  0.481704  0.267066  1
  N  N127  1  0.397264  0.018296  0.767066  1
  O  O128  1  0.263255  0.538931  0.413379  1
  O  O129  1  0.763255  0.961069  0.913379  1
  O  O130  1  0.736745  0.461069  0.586621  1
  O  O131  1  0.236745  0.038931  0.086621  1
  O  O132  1  0.600402  0.662099  0.441269  1
  O  O133  1  0.100402  0.837901  0.941269  1
  O  O134  1  0.399598  0.337901  0.558731  1
  O  O135  1  0.899598  0.162099  0.058731  1
  O  O136  1  0.467071  0.549717  0.589332  1
  O  O137  1  0.967071  0.950283  0.089332  1
  O  O138  1  0.532929  0.450283  0.410668  1
  O  O139  1  0.032929  0.049717  0.910668  1
  O  O140  1  0.275952  0.622441  0.210349  1
  O  O141  1  0.775952  0.877559  0.710349  1
  O  O142  1  0.724048  0.377559  0.789651  1
  O  O143  1  0.224048  0.122441  0.289651  1
  O  O144  1  0.508409  0.672542  0.217268  1
  O  O145  1  0.008409  0.827458  0.717268  1
  O  O146  1  0.491591  0.327458  0.782732  1
  O  O147  1  0.991591  0.172542  0.282732  1
  O  O148  1  0.388907  0.825947  0.501607  1
  O  O149  1  0.888907  0.674053  0.001607  1
  O  O150  1  0.611093  0.174053  0.498393  1
  O  O151  1  0.111093  0.325947  0.998393  1
  O  O152  1  0.184109  0.744637  0.431435  1
  O  O153  1  0.684109  0.755363  0.931435  1
  O  O154  1  0.815891  0.255363  0.568565  1
  O  O155  1  0.315891  0.244637  0.068565  1
