# generated using pymatgen
data_Fe2OF3
_symmetry_space_group_name_H-M   'P 1'
_cell_length_a   9.30734220
_cell_length_b   5.76828019
_cell_length_c   5.76828019
_cell_angle_alpha   72.11552479
_cell_angle_beta   84.73166152
_cell_angle_gamma   84.73166152
_symmetry_Int_Tables_number   1
_chemical_formula_structural   Fe2OF3
_chemical_formula_sum   'Fe8 O4 F12'
_cell_volume   292.81192488
_cell_formula_units_Z   4
loop_
 _symmetry_equiv_pos_site_id
 _symmetry_equiv_pos_as_xyz
  1  'x, y, z'
loop_
 _atom_site_type_symbol
 _atom_site_label
 _atom_site_symmetry_multiplicity
 _atom_site_fract_x
 _atom_site_fract_y
 _atom_site_fract_z
 _atom_site_occupancy
  Fe  Fe0  1  0.623959  0.851756  0.899593  1
  Fe  Fe1  1  0.874332  0.626331  0.626323  1
  Fe  Fe2  1  0.500000  0.508304  0.491696  1
  Fe  Fe3  1  0.249188  0.775838  0.729580  1
  Fe  Fe4  1  0.750812  0.270420  0.224162  1
  Fe  Fe5  1  0.125668  0.373677  0.373669  1
  Fe  Fe6  1  0.376041  0.100407  0.148244  1
  Fe  Fe7  1  0.000000  0.965424  0.034576  1
  O  O8  1  0.754052  0.570274  0.922631  1
  O  O9  1  0.245948  0.077369  0.429726  1
  O  O10  1  0.500000  0.811461  0.188539  1
  O  O11  1  0.000000  0.670076  0.329924  1
  F  F12  1  0.500000  0.192668  0.807332  1
  F  F13  1  0.748909  0.951477  0.545790  1
  F  F14  1  0.229273  0.985773  0.970911  1
  F  F15  1  0.476803  0.734478  0.724365  1
  F  F16  1  0.726415  0.470425  0.479820  1
  F  F17  1  0.976560  0.226908  0.230540  1
  F  F18  1  0.273585  0.520180  0.529575  1
  F  F19  1  0.023440  0.769460  0.773092  1
  F  F20  1  0.523197  0.275635  0.265522  1
  F  F21  1  0.770727  0.029089  0.014227  1
  F  F22  1  0.000000  0.288360  0.711640  1
  F  F23  1  0.251091  0.454210  0.048523  1
