# generated using pymatgen
data_Li3Cu2(SO4)3
_symmetry_space_group_name_H-M   'P 1'
_cell_length_a   8.67724969
_cell_length_b   12.39155562
_cell_length_c   8.86443334
_cell_angle_alpha   90.00000000
_cell_angle_beta   90.00000000
_cell_angle_gamma   93.01162939
_symmetry_Int_Tables_number   1
_chemical_formula_structural   Li3Cu2(SO4)3
_chemical_formula_sum   'Li12 Cu8 S12 O48'
_cell_volume   951.82844932
_cell_formula_units_Z   4
loop_
 _symmetry_equiv_pos_site_id
 _symmetry_equiv_pos_as_xyz
  1  'x, y, z'
loop_
 _atom_site_type_symbol
 _atom_site_label
 _atom_site_symmetry_multiplicity
 _atom_site_fract_x
 _atom_site_fract_y
 _atom_site_fract_z
 _atom_site_occupancy
  Li  Li0  1  0.085606  0.689999  0.073566  1
  Li  Li1  1  0.044787  0.346151  0.514931  1
  Li  Li2  1  0.180941  0.173442  0.776112  1
  Li  Li3  1  0.319059  0.326558  0.276112  1
  Li  Li4  1  0.414394  0.810001  0.573566  1
  Li  Li5  1  0.455213  0.153849  0.014931  1
  Li  Li6  1  0.544787  0.846151  0.985069  1
  Li  Li7  1  0.585606  0.189999  0.426434  1
  Li  Li8  1  0.680941  0.673442  0.723888  1
  Li  Li9  1  0.819059  0.826558  0.223888  1
  Li  Li10  1  0.955213  0.653849  0.485069  1
  Li  Li11  1  0.914394  0.310001  0.926434  1
  Cu  Cu12  1  0.230543  0.914021  0.038944  1
  Cu  Cu13  1  0.269457  0.585979  0.538944  1
  Cu  Cu14  1  0.254527  0.398118  0.956398  1
  Cu  Cu15  1  0.245473  0.101882  0.456398  1
  Cu  Cu16  1  0.754527  0.898118  0.543602  1
  Cu  Cu17  1  0.745473  0.601882  0.043602  1
  Cu  Cu18  1  0.730543  0.414021  0.461056  1
  Cu  Cu19  1  0.769457  0.085979  0.961056  1
  S  S20  1  0.065364  0.494730  0.253800  1
  S  S21  1  0.116623  0.851322  0.369772  1
  S  S22  1  0.120137  0.160254  0.104790  1
  S  S23  1  0.383377  0.648678  0.869772  1
  S  S24  1  0.379863  0.339746  0.604790  1
  S  S25  1  0.434636  0.005270  0.753800  1
  S  S26  1  0.565364  0.994730  0.246200  1
  S  S27  1  0.620137  0.660254  0.395210  1
  S  S28  1  0.616623  0.351322  0.130228  1
  S  S29  1  0.879863  0.839746  0.895210  1
  S  S30  1  0.883377  0.148678  0.630228  1
  S  S31  1  0.934636  0.505270  0.746200  1
  O  O32  1  0.019099  0.445668  0.861888  1
  O  O33  1  0.031827  0.896898  0.888935  1
  O  O34  1  0.034165  0.592498  0.676146  1
  O  O35  1  0.042424  0.196539  0.591392  1
  O  O36  1  0.115160  0.577851  0.370949  1
  O  O37  1  0.133246  0.826123  0.202812  1
  O  O38  1  0.122191  0.968969  0.390339  1
  O  O39  1  0.115430  0.253936  0.993396  1
  O  O40  1  0.170269  0.201230  0.255828  1
  O  O41  1  0.205869  0.447693  0.188409  1
  O  O42  1  0.231885  0.797144  0.459816  1
  O  O43  1  0.268115  0.702856  0.959816  1
  O  O44  1  0.241394  0.089866  0.042218  1
  O  O45  1  0.258606  0.410134  0.542218  1
  O  O46  1  0.294131  0.052307  0.688409  1
  O  O47  1  0.329731  0.298770  0.755828  1
  O  O48  1  0.377809  0.531031  0.890339  1
  O  O49  1  0.384570  0.246064  0.493396  1
  O  O50  1  0.366754  0.673877  0.702812  1
  O  O51  1  0.384840  0.922149  0.870949  1
  O  O52  1  0.465835  0.907502  0.176146  1
  O  O53  1  0.468173  0.603102  0.388935  1
  O  O54  1  0.457576  0.303461  0.091392  1
  O  O55  1  0.480901  0.054332  0.361888  1
  O  O56  1  0.519099  0.945668  0.638112  1
  O  O57  1  0.542424  0.696539  0.908608  1
  O  O58  1  0.531827  0.396898  0.611065  1
  O  O59  1  0.534165  0.092498  0.823854  1
  O  O60  1  0.615160  0.077851  0.129051  1
  O  O61  1  0.633246  0.326123  0.297188  1
  O  O62  1  0.615430  0.753936  0.506604  1
  O  O63  1  0.622191  0.468969  0.109661  1
  O  O64  1  0.670269  0.701230  0.244172  1
  O  O65  1  0.705869  0.947693  0.311591  1
  O  O66  1  0.741394  0.589866  0.457782  1
  O  O67  1  0.758606  0.910134  0.957782  1
  O  O68  1  0.731885  0.297144  0.040184  1
  O  O69  1  0.768115  0.202856  0.540184  1
  O  O70  1  0.794131  0.552307  0.811591  1
  O  O71  1  0.829731  0.798770  0.744172  1
  O  O72  1  0.884570  0.746064  0.006604  1
  O  O73  1  0.877809  0.031031  0.609661  1
  O  O74  1  0.866754  0.173877  0.797188  1
  O  O75  1  0.884840  0.422149  0.629051  1
  O  O76  1  0.957576  0.803461  0.408608  1
  O  O77  1  0.965835  0.407502  0.323854  1
  O  O78  1  0.968173  0.103102  0.111065  1
  O  O79  1  0.980901  0.554332  0.138112  1
