# generated using pymatgen
data_LiMnSiO4
_symmetry_space_group_name_H-M   'P 1'
_cell_length_a   4.79483318
_cell_length_b   6.29146496
_cell_length_c   10.19406784
_cell_angle_alpha   90.00000000
_cell_angle_beta   90.00000000
_cell_angle_gamma   90.00000000
_symmetry_Int_Tables_number   1
_chemical_formula_structural   LiMnSiO4
_chemical_formula_sum   'Li4 Mn4 Si4 O16'
_cell_volume   307.51960175
_cell_formula_units_Z   4
loop_
 _symmetry_equiv_pos_site_id
 _symmetry_equiv_pos_as_xyz
  1  'x, y, z'
loop_
 _atom_site_type_symbol
 _atom_site_label
 _atom_site_symmetry_multiplicity
 _atom_site_fract_x
 _atom_site_fract_y
 _atom_site_fract_z
 _atom_site_occupancy
  Li  Li0  1  0.037609  0.003694  0.218339  1
  Li  Li1  1  0.462391  0.003694  0.718339  1
  Li  Li2  1  0.537609  0.503694  0.281661  1
  Li  Li3  1  0.962391  0.503694  0.781661  1
  Mn  Mn4  1  0.999668  0.256878  0.500386  1
  Mn  Mn5  1  0.500332  0.256878  0.000386  1
  Mn  Mn6  1  0.499668  0.756878  0.999614  1
  Mn  Mn7  1  0.000332  0.756878  0.499614  1
  Si  Si8  1  0.092498  0.506907  0.091078  1
  Si  Si9  1  0.407502  0.506907  0.591078  1
  Si  Si10  1  0.592498  0.006907  0.408922  1
  Si  Si11  1  0.907502  0.006907  0.908922  1
  O  O12  1  0.256909  0.506348  0.941477  1
  O  O13  1  0.241551  0.288675  0.148577  1
  O  O14  1  0.240231  0.726313  0.147450  1
  O  O15  1  0.257218  0.006886  0.407796  1
  O  O16  1  0.242782  0.006886  0.907796  1
  O  O17  1  0.259769  0.726313  0.647450  1
  O  O18  1  0.258449  0.288675  0.648577  1
  O  O19  1  0.243091  0.506348  0.441477  1
  O  O20  1  0.756909  0.006348  0.558523  1
  O  O21  1  0.741551  0.788675  0.351423  1
  O  O22  1  0.740231  0.226313  0.352550  1
  O  O23  1  0.757218  0.506886  0.092204  1
  O  O24  1  0.742782  0.506886  0.592204  1
  O  O25  1  0.759769  0.226313  0.852550  1
  O  O26  1  0.758449  0.788675  0.851423  1
  O  O27  1  0.743091  0.006348  0.058523  1
