# generated using pymatgen
data_Nb2PbO6
_symmetry_space_group_name_H-M   'P 1'
_cell_length_a   12.99899031
_cell_length_b   12.99899031
_cell_length_c   7.90381138
_cell_angle_alpha   90.00000000
_cell_angle_beta   90.00000000
_cell_angle_gamma   87.98981965
_symmetry_Int_Tables_number   1
_chemical_formula_structural   Nb2PbO6
_chemical_formula_sum   'Nb20 Pb10 O60'
_cell_volume   1334.71476464
_cell_formula_units_Z   10
loop_
 _symmetry_equiv_pos_site_id
 _symmetry_equiv_pos_as_xyz
  1  'x, y, z'
loop_
 _atom_site_type_symbol
 _atom_site_label
 _atom_site_symmetry_multiplicity
 _atom_site_fract_x
 _atom_site_fract_y
 _atom_site_fract_z
 _atom_site_occupancy
  Nb  Nb0  1  0.295747  0.933342  0.998423  1
  Nb  Nb1  1  0.295747  0.933342  0.501577  1
  Nb  Nb2  1  0.084707  0.716042  0.496032  1
  Nb  Nb3  1  0.084707  0.716042  0.003968  1
  Nb  Nb4  1  0.214577  0.434694  0.004015  1
  Nb  Nb5  1  0.214577  0.434694  0.495985  1
  Nb  Nb6  1  0.582053  0.794264  0.997652  1
  Nb  Nb7  1  0.582053  0.794264  0.502348  1
  Nb  Nb8  1  0.004348  0.004348  0.000000  1
  Nb  Nb9  1  0.503774  0.503774  0.000000  1
  Nb  Nb10  1  0.503774  0.503774  0.500000  1
  Nb  Nb11  1  0.004348  0.004348  0.500000  1
  Nb  Nb12  1  0.794264  0.582053  0.002348  1
  Nb  Nb13  1  0.794264  0.582053  0.497652  1
  Nb  Nb14  1  0.434694  0.214577  0.995985  1
  Nb  Nb15  1  0.434694  0.214577  0.504015  1
  Nb  Nb16  1  0.716042  0.084707  0.996032  1
  Nb  Nb17  1  0.716042  0.084707  0.503968  1
  Nb  Nb18  1  0.933342  0.295747  0.001577  1
  Nb  Nb19  1  0.933342  0.295747  0.498423  1
  Pb  Pb20  1  0.517133  0.008039  0.250000  1
  Pb  Pb21  1  0.377409  0.720170  0.250000  1
  Pb  Pb22  1  0.376363  0.719125  0.750000  1
  Pb  Pb23  1  0.858756  0.854875  0.750000  1
  Pb  Pb24  1  0.211774  0.206376  0.250000  1
  Pb  Pb25  1  0.206376  0.211774  0.750000  1
  Pb  Pb26  1  0.854875  0.858756  0.250000  1
  Pb  Pb27  1  0.719125  0.376363  0.250000  1
  Pb  Pb28  1  0.720170  0.377409  0.750000  1
  Pb  Pb29  1  0.008039  0.517133  0.750000  1
  O  O30  1  0.292723  0.908954  0.750000  1
  O  O31  1  0.291866  0.908122  0.250000  1
  O  O32  1  0.066085  0.695533  0.750000  1
  O  O33  1  0.071368  0.702567  0.250000  1
  O  O34  1  0.211569  0.774838  0.996188  1
  O  O35  1  0.211569  0.774838  0.503812  1
  O  O36  1  0.424001  0.843925  0.002560  1
  O  O37  1  0.424001  0.843925  0.497440  1
  O  O38  1  0.130977  0.559209  0.990987  1
  O  O39  1  0.130977  0.559209  0.509013  1
  O  O40  1  0.632571  0.924049  0.009131  1
  O  O41  1  0.632571  0.924049  0.490869  1
  O  O42  1  0.062076  0.349061  0.995716  1
  O  O43  1  0.062076  0.349061  0.504284  1
  O  O44  1  0.201859  0.401858  0.250000  1
  O  O45  1  0.199364  0.403020  0.750000  1
  O  O46  1  0.557787  0.783069  0.250000  1
  O  O47  1  0.560353  0.783351  0.750000  1
  O  O48  1  0.990555  0.148051  0.001137  1
  O  O49  1  0.990555  0.148051  0.498863  1
  O  O50  1  0.490449  0.651321  0.998838  1
  O  O51  1  0.490449  0.651321  0.501162  1
  O  O52  1  0.339561  0.495376  0.002321  1
  O  O53  1  0.339561  0.495376  0.497679  1
  O  O54  1  0.835973  0.986619  0.002488  1
  O  O55  1  0.835973  0.986619  0.497512  1
  O  O56  1  0.278260  0.278260  0.000000  1
  O  O57  1  0.712996  0.712996  0.000000  1
  O  O58  1  0.984933  0.982785  0.250000  1
  O  O59  1  0.278260  0.278260  0.500000  1
  O  O60  1  0.712996  0.712996  0.500000  1
  O  O61  1  0.982785  0.984933  0.750000  1
  O  O62  1  0.497445  0.496620  0.250000  1
  O  O63  1  0.496620  0.497445  0.750000  1
  O  O64  1  0.986619  0.835973  0.997512  1
  O  O65  1  0.986619  0.835973  0.502488  1
  O  O66  1  0.495376  0.339561  0.997679  1
  O  O67  1  0.495376  0.339561  0.502321  1
  O  O68  1  0.651321  0.490449  0.001162  1
  O  O69  1  0.651321  0.490449  0.498838  1
  O  O70  1  0.148051  0.990555  0.998863  1
  O  O71  1  0.148051  0.990555  0.501137  1
  O  O72  1  0.783351  0.560353  0.250000  1
  O  O73  1  0.783069  0.557787  0.750000  1
  O  O74  1  0.401858  0.201859  0.750000  1
  O  O75  1  0.403020  0.199364  0.250000  1
  O  O76  1  0.349061  0.062076  0.004284  1
  O  O77  1  0.349061  0.062076  0.495716  1
  O  O78  1  0.924049  0.632571  0.990869  1
  O  O79  1  0.924049  0.632571  0.509131  1
  O  O80  1  0.559209  0.130977  0.009013  1
  O  O81  1  0.559209  0.130977  0.490987  1
  O  O82  1  0.843925  0.424001  0.997440  1
  O  O83  1  0.843925  0.424001  0.502560  1
  O  O84  1  0.774838  0.211569  0.003812  1
  O  O85  1  0.774838  0.211569  0.496188  1
  O  O86  1  0.695533  0.066085  0.250000  1
  O  O87  1  0.702567  0.071368  0.750000  1
  O  O88  1  0.908954  0.292723  0.250000  1
  O  O89  1  0.908122  0.291866  0.750000  1
