# generated using pymatgen
data_Li2MnF4
_symmetry_space_group_name_H-M   'P 1'
_cell_length_a   9.18006640
_cell_length_b   10.36827825
_cell_length_c   3.00681554
_cell_angle_alpha   90.00000000
_cell_angle_beta   90.00000000
_cell_angle_gamma   90.00000000
_symmetry_Int_Tables_number   1
_chemical_formula_structural   Li2MnF4
_chemical_formula_sum   'Li8 Mn4 F16'
_cell_volume   286.19316157
_cell_formula_units_Z   4
loop_
 _symmetry_equiv_pos_site_id
 _symmetry_equiv_pos_as_xyz
  1  'x, y, z'
loop_
 _atom_site_type_symbol
 _atom_site_label
 _atom_site_symmetry_multiplicity
 _atom_site_fract_x
 _atom_site_fract_y
 _atom_site_fract_z
 _atom_site_occupancy
  Li  Li0  1  0.073446  0.613432  0.750000  1
  Li  Li1  1  0.065941  0.115994  0.750000  1
  Li  Li2  1  0.434059  0.615994  0.250000  1
  Li  Li3  1  0.426554  0.113432  0.250000  1
  Li  Li4  1  0.573446  0.886568  0.750000  1
  Li  Li5  1  0.565941  0.384006  0.750000  1
  Li  Li6  1  0.934059  0.884006  0.250000  1
  Li  Li7  1  0.926554  0.386568  0.250000  1
  Mn  Mn8  1  0.250256  0.345874  0.750000  1
  Mn  Mn9  1  0.249744  0.845874  0.250000  1
  Mn  Mn10  1  0.750256  0.154126  0.750000  1
  Mn  Mn11  1  0.749744  0.654126  0.250000  1
  F  F12  1  0.030121  0.721661  0.250000  1
  F  F13  1  0.096428  0.930273  0.750000  1
  F  F14  1  0.128120  0.460729  0.250000  1
  F  F15  1  0.214155  0.191250  0.250000  1
  F  F16  1  0.285845  0.691250  0.750000  1
  F  F17  1  0.371880  0.960729  0.750000  1
  F  F18  1  0.403572  0.430273  0.250000  1
  F  F19  1  0.469879  0.221661  0.750000  1
  F  F20  1  0.530121  0.778339  0.250000  1
  F  F21  1  0.596428  0.569727  0.750000  1
  F  F22  1  0.628120  0.039271  0.250000  1
  F  F23  1  0.714155  0.308749  0.250000  1
  F  F24  1  0.785845  0.808750  0.750000  1
  F  F25  1  0.871880  0.539271  0.750000  1
  F  F26  1  0.903572  0.069727  0.250000  1
  F  F27  1  0.969879  0.278339  0.750000  1
