# generated using pymatgen
data_GdIO
_symmetry_space_group_name_H-M   'P 1'
_cell_length_a   7.32754066
_cell_length_b   7.04113414
_cell_length_c   7.04113414
_cell_angle_alpha   110.00904027
_cell_angle_beta   71.57520170
_cell_angle_gamma   71.57520170
_symmetry_Int_Tables_number   1
_chemical_formula_structural   GdIO
_chemical_formula_sum   'Gd4 I4 O4'
_cell_volume   284.83978079
_cell_formula_units_Z   4
loop_
 _symmetry_equiv_pos_site_id
 _symmetry_equiv_pos_as_xyz
  1  'x, y, z'
loop_
 _atom_site_type_symbol
 _atom_site_label
 _atom_site_symmetry_multiplicity
 _atom_site_fract_x
 _atom_site_fract_y
 _atom_site_fract_z
 _atom_site_occupancy
  Gd  Gd0  1  0.250000  0.976533  0.023467  1
  Gd  Gd1  1  0.750000  0.726533  0.273467  1
  Gd  Gd2  1  0.250000  0.273467  0.726533  1
  Gd  Gd3  1  0.750000  0.023467  0.976533  1
  I  I4  1  0.500000  0.500000  0.000000  1
  I  I5  1  0.000000  0.500000  0.500000  1
  I  I6  1  0.500000  0.500000  0.500000  1
  I  I7  1  0.000000  0.000000  0.500000  1
  O  O8  1  0.481099  0.009451  0.759451  1
  O  O9  1  0.018901  0.240549  0.990549  1
  O  O10  1  0.981099  0.759451  0.009451  1
  O  O11  1  0.518901  0.990549  0.240549  1
