# generated using pymatgen
data_LiMnPO4
_symmetry_space_group_name_H-M   'P 1'
_cell_length_a   8.88510874
_cell_length_b   7.49297137
_cell_length_c   15.39780494
_cell_angle_alpha   90.00000000
_cell_angle_beta   90.94147320
_cell_angle_gamma   90.00000000
_symmetry_Int_Tables_number   1
_chemical_formula_structural   LiMnPO4
_chemical_formula_sum   'Li12 Mn12 P12 O48'
_cell_volume   1024.98379876
_cell_formula_units_Z   12
loop_
 _symmetry_equiv_pos_site_id
 _symmetry_equiv_pos_as_xyz
  1  'x, y, z'
loop_
 _atom_site_type_symbol
 _atom_site_label
 _atom_site_symmetry_multiplicity
 _atom_site_fract_x
 _atom_site_fract_y
 _atom_site_fract_z
 _atom_site_occupancy
  Li  Li0  1  0.223898  0.981610  0.928949  1
  Li  Li1  1  0.230490  0.019166  0.586568  1
  Li  Li2  1  0.239622  0.004987  0.237777  1
  Li  Li3  1  0.260378  0.504987  0.262223  1
  Li  Li4  1  0.269510  0.519166  0.913432  1
  Li  Li5  1  0.276102  0.481610  0.571051  1
  Li  Li6  1  0.723898  0.518390  0.428949  1
  Li  Li7  1  0.730490  0.480834  0.086568  1
  Li  Li8  1  0.739622  0.495013  0.737777  1
  Li  Li9  1  0.760378  0.995013  0.762223  1
  Li  Li10  1  0.769510  0.980834  0.413432  1
  Li  Li11  1  0.776102  0.018390  0.071051  1
  Mn  Mn12  1  0.060312  0.690840  0.408895  1
  Mn  Mn13  1  0.080934  0.803575  0.762810  1
  Mn  Mn14  1  0.096300  0.685867  0.082315  1
  Mn  Mn15  1  0.403700  0.185867  0.417685  1
  Mn  Mn16  1  0.419066  0.303575  0.737190  1
  Mn  Mn17  1  0.439688  0.190840  0.091105  1
  Mn  Mn18  1  0.560312  0.809160  0.908895  1
  Mn  Mn19  1  0.580934  0.696425  0.262810  1
  Mn  Mn20  1  0.596300  0.814133  0.582315  1
  Mn  Mn21  1  0.903700  0.314133  0.917685  1
  Mn  Mn22  1  0.919066  0.196425  0.237190  1
  Mn  Mn23  1  0.939688  0.309160  0.591105  1
  P  P24  1  0.056983  0.260003  0.408010  1
  P  P25  1  0.080653  0.228794  0.769889  1
  P  P26  1  0.111437  0.257051  0.074035  1
  P  P27  1  0.388563  0.757051  0.425965  1
  P  P28  1  0.419347  0.728794  0.730111  1
  P  P29  1  0.443017  0.760003  0.091990  1
  P  P30  1  0.556983  0.239997  0.908010  1
  P  P31  1  0.580653  0.271206  0.269889  1
  P  P32  1  0.611437  0.242949  0.574035  1
  P  P33  1  0.888563  0.742949  0.925965  1
  P  P34  1  0.919347  0.771206  0.230111  1
  P  P35  1  0.943017  0.739997  0.591990  1
  O  O36  1  0.965321  0.436892  0.399078  1
  O  O37  1  0.044414  0.888522  0.633388  1
  O  O38  1  0.090577  0.385324  0.836537  1
  O  O39  1  0.096276  0.217228  0.504309  1
  O  O40  1  0.051701  0.783954  0.958318  1
  O  O41  1  0.075209  0.763071  0.278615  1
  O  O42  1  0.116442  0.260127  0.175134  1
  O  O43  1  0.089605  0.054287  0.824805  1
  O  O44  1  0.166609  0.438814  0.037330  1
  O  O45  1  0.205357  0.232054  0.700552  1
  O  O46  1  0.225096  0.114172  0.041721  1
  O  O47  1  0.205762  0.275112  0.356000  1
  O  O48  1  0.294238  0.775112  0.144000  1
  O  O49  1  0.274904  0.614172  0.458279  1
  O  O50  1  0.294643  0.732054  0.799448  1
  O  O51  1  0.333391  0.938814  0.462670  1
  O  O52  1  0.410395  0.554287  0.675195  1
  O  O53  1  0.383558  0.760127  0.324866  1
  O  O54  1  0.424791  0.263071  0.221385  1
  O  O55  1  0.448299  0.283954  0.541682  1
  O  O56  1  0.403724  0.717228  0.995691  1
  O  O57  1  0.409423  0.885325  0.663463  1
  O  O58  1  0.455587  0.388522  0.866612  1
  O  O59  1  0.534679  0.936892  0.100922  1
  O  O60  1  0.465321  0.063108  0.899078  1
  O  O61  1  0.544413  0.611478  0.133388  1
  O  O62  1  0.590577  0.114676  0.336537  1
  O  O63  1  0.596276  0.282772  0.004309  1
  O  O64  1  0.551701  0.716046  0.458318  1
  O  O65  1  0.575209  0.736929  0.778615  1
  O  O66  1  0.616442  0.239873  0.675134  1
  O  O67  1  0.589605  0.445713  0.324805  1
  O  O68  1  0.666609  0.061186  0.537330  1
  O  O69  1  0.705357  0.267946  0.200552  1
  O  O70  1  0.725096  0.385828  0.541721  1
  O  O71  1  0.705762  0.224888  0.856000  1
  O  O72  1  0.794238  0.724888  0.644000  1
  O  O73  1  0.794643  0.767946  0.299448  1
  O  O74  1  0.774904  0.885828  0.958279  1
  O  O75  1  0.833391  0.561186  0.962670  1
  O  O76  1  0.910395  0.945713  0.175195  1
  O  O77  1  0.883558  0.739873  0.824866  1
  O  O78  1  0.924791  0.236929  0.721385  1
  O  O79  1  0.948299  0.216046  0.041682  1
  O  O80  1  0.903724  0.782772  0.495691  1
  O  O81  1  0.909423  0.614675  0.163463  1
  O  O82  1  0.955587  0.111478  0.366612  1
  O  O83  1  0.034679  0.563108  0.600922  1
