# generated using pymatgen
data_Li3V3P8O29
_symmetry_space_group_name_H-M   'P 1'
_cell_length_a   9.75596442
_cell_length_b   9.79483467
_cell_length_c   14.22140801
_cell_angle_alpha   90.08993909
_cell_angle_beta   90.05065756
_cell_angle_gamma   59.94783177
_symmetry_Int_Tables_number   1
_chemical_formula_structural   Li3V3P8O29
_chemical_formula_sum   'Li6 V6 P16 O58'
_cell_volume   1176.28204236
_cell_formula_units_Z   2
loop_
 _symmetry_equiv_pos_site_id
 _symmetry_equiv_pos_as_xyz
  1  'x, y, z'
loop_
 _atom_site_type_symbol
 _atom_site_label
 _atom_site_symmetry_multiplicity
 _atom_site_fract_x
 _atom_site_fract_y
 _atom_site_fract_z
 _atom_site_occupancy
  Li  Li0  1  0.773377  0.907651  0.558980  1
  Li  Li1  1  0.769481  0.323176  0.051561  1
  Li  Li2  1  0.696317  0.221517  0.443456  1
  Li  Li3  1  0.312696  0.774455  0.562253  1
  Li  Li4  1  0.223299  0.091404  0.444729  1
  Li  Li5  1  0.039545  0.946801  0.993339  1
  V  V6  1  0.561144  0.439550  0.248495  1
  V  V7  1  0.432246  0.563397  0.754310  1
  V  V8  1  0.563426  0.001926  0.760530  1
  V  V9  1  0.436092  0.998634  0.238682  1
  V  V10  1  0.998600  0.565954  0.249980  1
  V  V11  1  0.999704  0.436780  0.748992  1
  P  P12  1  0.920846  0.773986  0.843793  1
  P  P13  1  0.767806  0.912533  0.339442  1
  P  P14  1  0.913772  0.315132  0.343275  1
  P  P15  1  0.669969  0.661867  0.130426  1
  P  P16  1  0.661758  0.672771  0.633090  1
  P  P17  1  0.776164  0.313416  0.838588  1
  P  P18  1  0.680383  0.227093  0.659523  1
  P  P19  1  0.303216  0.915400  0.842071  1
  P  P20  1  0.694885  0.086617  0.157395  1
  P  P21  1  0.317974  0.775025  0.342091  1
  P  P22  1  0.218907  0.694412  0.161240  1
  P  P23  1  0.335218  0.328524  0.365445  1
  P  P24  1  0.330032  0.335333  0.870354  1
  P  P25  1  0.085285  0.687254  0.658411  1
  P  P26  1  0.230965  0.089361  0.660617  1
  P  P27  1  0.078869  0.228119  0.158272  1
  O  O28  1  0.993379  0.772935  0.573966  1
  O  O29  1  0.911994  0.744474  0.332979  1
  O  O30  1  0.790365  0.006244  0.073865  1
  O  O31  1  0.743633  0.908394  0.831513  1
  O  O32  1  0.924190  0.615048  0.831020  1
  O  O33  1  0.812118  0.667110  0.177225  1
  O  O34  1  0.907832  0.474201  0.324603  1
  O  O35  1  0.993790  0.216811  0.074923  1
  O  O36  1  0.914641  0.346221  0.828987  1
  O  O37  1  0.658912  0.822083  0.676455  1
  O  O38  1  0.615801  0.905945  0.317132  1
  O  O39  1  0.813295  0.529146  0.679652  1
  O  O40  1  0.672168  0.652733  0.026493  1
  O  O41  1  0.665781  0.674370  0.528532  1
  O  O42  1  0.673843  0.509316  0.172970  1
  O  O43  1  0.461441  0.919132  0.832921  1
  O  O44  1  0.516755  0.811320  0.171797  1
  O  O45  1  0.742285  0.341398  0.340189  1
  O  O46  1  0.792708  0.206397  0.748720  1
  O  O47  1  0.752388  0.233985  0.569056  1
  O  O48  1  0.778731  0.235725  0.928525  1
  O  O49  1  0.617888  0.473037  0.823782  1
  O  O50  1  0.513023  0.667614  0.671533  1
  O  O51  1  0.656214  0.262119  0.163887  1
  O  O52  1  0.478828  0.621863  0.318563  1
  O  O53  1  0.339075  0.921337  0.333487  1
  O  O54  1  0.788052  0.010827  0.255203  1
  O  O55  1  0.754750  0.996451  0.430147  1
  O  O56  1  0.242796  0.003955  0.570519  1
  O  O57  1  0.658437  0.080861  0.665645  1
  O  O58  1  0.521495  0.380492  0.680384  1
  O  O59  1  0.346074  0.740142  0.830201  1
  O  O60  1  0.484604  0.333262  0.323234  1
  O  O61  1  0.380498  0.535443  0.174639  1
  O  O62  1  0.208657  0.786210  0.077056  1
  O  O63  1  0.255721  0.762728  0.434692  1
  O  O64  1  0.202464  0.791708  0.256980  1
  O  O65  1  0.257024  0.659325  0.659888  1
  O  O66  1  0.483164  0.186888  0.827144  1
  O  O67  1  0.534753  0.085073  0.169196  1
  O  O68  1  0.330896  0.483874  0.825201  1
  O  O69  1  0.335739  0.335307  0.974129  1
  O  O70  1  0.341034  0.324935  0.469761  1
  O  O71  1  0.186065  0.473574  0.321039  1
  O  O72  1  0.383442  0.094456  0.681629  1
  O  O73  1  0.338376  0.179141  0.322560  1
  O  O74  1  0.085331  0.653599  0.170032  1
  O  O75  1  0.006340  0.791920  0.751472  1
  O  O76  1  0.992949  0.797412  0.928777  1
  O  O77  1  0.091958  0.527311  0.675522  1
  O  O78  1  0.186619  0.332976  0.823759  1
  O  O79  1  0.078852  0.385463  0.170883  1
  O  O80  1  0.254532  0.091084  0.165133  1
  O  O81  1  0.204146  0.991145  0.925533  1
  O  O82  1  0.207763  0.994829  0.745610  1
  O  O83  1  0.087776  0.258413  0.665776  1
  O  O84  1  0.004032  0.230713  0.428378  1
  O  O85  1  0.997716  0.207251  0.251659  1
