# generated using pymatgen
data_Mg17(SiO3)16
_symmetry_space_group_name_H-M   'P 1'
_cell_length_a   9.48811395
_cell_length_b   8.93334148
_cell_length_c   10.85969943
_cell_angle_alpha   90.00000000
_cell_angle_beta   89.28868344
_cell_angle_gamma   90.00000000
_symmetry_Int_Tables_number   1
_chemical_formula_structural   Mg17(SiO3)16
_chemical_formula_sum   'Mg17 Si16 O48'
_cell_volume   920.40329103
_cell_formula_units_Z   1
loop_
 _symmetry_equiv_pos_site_id
 _symmetry_equiv_pos_as_xyz
  1  'x, y, z'
loop_
 _atom_site_type_symbol
 _atom_site_label
 _atom_site_symmetry_multiplicity
 _atom_site_fract_x
 _atom_site_fract_y
 _atom_site_fract_z
 _atom_site_occupancy
  Mg  Mg0  1  0.011020  0.103018  0.878081  1
  Mg  Mg1  1  0.003336  0.738980  0.876509  1
  Mg  Mg2  1  0.000000  0.261919  0.625000  1
  Mg  Mg3  1  0.000000  0.895862  0.125000  1
  Mg  Mg4  1  0.000000  0.261736  0.125000  1
  Mg  Mg5  1  0.988980  0.103018  0.371919  1
  Mg  Mg6  1  0.996664  0.738980  0.373491  1
  Mg  Mg7  1  0.000000  0.895686  0.625000  1
  Mg  Mg8  1  0.500000  0.764666  0.625000  1
  Mg  Mg9  1  0.500000  0.130520  0.625000  1
  Mg  Mg10  1  0.500000  0.440742  0.625000  1
  Mg  Mg11  1  0.499383  0.609876  0.373350  1
  Mg  Mg12  1  0.500000  0.759492  0.125000  1
  Mg  Mg13  1  0.497983  0.251788  0.369244  1
  Mg  Mg14  1  0.500000  0.402743  0.125000  1
  Mg  Mg15  1  0.500617  0.609876  0.876650  1
  Mg  Mg16  1  0.502017  0.251788  0.880756  1
  Si  Si17  1  0.208838  0.589481  0.031942  1
  Si  Si18  1  0.206797  0.409512  0.281420  1
  Si  Si19  1  0.211732  0.412343  0.780361  1
  Si  Si20  1  0.206383  0.593291  0.530017  1
  Si  Si21  1  0.292566  0.091310  0.032830  1
  Si  Si22  1  0.268693  0.086688  0.517428  1
  Si  Si23  1  0.290649  0.912783  0.783168  1
  Si  Si24  1  0.285746  0.904096  0.275896  1
  Si  Si25  1  0.707434  0.091310  0.217170  1
  Si  Si26  1  0.714254  0.904096  0.974104  1
  Si  Si27  1  0.731307  0.086688  0.732572  1
  Si  Si28  1  0.709351  0.912783  0.466832  1
  Si  Si29  1  0.788268  0.412343  0.469639  1
  Si  Si30  1  0.793203  0.409512  0.968580  1
  Si  Si31  1  0.791162  0.589481  0.218058  1
  Si  Si32  1  0.793617  0.593291  0.719983  1
  O  O33  1  0.122850  0.744737  0.032767  1
  O  O34  1  0.118649  0.747635  0.529438  1
  O  O35  1  0.126447  0.255889  0.779588  1
  O  O36  1  0.119568  0.254073  0.283752  1
  O  O37  1  0.120022  0.096931  0.039519  1
  O  O38  1  0.114047  0.900322  0.282846  1
  O  O39  1  0.119457  0.903943  0.788120  1
  O  O40  1  0.100422  0.088252  0.532071  1
  O  O41  1  0.155547  0.482093  0.645246  1
  O  O42  1  0.152456  0.476049  0.144557  1
  O  O43  1  0.153156  0.523321  0.394619  1
  O  O44  1  0.155215  0.522588  0.894861  1
  O  O45  1  0.336025  0.018122  0.388330  1
  O  O46  1  0.345835  0.022526  0.895872  1
  O  O47  1  0.346201  0.973217  0.141477  1
  O  O48  1  0.337137  0.983496  0.638016  1
  O  O49  1  0.379701  0.409282  0.285543  1
  O  O50  1  0.385964  0.414131  0.785052  1
  O  O51  1  0.381741  0.595053  0.036497  1
  O  O52  1  0.379855  0.602087  0.536140  1
  O  O53  1  0.379246  0.247173  0.034604  1
  O  O54  1  0.362175  0.242988  0.526581  1
  O  O55  1  0.375028  0.750576  0.279596  1
  O  O56  1  0.382499  0.761080  0.779990  1
  O  O57  1  0.620754  0.247173  0.215396  1
  O  O58  1  0.617501  0.761080  0.470010  1
  O  O59  1  0.624972  0.750576  0.970404  1
  O  O60  1  0.637825  0.242988  0.723419  1
  O  O61  1  0.614036  0.414131  0.464948  1
  O  O62  1  0.620299  0.409282  0.964457  1
  O  O63  1  0.618259  0.595053  0.213503  1
  O  O64  1  0.620145  0.602087  0.713860  1
  O  O65  1  0.654165  0.022526  0.354128  1
  O  O66  1  0.663975  0.018122  0.861670  1
  O  O67  1  0.653799  0.973217  0.108523  1
  O  O68  1  0.662863  0.983496  0.611984  1
  O  O69  1  0.846844  0.523321  0.855381  1
  O  O70  1  0.844453  0.482093  0.604754  1
  O  O71  1  0.847544  0.476049  0.105443  1
  O  O72  1  0.844785  0.522588  0.355139  1
  O  O73  1  0.885953  0.900322  0.967154  1
  O  O74  1  0.879978  0.096931  0.210481  1
  O  O75  1  0.899578  0.088252  0.717929  1
  O  O76  1  0.880543  0.903943  0.461880  1
  O  O77  1  0.880432  0.254073  0.966248  1
  O  O78  1  0.873553  0.255889  0.470412  1
  O  O79  1  0.877150  0.744737  0.217233  1
  O  O80  1  0.881351  0.747635  0.720562  1
