# generated using pymatgen
data_Ba2Hf7O16
_symmetry_space_group_name_H-M   'P 1'
_cell_length_a   6.46740844
_cell_length_b   9.77802703
_cell_length_c   6.46740814
_cell_angle_alpha   109.31195405
_cell_angle_beta   59.99999338
_cell_angle_gamma   109.31195228
_symmetry_Int_Tables_number   1
_chemical_formula_structural   Ba2Hf7O16
_chemical_formula_sum   'Ba2 Hf7 O16'
_cell_volume   327.35231553
_cell_formula_units_Z   1
loop_
 _symmetry_equiv_pos_site_id
 _symmetry_equiv_pos_as_xyz
  1  'x, y, z'
loop_
 _atom_site_type_symbol
 _atom_site_label
 _atom_site_symmetry_multiplicity
 _atom_site_fract_x
 _atom_site_fract_y
 _atom_site_fract_z
 _atom_site_occupancy
  Ba  Ba0  1  0.333917  0.001751  0.333917  1
  Ba  Ba1  1  0.666083  0.998249  0.666083  1
  Hf  Hf2  1  0.000000  0.000000  0.000000  1
  Hf  Hf3  1  0.248216  0.650085  0.515911  1
  Hf  Hf4  1  0.114041  0.349915  0.751784  1
  Hf  Hf5  1  0.484089  0.349915  0.114041  1
  Hf  Hf6  1  0.515911  0.650085  0.885959  1
  Hf  Hf7  1  0.885959  0.650085  0.248216  1
  Hf  Hf8  1  0.751784  0.349915  0.484089  1
  O  O9  1  0.233204  0.699612  0.233204  1
  O  O10  1  0.215539  0.864014  0.687382  1
  O  O11  1  0.150282  0.412152  0.410815  1
  O  O12  1  0.148945  0.587848  0.849718  1
  O  O13  1  0.038908  0.135986  0.784461  1
  O  O14  1  0.312618  0.135986  0.038908  1
  O  O15  1  0.589185  0.587848  0.148945  1
  O  O16  1  0.433016  0.299048  0.433016  1
  O  O17  1  0.566984  0.700952  0.566984  1
  O  O18  1  0.410815  0.412152  0.851055  1
  O  O19  1  0.687382  0.864014  0.961092  1
  O  O20  1  0.961092  0.864014  0.215539  1
  O  O21  1  0.851055  0.412152  0.150282  1
  O  O22  1  0.849718  0.587848  0.589185  1
  O  O23  1  0.784461  0.135986  0.312618  1
  O  O24  1  0.766796  0.300388  0.766796  1
