# generated using pymatgen
data_Ca4I6O
_symmetry_space_group_name_H-M   'P 1'
_cell_length_a   10.28063360
_cell_length_b   10.28044959
_cell_length_c   7.78734783
_cell_angle_alpha   89.99937256
_cell_angle_beta   90.00031330
_cell_angle_gamma   119.99940998
_symmetry_Int_Tables_number   1
_chemical_formula_structural   Ca4I6O
_chemical_formula_sum   'Ca8 I12 O2'
_cell_volume   712.77880334
_cell_formula_units_Z   2
loop_
 _symmetry_equiv_pos_site_id
 _symmetry_equiv_pos_as_xyz
  1  'x, y, z'
loop_
 _atom_site_type_symbol
 _atom_site_label
 _atom_site_symmetry_multiplicity
 _atom_site_fract_x
 _atom_site_fract_y
 _atom_site_fract_z
 _atom_site_occupancy
  Ca  Ca0  1  0.210279  0.789723  0.016997  1
  Ca  Ca1  1  0.333314  0.666683  0.398393  1
  Ca  Ca2  1  0.210283  0.420577  0.017017  1
  Ca  Ca3  1  0.579416  0.789718  0.017020  1
  Ca  Ca4  1  0.420584  0.210302  0.517020  1
  Ca  Ca5  1  0.666686  0.333369  0.898393  1
  Ca  Ca6  1  0.789721  0.579444  0.516997  1
  Ca  Ca7  1  0.789717  0.210293  0.517017  1
  I  I8  1  0.135335  0.864675  0.386240  1
  I  I9  1  0.076294  0.538147  0.707808  1
  I  I10  1  0.135319  0.270635  0.386243  1
  I  I11  1  0.461856  0.923718  0.707803  1
  I  I12  1  0.461837  0.538163  0.707804  1
  I  I13  1  0.270642  0.135332  0.886241  1
  I  I14  1  0.729358  0.864690  0.386241  1
  I  I15  1  0.538144  0.461862  0.207803  1
  I  I16  1  0.538163  0.076326  0.207804  1
  I  I17  1  0.864665  0.729340  0.886240  1
  I  I18  1  0.923706  0.461853  0.207808  1
  I  I19  1  0.864681  0.135315  0.886243  1
  O  O20  1  0.333326  0.666680  0.109194  1
  O  O21  1  0.666674  0.333354  0.609194  1
