# generated using pymatgen
data_Li14V9(P2O7)8
_symmetry_space_group_name_H-M   'P 1'
_cell_length_a   10.87005716
_cell_length_b   9.76494458
_cell_length_c   12.98219736
_cell_angle_alpha   69.42382497
_cell_angle_beta   116.77764351
_cell_angle_gamma   107.91085067
_symmetry_Int_Tables_number   1
_chemical_formula_structural   Li14V9(P2O7)8
_chemical_formula_sum   'Li14 V9 P16 O56'
_cell_volume   1133.24738499
_cell_formula_units_Z   1
loop_
 _symmetry_equiv_pos_site_id
 _symmetry_equiv_pos_as_xyz
  1  'x, y, z'
loop_
 _atom_site_type_symbol
 _atom_site_label
 _atom_site_symmetry_multiplicity
 _atom_site_fract_x
 _atom_site_fract_y
 _atom_site_fract_z
 _atom_site_occupancy
  Li  Li0  1  0.019468  0.148421  0.889789  1
  Li  Li1  1  0.125545  0.930426  0.587816  1
  Li  Li2  1  0.371930  0.047665  0.911718  1
  Li  Li3  1  0.131657  0.426170  0.093034  1
  Li  Li4  1  0.374211  0.547563  0.410520  1
  Li  Li5  1  0.500428  0.367799  0.816841  1
  Li  Li6  1  0.490644  0.866189  0.321033  1
  Li  Li7  1  0.509356  0.133811  0.678967  1
  Li  Li8  1  0.499572  0.632201  0.183159  1
  Li  Li9  1  0.625789  0.452437  0.589480  1
  Li  Li10  1  0.868343  0.573830  0.906966  1
  Li  Li11  1  0.628070  0.952335  0.088282  1
  Li  Li12  1  0.874455  0.069574  0.412185  1
  Li  Li13  1  0.980532  0.851579  0.110211  1
  V  V14  1  0.227915  0.700269  0.923459  1
  V  V15  1  0.000000  0.500000  0.500000  1
  V  V16  1  0.267116  0.566683  0.705136  1
  V  V17  1  0.225303  0.198400  0.422751  1
  V  V18  1  0.743191  0.937294  0.802634  1
  V  V19  1  0.256809  0.062706  0.197366  1
  V  V20  1  0.774697  0.801600  0.577249  1
  V  V21  1  0.732884  0.433317  0.294864  1
  V  V22  1  0.772085  0.299731  0.076541  1
  P  P23  1  0.050879  0.971632  0.770415  1
  P  P24  1  0.302855  0.358263  0.989492  1
  P  P25  1  0.049455  0.470730  0.271516  1
  P  P26  1  0.462973  0.812188  0.864103  1
  P  P27  1  0.204876  0.232021  0.660434  1
  P  P28  1  0.294590  0.850728  0.486791  1
  P  P29  1  0.206715  0.727923  0.161355  1
  P  P30  1  0.538409  0.692965  0.635154  1
  P  P31  1  0.461591  0.307035  0.364846  1
  P  P32  1  0.793285  0.272077  0.838645  1
  P  P33  1  0.705410  0.149272  0.513209  1
  P  P34  1  0.795124  0.767979  0.339566  1
  P  P35  1  0.537027  0.187812  0.135897  1
  P  P36  1  0.950545  0.529270  0.728484  1
  P  P37  1  0.697145  0.641737  0.010508  1
  P  P38  1  0.949121  0.028368  0.229585  1
  O  O39  1  0.018449  0.595550  0.836299  1
  O  O40  1  0.190041  0.920777  0.856497  1
  O  O41  1  0.047831  0.549116  0.666132  1
  O  O42  1  0.094491  0.152331  0.726601  1
  O  O43  1  0.312712  0.750228  0.785774  1
  O  O44  1  0.454942  0.843284  0.970535  1
  O  O45  1  0.198501  0.702035  0.517142  1
  O  O46  1  0.271778  0.975576  0.519224  1
  O  O47  1  0.310274  0.400429  0.868229  1
  O  O48  1  0.182552  0.394009  0.610439  1
  O  O49  1  0.089442  0.650517  0.223466  1
  O  O50  1  0.015155  0.093146  0.338519  1
  O  O51  1  0.154620  0.153783  0.561175  1
  O  O52  1  0.302266  0.892865  0.365669  1
  O  O53  1  0.189229  0.421920  0.357666  1
  O  O54  1  0.180343  0.886575  0.110907  1
  O  O55  1  0.539093  0.944193  0.797555  1
  O  O56  1  0.541991  0.674599  0.913350  1
  O  O57  1  0.352454  0.209725  0.751438  1
  O  O58  1  0.044471  0.041065  0.168925  1
  O  O59  1  0.159072  0.646727  0.064425  1
  O  O60  1  0.454176  0.826633  0.583834  1
  O  O61  1  0.465230  0.559045  0.703349  1
  O  O62  1  0.352801  0.702117  0.255064  1
  O  O63  1  0.716192  0.516717  0.975839  1
  O  O64  1  0.800168  0.785988  0.987156  1
  O  O65  1  0.311799  0.243505  0.286949  1
  O  O66  1  0.452593  0.339236  0.470639  1
  O  O67  1  0.547407  0.660764  0.529361  1
  O  O68  1  0.688201  0.756495  0.713051  1
  O  O69  1  0.199832  0.214012  0.012844  1
  O  O70  1  0.283808  0.483283  0.024161  1
  O  O71  1  0.647199  0.297883  0.744936  1
  O  O72  1  0.534770  0.440955  0.296651  1
  O  O73  1  0.545824  0.173367  0.416166  1
  O  O74  1  0.840928  0.353273  0.935575  1
  O  O75  1  0.955529  0.958935  0.831075  1
  O  O76  1  0.647546  0.790275  0.248562  1
  O  O77  1  0.458009  0.325401  0.086650  1
  O  O78  1  0.460907  0.055807  0.202445  1
  O  O79  1  0.819657  0.113425  0.889093  1
  O  O80  1  0.810771  0.578080  0.642334  1
  O  O81  1  0.697734  0.107135  0.634331  1
  O  O82  1  0.845380  0.846217  0.438825  1
  O  O83  1  0.984845  0.906854  0.661481  1
  O  O84  1  0.910558  0.349483  0.776534  1
  O  O85  1  0.817448  0.605991  0.389561  1
  O  O86  1  0.689726  0.599571  0.131771  1
  O  O87  1  0.728222  0.024424  0.480776  1
  O  O88  1  0.801499  0.297965  0.482858  1
  O  O89  1  0.545058  0.156716  0.029465  1
  O  O90  1  0.687288  0.249772  0.214226  1
  O  O91  1  0.905509  0.847669  0.273399  1
  O  O92  1  0.952169  0.450884  0.333868  1
  O  O93  1  0.809959  0.079223  0.143503  1
  O  O94  1  0.981551  0.404450  0.163701  1
