# generated using pymatgen
data_Li4Nb3V5O16
_symmetry_space_group_name_H-M   'P 1'
_cell_length_a   6.06277967
_cell_length_b   6.05487239
_cell_length_c   9.85537934
_cell_angle_alpha   90.00566737
_cell_angle_beta   88.83178017
_cell_angle_gamma   119.95844842
_symmetry_Int_Tables_number   1
_chemical_formula_structural   Li4Nb3V5O16
_chemical_formula_sum   'Li4 Nb3 V5 O16'
_cell_volume   313.35941282
_cell_formula_units_Z   1
loop_
 _symmetry_equiv_pos_site_id
 _symmetry_equiv_pos_as_xyz
  1  'x, y, z'
loop_
 _atom_site_type_symbol
 _atom_site_label
 _atom_site_symmetry_multiplicity
 _atom_site_fract_x
 _atom_site_fract_y
 _atom_site_fract_z
 _atom_site_occupancy
  Li  Li0  1  0.332983  0.666513  0.898292  1
  Li  Li1  1  0.016838  0.008431  0.994609  1
  Li  Li2  1  0.018159  0.009084  0.494593  1
  Li  Li3  1  0.669125  0.334603  0.386735  1
  Nb  Nb4  1  0.660992  0.830545  0.214905  1
  Nb  Nb5  1  0.821969  0.649009  0.713810  1
  Nb  Nb6  1  0.822010  0.173068  0.713804  1
  V  V7  1  0.169687  0.828460  0.213371  1
  V  V8  1  0.321219  0.660619  0.485505  1
  V  V9  1  0.169747  0.341186  0.213369  1
  V  V10  1  0.345438  0.172737  0.710954  1
  V  V11  1  0.658331  0.329182  0.993665  1
  O  O12  1  0.155119  0.823443  0.599480  1
  O  O13  1  0.036775  0.518387  0.334085  1
  O  O14  1  0.346703  0.673355  0.100416  1
  O  O15  1  0.993633  0.996779  0.312546  1
  O  O16  1  0.994849  0.997475  0.810783  1
  O  O17  1  0.155132  0.331714  0.599490  1
  O  O18  1  0.481212  0.958964  0.341060  1
  O  O19  1  0.481185  0.522249  0.341049  1
  O  O20  1  0.327515  0.163726  0.102816  1
  O  O21  1  0.672645  0.836336  0.601335  1
  O  O22  1  0.526140  0.489013  0.844342  1
  O  O23  1  0.526139  0.037178  0.844334  1
  O  O24  1  0.671692  0.335848  0.586914  1
  O  O25  1  0.830575  0.672078  0.102921  1
  O  O26  1  0.963500  0.481803  0.849732  1
  O  O27  1  0.830683  0.158517  0.102927  1
