# generated using pymatgen
data_Li2CuPO4
_symmetry_space_group_name_H-M   'P 1'
_cell_length_a   6.21914405
_cell_length_b   5.38536992
_cell_length_c   10.09405801
_cell_angle_alpha   90.13038317
_cell_angle_beta   90.36221198
_cell_angle_gamma   89.29135579
_symmetry_Int_Tables_number   1
_chemical_formula_structural   Li2CuPO4
_chemical_formula_sum   'Li8 Cu4 P4 O16'
_cell_volume   338.04071190
_cell_formula_units_Z   4
loop_
 _symmetry_equiv_pos_site_id
 _symmetry_equiv_pos_as_xyz
  1  'x, y, z'
loop_
 _atom_site_type_symbol
 _atom_site_label
 _atom_site_symmetry_multiplicity
 _atom_site_fract_x
 _atom_site_fract_y
 _atom_site_fract_z
 _atom_site_occupancy
  Li  Li0  1  0.999018  0.152125  0.747781  1
  Li  Li1  1  0.000183  0.158446  0.244824  1
  Li  Li2  1  0.250788  0.327631  0.498065  1
  Li  Li3  1  0.244366  0.329773  0.998336  1
  Li  Li4  1  0.258053  0.673877  0.244963  1
  Li  Li5  1  0.247546  0.669689  0.748829  1
  Li  Li6  1  0.499296  0.847233  0.996576  1
  Li  Li7  1  0.747127  0.677597  0.242099  1
  Cu  Cu8  1  0.508945  0.804957  0.500809  1
  Cu  Cu9  1  0.743807  0.656666  0.740078  1
  Cu  Cu10  1  0.741959  0.343717  0.503109  1
  Cu  Cu11  1  0.760757  0.335159  0.999388  1
  P  P12  1  0.005456  0.826436  0.002126  1
  P  P13  1  0.009436  0.831396  0.494436  1
  P  P14  1  0.495676  0.176877  0.246499  1
  P  P15  1  0.488728  0.172904  0.753647  1
  O  O16  1  0.006575  0.827562  0.648805  1
  O  O17  1  0.015050  0.102559  0.443179  1
  O  O18  1  0.005817  0.825573  0.156006  1
  O  O19  1  0.012554  0.096901  0.946748  1
  O  O20  1  0.208199  0.680098  0.442856  1
  O  O21  1  0.205196  0.682073  0.948322  1
  O  O22  1  0.292176  0.316418  0.192370  1
  O  O23  1  0.290150  0.317083  0.697530  1
  O  O24  1  0.487351  0.177495  0.907074  1
  O  O25  1  0.480406  0.897542  0.706149  1
  O  O26  1  0.488503  0.179809  0.400832  1
  O  O27  1  0.499550  0.904067  0.194718  1
  O  O28  1  0.705438  0.287247  0.704918  1
  O  O29  1  0.704862  0.314449  0.203636  1
  O  O30  1  0.806116  0.701553  0.434860  1
  O  O31  1  0.790917  0.705088  0.953023  1
