# generated using pymatgen
data_Hf2N2O
_symmetry_space_group_name_H-M   'P 1'
_cell_length_a   8.73547303
_cell_length_b   8.72904092
_cell_length_c   8.73374714
_cell_angle_alpha   109.58789192
_cell_angle_beta   109.44942915
_cell_angle_gamma   109.39341781
_symmetry_Int_Tables_number   1
_chemical_formula_structural   Hf2N2O
_chemical_formula_sum   'Hf16 N16 O8'
_cell_volume   512.55340494
_cell_formula_units_Z   8
loop_
 _symmetry_equiv_pos_site_id
 _symmetry_equiv_pos_as_xyz
  1  'x, y, z'
loop_
 _atom_site_type_symbol
 _atom_site_label
 _atom_site_symmetry_multiplicity
 _atom_site_fract_x
 _atom_site_fract_y
 _atom_site_fract_z
 _atom_site_occupancy
  Hf  Hf0  1  0.776437  0.245414  0.032097  1
  Hf  Hf1  1  0.989219  0.989880  0.996151  1
  Hf  Hf2  1  0.491495  0.994268  0.503171  1
  Hf  Hf3  1  0.491398  0.485970  0.989628  1
  Hf  Hf4  1  0.535475  0.285670  0.244324  1
  Hf  Hf5  1  0.962885  0.212491  0.750594  1
  Hf  Hf6  1  0.752099  0.462892  0.721716  1
  Hf  Hf7  1  0.757707  0.975882  0.211022  1
  Hf  Hf8  1  0.283955  0.254689  0.540746  1
  Hf  Hf9  1  0.713967  0.751698  0.468798  1
  Hf  Hf10  1  0.247016  0.032377  0.778392  1
  Hf  Hf11  1  0.263220  0.542298  0.290150  1
  Hf  Hf12  1  0.012033  0.499433  0.509077  1
  Hf  Hf13  1  0.041320  0.791388  0.249990  1
  Hf  Hf14  1  0.463545  0.713281  0.745581  1
  Hf  Hf15  1  0.206122  0.741311  0.959017  1
  N  N16  1  0.762083  0.229251  0.277480  1
  N  N17  1  0.456150  0.488275  0.228147  1
  N  N18  1  0.727732  0.237907  0.771287  1
  N  N19  1  0.032637  0.044176  0.271449  1
  N  N20  1  0.964388  0.953151  0.727604  1
  N  N21  1  0.224249  0.454080  0.483157  1
  N  N22  1  0.532505  0.260197  0.988573  1
  N  N23  1  0.274508  0.762320  0.227120  1
  N  N24  1  0.957073  0.729614  0.963958  1
  N  N25  1  0.546399  0.511076  0.773936  1
  N  N26  1  0.516227  0.777322  0.547913  1
  N  N27  1  0.226186  0.277101  0.763255  1
  N  N28  1  0.728355  0.967904  0.954868  1
  N  N29  1  0.011207  0.464315  0.735985  1
  N  N30  1  0.263772  0.990691  0.534028  1
  N  N31  1  0.239896  0.773720  0.732129  1
  O  O32  1  0.739324  0.007483  0.463211  1
  O  O33  1  0.275427  0.039756  0.053285  1
  O  O34  1  0.982857  0.534222  0.257142  1
  O  O35  1  0.774349  0.729332  0.242581  1
  O  O36  1  0.490799  0.227436  0.451136  1
  O  O37  1  0.046374  0.276425  0.035125  1
  O  O38  1  0.768737  0.543760  0.509039  1
  O  O39  1  0.470872  0.741543  0.017139  1
