# generated using pymatgen
data_Na4Ti5Mn4O18
_symmetry_space_group_name_H-M   'P 1'
_cell_length_a   9.42692261
_cell_length_b   26.49639471
_cell_length_c   2.94337450
_cell_angle_alpha   90.00000000
_cell_angle_beta   90.00000000
_cell_angle_gamma   90.00000000
_symmetry_Int_Tables_number   1
_chemical_formula_structural   Na4Ti5Mn4O18
_chemical_formula_sum   'Na8 Ti10 Mn8 O36'
_cell_volume   735.19450018
_cell_formula_units_Z   2
loop_
 _symmetry_equiv_pos_site_id
 _symmetry_equiv_pos_as_xyz
  1  'x, y, z'
loop_
 _atom_site_type_symbol
 _atom_site_label
 _atom_site_symmetry_multiplicity
 _atom_site_fract_x
 _atom_site_fract_y
 _atom_site_fract_z
 _atom_site_occupancy
  Na  Na0  1  0.170285  0.993290  0.000000  1
  Na  Na1  1  0.210425  0.202816  0.000000  1
  Na  Na2  1  0.289575  0.702816  0.000000  1
  Na  Na3  1  0.329715  0.493290  0.000000  1
  Na  Na4  1  0.670285  0.506710  0.000000  1
  Na  Na5  1  0.710425  0.297184  0.000000  1
  Na  Na6  1  0.789575  0.797184  0.000000  1
  Na  Na7  1  0.829715  0.006710  0.000000  1
  Ti  Ti8  1  0.000000  0.500000  0.000000  1
  Ti  Ti9  1  0.015132  0.104899  0.000000  1
  Ti  Ti10  1  0.137464  0.809178  0.500000  1
  Ti  Ti11  1  0.362536  0.309178  0.500000  1
  Ti  Ti12  1  0.484868  0.604899  0.000000  1
  Ti  Ti13  1  0.500000  0.000000  0.000000  1
  Ti  Ti14  1  0.515132  0.395101  0.000000  1
  Ti  Ti15  1  0.637464  0.690822  0.500000  1
  Ti  Ti16  1  0.862536  0.190822  0.500000  1
  Ti  Ti17  1  0.984868  0.895101  0.000000  1
  Mn  Mn18  1  0.028946  0.307248  0.000000  1
  Mn  Mn19  1  0.141398  0.590198  0.500000  1
  Mn  Mn20  1  0.358602  0.090198  0.500000  1
  Mn  Mn21  1  0.471054  0.807248  0.000000  1
  Mn  Mn22  1  0.528946  0.192752  0.000000  1
  Mn  Mn23  1  0.641398  0.909802  0.500000  1
  Mn  Mn24  1  0.858602  0.409802  0.500000  1
  Mn  Mn25  1  0.971054  0.692752  0.000000  1
  O  O26  1  0.988753  0.423837  0.000000  1
  O  O27  1  0.011247  0.576163  0.000000  1
  O  O28  1  0.026132  0.940068  0.500000  1
  O  O29  1  0.053159  0.157011  0.500000  1
  O  O30  1  0.090810  0.669585  0.500000  1
  O  O31  1  0.085755  0.765093  0.000000  1
  O  O32  1  0.139078  0.500888  0.500000  1
  O  O33  1  0.160301  0.287940  0.500000  1
  O  O34  1  0.169645  0.858995  0.000000  1
  O  O35  1  0.218566  0.091521  0.000000  1
  O  O36  1  0.281434  0.591521  0.000000  1
  O  O37  1  0.330355  0.358995  0.000000  1
  O  O38  1  0.339699  0.787940  0.500000  1
  O  O39  1  0.360922  0.000888  0.500000  1
  O  O40  1  0.414245  0.265093  0.000000  1
  O  O41  1  0.409190  0.169585  0.500000  1
  O  O42  1  0.446841  0.657011  0.500000  1
  O  O43  1  0.473868  0.440068  0.500000  1
  O  O44  1  0.488753  0.076163  0.000000  1
  O  O45  1  0.511247  0.923837  0.000000  1
  O  O46  1  0.526132  0.559932  0.500000  1
  O  O47  1  0.553159  0.342989  0.500000  1
  O  O48  1  0.590810  0.830415  0.500000  1
  O  O49  1  0.585755  0.734907  0.000000  1
  O  O50  1  0.639078  0.999112  0.500000  1
  O  O51  1  0.660301  0.212060  0.500000  1
  O  O52  1  0.669645  0.641005  0.000000  1
  O  O53  1  0.718566  0.408479  0.000000  1
  O  O54  1  0.781434  0.908479  0.000000  1
  O  O55  1  0.830355  0.141005  0.000000  1
  O  O56  1  0.839699  0.712060  0.500000  1
  O  O57  1  0.860922  0.499112  0.500000  1
  O  O58  1  0.914245  0.234907  0.000000  1
  O  O59  1  0.909190  0.330415  0.500000  1
  O  O60  1  0.946841  0.842989  0.500000  1
  O  O61  1  0.973868  0.059932  0.500000  1
