# generated using pymatgen
data_V2NiH6(NO3)2
_symmetry_space_group_name_H-M   'P 1'
_cell_length_a   5.65358447
_cell_length_b   11.13951973
_cell_length_c   12.29820750
_cell_angle_alpha   90.00000000
_cell_angle_beta   90.00000000
_cell_angle_gamma   90.00000000
_symmetry_Int_Tables_number   1
_chemical_formula_structural   V2NiH6(NO3)2
_chemical_formula_sum   'V8 Ni4 H24 N8 O24'
_cell_volume   774.51916526
_cell_formula_units_Z   4
loop_
 _symmetry_equiv_pos_site_id
 _symmetry_equiv_pos_as_xyz
  1  'x, y, z'
loop_
 _atom_site_type_symbol
 _atom_site_label
 _atom_site_symmetry_multiplicity
 _atom_site_fract_x
 _atom_site_fract_y
 _atom_site_fract_z
 _atom_site_occupancy
  V  V0  1  0.191076  0.532057  0.167157  1
  V  V1  1  0.191076  0.967943  0.167157  1
  V  V2  1  0.308924  0.467943  0.667157  1
  V  V3  1  0.308924  0.032057  0.667157  1
  V  V4  1  0.691076  0.532057  0.332843  1
  V  V5  1  0.691076  0.967943  0.332843  1
  V  V6  1  0.808924  0.032057  0.832843  1
  V  V7  1  0.808924  0.467943  0.832843  1
  Ni  Ni8  1  0.021235  0.250000  0.039365  1
  Ni  Ni9  1  0.478765  0.750000  0.539365  1
  Ni  Ni10  1  0.521235  0.250000  0.460635  1
  Ni  Ni11  1  0.978765  0.750000  0.960635  1
  H  H12  1  0.020829  0.750000  0.455451  1
  H  H13  1  0.064118  0.250000  0.392331  1
  H  H14  1  0.206152  0.676795  0.380732  1
  H  H15  1  0.206152  0.823205  0.380732  1
  H  H16  1  0.228855  0.177933  0.305475  1
  H  H17  1  0.228855  0.322067  0.305475  1
  H  H18  1  0.271145  0.822067  0.805475  1
  H  H19  1  0.271145  0.677933  0.805475  1
  H  H20  1  0.293848  0.323205  0.880732  1
  H  H21  1  0.293848  0.176795  0.880732  1
  H  H22  1  0.435882  0.750000  0.892331  1
  H  H23  1  0.479171  0.250000  0.955451  1
  H  H24  1  0.520829  0.750000  0.044549  1
  H  H25  1  0.564118  0.250000  0.107669  1
  H  H26  1  0.706152  0.676795  0.119268  1
  H  H27  1  0.706152  0.823205  0.119268  1
  H  H28  1  0.728855  0.177933  0.194525  1
  H  H29  1  0.728855  0.322067  0.194525  1
  H  H30  1  0.771145  0.677933  0.694525  1
  H  H31  1  0.771145  0.822067  0.694525  1
  H  H32  1  0.793848  0.176795  0.619268  1
  H  H33  1  0.793848  0.323205  0.619268  1
  H  H34  1  0.935882  0.750000  0.607669  1
  H  H35  1  0.979171  0.250000  0.544549  1
  N  N36  1  0.193142  0.750000  0.430399  1
  N  N37  1  0.227198  0.250000  0.356895  1
  N  N38  1  0.272802  0.750000  0.856895  1
  N  N39  1  0.306858  0.250000  0.930399  1
  N  N40  1  0.693142  0.750000  0.069601  1
  N  N41  1  0.727198  0.250000  0.143105  1
  N  N42  1  0.772802  0.750000  0.643105  1
  N  N43  1  0.806858  0.250000  0.569601  1
  O  O44  1  0.979084  0.566686  0.273757  1
  O  O45  1  0.979084  0.933314  0.273757  1
  O  O46  1  0.142051  0.619321  0.058993  1
  O  O47  1  0.142051  0.880679  0.058993  1
  O  O48  1  0.174312  0.114755  0.135430  1
  O  O49  1  0.174312  0.385245  0.135430  1
  O  O50  1  0.325688  0.614755  0.635430  1
  O  O51  1  0.325688  0.885245  0.635430  1
  O  O52  1  0.357949  0.119321  0.558993  1
  O  O53  1  0.357949  0.380679  0.558993  1
  O  O54  1  0.520916  0.066686  0.773757  1
  O  O55  1  0.520916  0.433314  0.773757  1
  O  O56  1  0.479084  0.566686  0.226243  1
  O  O57  1  0.479084  0.933314  0.226243  1
  O  O58  1  0.642051  0.619321  0.441007  1
  O  O59  1  0.642051  0.880679  0.441007  1
  O  O60  1  0.674312  0.114755  0.364570  1
  O  O61  1  0.674312  0.385245  0.364570  1
  O  O62  1  0.825688  0.614755  0.864570  1
  O  O63  1  0.825688  0.885245  0.864570  1
  O  O64  1  0.857949  0.119321  0.941007  1
  O  O65  1  0.857949  0.380679  0.941007  1
  O  O66  1  0.020916  0.066686  0.726243  1
  O  O67  1  0.020916  0.433314  0.726243  1
