# generated using pymatgen
data_Li4Cu5(P3O11)2
_symmetry_space_group_name_H-M   'P 1'
_cell_length_a   12.33552394
_cell_length_b   6.75908898
_cell_length_c   10.65132823
_cell_angle_alpha   90.00000000
_cell_angle_beta   105.46515563
_cell_angle_gamma   90.00000000
_symmetry_Int_Tables_number   1
_chemical_formula_structural   Li4Cu5(P3O11)2
_chemical_formula_sum   'Li8 Cu10 P12 O44'
_cell_volume   855.92006543
_cell_formula_units_Z   2
loop_
 _symmetry_equiv_pos_site_id
 _symmetry_equiv_pos_as_xyz
  1  'x, y, z'
loop_
 _atom_site_type_symbol
 _atom_site_label
 _atom_site_symmetry_multiplicity
 _atom_site_fract_x
 _atom_site_fract_y
 _atom_site_fract_z
 _atom_site_occupancy
  Li  Li0  1  0.183170  0.117942  0.552607  1
  Li  Li1  1  0.183170  0.382058  0.052607  1
  Li  Li2  1  0.336404  0.525241  0.877172  1
  Li  Li3  1  0.336404  0.974759  0.377172  1
  Li  Li4  1  0.663596  0.025241  0.622828  1
  Li  Li5  1  0.663596  0.474759  0.122828  1
  Li  Li6  1  0.816830  0.617942  0.947393  1
  Li  Li7  1  0.816830  0.882058  0.447393  1
  Cu  Cu8  1  0.000000  0.500000  0.500000  1
  Cu  Cu9  1  0.129387  0.759560  0.786269  1
  Cu  Cu10  1  0.000000  0.000000  0.000000  1
  Cu  Cu11  1  0.129387  0.740440  0.286269  1
  Cu  Cu12  1  0.338639  0.992354  0.799775  1
  Cu  Cu13  1  0.338639  0.507646  0.299775  1
  Cu  Cu14  1  0.661361  0.492354  0.700225  1
  Cu  Cu15  1  0.661361  0.007646  0.200225  1
  Cu  Cu16  1  0.870613  0.259560  0.713731  1
  Cu  Cu17  1  0.870613  0.240440  0.213731  1
  P  P18  1  0.094460  0.269474  0.771792  1
  P  P19  1  0.094460  0.230526  0.271792  1
  P  P20  1  0.257082  0.611802  0.569632  1
  P  P21  1  0.257082  0.888198  0.069632  1
  P  P22  1  0.418463  0.292873  0.579282  1
  P  P23  1  0.418463  0.207127  0.079282  1
  P  P24  1  0.581537  0.792873  0.920718  1
  P  P25  1  0.581537  0.707127  0.420718  1
  P  P26  1  0.742918  0.111802  0.930368  1
  P  P27  1  0.742918  0.388198  0.430368  1
  P  P28  1  0.905540  0.769474  0.728208  1
  P  P29  1  0.905540  0.730526  0.228208  1
  O  O30  1  0.008728  0.226852  0.854474  1
  O  O31  1  0.000906  0.309979  0.638018  1
  O  O32  1  0.008728  0.273148  0.354474  1
  O  O33  1  0.000906  0.190021  0.138018  1
  O  O34  1  0.170379  0.440283  0.836487  1
  O  O35  1  0.165585  0.093480  0.745177  1
  O  O36  1  0.169100  0.447654  0.546353  1
  O  O37  1  0.262999  0.781103  0.944297  1
  O  O38  1  0.170379  0.059717  0.336487  1
  O  O39  1  0.165585  0.406520  0.245177  1
  O  O40  1  0.244037  0.760387  0.674582  1
  O  O41  1  0.169100  0.052346  0.046353  1
  O  O42  1  0.262999  0.718897  0.444297  1
  O  O43  1  0.390327  0.206436  0.928912  1
  O  O44  1  0.244037  0.739613  0.174582  1
  O  O45  1  0.351297  0.124509  0.618710  1
  O  O46  1  0.376881  0.503438  0.628887  1
  O  O47  1  0.456450  0.783258  0.852238  1
  O  O48  1  0.390327  0.293564  0.428912  1
  O  O49  1  0.351297  0.375491  0.118710  1
  O  O50  1  0.376881  0.996562  0.128887  1
  O  O51  1  0.456450  0.716742  0.352238  1
  O  O52  1  0.543550  0.283258  0.647762  1
  O  O53  1  0.623119  0.003438  0.871113  1
  O  O54  1  0.648703  0.624509  0.881290  1
  O  O55  1  0.609673  0.706436  0.571088  1
  O  O56  1  0.543550  0.216742  0.147762  1
  O  O57  1  0.623119  0.496562  0.371113  1
  O  O58  1  0.648703  0.875491  0.381290  1
  O  O59  1  0.755963  0.260387  0.825418  1
  O  O60  1  0.609673  0.793564  0.071088  1
  O  O61  1  0.737001  0.281103  0.555703  1
  O  O62  1  0.830900  0.947654  0.953647  1
  O  O63  1  0.755963  0.239613  0.325418  1
  O  O64  1  0.834415  0.593480  0.754823  1
  O  O65  1  0.829621  0.940283  0.663513  1
  O  O66  1  0.737001  0.218897  0.055703  1
  O  O67  1  0.830900  0.552346  0.453647  1
  O  O68  1  0.834415  0.906520  0.254823  1
  O  O69  1  0.829621  0.559717  0.163513  1
  O  O70  1  0.999094  0.809979  0.861982  1
  O  O71  1  0.991272  0.726852  0.645526  1
  O  O72  1  0.999094  0.690021  0.361982  1
  O  O73  1  0.991272  0.773148  0.145526  1
