# generated using pymatgen
data_Li4Cr3CoO8
_symmetry_space_group_name_H-M   'P 1'
_cell_length_a   5.11141770
_cell_length_b   5.86052214
_cell_length_c   5.07330974
_cell_angle_alpha   90.00831443
_cell_angle_beta   80.47696089
_cell_angle_gamma   73.35607494
_symmetry_Int_Tables_number   1
_chemical_formula_structural   Li4Cr3CoO8
_chemical_formula_sum   'Li4 Cr3 Co1 O8'
_cell_volume   143.41832125
_cell_formula_units_Z   1
loop_
 _symmetry_equiv_pos_site_id
 _symmetry_equiv_pos_as_xyz
  1  'x, y, z'
loop_
 _atom_site_type_symbol
 _atom_site_label
 _atom_site_symmetry_multiplicity
 _atom_site_fract_x
 _atom_site_fract_y
 _atom_site_fract_z
 _atom_site_occupancy
  Li  Li0  1  0.997699  0.998124  0.007735  1
  Li  Li1  1  0.006377  0.245925  0.500150  1
  Li  Li2  1  0.993620  0.504097  0.999876  1
  Li  Li3  1  0.002316  0.751860  0.492291  1
  Cr  Cr4  1  0.499648  0.123089  0.750402  1
  Cr  Cr5  1  0.500007  0.374996  0.249991  1
  Cr  Cr6  1  0.500344  0.626910  0.749605  1
  Co  Co7  1  0.499996  0.875002  0.249998  1
  O  O8  1  0.276958  0.175617  0.124121  1
  O  O9  1  0.721616  0.064520  0.377073  1
  O  O10  1  0.273552  0.431781  0.621897  1
  O  O11  1  0.726458  0.318212  0.878080  1
  O  O12  1  0.278380  0.685482  0.122914  1
  O  O13  1  0.723047  0.574388  0.375873  1
  O  O14  1  0.276959  0.930493  0.613308  1
  O  O15  1  0.723022  0.819504  0.886686  1
