# generated using pymatgen
data_Li3Mn4(BO3)4
_symmetry_space_group_name_H-M   'P 1'
_cell_length_a   5.28089492
_cell_length_b   9.10928306
_cell_length_c   11.57246836
_cell_angle_alpha   68.24707253
_cell_angle_beta   77.99377678
_cell_angle_gamma   90.30953433
_symmetry_Int_Tables_number   1
_chemical_formula_structural   Li3Mn4(BO3)4
_chemical_formula_sum   'Li6 Mn8 B8 O24'
_cell_volume   503.65360857
_cell_formula_units_Z   2
loop_
 _symmetry_equiv_pos_site_id
 _symmetry_equiv_pos_as_xyz
  1  'x, y, z'
loop_
 _atom_site_type_symbol
 _atom_site_label
 _atom_site_symmetry_multiplicity
 _atom_site_fract_x
 _atom_site_fract_y
 _atom_site_fract_z
 _atom_site_occupancy
  Li  Li0  1  0.034161  0.042000  0.088837  1
  Li  Li1  1  0.265307  0.262749  0.334888  1
  Li  Li2  1  0.479011  0.505272  0.828674  1
  Li  Li3  1  0.771463  0.750708  0.338896  1
  Li  Li4  1  0.788236  0.769603  0.598241  1
  Li  Li5  1  0.979274  0.013679  0.830442  1
  Mn  Mn6  1  0.018628  0.362695  0.117765  1
  Mn  Mn7  1  0.237033  0.578149  0.375186  1
  Mn  Mn8  1  0.282616  0.952304  0.619554  1
  Mn  Mn9  1  0.546331  0.844281  0.106956  1
  Mn  Mn10  1  0.468934  0.151475  0.866945  1
  Mn  Mn11  1  0.744370  0.069761  0.364558  1
  Mn  Mn12  1  0.767155  0.424183  0.616512  1
  Mn  Mn13  1  0.975093  0.656430  0.869580  1
  B  B14  1  0.042566  0.690213  0.133978  1
  B  B15  1  0.230298  0.892566  0.391966  1
  B  B16  1  0.271300  0.614929  0.615080  1
  B  B17  1  0.510205  0.166362  0.132662  1
  B  B18  1  0.488476  0.821771  0.854517  1
  B  B19  1  0.733086  0.406720  0.369347  1
  B  B20  1  0.755521  0.089666  0.628878  1
  B  B21  1  0.966588  0.312586  0.875227  1
  O  O22  1  0.003995  0.080888  0.646119  1
  O  O23  1  0.261172  0.652678  0.190132  1
  O  O24  1  0.117444  0.719758  0.654074  1
  O  O25  1  0.157994  0.524573  0.559758  1
  O  O26  1  0.354529  0.271047  0.162561  1
  O  O27  1  0.423336  0.069259  0.076299  1
  O  O28  1  0.065822  0.167096  0.894234  1
  O  O29  1  0.093076  0.424376  0.905667  1
  O  O30  1  0.327583  0.010731  0.430162  1
  O  O31  1  0.404776  0.797346  0.352753  1
  O  O32  1  0.256062  0.868060  0.809830  1
  O  O33  1  0.474716  0.406509  0.370482  1
  O  O34  1  0.518539  0.596562  0.633961  1
  O  O35  1  0.758464  0.150172  0.162056  1
  O  O36  1  0.600724  0.195857  0.660403  1
  O  O37  1  0.661975  0.981719  0.582938  1
  O  O38  1  0.907042  0.814235  0.147671  1
  O  O39  1  0.596864  0.690002  0.848412  1
  O  O40  1  0.598477  0.918260  0.903985  1
  O  O41  1  0.980409  0.605973  0.065763  1
  O  O42  1  0.847598  0.519970  0.404496  1
  O  O43  1  0.888480  0.299190  0.336175  1
  O  O44  1  0.741730  0.347928  0.827781  1
  O  O45  1  0.970887  0.877056  0.394944  1
