# generated using pymatgen
data_Li3Fe2(PO4)3
_symmetry_space_group_name_H-M   'P 1'
_cell_length_a   8.75202027
_cell_length_b   12.16236952
_cell_length_c   8.76283225
_cell_angle_alpha   90.00000000
_cell_angle_beta   90.00000000
_cell_angle_gamma   90.00000000
_symmetry_Int_Tables_number   1
_chemical_formula_structural   Li3Fe2(PO4)3
_chemical_formula_sum   'Li12 Fe8 P12 O48'
_cell_volume   932.76234775
_cell_formula_units_Z   4
loop_
 _symmetry_equiv_pos_site_id
 _symmetry_equiv_pos_as_xyz
  1  'x, y, z'
loop_
 _atom_site_type_symbol
 _atom_site_label
 _atom_site_symmetry_multiplicity
 _atom_site_fract_x
 _atom_site_fract_y
 _atom_site_fract_z
 _atom_site_occupancy
  Li  Li0  1  0.217364  0.180599  0.768573  1
  Li  Li1  1  0.217364  0.819401  0.731427  1
  Li  Li2  1  0.282636  0.680599  0.231427  1
  Li  Li3  1  0.282636  0.319401  0.268573  1
  Li  Li4  1  0.553742  0.213487  0.426507  1
  Li  Li5  1  0.553742  0.786513  0.073493  1
  Li  Li6  1  0.697722  0.684063  0.735228  1
  Li  Li7  1  0.697722  0.315937  0.764772  1
  Li  Li8  1  0.802278  0.184063  0.264772  1
  Li  Li9  1  0.802278  0.815937  0.235228  1
  Li  Li10  1  0.946258  0.286513  0.926507  1
  Li  Li11  1  0.946258  0.713487  0.573493  1
  Fe  Fe12  1  0.255562  0.388401  0.956353  1
  Fe  Fe13  1  0.255562  0.611599  0.543647  1
  Fe  Fe14  1  0.244438  0.111599  0.456353  1
  Fe  Fe15  1  0.244438  0.888401  0.043647  1
  Fe  Fe16  1  0.739860  0.106550  0.954496  1
  Fe  Fe17  1  0.739860  0.893450  0.545504  1
  Fe  Fe18  1  0.760140  0.393450  0.454496  1
  Fe  Fe19  1  0.760140  0.606550  0.045504  1
  P  P20  1  0.048016  0.500000  0.250000  1
  P  P21  1  0.105573  0.147486  0.102191  1
  P  P22  1  0.105573  0.852514  0.397809  1
  P  P23  1  0.394427  0.352514  0.602191  1
  P  P24  1  0.394427  0.647486  0.897809  1
  P  P25  1  0.451984  0.000000  0.750000  1
  P  P26  1  0.547329  0.000000  0.250000  1
  P  P27  1  0.605483  0.351085  0.104433  1
  P  P28  1  0.605483  0.648915  0.395567  1
  P  P29  1  0.894517  0.851085  0.895567  1
  P  P30  1  0.894517  0.148915  0.604433  1
  P  P31  1  0.952671  0.500000  0.750000  1
  O  O32  1  0.048069  0.574469  0.643664  1
  O  O33  1  0.048069  0.425531  0.856336  1
  O  O34  1  0.070212  0.163765  0.595692  1
  O  O35  1  0.070212  0.836235  0.904308  1
  O  O36  1  0.151558  0.970601  0.430500  1
  O  O37  1  0.151558  0.029399  0.069500  1
  O  O38  1  0.152590  0.578214  0.342848  1
  O  O39  1  0.152590  0.421786  0.157152  1
  O  O40  1  0.163457  0.182566  0.261648  1
  O  O41  1  0.163457  0.817434  0.238352  1
  O  O42  1  0.167636  0.226480  0.975354  1
  O  O43  1  0.167636  0.773520  0.524646  1
  O  O44  1  0.332364  0.273520  0.475354  1
  O  O45  1  0.332364  0.726480  0.024646  1
  O  O46  1  0.336543  0.682566  0.738352  1
  O  O47  1  0.336543  0.317434  0.761648  1
  O  O48  1  0.347410  0.078214  0.657152  1
  O  O49  1  0.347410  0.921786  0.842848  1
  O  O50  1  0.348442  0.470601  0.569500  1
  O  O51  1  0.348442  0.529399  0.930500  1
  O  O52  1  0.429788  0.663765  0.404308  1
  O  O53  1  0.429788  0.336235  0.095692  1
  O  O54  1  0.451931  0.074469  0.356336  1
  O  O55  1  0.451931  0.925531  0.143664  1
  O  O56  1  0.550205  0.927153  0.645449  1
  O  O57  1  0.550205  0.072847  0.854551  1
  O  O58  1  0.570607  0.336096  0.592705  1
  O  O59  1  0.570607  0.663904  0.907295  1
  O  O60  1  0.652311  0.470662  0.078171  1
  O  O61  1  0.652311  0.529338  0.421829  1
  O  O62  1  0.654899  0.078975  0.161011  1
  O  O63  1  0.654899  0.921025  0.338989  1
  O  O64  1  0.656572  0.687543  0.232532  1
  O  O65  1  0.656572  0.312457  0.267468  1
  O  O66  1  0.687452  0.279568  0.981122  1
  O  O67  1  0.687452  0.720432  0.518878  1
  O  O68  1  0.812548  0.220432  0.481122  1
  O  O69  1  0.812548  0.779568  0.018878  1
  O  O70  1  0.843428  0.187543  0.767468  1
  O  O71  1  0.843428  0.812457  0.732532  1
  O  O72  1  0.845101  0.421025  0.661011  1
  O  O73  1  0.845101  0.578975  0.838989  1
  O  O74  1  0.847689  0.029338  0.578171  1
  O  O75  1  0.847689  0.970662  0.921829  1
  O  O76  1  0.929393  0.836096  0.407295  1
  O  O77  1  0.929393  0.163904  0.092705  1
  O  O78  1  0.949795  0.427153  0.354551  1
  O  O79  1  0.949795  0.572847  0.145449  1
