# generated using pymatgen
data_Li3V(BO3)2
_symmetry_space_group_name_H-M   'P 1'
_cell_length_a   6.04765815
_cell_length_b   7.75278546
_cell_length_c   9.70772230
_cell_angle_alpha   90.00000000
_cell_angle_beta   84.51582373
_cell_angle_gamma   90.00000000
_symmetry_Int_Tables_number   1
_chemical_formula_structural   Li3V(BO3)2
_chemical_formula_sum   'Li12 V4 B8 O24'
_cell_volume   453.07474502
_cell_formula_units_Z   4
loop_
 _symmetry_equiv_pos_site_id
 _symmetry_equiv_pos_as_xyz
  1  'x, y, z'
loop_
 _atom_site_type_symbol
 _atom_site_label
 _atom_site_symmetry_multiplicity
 _atom_site_fract_x
 _atom_site_fract_y
 _atom_site_fract_z
 _atom_site_occupancy
  Li  Li0  1  0.021254  0.793524  0.373567  1
  Li  Li1  1  0.020680  0.696891  0.933307  1
  Li  Li2  1  0.164955  0.947052  0.115600  1
  Li  Li3  1  0.335045  0.447052  0.384400  1
  Li  Li4  1  0.478746  0.293524  0.126433  1
  Li  Li5  1  0.520680  0.803109  0.433307  1
  Li  Li6  1  0.479320  0.196891  0.566693  1
  Li  Li7  1  0.521254  0.706476  0.873567  1
  Li  Li8  1  0.664955  0.552948  0.615600  1
  Li  Li9  1  0.835045  0.052948  0.884400  1
  Li  Li10  1  0.979320  0.303109  0.066693  1
  Li  Li11  1  0.978746  0.206476  0.626433  1
  V  V12  1  0.236412  0.872572  0.673598  1
  V  V13  1  0.263588  0.372572  0.826402  1
  V  V14  1  0.736412  0.627428  0.173598  1
  V  V15  1  0.763588  0.127428  0.326402  1
  B  B16  1  0.240324  0.590099  0.125282  1
  B  B17  1  0.194588  0.557207  0.611769  1
  B  B18  1  0.259676  0.090099  0.374718  1
  B  B19  1  0.305412  0.057207  0.888231  1
  B  B20  1  0.694588  0.942793  0.111769  1
  B  B21  1  0.740324  0.909901  0.625282  1
  B  B22  1  0.805412  0.442793  0.388231  1
  B  B23  1  0.759676  0.409901  0.874718  1
  O  O24  1  0.072025  0.706629  0.169300  1
  O  O25  1  0.092757  0.047760  0.293555  1
  O  O26  1  0.233894  0.518047  0.995751  1
  O  O27  1  0.216885  0.676857  0.507087  1
  O  O28  1  0.136118  0.619400  0.743995  1
  O  O29  1  0.266106  0.018047  0.504249  1
  O  O30  1  0.252538  0.386932  0.599643  1
  O  O31  1  0.247462  0.886932  0.900357  1
  O  O32  1  0.363882  0.119400  0.756005  1
  O  O33  1  0.283115  0.176857  0.992913  1
  O  O34  1  0.407243  0.547760  0.206445  1
  O  O35  1  0.427975  0.206629  0.330700  1
  O  O36  1  0.572025  0.793371  0.669300  1
  O  O37  1  0.592757  0.452240  0.793555  1
  O  O38  1  0.716885  0.823143  0.007087  1
  O  O39  1  0.636118  0.880600  0.243995  1
  O  O40  1  0.752538  0.113068  0.099643  1
  O  O41  1  0.747462  0.613068  0.400357  1
  O  O42  1  0.733894  0.981953  0.495751  1
  O  O43  1  0.863882  0.380600  0.256005  1
  O  O44  1  0.783115  0.323143  0.492913  1
  O  O45  1  0.766106  0.481953  0.004249  1
  O  O46  1  0.907243  0.952240  0.706445  1
  O  O47  1  0.927975  0.293371  0.830700  1
