# generated using pymatgen
data_Li5V3P8O29
_symmetry_space_group_name_H-M   'P 1'
_cell_length_a   9.80636766
_cell_length_b   9.76547356
_cell_length_c   14.13227788
_cell_angle_alpha   89.23978608
_cell_angle_beta   89.34733056
_cell_angle_gamma   59.62827023
_symmetry_Int_Tables_number   1
_chemical_formula_structural   Li5V3P8O29
_chemical_formula_sum   'Li10 V6 P16 O58'
_cell_volume   1167.51012843
_cell_formula_units_Z   2
loop_
 _symmetry_equiv_pos_site_id
 _symmetry_equiv_pos_as_xyz
  1  'x, y, z'
loop_
 _atom_site_type_symbol
 _atom_site_label
 _atom_site_symmetry_multiplicity
 _atom_site_fract_x
 _atom_site_fract_y
 _atom_site_fract_z
 _atom_site_occupancy
  Li  Li0  1  0.901652  0.763114  0.062786  1
  Li  Li1  1  0.755974  0.900010  0.560637  1
  Li  Li2  1  0.900377  0.329739  0.557466  1
  Li  Li3  1  0.761138  0.336871  0.058538  1
  Li  Li4  1  0.337659  0.898792  0.056893  1
  Li  Li5  1  0.333001  0.758959  0.561237  1
  Li  Li6  1  0.233535  0.093892  0.438678  1
  Li  Li7  1  0.095994  0.235608  0.938921  1
  Li  Li8  1  0.975412  0.977738  0.995203  1
  Li  Li9  1  0.961725  0.989821  0.496897  1
  V  V10  1  0.564299  0.434757  0.253240  1
  V  V11  1  0.437975  0.559108  0.753189  1
  V  V12  1  0.564934  0.003293  0.752308  1
  V  V13  1  0.438131  0.998890  0.248256  1
  V  V14  1  0.001621  0.567670  0.249516  1
  V  V15  1  0.998056  0.438852  0.744920  1
  P  P16  1  0.912190  0.774252  0.844689  1
  P  P17  1  0.772035  0.913591  0.343884  1
  P  P18  1  0.912815  0.311045  0.339706  1
  P  P19  1  0.667608  0.664168  0.130420  1
  P  P20  1  0.661161  0.671367  0.631188  1
  P  P21  1  0.777837  0.309563  0.843850  1
  P  P22  1  0.698955  0.218998  0.661387  1
  P  P23  1  0.312141  0.911609  0.840005  1
  P  P24  1  0.695555  0.087154  0.161527  1
  P  P25  1  0.309949  0.775341  0.345730  1
  P  P26  1  0.222101  0.697907  0.161128  1
  P  P27  1  0.330492  0.333792  0.366758  1
  P  P28  1  0.330314  0.331292  0.868140  1
  P  P29  1  0.084076  0.699284  0.661555  1
  P  P30  1  0.228690  0.087876  0.656475  1
  P  P31  1  0.088510  0.227812  0.157731  1
  O  O32  1  0.984673  0.804898  0.582453  1
  O  O33  1  0.910776  0.743468  0.328727  1
  O  O34  1  0.806107  0.993301  0.083063  1
  O  O35  1  0.740661  0.916861  0.829008  1
  O  O36  1  0.914077  0.618471  0.831807  1
  O  O37  1  0.812630  0.674785  0.165077  1
  O  O38  1  0.912582  0.466099  0.329189  1
  O  O39  1  0.002074  0.230154  0.069399  1
  O  O40  1  0.921604  0.336034  0.830714  1
  O  O41  1  0.670422  0.815289  0.674162  1
  O  O42  1  0.615032  0.915737  0.329782  1
  O  O43  1  0.809152  0.513659  0.667397  1
  O  O44  1  0.663368  0.653298  0.025055  1
  O  O45  1  0.659094  0.682457  0.525573  1
  O  O46  1  0.677024  0.511241  0.177679  1
  O  O47  1  0.469245  0.913883  0.825458  1
  O  O48  1  0.512667  0.810874  0.169684  1
  O  O49  1  0.742959  0.337610  0.334202  1
  O  O50  1  0.793478  0.192256  0.760037  1
  O  O51  1  0.809597  0.197348  0.581101  1
  O  O52  1  0.793567  0.227484  0.936880  1
  O  O53  1  0.623953  0.468871  0.830158  1
  O  O54  1  0.509420  0.676911  0.672477  1
  O  O55  1  0.660765  0.261801  0.159457  1
  O  O56  1  0.469059  0.617223  0.328636  1
  O  O57  1  0.336521  0.918532  0.336610  1
  O  O58  1  0.787948  0.018097  0.260902  1
  O  O59  1  0.784725  0.978129  0.436812  1
  O  O60  1  0.234664  0.998360  0.568981  1
  O  O61  1  0.659999  0.082402  0.660257  1
  O  O62  1  0.546647  0.380631  0.667035  1
  O  O63  1  0.342858  0.743604  0.838655  1
  O  O64  1  0.481461  0.331015  0.317984  1
  O  O65  1  0.383929  0.542166  0.172093  1
  O  O66  1  0.210093  0.803807  0.080215  1
  O  O67  1  0.231367  0.781386  0.438046  1
  O  O68  1  0.196839  0.792370  0.259753  1
  O  O69  1  0.255397  0.661876  0.658404  1
  O  O70  1  0.481196  0.185712  0.819172  1
  O  O71  1  0.541955  0.082856  0.168631  1
  O  O72  1  0.331954  0.478092  0.822150  1
  O  O73  1  0.339964  0.318890  0.972617  1
  O  O74  1  0.339749  0.328068  0.471605  1
  O  O75  1  0.190193  0.483050  0.322534  1
  O  O76  1  0.383080  0.089987  0.672368  1
  O  O77  1  0.325710  0.186496  0.326565  1
  O  O78  1  0.084835  0.663264  0.158249  1
  O  O79  1  0.014154  0.791558  0.760686  1
  O  O80  1  0.973110  0.793763  0.936822  1
  O  O81  1  0.078640  0.542470  0.671407  1
  O  O82  1  0.185604  0.326160  0.828382  1
  O  O83  1  0.088226  0.383426  0.172215  1
  O  O84  1  0.259479  0.084182  0.157766  1
  O  O85  1  0.227010  0.001185  0.928289  1
  O  O86  1  0.203622  0.003619  0.748794  1
  O  O87  1  0.083970  0.257995  0.654047  1
  O  O88  1  0.994983  0.217737  0.428435  1
  O  O89  1  0.003813  0.200755  0.249067  1
