# generated using pymatgen
data_LiFeSi3O8
_symmetry_space_group_name_H-M   'P 1'
_cell_length_a   8.67025939
_cell_length_b   8.50190133
_cell_length_c   9.25977587
_cell_angle_alpha   90.00000000
_cell_angle_beta   90.00000000
_cell_angle_gamma   90.00000000
_symmetry_Int_Tables_number   1
_chemical_formula_structural   LiFeSi3O8
_chemical_formula_sum   'Li4 Fe4 Si12 O32'
_cell_volume   682.57224646
_cell_formula_units_Z   4
loop_
 _symmetry_equiv_pos_site_id
 _symmetry_equiv_pos_as_xyz
  1  'x, y, z'
loop_
 _atom_site_type_symbol
 _atom_site_label
 _atom_site_symmetry_multiplicity
 _atom_site_fract_x
 _atom_site_fract_y
 _atom_site_fract_z
 _atom_site_occupancy
  Li  Li0  1  0.087284  0.206298  0.884809  1
  Li  Li1  1  0.412716  0.793702  0.384809  1
  Li  Li2  1  0.587284  0.293702  0.615191  1
  Li  Li3  1  0.912716  0.706298  0.115191  1
  Fe  Fe4  1  0.031681  0.063459  0.265844  1
  Fe  Fe5  1  0.468319  0.936541  0.765844  1
  Fe  Fe6  1  0.531681  0.436541  0.234156  1
  Fe  Fe7  1  0.968319  0.563459  0.734156  1
  Si  Si8  1  0.043134  0.438895  0.327155  1
  Si  Si9  1  0.254654  0.053923  0.537251  1
  Si  Si10  1  0.248907  0.401414  0.601655  1
  Si  Si11  1  0.251093  0.598586  0.101655  1
  Si  Si12  1  0.245346  0.946077  0.037250  1
  Si  Si13  1  0.456866  0.561105  0.827155  1
  Si  Si14  1  0.543134  0.061105  0.172845  1
  Si  Si15  1  0.748907  0.098586  0.898345  1
  Si  Si16  1  0.754654  0.446077  0.962749  1
  Si  Si17  1  0.745346  0.553923  0.462749  1
  Si  Si18  1  0.751093  0.901414  0.398345  1
  Si  Si19  1  0.956866  0.938895  0.672845  1
  O  O20  1  0.975537  0.262135  0.329718  1
  O  O21  1  0.098438  0.061634  0.639319  1
  O  O22  1  0.113651  0.391968  0.723771  1
  O  O23  1  0.113336  0.076146  0.077060  1
  O  O24  1  0.109438  0.488435  0.165320  1
  O  O25  1  0.206811  0.008859  0.373490  1
  O  O26  1  0.180789  0.469982  0.448152  1
  O  O27  1  0.166285  0.769183  0.065573  1
  O  O28  1  0.333715  0.230817  0.565573  1
  O  O29  1  0.319211  0.530018  0.948152  1
  O  O30  1  0.293189  0.991141  0.873490  1
  O  O31  1  0.390562  0.511565  0.665320  1
  O  O32  1  0.386664  0.923854  0.577060  1
  O  O33  1  0.386349  0.608032  0.223771  1
  O  O34  1  0.401562  0.938366  0.139319  1
  O  O35  1  0.524463  0.737866  0.829718  1
  O  O36  1  0.475538  0.237866  0.170282  1
  O  O37  1  0.613651  0.108032  0.776229  1
  O  O38  1  0.598438  0.438366  0.860681  1
  O  O39  1  0.609438  0.011565  0.334680  1
  O  O40  1  0.613336  0.423854  0.422940  1
  O  O41  1  0.680789  0.030018  0.051848  1
  O  O42  1  0.706811  0.491141  0.126510  1
  O  O43  1  0.666285  0.730817  0.434427  1
  O  O44  1  0.833715  0.269183  0.934427  1
  O  O45  1  0.793189  0.508859  0.626510  1
  O  O46  1  0.819211  0.969982  0.551848  1
  O  O47  1  0.886664  0.576146  0.922940  1
  O  O48  1  0.890562  0.988435  0.834680  1
  O  O49  1  0.886349  0.891968  0.276229  1
  O  O50  1  0.901562  0.561634  0.360681  1
  O  O51  1  0.024463  0.762134  0.670282  1
