# generated using pymatgen
data_Ni6OF11
_symmetry_space_group_name_H-M   'P 1'
_cell_length_a   4.69595591
_cell_length_b   4.69584112
_cell_length_c   9.33444787
_cell_angle_alpha   90.00081892
_cell_angle_beta   89.99924712
_cell_angle_gamma   89.56758585
_symmetry_Int_Tables_number   1
_chemical_formula_structural   Ni6OF11
_chemical_formula_sum   'Ni6 O1 F11'
_cell_volume   205.83236834
_cell_formula_units_Z   1
loop_
 _symmetry_equiv_pos_site_id
 _symmetry_equiv_pos_as_xyz
  1  'x, y, z'
loop_
 _atom_site_type_symbol
 _atom_site_label
 _atom_site_symmetry_multiplicity
 _atom_site_fract_x
 _atom_site_fract_y
 _atom_site_fract_z
 _atom_site_occupancy
  Ni  Ni0  1  0.000115  -0.000118  0.666647  1
  Ni  Ni1  1  0.005355  0.994650  0.329371  1
  Ni  Ni2  1  0.005304  0.994694  0.003952  1
  Ni  Ni3  1  0.486679  0.513329  0.166679  1
  Ni  Ni4  1  0.502791  0.497201  0.833377  1
  Ni  Ni5  1  0.502848  0.497147  0.499985  1
  O  O6  1  0.192971  0.807040  0.166663  1
  F  F7  1  0.197915  0.802110  0.833633  1
  F  F8  1  0.197939  0.802080  0.499668  1
  F  F9  1  0.302597  0.304698  0.000092  1
  F  F10  1  0.302594  0.304664  0.333249  1
  F  F11  1  0.304681  0.302446  0.666679  1
  F  F12  1  0.695311  0.697384  0.000091  1
  F  F13  1  0.695355  0.697391  0.333250  1
  F  F14  1  0.697564  0.695304  0.666679  1
  F  F15  1  0.807843  0.192149  0.836692  1
  F  F16  1  0.794272  0.205706  0.166673  1
  F  F17  1  0.807864  0.192124  0.496620  1
