# generated using pymatgen
data_Li2Fe4Si4O13
_symmetry_space_group_name_H-M   'P 1'
_cell_length_a   10.22283166
_cell_length_b   7.92022325
_cell_length_c   6.92203892
_cell_angle_alpha   79.12659355
_cell_angle_beta   89.61559340
_cell_angle_gamma   110.32078227
_symmetry_Int_Tables_number   1
_chemical_formula_structural   Li2Fe4Si4O13
_chemical_formula_sum   'Li4 Fe8 Si8 O26'
_cell_volume   514.55080455
_cell_formula_units_Z   2
loop_
 _symmetry_equiv_pos_site_id
 _symmetry_equiv_pos_as_xyz
  1  'x, y, z'
loop_
 _atom_site_type_symbol
 _atom_site_label
 _atom_site_symmetry_multiplicity
 _atom_site_fract_x
 _atom_site_fract_y
 _atom_site_fract_z
 _atom_site_occupancy
  Li  Li0  1  0.119829  0.599706  0.221962  1
  Li  Li1  1  0.415923  0.419690  0.749910  1
  Li  Li2  1  0.584077  0.580310  0.250090  1
  Li  Li3  1  0.880171  0.400294  0.778038  1
  Fe  Fe4  1  0.000963  0.810217  0.917500  1
  Fe  Fe5  1  0.005442  0.806939  0.428135  1
  Fe  Fe6  1  0.385642  0.809209  0.423809  1
  Fe  Fe7  1  0.392985  0.805261  0.921928  1
  Fe  Fe8  1  0.607015  0.194739  0.078072  1
  Fe  Fe9  1  0.614358  0.190791  0.576191  1
  Fe  Fe10  1  0.994558  0.193061  0.571865  1
  Fe  Fe11  1  0.999037  0.189783  0.082500  1
  Si  Si12  1  0.175662  0.582233  0.731318  1
  Si  Si13  1  0.293866  0.399492  0.283249  1
  Si  Si14  1  0.278150  0.099457  0.626295  1
  Si  Si15  1  0.277911  0.090810  0.075748  1
  Si  Si16  1  0.722089  0.909190  0.924252  1
  Si  Si17  1  0.721850  0.900543  0.373705  1
  Si  Si18  1  0.706134  0.600508  0.716751  1
  Si  Si19  1  0.824338  0.417767  0.268682  1
  O  O20  1  0.111511  0.994842  0.138034  1
  O  O21  1  0.068109  0.365499  0.782734  1
  O  O22  1  0.160897  0.675079  0.500233  1
  O  O23  1  0.153816  0.690989  0.907268  1
  O  O24  1  0.126278  0.349635  0.282745  1
  O  O25  1  0.113628  0.999108  0.604215  1
  O  O26  1  0.381714  0.973306  0.129496  1
  O  O27  1  0.390371  0.000162  0.603029  1
  O  O28  1  0.346360  0.615882  0.738479  1
  O  O29  1  0.389131  0.618979  0.228740  1
  O  O30  1  0.297788  0.160991  0.838942  1
  O  O31  1  0.339495  0.315845  0.498443  1
  O  O32  1  0.350178  0.292020  0.137264  1
  O  O33  1  0.649822  0.707980  0.862736  1
  O  O34  1  0.660505  0.684155  0.501557  1
  O  O35  1  0.702212  0.839009  0.161058  1
  O  O36  1  0.610869  0.381021  0.771260  1
  O  O37  1  0.653640  0.384118  0.261521  1
  O  O38  1  0.609629  -0.000162  0.396971  1
  O  O39  1  0.618286  0.026694  0.870504  1
  O  O40  1  0.886372  0.000892  0.395785  1
  O  O41  1  0.873722  0.650365  0.717255  1
  O  O42  1  0.846184  0.309011  0.092732  1
  O  O43  1  0.839103  0.324921  0.499767  1
  O  O44  1  0.931891  0.634501  0.217266  1
  O  O45  1  0.888489  0.005158  0.861966  1
