# generated using pymatgen
data_Li2Fe2Si4O11
_symmetry_space_group_name_H-M   'P 1'
_cell_length_a   9.62131844
_cell_length_b   7.65608097
_cell_length_c   7.07658407
_cell_angle_alpha   110.93829151
_cell_angle_beta   101.83480564
_cell_angle_gamma   97.39114982
_symmetry_Int_Tables_number   1
_chemical_formula_structural   Li2Fe2Si4O11
_chemical_formula_sum   'Li4 Fe4 Si8 O22'
_cell_volume   464.72962188
_cell_formula_units_Z   2
loop_
 _symmetry_equiv_pos_site_id
 _symmetry_equiv_pos_as_xyz
  1  'x, y, z'
loop_
 _atom_site_type_symbol
 _atom_site_label
 _atom_site_symmetry_multiplicity
 _atom_site_fract_x
 _atom_site_fract_y
 _atom_site_fract_z
 _atom_site_occupancy
  Li  Li0  1  0.436312  0.588220  0.910891  1
  Li  Li1  1  0.446327  0.617366  0.374325  1
  Li  Li2  1  0.553673  0.382634  0.625675  1
  Li  Li3  1  0.563688  0.411780  0.089109  1
  Fe  Fe4  1  0.244977  0.773897  0.668868  1
  Fe  Fe5  1  0.210247  0.655839  0.112088  1
  Fe  Fe6  1  0.789753  0.344161  0.887912  1
  Fe  Fe7  1  0.755023  0.226103  0.331132  1
  Si  Si8  1  0.051175  0.367981  0.247231  1
  Si  Si9  1  0.239736  0.223776  0.952712  1
  Si  Si10  1  0.233192  0.223753  0.527533  1
  Si  Si11  1  0.600273  0.974164  0.779843  1
  Si  Si12  1  0.399727  0.025836  0.220157  1
  Si  Si13  1  0.766808  0.776247  0.472467  1
  Si  Si14  1  0.760264  0.776224  0.047288  1
  Si  Si15  1  0.948825  0.632019  0.752769  1
  O  O16  1  0.124759  0.647598  0.816127  1
  O  O17  1  0.079339  0.260596  0.409530  1
  O  O18  1  0.149746  0.588755  0.339270  1
  O  O19  1  0.088392  0.243534  0.025500  1
  O  O20  1  0.193050  0.132807  0.695062  1
  O  O21  1  0.276898  0.043346  0.355688  1
  O  O22  1  0.448322  0.817819  0.650036  1
  O  O23  1  0.359559  0.414341  0.622922  1
  O  O24  1  0.409463  0.803292  0.141618  1
  O  O25  1  0.313214  0.055777  0.003981  1
  O  O26  1  0.349534  0.432739  0.063784  1
  O  O27  1  0.650466  0.567261  0.936216  1
  O  O28  1  0.686786  0.944223  0.996019  1
  O  O29  1  0.590537  0.196708  0.858382  1
  O  O30  1  0.640441  0.585659  0.377078  1
  O  O31  1  0.551678  0.182181  0.349964  1
  O  O32  1  0.723102  0.956654  0.644312  1
  O  O33  1  0.806950  0.867193  0.304938  1
  O  O34  1  0.911608  0.756466  0.974500  1
  O  O35  1  0.850254  0.411245  0.660730  1
  O  O36  1  0.920661  0.739404  0.590470  1
  O  O37  1  0.875241  0.352402  0.183873  1
