# generated using pymatgen
data_Li6Fe3Sb3O16
_symmetry_space_group_name_H-M   'P 1'
_cell_length_a   6.08055896
_cell_length_b   6.12193095
_cell_length_c   10.06559954
_cell_angle_alpha   90.01926622
_cell_angle_beta   90.29209214
_cell_angle_gamma   120.15241252
_symmetry_Int_Tables_number   1
_chemical_formula_structural   Li6Fe3Sb3O16
_chemical_formula_sum   'Li6 Fe3 Sb3 O16'
_cell_volume   323.98513556
_cell_formula_units_Z   1
loop_
 _symmetry_equiv_pos_site_id
 _symmetry_equiv_pos_as_xyz
  1  'x, y, z'
loop_
 _atom_site_type_symbol
 _atom_site_label
 _atom_site_symmetry_multiplicity
 _atom_site_fract_x
 _atom_site_fract_y
 _atom_site_fract_z
 _atom_site_occupancy
  Li  Li0  1  0.327363  0.663724  0.513855  1
  Li  Li1  1  0.339440  0.669137  0.869180  1
  Li  Li2  1  0.972206  0.982686  0.997468  1
  Li  Li3  1  0.977946  0.988745  0.503932  1
  Li  Li4  1  0.676129  0.340681  0.000614  1
  Li  Li5  1  0.659296  0.332481  0.391221  1
  Fe  Fe6  1  0.666292  0.834033  0.218587  1
  Fe  Fe7  1  0.835457  0.664965  0.715550  1
  Fe  Fe8  1  0.836171  0.169685  0.716145  1
  Sb  Sb9  1  0.171011  0.833806  0.215685  1
  Sb  Sb10  1  0.170649  0.337574  0.214685  1
  Sb  Sb11  1  0.342252  0.170729  0.714009  1
  O  O12  1  0.145702  0.843603  0.607820  1
  O  O13  1  0.028887  0.514837  0.326606  1
  O  O14  1  0.326926  0.663851  0.100879  1
  O  O15  1  0.010916  0.006204  0.323215  1
  O  O16  1  0.020038  0.008210  0.820976  1
  O  O17  1  0.143908  0.301921  0.609445  1
  O  O18  1  0.485442  0.975557  0.322869  1
  O  O19  1  0.483281  0.513129  0.323807  1
  O  O20  1  0.305043  0.152147  0.104420  1
  O  O21  1  0.693874  0.848140  0.621243  1
  O  O22  1  0.527720  0.489215  0.823266  1
  O  O23  1  0.529271  0.035947  0.821362  1
  O  O24  1  0.653534  0.328232  0.598838  1
  O  O25  1  0.851093  0.691770  0.110923  1
  O  O26  1  0.968385  0.482337  0.811956  1
  O  O27  1  0.851771  0.156954  0.109286  1
