# generated using pymatgen
data_MnOF
_symmetry_space_group_name_H-M   'P 1'
_cell_length_a   4.80264992
_cell_length_b   14.19443764
_cell_length_c   3.08232978
_cell_angle_alpha   90.00001142
_cell_angle_beta   89.99997238
_cell_angle_gamma   90.01026734
_symmetry_Int_Tables_number   1
_chemical_formula_structural   MnOF
_chemical_formula_sum   'Mn6 O6 F6'
_cell_volume   210.12523736
_cell_formula_units_Z   6
loop_
 _symmetry_equiv_pos_site_id
 _symmetry_equiv_pos_as_xyz
  1  'x, y, z'
loop_
 _atom_site_type_symbol
 _atom_site_label
 _atom_site_symmetry_multiplicity
 _atom_site_fract_x
 _atom_site_fract_y
 _atom_site_fract_z
 _atom_site_occupancy
  Mn  Mn0  1  0.966682  0.999149  -0.000001  1
  Mn  Mn1  1  0.104670  0.331466  0.000005  1
  Mn  Mn2  1  0.957643  0.666951  0.000001  1
  Mn  Mn3  1  0.542473  0.167194  0.500004  1
  Mn  Mn4  1  0.533462  0.498858  0.499997  1
  Mn  Mn5  1  0.395356  0.831536  0.500000  1
  O  O6  1  0.270113  0.267800  0.500005  1
  O  O7  1  0.141225  0.935371  0.499997  1
  O  O8  1  0.229870  0.767780  0.000002  1
  O  O9  1  0.358448  0.435224  0.999996  1
  O  O10  1  0.695365  0.565922  0.999994  1
  O  O11  1  0.804421  0.066147  0.499996  1
  F  F12  1  0.170066  0.605769  0.500003  1
  F  F13  1  0.329869  0.106004  0.000002  1
  F  F14  1  0.762213  0.234408  0.999999  1
  F  F15  1  0.618675  0.893122  0.999999  1
  F  F16  1  0.881448  0.393081  0.500000  1
  F  F17  1  0.738001  0.734219  0.499999  1
