# generated using pymatgen
data_Mg3B2H9SO13F
_symmetry_space_group_name_H-M   'P 1'
_cell_length_a   10.26800408
_cell_length_b   13.10702120
_cell_length_c   8.52651528
_cell_angle_alpha   90.00000000
_cell_angle_beta   90.00000000
_cell_angle_gamma   90.00000000
_symmetry_Int_Tables_number   1
_chemical_formula_structural   Mg3B2H9SO13F
_chemical_formula_sum   'Mg12 B8 H36 S4 O52 F4'
_cell_volume   1147.52355537
_cell_formula_units_Z   4
loop_
 _symmetry_equiv_pos_site_id
 _symmetry_equiv_pos_as_xyz
  1  'x, y, z'
loop_
 _atom_site_type_symbol
 _atom_site_label
 _atom_site_symmetry_multiplicity
 _atom_site_fract_x
 _atom_site_fract_y
 _atom_site_fract_z
 _atom_site_occupancy
  Mg  Mg0  1  0.653969  0.250000  0.004366  1
  Mg  Mg1  1  0.153969  0.250000  0.495634  1
  Mg  Mg2  1  0.346031  0.750000  0.995634  1
  Mg  Mg3  1  0.846031  0.750000  0.504366  1
  Mg  Mg4  1  0.577202  0.608418  0.108326  1
  Mg  Mg5  1  0.077202  0.891582  0.391674  1
  Mg  Mg6  1  0.422798  0.108418  0.891674  1
  Mg  Mg7  1  0.922798  0.391582  0.608326  1
  Mg  Mg8  1  0.422798  0.391582  0.891674  1
  Mg  Mg9  1  0.922798  0.108418  0.608326  1
  Mg  Mg10  1  0.577202  0.891582  0.108326  1
  Mg  Mg11  1  0.077202  0.608418  0.391674  1
  B  B12  1  0.805619  0.518748  0.362965  1
  B  B13  1  0.305619  0.981252  0.137035  1
  B  B14  1  0.194381  0.018748  0.637035  1
  B  B15  1  0.694381  0.481252  0.862965  1
  B  B16  1  0.194381  0.481252  0.637035  1
  B  B17  1  0.694381  0.018748  0.862965  1
  B  B18  1  0.805619  0.981252  0.362965  1
  B  B19  1  0.305619  0.518748  0.137035  1
  H  H20  1  0.596920  0.279276  0.686658  1
  H  H21  1  0.096920  0.220724  0.813342  1
  H  H22  1  0.403080  0.779276  0.313342  1
  H  H23  1  0.903080  0.720724  0.186658  1
  H  H24  1  0.403080  0.720724  0.313342  1
  H  H25  1  0.903080  0.779276  0.186658  1
  H  H26  1  0.596920  0.220724  0.686658  1
  H  H27  1  0.096920  0.279276  0.813342  1
  H  H28  1  0.625177  0.459419  0.357845  1
  H  H29  1  0.125177  0.040581  0.142155  1
  H  H30  1  0.374823  0.959419  0.642155  1
  H  H31  1  0.874823  0.540581  0.857845  1
  H  H32  1  0.374823  0.540581  0.642155  1
  H  H33  1  0.874823  0.959419  0.857845  1
  H  H34  1  0.625177  0.040581  0.357845  1
  H  H35  1  0.125177  0.459419  0.142155  1
  H  H36  1  0.840744  0.137796  0.311402  1
  H  H37  1  0.340744  0.362204  0.188598  1
  H  H38  1  0.159256  0.637796  0.688598  1
  H  H39  1  0.659256  0.862204  0.811402  1
  H  H40  1  0.159256  0.862204  0.688598  1
  H  H41  1  0.659256  0.637796  0.811402  1
  H  H42  1  0.840744  0.362204  0.311402  1
  H  H43  1  0.340744  0.137796  0.188598  1
  H  H44  1  0.873947  0.308067  0.914368  1
  H  H45  1  0.373947  0.191933  0.585632  1
  H  H46  1  0.126053  0.808067  0.085632  1
  H  H47  1  0.626053  0.691933  0.414368  1
  H  H48  1  0.126053  0.691933  0.085632  1
  H  H49  1  0.626053  0.808067  0.414368  1
  H  H50  1  0.873947  0.191933  0.914368  1
  H  H51  1  0.373947  0.308067  0.585632  1
  H  H52  1  0.256105  0.750000  0.446909  1
  H  H53  1  0.756105  0.750000  0.053091  1
  H  H54  1  0.743895  0.250000  0.553091  1
  H  H55  1  0.243895  0.250000  0.946909  1
  S  S56  1  0.981165  0.250000  0.154826  1
  S  S57  1  0.481165  0.250000  0.345174  1
  S  S58  1  0.018835  0.750000  0.845174  1
  S  S59  1  0.518835  0.750000  0.654826  1
  O  O60  1  0.009835  0.654828  0.939341  1
  O  O61  1  0.509835  0.845172  0.560659  1
  O  O62  1  0.990165  0.154828  0.060659  1
  O  O63  1  0.490165  0.345172  0.439341  1
  O  O64  1  0.990165  0.345172  0.060659  1
  O  O65  1  0.490165  0.154828  0.439341  1
  O  O66  1  0.009835  0.845172  0.939341  1
  O  O67  1  0.509835  0.654828  0.560659  1
  O  O68  1  0.843780  0.250000  0.227035  1
  O  O69  1  0.343780  0.250000  0.272965  1
  O  O70  1  0.156220  0.750000  0.772965  1
  O  O71  1  0.656220  0.750000  0.727035  1
  O  O72  1  0.582022  0.250000  0.222146  1
  O  O73  1  0.082022  0.250000  0.277854  1
  O  O74  1  0.417978  0.750000  0.777854  1
  O  O75  1  0.917978  0.750000  0.722146  1
  O  O76  1  0.625519  0.401134  0.914691  1
  O  O77  1  0.125519  0.098866  0.585309  1
  O  O78  1  0.374481  0.901134  0.085309  1
  O  O79  1  0.874481  0.598866  0.414691  1
  O  O80  1  0.374481  0.598866  0.085309  1
  O  O81  1  0.874481  0.901134  0.414691  1
  O  O82  1  0.625519  0.098866  0.914691  1
  O  O83  1  0.125519  0.401134  0.585309  1
  O  O84  1  0.759496  0.657314  0.073673  1
  O  O85  1  0.259496  0.842686  0.426327  1
  O  O86  1  0.240504  0.157314  0.926327  1
  O  O87  1  0.740504  0.342686  0.573673  1
  O  O88  1  0.240504  0.342686  0.926327  1
  O  O89  1  0.740504  0.157314  0.573673  1
  O  O90  1  0.759496  0.842686  0.073673  1
  O  O91  1  0.259496  0.657314  0.426327  1
  O  O92  1  0.672392  0.518716  0.313014  1
  O  O93  1  0.172392  0.981284  0.186986  1
  O  O94  1  0.327608  0.018716  0.686986  1
  O  O95  1  0.827608  0.481284  0.813014  1
  O  O96  1  0.327608  0.481284  0.686986  1
  O  O97  1  0.827608  0.018716  0.813014  1
  O  O98  1  0.672392  0.981284  0.313014  1
  O  O99  1  0.172392  0.518716  0.186986  1
  O  O100  1  0.179305  0.750000  0.125933  1
  O  O101  1  0.679305  0.750000  0.374067  1
  O  O102  1  0.820695  0.250000  0.874067  1
  O  O103  1  0.320695  0.250000  0.625933  1
  O  O104  1  0.127099  0.574571  0.630991  1
  O  O105  1  0.627099  0.925429  0.869009  1
  O  O106  1  0.872901  0.074571  0.369009  1
  O  O107  1  0.372901  0.425429  0.130991  1
  O  O108  1  0.872901  0.425429  0.369009  1
  O  O109  1  0.372901  0.074571  0.130991  1
  O  O110  1  0.127099  0.925429  0.630991  1
  O  O111  1  0.627099  0.574571  0.869009  1
  F  F112  1  0.028233  0.750000  0.432423  1
  F  F113  1  0.528233  0.750000  0.067577  1
  F  F114  1  0.971767  0.250000  0.567577  1
  F  F115  1  0.471767  0.250000  0.932423  1
