# generated using pymatgen
data_Na3SiSnBO7
_symmetry_space_group_name_H-M   'P 1'
_cell_length_a   9.11599859
_cell_length_b   6.77297868
_cell_length_c   5.31303828
_cell_angle_alpha   90.00000000
_cell_angle_beta   88.92873409
_cell_angle_gamma   90.00000000
_symmetry_Int_Tables_number   1
_chemical_formula_structural   Na3SiSnBO7
_chemical_formula_sum   'Na6 Si2 Sn2 B2 O14'
_cell_volume   327.98273884
_cell_formula_units_Z   2
loop_
 _symmetry_equiv_pos_site_id
 _symmetry_equiv_pos_as_xyz
  1  'x, y, z'
loop_
 _atom_site_type_symbol
 _atom_site_label
 _atom_site_symmetry_multiplicity
 _atom_site_fract_x
 _atom_site_fract_y
 _atom_site_fract_z
 _atom_site_occupancy
  Na  Na0  1  0.077216  0.250000  0.757700  1
  Na  Na1  1  0.247205  0.005469  0.252787  1
  Na  Na2  1  0.247205  0.494531  0.252787  1
  Na  Na3  1  0.752795  0.505469  0.747213  1
  Na  Na4  1  0.752795  0.994531  0.747213  1
  Na  Na5  1  0.922784  0.750000  0.242300  1
  Si  Si6  1  0.423068  0.250000  0.709550  1
  Si  Si7  1  0.576932  0.750000  0.290450  1
  Sn  Sn8  1  0.340686  0.750000  0.783757  1
  Sn  Sn9  1  0.659314  0.250000  0.216243  1
  B  B10  1  0.060912  0.750000  0.732913  1
  B  B11  1  0.939088  0.250000  0.267087  1
  O  O12  1  0.085043  0.250000  0.300225  1
  O  O13  1  0.129183  0.750000  0.968774  1
  O  O14  1  0.165123  0.750000  0.529927  1
  O  O15  1  0.319789  0.058920  0.783264  1
  O  O16  1  0.319789  0.441080  0.783264  1
  O  O17  1  0.458385  0.250000  0.400596  1
  O  O18  1  0.419519  0.750000  0.146078  1
  O  O19  1  0.580481  0.250000  0.853922  1
  O  O20  1  0.541615  0.750000  0.599404  1
  O  O21  1  0.680211  0.558920  0.216736  1
  O  O22  1  0.680211  0.941080  0.216736  1
  O  O23  1  0.834877  0.250000  0.470073  1
  O  O24  1  0.870817  0.250000  0.031226  1
  O  O25  1  0.914957  0.750000  0.699775  1
