# generated using pymatgen
data_LiVCrP2(O4F)2
_symmetry_space_group_name_H-M   'P 1'
_cell_length_a   5.16401330
_cell_length_b   10.70103418
_cell_length_c   7.33488557
_cell_angle_alpha   109.58062833
_cell_angle_beta   106.12411419
_cell_angle_gamma   98.01204139
_symmetry_Int_Tables_number   1
_chemical_formula_structural   LiVCrP2(O4F)2
_chemical_formula_sum   'Li2 V2 Cr2 P4 O16 F4'
_cell_volume   354.56010125
_cell_formula_units_Z   2
loop_
 _symmetry_equiv_pos_site_id
 _symmetry_equiv_pos_as_xyz
  1  'x, y, z'
loop_
 _atom_site_type_symbol
 _atom_site_label
 _atom_site_symmetry_multiplicity
 _atom_site_fract_x
 _atom_site_fract_y
 _atom_site_fract_z
 _atom_site_occupancy
  Li  Li0  1  0.078319  0.219255  0.820324  1
  Li  Li1  1  0.921681  0.780745  0.179676  1
  V  V2  1  0.000000  0.500000  0.000000  1
  V  V3  1  0.000000  0.000000  0.000000  1
  Cr  Cr4  1  0.505422  0.748652  0.503347  1
  Cr  Cr5  1  0.494578  0.251348  0.496653  1
  P  P6  1  0.435578  0.559920  0.760318  1
  P  P7  1  0.437521  0.055313  0.753659  1
  P  P8  1  0.562479  0.944687  0.246341  1
  P  P9  1  0.564422  0.440080  0.239682  1
  O  O10  1  0.263077  0.569391  0.910583  1
  O  O11  1  0.344428  0.908267  0.595430  1
  O  O12  1  0.278961  0.069027  0.913212  1
  O  O13  1  0.357804  0.660237  0.661557  1
  O  O14  1  0.240820  0.898262  0.124659  1
  O  O15  1  0.353419  0.410461  0.610639  1
  O  O16  1  0.346791  0.160431  0.664304  1
  O  O17  1  0.249687  0.390166  0.096708  1
  O  O18  1  0.750313  0.609834  0.903292  1
  O  O19  1  0.653209  0.839569  0.335696  1
  O  O20  1  0.646581  0.589539  0.389361  1
  O  O21  1  0.759180  0.101738  0.875341  1
  O  O22  1  0.642196  0.339763  0.338443  1
  O  O23  1  0.721039  0.930973  0.086788  1
  O  O24  1  0.655572  0.091733  0.404570  1
  O  O25  1  0.736923  0.430609  0.089417  1
  F  F26  1  0.145156  0.663870  0.264192  1
  F  F27  1  0.141029  0.158342  0.259155  1
  F  F28  1  0.858971  0.841658  0.740845  1
  F  F29  1  0.854844  0.336130  0.735808  1
