# generated using pymatgen
data_V(SO4)2
_symmetry_space_group_name_H-M   'P 1'
_cell_length_a   8.87202772
_cell_length_b   8.87202791
_cell_length_c   8.87202760
_cell_angle_alpha   56.02782912
_cell_angle_beta   56.02783439
_cell_angle_gamma   56.02783199
_symmetry_Int_Tables_number   1
_chemical_formula_structural   V(SO4)2
_chemical_formula_sum   'V3 S6 O24'
_cell_volume   448.36720126
_cell_formula_units_Z   3
loop_
 _symmetry_equiv_pos_site_id
 _symmetry_equiv_pos_as_xyz
  1  'x, y, z'
loop_
 _atom_site_type_symbol
 _atom_site_label
 _atom_site_symmetry_multiplicity
 _atom_site_fract_x
 _atom_site_fract_y
 _atom_site_fract_z
 _atom_site_occupancy
  V  V0  1  0.148481  0.148481  0.148481  1
  V  V1  1  0.647581  0.647581  0.647581  1
  V  V2  1  0.849996  0.849996  0.849996  1
  S  S3  1  0.042497  0.752024  0.457758  1
  S  S4  1  0.457758  0.042497  0.752024  1
  S  S5  1  0.752024  0.457758  0.042497  1
  S  S6  1  0.256611  0.537860  0.959778  1
  S  S7  1  0.537860  0.959778  0.256611  1
  S  S8  1  0.959778  0.256611  0.537860  1
  O  O9  1  0.114802  0.272208  0.530966  1
  O  O10  1  0.272208  0.530966  0.114802  1
  O  O11  1  0.997213  0.963049  0.333328  1
  O  O12  1  0.530966  0.114802  0.272208  1
  O  O13  1  0.008244  0.731382  0.657558  1
  O  O14  1  0.232245  0.624919  0.385016  1
  O  O15  1  0.385016  0.232245  0.624919  1
  O  O16  1  0.333328  0.997213  0.963049  1
  O  O17  1  0.624919  0.385016  0.232245  1
  O  O18  1  0.051382  0.684662  0.950842  1
  O  O19  1  0.279466  0.350771  0.975092  1
  O  O20  1  0.350771  0.975092  0.279466  1
  O  O21  1  0.657558  0.008244  0.731382  1
  O  O22  1  0.731382  0.657558  0.008244  1
  O  O23  1  0.963049  0.333328  0.997213  1
  O  O24  1  0.397596  0.611737  0.761941  1
  O  O25  1  0.684662  0.950842  0.051382  1
  O  O26  1  0.611737  0.761941  0.397596  1
  O  O27  1  0.761941  0.397596  0.611737  1
  O  O28  1  0.975092  0.279466  0.350771  1
  O  O29  1  0.490340  0.883903  0.703712  1
  O  O30  1  0.950842  0.051382  0.684662  1
  O  O31  1  0.703712  0.490340  0.883903  1
  O  O32  1  0.883903  0.703712  0.490340  1
