# generated using pymatgen
data_Li6Ti(BO3)3
_symmetry_space_group_name_H-M   'P 1'
_cell_length_a   7.07589269
_cell_length_b   16.24116200
_cell_length_c   6.52147862
_cell_angle_alpha   90.00000000
_cell_angle_beta   105.05230948
_cell_angle_gamma   90.00000000
_symmetry_Int_Tables_number   1
_chemical_formula_structural   Li6Ti(BO3)3
_chemical_formula_sum   'Li24 Ti4 B12 O36'
_cell_volume   723.73862906
_cell_formula_units_Z   4
loop_
 _symmetry_equiv_pos_site_id
 _symmetry_equiv_pos_as_xyz
  1  'x, y, z'
loop_
 _atom_site_type_symbol
 _atom_site_label
 _atom_site_symmetry_multiplicity
 _atom_site_fract_x
 _atom_site_fract_y
 _atom_site_fract_z
 _atom_site_occupancy
  Li  Li0  1  0.067588  0.995330  0.679050  1
  Li  Li1  1  0.136390  0.554437  0.585802  1
  Li  Li2  1  0.067588  0.504670  0.179050  1
  Li  Li3  1  0.304858  0.463395  0.946764  1
  Li  Li4  1  0.136390  0.945563  0.085802  1
  Li  Li5  1  0.275626  0.707876  0.637151  1
  Li  Li6  1  0.304858  0.036605  0.446764  1
  Li  Li7  1  0.421611  0.293285  0.954561  1
  Li  Li8  1  0.458937  0.969706  0.829935  1
  Li  Li9  1  0.275626  0.792124  0.137151  1
  Li  Li10  1  0.421611  0.206715  0.454561  1
  Li  Li11  1  0.458937  0.530294  0.329935  1
  Li  Li12  1  0.541063  0.469706  0.670065  1
  Li  Li13  1  0.578389  0.793285  0.545439  1
  Li  Li14  1  0.724374  0.207876  0.862849  1
  Li  Li15  1  0.541063  0.030294  0.170065  1
  Li  Li16  1  0.578389  0.706715  0.045439  1
  Li  Li17  1  0.695142  0.963395  0.553236  1
  Li  Li18  1  0.724374  0.292124  0.362849  1
  Li  Li19  1  0.863610  0.054437  0.914198  1
  Li  Li20  1  0.695142  0.536605  0.053236  1
  Li  Li21  1  0.932412  0.495330  0.820950  1
  Li  Li22  1  0.863610  0.445563  0.414198  1
  Li  Li23  1  0.932412  0.004670  0.320950  1
  Ti  Ti24  1  0.076232  0.186745  0.661537  1
  Ti  Ti25  1  0.076232  0.313255  0.161537  1
  Ti  Ti26  1  0.923768  0.686745  0.838463  1
  Ti  Ti27  1  0.923768  0.813255  0.338463  1
  B  B28  1  0.082531  0.361433  0.658093  1
  B  B29  1  0.082531  0.138567  0.158093  1
  B  B30  1  0.281622  0.875291  0.498803  1
  B  B31  1  0.431034  0.119499  0.811292  1
  B  B32  1  0.281622  0.624709  0.998803  1
  B  B33  1  0.431034  0.380501  0.311292  1
  B  B34  1  0.568966  0.619499  0.688708  1
  B  B35  1  0.718378  0.375291  0.001197  1
  B  B36  1  0.568966  0.880501  0.188708  1
  B  B37  1  0.718378  0.124709  0.501197  1
  B  B38  1  0.917469  0.861433  0.841907  1
  B  B39  1  0.917469  0.638567  0.341907  1
  O  O40  1  0.990683  0.671335  0.543235  1
  O  O41  1  0.110303  0.578113  0.960545  1
  O  O42  1  0.098725  0.445515  0.680240  1
  O  O43  1  0.123844  0.307297  0.828424  1
  O  O44  1  0.990683  0.828665  0.043235  1
  O  O45  1  0.110303  0.921887  0.460545  1
  O  O46  1  0.249172  0.705501  0.935950  1
  O  O47  1  0.098725  0.054485  0.180240  1
  O  O48  1  0.123844  0.192703  0.328424  1
  O  O49  1  0.262910  0.072716  0.730546  1
  O  O50  1  0.249172  0.794499  0.435950  1
  O  O51  1  0.262910  0.427284  0.230546  1
  O  O52  1  0.407301  0.202075  0.762692  1
  O  O53  1  0.399124  0.582028  0.575666  1
  O  O54  1  0.537856  0.409478  0.917386  1
  O  O55  1  0.462144  0.909478  0.582614  1
  O  O56  1  0.407301  0.297925  0.262692  1
  O  O57  1  0.600876  0.082028  0.924334  1
  O  O58  1  0.399124  0.917972  0.075666  1
  O  O59  1  0.592699  0.702075  0.737308  1
  O  O60  1  0.537856  0.090522  0.417386  1
  O  O61  1  0.462144  0.590522  0.082614  1
  O  O62  1  0.600876  0.417972  0.424334  1
  O  O63  1  0.592699  0.797925  0.237308  1
  O  O64  1  0.737090  0.572716  0.769454  1
  O  O65  1  0.750828  0.205501  0.564050  1
  O  O66  1  0.737090  0.927284  0.269454  1
  O  O67  1  0.876156  0.807297  0.671576  1
  O  O68  1  0.901275  0.945515  0.819760  1
  O  O69  1  0.750828  0.294499  0.064050  1
  O  O70  1  0.889697  0.078113  0.539455  1
  O  O71  1  0.009317  0.171335  0.956765  1
  O  O72  1  0.876156  0.692703  0.171576  1
  O  O73  1  0.901275  0.554485  0.319760  1
  O  O74  1  0.889697  0.421887  0.039455  1
  O  O75  1  0.009317  0.328665  0.456765  1
