# generated using pymatgen
data_Mn3O5F
_symmetry_space_group_name_H-M   'P 1'
_cell_length_a   6.99032388
_cell_length_b   5.46740115
_cell_length_c   5.43110415
_cell_angle_alpha   73.99042455
_cell_angle_beta   72.98369925
_cell_angle_gamma   73.41360575
_symmetry_Int_Tables_number   1
_chemical_formula_structural   Mn3O5F
_chemical_formula_sum   'Mn6 O10 F2'
_cell_volume   185.99166512
_cell_formula_units_Z   2
loop_
 _symmetry_equiv_pos_site_id
 _symmetry_equiv_pos_as_xyz
  1  'x, y, z'
loop_
 _atom_site_type_symbol
 _atom_site_label
 _atom_site_symmetry_multiplicity
 _atom_site_fract_x
 _atom_site_fract_y
 _atom_site_fract_z
 _atom_site_occupancy
  Mn  Mn0  1  0.839995  0.667452  0.651585  1
  Mn  Mn1  1  0.667939  0.307322  0.357311  1
  Mn  Mn2  1  0.332061  0.692678  0.642689  1
  Mn  Mn3  1  0.160005  0.332548  0.348415  1
  Mn  Mn4  1  0.500000  0.000000  0.000000  1
  Mn  Mn5  1  0.000000  0.000000  0.000000  1
  O  O6  1  0.669819  0.017946  0.641929  1
  O  O7  1  0.296283  0.900905  0.893908  1
  O  O8  1  0.628528  0.560831  0.567968  1
  O  O9  1  0.962392  0.232604  0.234037  1
  O  O10  1  0.703717  0.099095  0.106092  1
  O  O11  1  0.037608  0.767396  0.765963  1
  O  O12  1  0.371472  0.439169  0.432032  1
  O  O13  1  0.330181  0.982054  0.358071  1
  O  O14  1  0.997999  0.309355  0.694249  1
  O  O15  1  0.002001  0.690645  0.305751  1
  F  F16  1  0.322378  0.386618  0.967251  1
  F  F17  1  0.677622  0.613382  0.032749  1
