# generated using pymatgen
data_Fe6O7F5
_symmetry_space_group_name_H-M   'P 1'
_cell_length_a   4.71066092
_cell_length_b   7.76846516
_cell_length_c   5.59639651
_cell_angle_alpha   94.10242099
_cell_angle_beta   89.22231896
_cell_angle_gamma   90.56448943
_symmetry_Int_Tables_number   1
_chemical_formula_structural   Fe6O7F5
_chemical_formula_sum   'Fe6 O7 F5'
_cell_volume   204.24626530
_cell_formula_units_Z   1
loop_
 _symmetry_equiv_pos_site_id
 _symmetry_equiv_pos_as_xyz
  1  'x, y, z'
loop_
 _atom_site_type_symbol
 _atom_site_label
 _atom_site_symmetry_multiplicity
 _atom_site_fract_x
 _atom_site_fract_y
 _atom_site_fract_z
 _atom_site_occupancy
  Fe  Fe0  1  0.557457  0.651420  0.179724  1
  Fe  Fe1  1  0.484371  0.002033  0.499465  1
  Fe  Fe2  1  0.511560  0.345380  0.814995  1
  Fe  Fe3  1  0.975251  0.684943  0.660285  1
  Fe  Fe4  1  0.980288  0.316156  0.352262  1
  Fe  Fe5  1  0.991237  0.987978  0.001113  1
  O  O6  1  0.803530  0.444461  0.624976  1
  O  O7  1  0.801922  0.766686  0.965663  1
  O  O8  1  0.805232  0.093152  0.295064  1
  O  O9  1  0.685615  0.777285  0.462158  1
  O  O10  1  0.702943  0.422289  0.124535  1
  O  O11  1  0.307273  0.236332  0.540952  1
  O  O12  1  0.186899  0.905134  0.704034  1
  F  F13  1  0.696540  0.106213  0.801203  1
  F  F14  1  0.301831  0.568167  0.875978  1
  F  F15  1  0.303374  0.894616  0.196096  1
  F  F16  1  0.202824  0.228765  0.036789  1
  F  F17  1  0.201852  0.568989  0.364706  1
