# generated using pymatgen
data_NaH18C9I(NO)3
_symmetry_space_group_name_H-M   'P 1'
_cell_length_a   11.83679735
_cell_length_b   11.64146520
_cell_length_c   9.07958735
_cell_angle_alpha   88.05893802
_cell_angle_beta   92.32625559
_cell_angle_gamma   118.93505908
_symmetry_Int_Tables_number   1
_chemical_formula_structural   NaH18C9I(NO)3
_chemical_formula_sum   'Na2 H36 C18 I2 N6 O6'
_cell_volume   1093.91638617
_cell_formula_units_Z   2
loop_
 _symmetry_equiv_pos_site_id
 _symmetry_equiv_pos_as_xyz
  1  'x, y, z'
loop_
 _atom_site_type_symbol
 _atom_site_label
 _atom_site_symmetry_multiplicity
 _atom_site_fract_x
 _atom_site_fract_y
 _atom_site_fract_z
 _atom_site_occupancy
  Na  Na0  1  -0.015485  0.009570  0.059320  1
  Na  Na1  1  -0.017617  0.010045  0.451900  1
  H  H2  1  0.122356  0.744687  0.753377  1
  H  H3  1  0.242854  0.382152  0.751018  1
  H  H4  1  0.383695  0.539272  0.178021  1
  H  H5  1  0.625156  0.902635  0.784963  1
  H  H6  1  0.371897  0.231692  0.244533  1
  H  H7  1  0.595360  0.745956  0.151513  1
  H  H8  1  0.597651  0.742749  0.347742  1
  H  H9  1  0.396506  0.517707  0.382368  1
  H  H10  1  0.458927  0.499031  0.006862  1
  H  H11  1  0.746309  0.810333  0.252251  1
  H  H12  1  0.603244  0.126146  0.849103  1
  H  H13  1  0.617748  0.182358  0.651250  1
  H  H14  1  0.397647  0.142641  0.648938  1
  H  H15  1  0.402926  0.142902  0.853239  1
  H  H16  1  0.811481  0.749385  0.747625  1
  H  H17  1  0.770154  0.639473  0.537825  1
  H  H18  1  0.771888  0.633711  0.961371  1
  H  H19  1  0.734280  0.595933  0.631740  1
  H  H20  1  0.738795  0.596516  0.871719  1
  H  H21  1  0.555290  0.034378  0.248423  1
  H  H22  1  0.480980  0.880308  0.347163  1
  H  H23  1  0.476881  0.882404  0.150316  1
  H  H24  1  0.714788  0.378657  0.896252  1
  H  H25  1  0.713926  0.388582  0.602056  1
  H  H26  1  0.873113  0.628483  0.251795  1
  H  H27  1  0.652969  0.379234  0.874984  1
  H  H28  1  0.651970  0.385329  0.623272  1
  H  H29  1  0.120274  0.582924  0.350821  1
  H  H30  1  0.118193  0.586020  0.152938  1
  H  H31  1  0.762475  0.129195  0.249716  1
  H  H32  1  0.888665  0.288495  0.917124  1
  H  H33  1  0.864039  0.297243  0.679856  1
  H  H34  1  0.969140  0.517288  0.249008  1
  H  H35  1  0.867869  0.193225  0.543192  1
  H  H36  1  0.861660  0.254508  0.988663  1
  H  H37  1  0.940800  0.199863  0.720243  1
  C  C38  1  0.039456  0.764176  0.750230  1
  C  C39  1  0.071314  0.593634  0.250735  1
  C  C40  1  0.192107  0.835033  0.247705  1
  C  C41  1  0.194485  0.389188  0.280406  1
  C  C42  1  0.535069  0.931490  0.248745  1
  C  C43  1  0.224458  0.278884  0.751474  1
  C  C44  1  0.273962  0.222704  0.243528  1
  C  C45  1  0.343244  0.480562  0.277605  1
  C  C46  1  0.723547  0.977406  0.752920  1
  C  C47  1  0.648926  0.799111  0.250443  1
  C  C48  1  0.465423  0.346044  0.746642  1
  C  C49  1  0.401102  0.191900  0.749868  1
  C  C50  1  0.794542  0.647215  0.746585  1
  C  C51  1  0.636245  0.127276  0.738549  1
  C  C52  1  0.959391  0.728055  0.248741  1
  C  C53  1  0.919911  0.530685  0.751736  1
  C  C54  1  0.769578  0.037971  0.250273  1
  C  C55  1  0.858808  0.202707  0.661585  1
  I  I56  1  0.330952  0.655049  0.758614  1
  I  I57  1  0.659764  0.350177  0.251488  1
  N  N58  1  0.080086  0.726259  0.248978  1
  N  N59  1  0.273411  0.340917  0.259511  1
  N  N60  1  0.656598  0.928149  0.249841  1
  N  N61  1  0.339489  0.272529  0.747276  1
  N  N62  1  0.916492  0.642347  0.751771  1
  N  N63  1  0.735750  0.097342  0.718021  1
  O  O64  1  0.044906  0.871337  0.743057  1
  O  O65  1  0.119548  0.178850  0.755587  1
  O  O66  1  0.171510  0.119219  0.231257  1
  O  O67  1  0.814291  0.951630  0.745202  1
  O  O68  1  0.952699  0.829999  0.245192  1
  O  O69  1  0.878236  0.040824  0.251335  1
