# generated using pymatgen
data_LiBeH4NF4
_symmetry_space_group_name_H-M   'P 1'
_cell_length_a   9.57171038
_cell_length_b   5.08642797
_cell_length_c   9.07660200
_cell_angle_alpha   90.00000000
_cell_angle_beta   90.00000000
_cell_angle_gamma   90.00000000
_symmetry_Int_Tables_number   1
_chemical_formula_structural   LiBeH4NF4
_chemical_formula_sum   'Li4 Be4 H16 N4 F16'
_cell_volume   441.90176941
_cell_formula_units_Z   4
loop_
 _symmetry_equiv_pos_site_id
 _symmetry_equiv_pos_as_xyz
  1  'x, y, z'
loop_
 _atom_site_type_symbol
 _atom_site_label
 _atom_site_symmetry_multiplicity
 _atom_site_fract_x
 _atom_site_fract_y
 _atom_site_fract_z
 _atom_site_occupancy
  Li  Li0  1  0.892032  0.047287  0.329108  1
  Li  Li1  1  0.107968  0.952713  0.829108  1
  Li  Li2  1  0.607968  0.047287  0.829108  1
  Li  Li3  1  0.392032  0.952713  0.329108  1
  Be  Be4  1  0.599885  0.055947  0.193292  1
  Be  Be5  1  0.400115  0.944053  0.693292  1
  Be  Be6  1  0.900115  0.055947  0.693292  1
  Be  Be7  1  0.099885  0.944053  0.193292  1
  H  H8  1  0.805022  0.633517  0.522111  1
  H  H9  1  0.194978  0.366483  0.022111  1
  H  H10  1  0.694978  0.633517  0.022111  1
  H  H11  1  0.305022  0.366483  0.522111  1
  H  H12  1  0.731826  0.332790  0.498522  1
  H  H13  1  0.268174  0.667210  0.998522  1
  H  H14  1  0.768174  0.332790  0.998522  1
  H  H15  1  0.231826  0.667210  0.498522  1
  H  H16  1  0.664074  0.600100  0.411214  1
  H  H17  1  0.335926  0.399900  0.911214  1
  H  H18  1  0.835926  0.600100  0.911214  1
  H  H19  1  0.164074  0.399900  0.411214  1
  H  H20  1  0.649239  0.573624  0.596316  1
  H  H21  1  0.350761  0.426376  0.096316  1
  H  H22  1  0.850761  0.573624  0.096316  1
  H  H23  1  0.149239  0.426376  0.596316  1
  N  N24  1  0.712871  0.531414  0.506922  1
  N  N25  1  0.287129  0.468586  0.006922  1
  N  N26  1  0.787129  0.531414  0.006922  1
  N  N27  1  0.212871  0.468586  0.506922  1
  F  F28  1  0.622264  0.987791  0.026967  1
  F  F29  1  0.377736  0.012209  0.526967  1
  F  F30  1  0.877736  0.987791  0.526967  1
  F  F31  1  0.122264  0.012209  0.026967  1
  F  F32  1  0.965094  0.769939  0.212669  1
  F  F33  1  0.034906  0.230061  0.712669  1
  F  F34  1  0.534906  0.769939  0.712669  1
  F  F35  1  0.465094  0.230061  0.212669  1
  F  F36  1  0.568209  0.795645  0.281569  1
  F  F37  1  0.431791  0.204355  0.781569  1
  F  F38  1  0.931791  0.795645  0.781569  1
  F  F39  1  0.068209  0.204355  0.281569  1
  F  F40  1  0.731601  0.193562  0.255310  1
  F  F41  1  0.268399  0.806438  0.755310  1
  F  F42  1  0.768399  0.193562  0.755310  1
  F  F43  1  0.231601  0.806438  0.255310  1
