# generated using pymatgen
data_K6H6S6N2O23
_symmetry_space_group_name_H-M   'P 1'
_cell_length_a   15.32850735
_cell_length_b   14.88197012
_cell_length_c   15.32850735
_cell_angle_alpha   62.49507114
_cell_angle_beta   154.22428690
_cell_angle_gamma   124.35419339
_symmetry_Int_Tables_number   1
_chemical_formula_structural   K6H6S6N2O23
_chemical_formula_sum   'K12 H12 S12 N4 O46'
_cell_volume   1244.80802546
_cell_formula_units_Z   2
loop_
 _symmetry_equiv_pos_site_id
 _symmetry_equiv_pos_as_xyz
  1  'x, y, z'
loop_
 _atom_site_type_symbol
 _atom_site_label
 _atom_site_symmetry_multiplicity
 _atom_site_fract_x
 _atom_site_fract_y
 _atom_site_fract_z
 _atom_site_occupancy
  K  K0  1  0.150496  0.431530  0.556784  1
  K  K1  1  0.374747  0.931530  0.281035  1
  K  K2  1  0.849504  0.568470  0.443216  1
  K  K3  1  0.625253  0.068470  0.718965  1
  K  K4  1  0.043068  0.119593  0.780500  1
  K  K5  1  0.839093  0.619593  0.076525  1
  K  K6  1  0.956932  0.880407  0.219500  1
  K  K7  1  0.160907  0.380407  0.923475  1
  K  K8  1  0.621626  0.418432  0.736317  1
  K  K9  1  0.182115  0.918432  0.796806  1
  K  K10  1  0.378374  0.581568  0.263683  1
  K  K11  1  0.817885  0.081568  0.203194  1
  H  H12  1  0.777267  0.266802  0.468112  1
  H  H13  1  0.298690  0.766802  0.489535  1
  H  H14  1  0.222733  0.733198  0.531888  1
  H  H15  1  0.701310  0.233198  0.510465  1
  H  H16  1  0.825104  0.366281  0.118663  1
  H  H17  1  0.747618  0.866281  0.541177  1
  H  H18  1  0.174896  0.633719  0.881337  1
  H  H19  1  0.252382  0.133719  0.458823  1
  H  H20  1  0.041885  0.442696  0.235541  1
  H  H21  1  0.707154  0.942696  0.400810  1
  H  H22  1  0.958115  0.557304  0.764459  1
  H  H23  1  0.292846  0.057304  0.599190  1
  S  S24  1  0.623370  0.151413  0.219796  1
  S  S25  1  0.431617  0.651413  0.528043  1
  S  S26  1  0.376630  0.848587  0.780204  1
  S  S27  1  0.568383  0.348587  0.471957  1
  S  S28  1  0.551364  0.365390  0.074807  1
  S  S29  1  0.790582  0.865390  0.814026  1
  S  S30  1  0.448636  0.634610  0.925193  1
  S  S31  1  0.209418  0.134610  0.185974  1
  S  S32  1  0.365315  0.217776  0.756132  1
  S  S33  1  0.961645  0.717776  0.852461  1
  S  S34  1  0.634685  0.782224  0.243868  1
  S  S35  1  0.038355  0.282224  0.147539  1
  N  N36  1  0.569237  0.258587  0.072001  1
  N  N37  1  0.686586  0.758587  0.689350  1
  N  N38  1  0.430763  0.741413  0.927999  1
  N  N39  1  0.313414  0.241413  0.310650  1
  O  O40  1  0.591485  0.073092  0.154406  1
  O  O41  1  0.418686  0.573092  0.481607  1
  O  O42  1  0.408515  0.926908  0.845594  1
  O  O43  1  0.581314  0.426908  0.518393  1
  O  O44  1  0.848704  0.207281  0.425319  1
  O  O45  1  0.281962  0.707281  0.358577  1
  O  O46  1  0.151296  0.792719  0.574681  1
  O  O47  1  0.718038  0.292719  0.641423  1
  O  O48  1  0.465742  0.108409  0.167835  1
  O  O49  1  0.440575  0.608409  0.642667  1
  O  O50  1  0.534258  0.891591  0.832165  1
  O  O51  1  0.559425  0.391591  0.357333  1
  O  O52  1  0.541177  0.442387  0.964441  1
  O  O53  1  0.977946  0.942387  0.901210  1
  O  O54  1  0.458823  0.557613  0.035559  1
  O  O55  1  0.022054  0.057613  0.098790  1
  O  O56  1  0.354440  0.319366  0.970540  1
  O  O57  1  0.848826  0.819366  0.964926  1
  O  O58  1  0.645560  0.680634  0.029460  1
  O  O59  1  0.151174  0.180634  0.035074  1
  O  O60  1  0.754916  0.401904  0.290778  1
  O  O61  1  0.611126  0.901904  0.646989  1
  O  O62  1  0.245084  0.598096  0.709222  1
  O  O63  1  0.388874  0.098096  0.353011  1
  O  O64  1  0.584136  0.229035  0.921065  1
  O  O65  1  0.807970  0.729035  0.644899  1
  O  O66  1  0.415864  0.770965  0.078935  1
  O  O67  1  0.192030  0.270965  0.355101  1
  O  O68  1  0.192401  0.112723  0.625500  1
  O  O69  1  0.987223  0.612723  0.920322  1
  O  O70  1  0.807599  0.887277  0.374500  1
  O  O71  1  0.012777  0.387277  0.079678  1
  O  O72  1  0.317662  0.314174  0.651222  1
  O  O73  1  0.162952  0.814174  0.996512  1
  O  O74  1  0.682338  0.685826  0.348778  1
  O  O75  1  0.837048  0.185826  0.003488  1
  O  O76  1  0.357923  0.205840  0.865738  1
  O  O77  1  0.840103  0.705840  0.847918  1
  O  O78  1  0.642077  0.794160  0.134262  1
  O  O79  1  0.159897  0.294160  0.152082  1
  O  O80  1  0.825806  0.250000  0.575806  1
  O  O81  1  0.174194  0.750000  0.424194  1
  O  O82  1  0.938664  0.440785  0.189438  1
  O  O83  1  0.751348  0.940785  0.502122  1
  O  O84  1  0.061336  0.559215  0.810562  1
  O  O85  1  0.248652  0.059215  0.497878  1
