# generated using pymatgen
data_Li2MnV(PO4)2
_symmetry_space_group_name_H-M   'P 1'
_cell_length_a   10.53086655
_cell_length_b   6.16243942
_cell_length_c   4.78763222
_cell_angle_alpha   90.00000000
_cell_angle_beta   89.96846623
_cell_angle_gamma   90.00000000
_symmetry_Int_Tables_number   1
_chemical_formula_structural   Li2MnV(PO4)2
_chemical_formula_sum   'Li4 Mn2 V2 P4 O16'
_cell_volume   310.69730631
_cell_formula_units_Z   2
loop_
 _symmetry_equiv_pos_site_id
 _symmetry_equiv_pos_as_xyz
  1  'x, y, z'
loop_
 _atom_site_type_symbol
 _atom_site_label
 _atom_site_symmetry_multiplicity
 _atom_site_fract_x
 _atom_site_fract_y
 _atom_site_fract_z
 _atom_site_occupancy
  Li  Li0  1  0.000000  0.000000  0.000000  1
  Li  Li1  1  0.000000  0.500000  0.000000  1
  Li  Li2  1  0.500000  0.000000  0.500000  1
  Li  Li3  1  0.500000  0.500000  0.500000  1
  Mn  Mn4  1  0.277349  0.250000  0.977662  1
  Mn  Mn5  1  0.722651  0.750000  0.022338  1
  V  V6  1  0.223766  0.750000  0.481601  1
  V  V7  1  0.776234  0.250000  0.518399  1
  P  P8  1  0.089721  0.250000  0.414370  1
  P  P9  1  0.407609  0.750000  0.913583  1
  P  P10  1  0.592391  0.250000  0.086417  1
  P  P11  1  0.910279  0.750000  0.585630  1
  O  O12  1  0.046660  0.750000  0.709941  1
  O  O13  1  0.093462  0.250000  0.736197  1
  O  O14  1  0.160040  0.049239  0.282368  1
  O  O15  1  0.160040  0.450761  0.282368  1
  O  O16  1  0.337448  0.549248  0.780501  1
  O  O17  1  0.337448  0.950752  0.780501  1
  O  O18  1  0.405152  0.750000  0.235369  1
  O  O19  1  0.455821  0.250000  0.209391  1
  O  O20  1  0.544179  0.750000  0.790609  1
  O  O21  1  0.594848  0.250000  0.764631  1
  O  O22  1  0.662552  0.049248  0.219499  1
  O  O23  1  0.662552  0.450752  0.219499  1
  O  O24  1  0.839960  0.549239  0.717632  1
  O  O25  1  0.839960  0.950761  0.717632  1
  O  O26  1  0.906538  0.750000  0.263803  1
  O  O27  1  0.953340  0.250000  0.290059  1
