# generated using pymatgen
data_Li2V3TeO8
_symmetry_space_group_name_H-M   'P 1'
_cell_length_a   6.02725187
_cell_length_b   6.02695834
_cell_length_c   9.96151341
_cell_angle_alpha   89.99563099
_cell_angle_beta   90.00218482
_cell_angle_gamma   119.99838600
_symmetry_Int_Tables_number   1
_chemical_formula_structural   Li2V3TeO8
_chemical_formula_sum   'Li4 V6 Te2 O16'
_cell_volume   313.38669008
_cell_formula_units_Z   2
loop_
 _symmetry_equiv_pos_site_id
 _symmetry_equiv_pos_as_xyz
  1  'x, y, z'
loop_
 _atom_site_type_symbol
 _atom_site_label
 _atom_site_symmetry_multiplicity
 _atom_site_fract_x
 _atom_site_fract_y
 _atom_site_fract_z
 _atom_site_occupancy
  Li  Li0  1  0.333304  0.666617  0.902970  1
  Li  Li1  1  0.000024  0.000065  0.991615  1
  Li  Li2  1  0.999976  0.000042  0.491615  1
  Li  Li3  1  0.666696  0.333314  0.402970  1
  V  V4  1  0.168149  0.826740  0.216461  1
  V  V5  1  0.173281  0.341452  0.216485  1
  V  V6  1  0.658535  0.831831  0.216473  1
  V  V7  1  0.341465  0.173296  0.716473  1
  V  V8  1  0.831851  0.658590  0.716461  1
  V  V9  1  0.826719  0.168172  0.716485  1
  Te  Te10  1  0.333344  0.666701  0.492550  1
  Te  Te11  1  0.666655  0.333357  0.992550  1
  O  O12  1  0.167173  0.848439  0.595884  1
  O  O13  1  0.030524  0.524218  0.337466  1
  O  O14  1  0.333329  0.666705  0.109421  1
  O  O15  1  0.999940  0.999943  0.307887  1
  O  O16  1  0.000060  0.000003  0.807887  1
  O  O17  1  0.151569  0.318748  0.595930  1
  O  O18  1  0.493702  0.969479  0.337446  1
  O  O19  1  0.475781  0.506264  0.337410  1
  O  O20  1  0.318700  0.151626  0.095920  1
  O  O21  1  0.681300  0.832924  0.595920  1
  O  O22  1  0.506298  0.475777  0.837446  1
  O  O23  1  0.524219  0.030483  0.837410  1
  O  O24  1  0.666671  0.333376  0.609421  1
  O  O25  1  0.832827  0.681266  0.095884  1
  O  O26  1  0.969476  0.493693  0.837466  1
  O  O27  1  0.848431  0.167180  0.095930  1
