# generated using pymatgen
data_K6Na2V2S7O30
_symmetry_space_group_name_H-M   'P 1'
_cell_length_a   9.70917091
_cell_length_b   9.70917091
_cell_length_c   30.08617233
_cell_angle_alpha   90.00000000
_cell_angle_beta   90.00000000
_cell_angle_gamma   90.00000000
_symmetry_Int_Tables_number   1
_chemical_formula_structural   K6Na2V2S7O30
_chemical_formula_sum   'K24 Na8 V8 S28 O120'
_cell_volume   2836.16328597
_cell_formula_units_Z   4
loop_
 _symmetry_equiv_pos_site_id
 _symmetry_equiv_pos_as_xyz
  1  'x, y, z'
loop_
 _atom_site_type_symbol
 _atom_site_label
 _atom_site_symmetry_multiplicity
 _atom_site_fract_x
 _atom_site_fract_y
 _atom_site_fract_z
 _atom_site_occupancy
  K  K0  1  0.063839  0.940859  0.812275  1
  K  K1  1  0.991268  0.676328  0.404218  1
  K  K2  1  0.917433  0.396270  0.518649  1
  K  K3  1  0.603730  0.082567  0.981351  1
  K  K4  1  0.936161  0.059141  0.312275  1
  K  K5  1  0.008732  0.323672  0.904218  1
  K  K6  1  0.896270  0.582567  0.768649  1
  K  K7  1  0.563839  0.559141  0.437725  1
  K  K8  1  0.559141  0.563839  0.562275  1
  K  K9  1  0.440859  0.436161  0.062275  1
  K  K10  1  0.082567  0.603730  0.018649  1
  K  K11  1  0.176328  0.508732  0.654218  1
  K  K12  1  0.417433  0.103730  0.731351  1
  K  K13  1  0.582567  0.896270  0.231351  1
  K  K14  1  0.491268  0.823672  0.845782  1
  K  K15  1  0.436161  0.440859  0.937725  1
  K  K16  1  0.940859  0.063839  0.187725  1
  K  K17  1  0.508732  0.176328  0.345782  1
  K  K18  1  0.676328  0.991268  0.595782  1
  K  K19  1  0.396270  0.917433  0.481351  1
  K  K20  1  0.103730  0.417433  0.268649  1
  K  K21  1  0.059141  0.936161  0.687725  1
  K  K22  1  0.823672  0.491268  0.154218  1
  K  K23  1  0.323672  0.008732  0.095782  1
  Na  Na24  1  0.340321  0.227246  0.572365  1
  Na  Na25  1  0.727246  0.159679  0.822365  1
  Na  Na26  1  0.227246  0.340321  0.427635  1
  Na  Na27  1  0.772754  0.659679  0.927635  1
  Na  Na28  1  0.659679  0.772754  0.072365  1
  Na  Na29  1  0.840321  0.272754  0.677635  1
  Na  Na30  1  0.159679  0.727246  0.177635  1
  Na  Na31  1  0.272754  0.840321  0.322365  1
  V  V32  1  0.327545  0.429312  0.814617  1
  V  V33  1  0.672455  0.570688  0.314617  1
  V  V34  1  0.929312  0.172455  0.064617  1
  V  V35  1  0.172455  0.929312  0.935383  1
  V  V36  1  0.570688  0.672455  0.685383  1
  V  V37  1  0.429312  0.327545  0.185383  1
  V  V38  1  0.827545  0.070688  0.435383  1
  V  V39  1  0.070688  0.827545  0.564617  1
  S  S40  1  0.712994  0.287006  0.250000  1
  S  S41  1  0.212994  0.212994  0.000000  1
  S  S42  1  0.147399  0.386932  0.131524  1
  S  S43  1  0.766457  0.440750  0.026564  1
  S  S44  1  0.990139  0.852907  0.095577  1
  S  S45  1  0.352907  0.509861  0.345577  1
  S  S46  1  0.787006  0.787006  0.500000  1
  S  S47  1  0.352601  0.886932  0.618476  1
  S  S48  1  0.059250  0.266457  0.776564  1
  S  S49  1  0.852601  0.613068  0.631524  1
  S  S50  1  0.233543  0.559250  0.526564  1
  S  S51  1  0.287006  0.712994  0.750000  1
  S  S52  1  0.852907  0.990139  0.904423  1
  S  S53  1  0.886932  0.352601  0.381524  1
  S  S54  1  0.647093  0.490139  0.845577  1
  S  S55  1  0.113068  0.647399  0.881524  1
  S  S56  1  0.559250  0.233543  0.473436  1
  S  S57  1  0.733543  0.940750  0.723436  1
  S  S58  1  0.147093  0.009861  0.404423  1
  S  S59  1  0.386932  0.147399  0.868476  1
  S  S60  1  0.613068  0.852601  0.368476  1
  S  S61  1  0.509861  0.352907  0.654423  1
  S  S62  1  0.490139  0.647093  0.154423  1
  S  S63  1  0.940750  0.733543  0.276564  1
  S  S64  1  0.266457  0.059250  0.223436  1
  S  S65  1  0.009861  0.147093  0.595577  1
  S  S66  1  0.647399  0.113068  0.118476  1
  S  S67  1  0.440750  0.766457  0.973436  1
  O  O68  1  0.881282  0.822033  0.538580  1
  O  O69  1  0.215916  0.535616  0.874607  1
  O  O70  1  0.299717  0.276611  0.855789  1
  O  O71  1  0.822033  0.881282  0.461420  1
  O  O72  1  0.188711  0.106899  0.438998  1
  O  O73  1  0.118718  0.177967  0.038580  1
  O  O74  1  0.182118  0.460660  0.090626  1
  O  O75  1  0.978159  0.217648  0.815148  1
  O  O76  1  0.393101  0.688711  0.188998  1
  O  O77  1  0.656038  0.339902  0.488840  1
  O  O78  1  0.177967  0.118718  0.961420  1
  O  O79  1  0.021106  0.611918  0.918505  1
  O  O80  1  0.680061  0.028118  0.759205  1
  O  O81  1  0.807828  0.949324  0.859477  1
  O  O82  1  0.039340  0.682118  0.840626  1
  O  O83  1  0.646151  0.810704  0.515651  1
  O  O84  1  0.813918  0.133124  0.914534  1
  O  O85  1  0.186082  0.866876  0.414534  1
  O  O86  1  0.343962  0.660098  0.988840  1
  O  O87  1  0.189296  0.353849  0.984349  1
  O  O88  1  0.723389  0.700283  0.644211  1
  O  O89  1  0.133124  0.813918  0.085466  1
  O  O90  1  0.715916  0.964384  0.375393  1
  O  O91  1  0.660098  0.343962  0.011160  1
  O  O92  1  0.388082  0.978894  0.581495  1
  O  O93  1  0.111918  0.478894  0.168505  1
  O  O94  1  0.521106  0.888082  0.331495  1
  O  O95  1  0.028118  0.680061  0.240795  1
  O  O96  1  0.339902  0.656038  0.511160  1
  O  O97  1  0.319939  0.971882  0.259205  1
  O  O98  1  0.090240  0.851165  0.973804  1
  O  O99  1  0.217648  0.978159  0.184852  1
  O  O100  1  0.893101  0.811289  0.061002  1
  O  O101  1  0.633124  0.686082  0.164534  1
  O  O102  1  0.949324  0.807828  0.140523  1
  O  O103  1  0.284084  0.035616  0.875393  1
  O  O104  1  0.677967  0.381282  0.288580  1
  O  O105  1  0.817882  0.539340  0.590626  1
  O  O106  1  0.810704  0.646151  0.484349  1
  O  O107  1  0.539340  0.817882  0.409374  1
  O  O108  1  0.180061  0.471882  0.490795  1
  O  O109  1  0.971882  0.319939  0.740795  1
  O  O110  1  0.366876  0.313918  0.664534  1
  O  O111  1  0.819939  0.528118  0.990795  1
  O  O112  1  0.200283  0.776611  0.894211  1
  O  O113  1  0.483457  0.491556  0.848629  1
  O  O114  1  0.688711  0.393101  0.811002  1
  O  O115  1  0.535616  0.215916  0.125393  1
  O  O116  1  0.782352  0.021841  0.684852  1
  O  O117  1  0.516543  0.508444  0.348629  1
  O  O118  1  0.016543  0.991556  0.901371  1
  O  O119  1  0.508444  0.516543  0.651371  1
  O  O120  1  0.106899  0.188711  0.561002  1
  O  O121  1  0.282352  0.478159  0.565148  1
  O  O122  1  0.776611  0.200283  0.105789  1
  O  O123  1  0.528118  0.819939  0.009205  1
  O  O124  1  0.322033  0.618718  0.788580  1
  O  O125  1  0.611918  0.021106  0.081495  1
  O  O126  1  0.521841  0.717648  0.934852  1
  O  O127  1  0.689296  0.146151  0.265651  1
  O  O128  1  0.590240  0.648835  0.276196  1
  O  O129  1  0.641196  0.104335  0.456247  1
  O  O130  1  0.478159  0.282352  0.434852  1
  O  O131  1  0.008444  0.983457  0.598629  1
  O  O132  1  0.618718  0.322033  0.211420  1
  O  O133  1  0.313918  0.366876  0.335466  1
  O  O134  1  0.307828  0.550676  0.390523  1
  O  O135  1  0.311289  0.606899  0.311002  1
  O  O136  1  0.964384  0.715916  0.624607  1
  O  O137  1  0.353849  0.189296  0.015651  1
  O  O138  1  0.682118  0.039340  0.159374  1
  O  O139  1  0.035616  0.284084  0.124607  1
  O  O140  1  0.449324  0.692172  0.109477  1
  O  O141  1  0.811289  0.893101  0.938998  1
  O  O142  1  0.991556  0.016543  0.098629  1
  O  O143  1  0.799717  0.223389  0.394211  1
  O  O144  1  0.223389  0.799717  0.605789  1
  O  O145  1  0.471882  0.180061  0.509205  1
  O  O146  1  0.160098  0.156038  0.238840  1
  O  O147  1  0.853849  0.310704  0.234349  1
  O  O148  1  0.409760  0.351165  0.776196  1
  O  O149  1  0.960660  0.317882  0.340626  1
  O  O150  1  0.104335  0.641196  0.543753  1
  O  O151  1  0.192172  0.050676  0.359477  1
  O  O152  1  0.686082  0.633124  0.835466  1
  O  O153  1  0.310704  0.853849  0.765651  1
  O  O154  1  0.276611  0.299717  0.144211  1
  O  O155  1  0.050676  0.192172  0.640523  1
  O  O156  1  0.351165  0.409760  0.223804  1
  O  O157  1  0.460660  0.182118  0.909374  1
  O  O158  1  0.550676  0.307828  0.609477  1
  O  O159  1  0.717648  0.521841  0.065148  1
  O  O160  1  0.784084  0.464384  0.374607  1
  O  O161  1  0.843962  0.839902  0.261160  1
  O  O162  1  0.895665  0.358804  0.043753  1
  O  O163  1  0.858804  0.604335  0.293753  1
  O  O164  1  0.146151  0.689296  0.734349  1
  O  O165  1  0.464384  0.784084  0.625393  1
  O  O166  1  0.148835  0.909760  0.526196  1
  O  O167  1  0.983457  0.008444  0.401371  1
  O  O168  1  0.478894  0.111918  0.831495  1
  O  O169  1  0.692172  0.449324  0.890523  1
  O  O170  1  0.648835  0.590240  0.723804  1
  O  O171  1  0.839902  0.843962  0.738840  1
  O  O172  1  0.021841  0.782352  0.315148  1
  O  O173  1  0.381282  0.677967  0.711420  1
  O  O174  1  0.888082  0.521106  0.668505  1
  O  O175  1  0.491556  0.483457  0.151371  1
  O  O176  1  0.606899  0.311289  0.688998  1
  O  O177  1  0.141196  0.395665  0.793753  1
  O  O178  1  0.156038  0.160098  0.761160  1
  O  O179  1  0.358804  0.895665  0.956247  1
  O  O180  1  0.395665  0.141196  0.206247  1
  O  O181  1  0.700283  0.723389  0.355789  1
  O  O182  1  0.909760  0.148835  0.473804  1
  O  O183  1  0.866876  0.186082  0.585466  1
  O  O184  1  0.851165  0.090240  0.026196  1
  O  O185  1  0.604335  0.858804  0.706247  1
  O  O186  1  0.317882  0.960660  0.659374  1
  O  O187  1  0.978894  0.388082  0.418505  1
