# generated using pymatgen
data_Li2Cu2F7
_symmetry_space_group_name_H-M   'P 1'
_cell_length_a   8.52145187
_cell_length_b   6.71603933
_cell_length_c   5.19783174
_cell_angle_alpha   86.48613978
_cell_angle_beta   103.44329710
_cell_angle_gamma   108.85387206
_symmetry_Int_Tables_number   1
_chemical_formula_structural   Li2Cu2F7
_chemical_formula_sum   'Li4 Cu4 F14'
_cell_volume   273.76902156
_cell_formula_units_Z   2
loop_
 _symmetry_equiv_pos_site_id
 _symmetry_equiv_pos_as_xyz
  1  'x, y, z'
loop_
 _atom_site_type_symbol
 _atom_site_label
 _atom_site_symmetry_multiplicity
 _atom_site_fract_x
 _atom_site_fract_y
 _atom_site_fract_z
 _atom_site_occupancy
  Li  Li0  1  0.094231  0.757307  0.320127  1
  Li  Li1  1  0.259684  0.989085  0.865866  1
  Li  Li2  1  0.740316  0.010915  0.134134  1
  Li  Li3  1  0.905769  0.242693  0.679873  1
  Cu  Cu4  1  0.181340  0.284519  0.290396  1
  Cu  Cu5  1  0.332402  0.520584  0.815126  1
  Cu  Cu6  1  0.667598  0.479416  0.184874  1
  Cu  Cu7  1  0.818660  0.715481  0.709604  1
  F  F8  1  0.045459  0.816881  0.636319  1
  F  F9  1  0.102187  0.377099  0.942345  1
  F  F10  1  0.222934  0.567658  0.450235  1
  F  F11  1  0.376856  0.791382  0.932072  1
  F  F12  1  0.294256  0.245903  0.657149  1
  F  F13  1  0.184472  0.020672  0.173866  1
  F  F14  1  0.409915  0.415078  0.178291  1
  F  F15  1  0.590085  0.584922  0.821709  1
  F  F16  1  0.815528  0.979328  0.826134  1
  F  F17  1  0.705744  0.754097  0.342851  1
  F  F18  1  0.623144  0.208618  0.067928  1
  F  F19  1  0.777066  0.432342  0.549765  1
  F  F20  1  0.897813  0.622901  0.057655  1
  F  F21  1  0.954541  0.183119  0.363681  1
