# generated using pymatgen
data_TiSnSb
_symmetry_space_group_name_H-M   'P 1'
_cell_length_a   5.51052612
_cell_length_b   5.63826203
_cell_length_c   10.16575956
_cell_angle_alpha   82.38900092
_cell_angle_beta   74.27421484
_cell_angle_gamma   60.74664009
_symmetry_Int_Tables_number   1
_chemical_formula_structural   TiSnSb
_chemical_formula_sum   'Ti4 Sn4 Sb4'
_cell_volume   265.25257057
_cell_formula_units_Z   4
loop_
 _symmetry_equiv_pos_site_id
 _symmetry_equiv_pos_as_xyz
  1  'x, y, z'
loop_
 _atom_site_type_symbol
 _atom_site_label
 _atom_site_symmetry_multiplicity
 _atom_site_fract_x
 _atom_site_fract_y
 _atom_site_fract_z
 _atom_site_occupancy
  Ti  Ti0  1  0.001429  0.250000  0.997142  1
  Ti  Ti1  1  0.748571  0.250000  0.502858  1
  Ti  Ti2  1  0.998571  0.750000  0.002858  1
  Ti  Ti3  1  0.251429  0.750000  0.497142  1
  Sn  Sn4  1  0.707769  0.584462  0.250000  1
  Sn  Sn5  1  0.042231  0.915538  0.250000  1
  Sn  Sn6  1  0.292231  0.415538  0.750000  1
  Sn  Sn7  1  0.957769  0.084462  0.750000  1
  Sb  Sb8  1  0.452680  0.250000  0.094641  1
  Sb  Sb9  1  0.297320  0.250000  0.405359  1
  Sb  Sb10  1  0.547320  0.750000  0.905359  1
  Sb  Sb11  1  0.702680  0.750000  0.594641  1
