# generated using pymatgen
data_La2Th11O26
_symmetry_space_group_name_H-M   'P 1'
_cell_length_a   12.61773716
_cell_length_b   6.90841920
_cell_length_c   6.90915313
_cell_angle_alpha   80.40334713
_cell_angle_beta   89.99262735
_cell_angle_gamma   100.51624241
_symmetry_Int_Tables_number   1
_chemical_formula_structural   La2Th11O26
_chemical_formula_sum   'La2 Th11 O26'
_cell_volume   583.56856941
_cell_formula_units_Z   1
loop_
 _symmetry_equiv_pos_site_id
 _symmetry_equiv_pos_as_xyz
  1  'x, y, z'
loop_
 _atom_site_type_symbol
 _atom_site_label
 _atom_site_symmetry_multiplicity
 _atom_site_fract_x
 _atom_site_fract_y
 _atom_site_fract_z
 _atom_site_occupancy
  La  La0  1  0.077061  0.769309  0.538410  1
  La  La1  1  0.538324  0.384538  0.769283  1
  Th  Th2  1  0.153454  0.539471  0.076665  1
  Th  Th3  1  0.230823  0.307856  0.615404  1
  Th  Th4  1  0.000087  0.998923  0.000343  1
  Th  Th5  1  0.384562  0.845990  0.692289  1
  Th  Th6  1  0.691480  0.923161  0.845993  1
  Th  Th7  1  0.461930  0.614375  0.231026  1
  Th  Th8  1  0.307692  0.076923  0.153846  1
  Th  Th9  1  0.615298  0.154923  0.307349  1
  Th  Th10  1  0.845785  0.461590  0.921872  1
  Th  Th11  1  0.769600  0.692257  0.385821  1
  Th  Th12  1  0.923904  0.230685  0.461699  1
  O  O13  1  0.017082  0.689876  0.893167  1
  O  O14  1  0.096740  0.454565  0.418941  1
  O  O15  1  0.057190  0.083960  0.657882  1
  O  O16  1  0.172679  0.231198  0.963155  1
  O  O17  1  0.136455  0.848650  0.183573  1
  O  O18  1  0.214543  0.611701  0.736619  1
  O  O19  1  0.254422  0.006061  0.497813  1
  O  O20  1  0.360963  0.147785  0.809880  1
  O  O21  1  0.288322  0.385340  0.267453  1
  O  O22  1  0.327062  0.768506  0.040240  1
  O  O23  1  0.400842  0.542145  0.571073  1
  O  O24  1  0.518645  0.699282  0.888751  1
  O  O25  1  0.442706  0.922648  0.344538  1
  O  O26  1  0.598303  0.463970  0.414525  1
  O  O27  1  0.558194  0.069886  0.649810  1
  O  O28  1  0.478929  0.305196  0.124119  1
  O  O29  1  0.676427  0.226983  0.966280  1
  O  O30  1  0.715535  0.622019  0.730102  1
  O  O31  1  0.634778  0.846379  0.193475  1
  O  O32  1  0.789156  0.385064  0.268912  1
  O  O33  1  0.826229  0.768782  0.038780  1
  O  O34  1  0.865244  0.152516  0.807834  1
  O  O35  1  0.899850  0.531827  0.577590  1
  O  O36  1  0.750140  0.001330  0.499858  1
  O  O37  1  0.938958  0.926863  0.341413  1
  O  O38  1  0.980607  0.307467  0.114217  1
