# generated using pymatgen
data_LiV(PO3)3
_symmetry_space_group_name_H-M   'P 1'
_cell_length_a   10.74898431
_cell_length_b   12.02187653
_cell_length_c   5.36107859
_cell_angle_alpha   90.00000000
_cell_angle_beta   90.00000000
_cell_angle_gamma   90.00000000
_symmetry_Int_Tables_number   1
_chemical_formula_structural   LiV(PO3)3
_chemical_formula_sum   'Li4 V4 P12 O36'
_cell_volume   692.77445597
_cell_formula_units_Z   4
loop_
 _symmetry_equiv_pos_site_id
 _symmetry_equiv_pos_as_xyz
  1  'x, y, z'
loop_
 _atom_site_type_symbol
 _atom_site_label
 _atom_site_symmetry_multiplicity
 _atom_site_fract_x
 _atom_site_fract_y
 _atom_site_fract_z
 _atom_site_occupancy
  Li  Li0  1  0.112444  0.086734  0.109600  1
  Li  Li1  1  0.387556  0.913266  0.609600  1
  Li  Li2  1  0.612444  0.413266  0.890400  1
  Li  Li3  1  0.887556  0.586734  0.390400  1
  V  V4  1  0.034641  0.869292  0.597910  1
  V  V5  1  0.465359  0.130708  0.097910  1
  V  V6  1  0.534641  0.630708  0.402090  1
  V  V7  1  0.965359  0.369292  0.902090  1
  P  P8  1  0.073480  0.626061  0.881780  1
  P  P9  1  0.152861  0.361558  0.399108  1
  P  P10  1  0.194894  0.821519  0.082320  1
  P  P11  1  0.305106  0.178481  0.582320  1
  P  P12  1  0.347139  0.638442  0.899108  1
  P  P13  1  0.426520  0.373939  0.381780  1
  P  P14  1  0.573480  0.873939  0.118220  1
  P  P15  1  0.652861  0.138442  0.600892  1
  P  P16  1  0.694894  0.678481  0.917680  1
  P  P17  1  0.805106  0.321519  0.417680  1
  P  P18  1  0.847139  0.861558  0.100892  1
  P  P19  1  0.926520  0.126061  0.618220  1
  O  O20  1  0.011893  0.043743  0.492790  1
  O  O21  1  0.036760  0.676159  0.634104  1
  O  O22  1  0.063400  0.428370  0.552984  1
  O  O23  1  0.087391  0.727495  0.080006  1
  O  O24  1  0.117948  0.324340  0.141061  1
  O  O25  1  0.191984  0.892858  0.850127  1
  O  O26  1  0.187848  0.877858  0.331311  1
  O  O27  1  0.182117  0.253453  0.572032  1
  O  O28  1  0.213463  0.575957  0.885518  1
  O  O29  1  0.286537  0.424043  0.385518  1
  O  O30  1  0.317883  0.746547  0.072032  1
  O  O31  1  0.312152  0.122142  0.831311  1
  O  O32  1  0.308016  0.107142  0.350127  1
  O  O33  1  0.382052  0.675660  0.641061  1
  O  O34  1  0.412609  0.272505  0.580006  1
  O  O35  1  0.436600  0.571630  0.052984  1
  O  O36  1  0.463240  0.323841  0.134104  1
  O  O37  1  0.488107  0.956257  0.992790  1
  O  O38  1  0.511893  0.456257  0.507210  1
  O  O39  1  0.536760  0.823841  0.365896  1
  O  O40  1  0.563400  0.071630  0.447016  1
  O  O41  1  0.587391  0.772505  0.919994  1
  O  O42  1  0.617948  0.175660  0.858939  1
  O  O43  1  0.691984  0.607142  0.149873  1
  O  O44  1  0.687847  0.622142  0.668689  1
  O  O45  1  0.682117  0.246547  0.427968  1
  O  O46  1  0.713463  0.924043  0.114482  1
  O  O47  1  0.786537  0.075957  0.614482  1
  O  O48  1  0.817883  0.753453  0.927968  1
  O  O49  1  0.812153  0.377858  0.168689  1
  O  O50  1  0.808016  0.392858  0.649873  1
  O  O51  1  0.882052  0.824340  0.358939  1
  O  O52  1  0.912609  0.227495  0.419994  1
  O  O53  1  0.936600  0.928370  0.947016  1
  O  O54  1  0.963240  0.176159  0.865896  1
  O  O55  1  0.988107  0.543743  0.007210  1
