# generated using pymatgen
data_Li8Mn5Fe3(BO3)8
_symmetry_space_group_name_H-M   'P 1'
_cell_length_a   5.24903265
_cell_length_b   5.23662986
_cell_length_c   20.89175224
_cell_angle_alpha   89.53754274
_cell_angle_beta   91.10549501
_cell_angle_gamma   60.07779306
_symmetry_Int_Tables_number   1
_chemical_formula_structural   Li8Mn5Fe3(BO3)8
_chemical_formula_sum   'Li8 Mn5 Fe3 B8 O24'
_cell_volume   497.51381514
_cell_formula_units_Z   1
loop_
 _symmetry_equiv_pos_site_id
 _symmetry_equiv_pos_as_xyz
  1  'x, y, z'
loop_
 _atom_site_type_symbol
 _atom_site_label
 _atom_site_symmetry_multiplicity
 _atom_site_fract_x
 _atom_site_fract_y
 _atom_site_fract_z
 _atom_site_occupancy
  Li  Li0  1  0.324026  0.653712  0.666121  1
  Li  Li1  1  0.346753  0.677903  0.915773  1
  Li  Li2  1  0.322578  0.651859  0.166006  1
  Li  Li3  1  0.348512  0.678786  0.416030  1
  Li  Li4  1  0.651483  0.332809  0.791785  1
  Li  Li5  1  0.662876  0.349182  0.541875  1
  Li  Li6  1  0.654442  0.336254  0.291817  1
  Li  Li7  1  0.662425  0.348838  0.041313  1
  Mn  Mn8  1  0.325986  0.006922  0.559649  1
  Mn  Mn9  1  0.326784  0.006197  0.058758  1
  Mn  Mn10  1  0.678560  0.999888  0.932517  1
  Mn  Mn11  1  0.676387  0.002812  0.433681  1
  Mn  Mn12  1  0.997255  0.668107  0.307195  1
  Fe  Fe13  1  0.992567  0.324430  0.684956  1
  Fe  Fe14  1  0.994740  0.318459  0.183639  1
  Fe  Fe15  1  0.004120  0.663589  0.806891  1
  B  B16  1  0.003348  0.340887  0.936246  1
  B  B17  1  0.002364  0.342166  0.437180  1
  B  B18  1  0.331374  0.002415  0.810883  1
  B  B19  1  0.334729  0.002879  0.311345  1
  B  B20  1  0.662899  0.999021  0.687862  1
  B  B21  1  0.660947  0.997029  0.186747  1
  B  B22  1  0.993745  0.667194  0.563374  1
  B  B23  1  0.993560  0.667204  0.062895  1
  O  O24  1  0.066331  0.251729  0.791940  1
  O  O25  1  0.070579  0.244802  0.289950  1
  O  O26  1  0.254260  0.069773  0.951710  1
  O  O27  1  0.034004  0.577362  0.915321  1
  O  O28  1  0.253024  0.070967  0.452589  1
  O  O29  1  0.033200  0.578526  0.415951  1
  O  O30  1  0.581324  0.023876  0.824802  1
  O  O31  1  0.268283  0.642480  0.570184  1
  O  O32  1  0.577800  0.037041  0.326612  1
  O  O33  1  0.267935  0.642466  0.069842  1
  O  O34  1  0.346222  0.731597  0.817984  1
  O  O35  1  0.358853  0.729435  0.319256  1
  O  O36  1  0.640966  0.273801  0.694169  1
  O  O37  1  0.639310  0.271473  0.193695  1
  O  O38  1  0.727734  0.370767  0.943585  1
  O  O39  1  0.416808  0.980152  0.669283  1
  O  O40  1  0.727086  0.372319  0.444740  1
  O  O41  1  0.415518  0.977303  0.167684  1
  O  O42  1  0.960861  0.424582  0.579215  1
  O  O43  1  0.960724  0.424174  0.078387  1
  O  O44  1  0.751010  0.930451  0.541644  1
  O  O45  1  0.751154  0.930831  0.041169  1
  O  O46  1  0.933515  0.744305  0.701336  1
  O  O47  1  0.929838  0.742445  0.200616  1
