# generated using pymatgen
data_Li2Fe(CO3)2
_symmetry_space_group_name_H-M   'P 1'
_cell_length_a   8.69059366
_cell_length_b   6.07913966
_cell_length_c   5.40201260
_cell_angle_alpha   63.62097493
_cell_angle_beta   71.89276420
_cell_angle_gamma   82.06271297
_symmetry_Int_Tables_number   1
_chemical_formula_structural   Li2Fe(CO3)2
_chemical_formula_sum   'Li4 Fe2 C4 O12'
_cell_volume   243.01646477
_cell_formula_units_Z   2
loop_
 _symmetry_equiv_pos_site_id
 _symmetry_equiv_pos_as_xyz
  1  'x, y, z'
loop_
 _atom_site_type_symbol
 _atom_site_label
 _atom_site_symmetry_multiplicity
 _atom_site_fract_x
 _atom_site_fract_y
 _atom_site_fract_z
 _atom_site_occupancy
  Li  Li0  1  0.641694  0.915630  0.565553  1
  Li  Li1  1  0.141694  0.584370  0.731184  1
  Li  Li2  1  0.858306  0.415630  0.457247  1
  Li  Li3  1  0.358306  0.084370  0.122877  1
  Fe  Fe4  1  0.500000  0.500000  0.171807  1
  Fe  Fe5  1  0.000000  0.000000  0.921807  1
  C  C6  1  0.706133  0.932816  0.981934  1
  C  C7  1  0.206133  0.567184  0.164750  1
  C  C8  1  0.793867  0.432816  0.938067  1
  C  C9  1  0.293867  0.067184  0.620883  1
  O  O10  1  0.811743  0.996750  0.728425  1
  O  O11  1  0.754549  0.920291  0.190095  1
  O  O12  1  0.558280  0.881392  0.014702  1
  O  O13  1  0.058280  0.618608  0.146096  1
  O  O14  1  0.254549  0.579709  0.360386  1
  O  O15  1  0.311743  0.503250  0.975174  1
  O  O16  1  0.688257  0.496750  0.790169  1
  O  O17  1  0.745451  0.420291  0.194644  1
  O  O18  1  0.941720  0.381392  0.822983  1
  O  O19  1  0.441720  0.118608  0.454375  1
  O  O20  1  0.245451  0.079709  0.864934  1
  O  O21  1  0.188257  0.003250  0.536918  1
