# generated using pymatgen
data_Fe3(O2F)2
_symmetry_space_group_name_H-M   'P 1'
_cell_length_a   10.59246744
_cell_length_b   6.64219473
_cell_length_c   3.02698531
_cell_angle_alpha   90.00000000
_cell_angle_beta   90.00000000
_cell_angle_gamma   71.74809071
_symmetry_Int_Tables_number   1
_chemical_formula_structural   Fe3(O2F)2
_chemical_formula_sum   'Fe6 O8 F4'
_cell_volume   202.25549084
_cell_formula_units_Z   2
loop_
 _symmetry_equiv_pos_site_id
 _symmetry_equiv_pos_as_xyz
  1  'x, y, z'
loop_
 _atom_site_type_symbol
 _atom_site_label
 _atom_site_symmetry_multiplicity
 _atom_site_fract_x
 _atom_site_fract_y
 _atom_site_fract_z
 _atom_site_occupancy
  Fe  Fe0  1  0.015102  0.992505  0.000000  1
  Fe  Fe1  1  0.012226  0.493924  0.500000  1
  Fe  Fe2  1  0.333235  0.333405  0.000000  1
  Fe  Fe3  1  0.655676  0.172116  0.500000  1
  Fe  Fe4  1  0.332000  0.834025  0.500000  1
  Fe  Fe5  1  0.650363  0.674730  0.000000  1
  O  O6  1  0.004159  0.305140  0.000000  1
  O  O7  1  0.004324  0.690699  0.000000  1
  O  O8  1  0.214019  0.392864  0.500000  1
  O  O9  1  0.455707  0.272290  0.500000  1
  O  O10  1  0.141468  0.929493  0.500000  1
  O  O11  1  0.661818  0.361116  0.000000  1
  O  O12  1  0.526761  0.736428  0.500000  1
  O  O13  1  0.661635  0.977077  0.000000  1
  F  F14  1  0.334460  0.026219  0.000000  1
  F  F15  1  0.334134  0.639499  0.000000  1
  F  F16  1  0.872693  0.063517  0.500000  1
  F  F17  1  0.790218  0.604953  0.500000  1
