# generated using pymatgen
data_VH7N2O5
_symmetry_space_group_name_H-M   'P 1'
_cell_length_a   8.53859437
_cell_length_b   6.88170213
_cell_length_c   9.45437408
_cell_angle_alpha   90.00000000
_cell_angle_beta   90.00000000
_cell_angle_gamma   90.00000000
_symmetry_Int_Tables_number   1
_chemical_formula_structural   VH7N2O5
_chemical_formula_sum   'V4 H28 N8 O20'
_cell_volume   555.53961716
_cell_formula_units_Z   4
loop_
 _symmetry_equiv_pos_site_id
 _symmetry_equiv_pos_as_xyz
  1  'x, y, z'
loop_
 _atom_site_type_symbol
 _atom_site_label
 _atom_site_symmetry_multiplicity
 _atom_site_fract_x
 _atom_site_fract_y
 _atom_site_fract_z
 _atom_site_occupancy
  V  V0  1  0.732790  0.250000  0.274220  1
  V  V1  1  0.232790  0.250000  0.225780  1
  V  V2  1  0.267210  0.750000  0.725780  1
  V  V3  1  0.767210  0.750000  0.774220  1
  H  H4  1  0.564051  0.250000  0.988139  1
  H  H5  1  0.064051  0.250000  0.511861  1
  H  H6  1  0.435949  0.750000  0.011861  1
  H  H7  1  0.935949  0.750000  0.488139  1
  H  H8  1  0.686088  0.250000  0.846326  1
  H  H9  1  0.186088  0.250000  0.653674  1
  H  H10  1  0.313912  0.750000  0.153674  1
  H  H11  1  0.813912  0.750000  0.346326  1
  H  H12  1  0.514092  0.128513  0.838655  1
  H  H13  1  0.014092  0.371487  0.661345  1
  H  H14  1  0.485908  0.628513  0.161345  1
  H  H15  1  0.985908  0.871487  0.338655  1
  H  H16  1  0.485908  0.871487  0.161345  1
  H  H17  1  0.985908  0.628513  0.338655  1
  H  H18  1  0.514092  0.371487  0.838655  1
  H  H19  1  0.014092  0.128513  0.661345  1
  H  H20  1  0.486994  0.250000  0.444244  1
  H  H21  1  0.986994  0.250000  0.055756  1
  H  H22  1  0.513006  0.750000  0.555756  1
  H  H23  1  0.013006  0.750000  0.944244  1
  H  H24  1  0.633130  0.129517  0.525770  1
  H  H25  1  0.133130  0.370483  0.974230  1
  H  H26  1  0.366870  0.629517  0.474230  1
  H  H27  1  0.866870  0.870483  0.025770  1
  H  H28  1  0.366870  0.870483  0.474230  1
  H  H29  1  0.866870  0.629517  0.025770  1
  H  H30  1  0.633130  0.370483  0.525770  1
  H  H31  1  0.133130  0.129517  0.974230  1
  N  N32  1  0.604163  0.250000  0.466160  1
  N  N33  1  0.104163  0.250000  0.033840  1
  N  N34  1  0.395837  0.750000  0.533840  1
  N  N35  1  0.895837  0.750000  0.966160  1
  N  N36  1  0.570694  0.250000  0.878778  1
  N  N37  1  0.070694  0.250000  0.621222  1
  N  N38  1  0.429306  0.750000  0.121222  1
  N  N39  1  0.929306  0.750000  0.378778  1
  O  O40  1  0.735613  0.444603  0.130536  1
  O  O41  1  0.235613  0.055397  0.369464  1
  O  O42  1  0.264387  0.944603  0.869464  1
  O  O43  1  0.764387  0.555397  0.630536  1
  O  O44  1  0.264387  0.555397  0.869464  1
  O  O45  1  0.764387  0.944603  0.630536  1
  O  O46  1  0.735613  0.055397  0.130536  1
  O  O47  1  0.235613  0.444603  0.369464  1
  O  O48  1  0.664442  0.513568  0.262816  1
  O  O49  1  0.164442  0.986432  0.237184  1
  O  O50  1  0.335558  0.013568  0.737184  1
  O  O51  1  0.835558  0.486432  0.762816  1
  O  O52  1  0.335558  0.486432  0.737184  1
  O  O53  1  0.835558  0.013568  0.762816  1
  O  O54  1  0.664442  0.986432  0.262816  1
  O  O55  1  0.164442  0.513568  0.237184  1
  O  O56  1  0.909033  0.250000  0.344446  1
  O  O57  1  0.409033  0.250000  0.155554  1
  O  O58  1  0.090967  0.750000  0.655554  1
  O  O59  1  0.590967  0.750000  0.844446  1
