# generated using pymatgen
data_Ba4Ta2O9
_symmetry_space_group_name_H-M   'P 1'
_cell_length_a   10.57127632
_cell_length_b   6.08987771
_cell_length_c   15.68870794
_cell_angle_alpha   90.00000000
_cell_angle_beta   90.10007490
_cell_angle_gamma   90.00000000
_symmetry_Int_Tables_number   1
_chemical_formula_structural   Ba4Ta2O9
_chemical_formula_sum   'Ba16 Ta8 O36'
_cell_volume   1010.00264831
_cell_formula_units_Z   4
loop_
 _symmetry_equiv_pos_site_id
 _symmetry_equiv_pos_as_xyz
  1  'x, y, z'
loop_
 _atom_site_type_symbol
 _atom_site_label
 _atom_site_symmetry_multiplicity
 _atom_site_fract_x
 _atom_site_fract_y
 _atom_site_fract_z
 _atom_site_occupancy
  Ba  Ba0  1  0.000000  0.000000  0.500000  1
  Ba  Ba1  1  0.000000  0.000000  0.000000  1
  Ba  Ba2  1  0.001966  0.006579  0.242182  1
  Ba  Ba3  1  0.156109  0.487392  0.603240  1
  Ba  Ba4  1  0.180587  0.509081  0.090753  1
  Ba  Ba5  1  0.319413  0.009081  0.409247  1
  Ba  Ba6  1  0.343891  0.987392  0.896760  1
  Ba  Ba7  1  0.498034  0.506579  0.257818  1
  Ba  Ba8  1  0.500000  0.500000  0.500000  1
  Ba  Ba9  1  0.501966  0.493421  0.742182  1
  Ba  Ba10  1  0.500000  0.500000  0.000000  1
  Ba  Ba11  1  0.656109  0.012608  0.103240  1
  Ba  Ba12  1  0.680587  0.990919  0.590753  1
  Ba  Ba13  1  0.819413  0.490919  0.909247  1
  Ba  Ba14  1  0.843891  0.512608  0.396760  1
  Ba  Ba15  1  0.998034  0.993421  0.757818  1
  Ta  Ta16  1  0.164133  0.493706  0.830421  1
  Ta  Ta17  1  0.168179  0.510023  0.329440  1
  Ta  Ta18  1  0.335867  0.993706  0.669579  1
  Ta  Ta19  1  0.331821  0.010023  0.170561  1
  Ta  Ta20  1  0.668179  0.989977  0.829440  1
  Ta  Ta21  1  0.664133  0.006294  0.330421  1
  Ta  Ta22  1  0.831821  0.489977  0.670560  1
  Ta  Ta23  1  0.835867  0.506294  0.169579  1
  O  O24  1  0.002521  0.541014  0.744385  1
  O  O25  1  0.049143  0.309184  0.892356  1
  O  O26  1  0.081495  0.765092  0.375673  1
  O  O27  1  0.109596  0.321187  0.420130  1
  O  O28  1  0.124476  0.755494  0.894688  1
  O  O29  1  0.176672  0.077563  0.110425  1
  O  O30  1  0.193470  0.926462  0.596720  1
  O  O31  1  0.228454  0.226751  0.750702  1
  O  O32  1  0.244752  0.741751  0.232318  1
  O  O33  1  0.255248  0.241751  0.267682  1
  O  O34  1  0.271546  0.726751  0.749298  1
  O  O35  1  0.306530  0.426462  0.903280  1
  O  O36  1  0.323328  0.577563  0.389575  1
  O  O37  1  0.375524  0.255494  0.605312  1
  O  O38  1  0.390404  0.821187  0.079870  1
  O  O39  1  0.418505  0.265092  0.124327  1
  O  O40  1  0.450857  0.809184  0.607644  1
  O  O41  1  0.497479  0.041014  0.755615  1
  O  O42  1  0.502521  0.958986  0.244385  1
  O  O43  1  0.549143  0.190816  0.392356  1
  O  O44  1  0.581495  0.734908  0.875673  1
  O  O45  1  0.609596  0.178813  0.920130  1
  O  O46  1  0.624476  0.744506  0.394688  1
  O  O47  1  0.676672  0.422437  0.610425  1
  O  O48  1  0.693470  0.573538  0.096720  1
  O  O49  1  0.728454  0.273249  0.250702  1
  O  O50  1  0.744752  0.758249  0.732318  1
  O  O51  1  0.755248  0.258249  0.767682  1
  O  O52  1  0.771546  0.773249  0.249298  1
  O  O53  1  0.806530  0.073538  0.403280  1
  O  O54  1  0.823328  0.922437  0.889575  1
  O  O55  1  0.875524  0.244506  0.105312  1
  O  O56  1  0.890404  0.678813  0.579870  1
  O  O57  1  0.918505  0.234908  0.624327  1
  O  O58  1  0.950857  0.690816  0.107644  1
  O  O59  1  0.997479  0.458986  0.255615  1
