# generated using pymatgen
data_LiMnF4
_symmetry_space_group_name_H-M   'P 1'
_cell_length_a   7.64543083
_cell_length_b   7.61026911
_cell_length_c   10.06422659
_cell_angle_alpha   90.00000000
_cell_angle_beta   90.00000000
_cell_angle_gamma   90.00000000
_symmetry_Int_Tables_number   1
_chemical_formula_structural   LiMnF4
_chemical_formula_sum   'Li8 Mn8 F32'
_cell_volume   585.57480695
_cell_formula_units_Z   8
loop_
 _symmetry_equiv_pos_site_id
 _symmetry_equiv_pos_as_xyz
  1  'x, y, z'
loop_
 _atom_site_type_symbol
 _atom_site_label
 _atom_site_symmetry_multiplicity
 _atom_site_fract_x
 _atom_site_fract_y
 _atom_site_fract_z
 _atom_site_occupancy
  Li  Li0  1  0.000000  0.247719  0.228524  1
  Li  Li1  1  0.000000  0.809678  0.211428  1
  Li  Li2  1  0.000000  0.009765  0.730355  1
  Li  Li3  1  0.000000  0.523963  0.705858  1
  Li  Li4  1  0.500000  0.023963  0.294142  1
  Li  Li5  1  0.500000  0.309678  0.788572  1
  Li  Li6  1  0.500000  0.509765  0.269645  1
  Li  Li7  1  0.500000  0.747719  0.771476  1
  Mn  Mn8  1  0.246664  0.496754  0.994161  1
  Mn  Mn9  1  0.248349  0.744791  0.493800  1
  Mn  Mn10  1  0.251651  0.244791  0.506201  1
  Mn  Mn11  1  0.253336  0.996754  0.005839  1
  Mn  Mn12  1  0.746664  0.996754  0.005839  1
  Mn  Mn13  1  0.748349  0.244791  0.506201  1
  Mn  Mn14  1  0.751651  0.744791  0.493800  1
  Mn  Mn15  1  0.753336  0.496754  0.994161  1
  F  F16  1  0.000000  0.213460  0.424720  1
  F  F17  1  0.000000  0.780982  0.407011  1
  F  F18  1  0.000000  0.030520  0.926812  1
  F  F19  1  0.000000  0.475062  0.902608  1
  F  F20  1  0.164182  0.440344  0.157021  1
  F  F21  1  0.172122  0.197548  0.673776  1
  F  F22  1  0.161919  0.792030  0.659095  1
  F  F23  1  0.167491  0.037518  0.175356  1
  F  F24  1  0.185995  0.495933  0.537291  1
  F  F25  1  0.188158  0.746784  0.037661  1
  F  F26  1  0.311842  0.246784  0.962339  1
  F  F27  1  0.314005  0.995933  0.462709  1
  F  F28  1  0.332509  0.537518  0.824643  1
  F  F29  1  0.338081  0.292030  0.340904  1
  F  F30  1  0.327878  0.697548  0.326224  1
  F  F31  1  0.335818  0.940344  0.842979  1
  F  F32  1  0.500000  0.280982  0.592989  1
  F  F33  1  0.500000  0.530520  0.073188  1
  F  F34  1  0.500000  0.975062  0.097392  1
  F  F35  1  0.500000  0.713460  0.575280  1
  F  F36  1  0.664182  0.940344  0.842979  1
  F  F37  1  0.672122  0.697548  0.326224  1
  F  F38  1  0.661919  0.292030  0.340904  1
  F  F39  1  0.667491  0.537518  0.824643  1
  F  F40  1  0.685995  0.995933  0.462709  1
  F  F41  1  0.688158  0.246784  0.962339  1
  F  F42  1  0.811842  0.746784  0.037661  1
  F  F43  1  0.814005  0.495933  0.537291  1
  F  F44  1  0.832509  0.037518  0.175356  1
  F  F45  1  0.838081  0.792030  0.659095  1
  F  F46  1  0.827878  0.197548  0.673776  1
  F  F47  1  0.835818  0.440344  0.157021  1
