# generated using pymatgen
data_Te2As2SI6(OF6)2
_symmetry_space_group_name_H-M   'P 1'
_cell_length_a   13.57482865
_cell_length_b   13.56390663
_cell_length_c   13.38032509
_cell_angle_alpha   91.28228847
_cell_angle_beta   88.88056719
_cell_angle_gamma   88.81698801
_symmetry_Int_Tables_number   1
_chemical_formula_structural   Te2As2SI6(OF6)2
_chemical_formula_sum   'Te8 As8 S4 I24 O8 F48'
_cell_volume   2462.05367471
_cell_formula_units_Z   4
loop_
 _symmetry_equiv_pos_site_id
 _symmetry_equiv_pos_as_xyz
  1  'x, y, z'
loop_
 _atom_site_type_symbol
 _atom_site_label
 _atom_site_symmetry_multiplicity
 _atom_site_fract_x
 _atom_site_fract_y
 _atom_site_fract_z
 _atom_site_occupancy
  Te  Te0  1  0.297404  0.200058  0.647010  1
  Te  Te1  1  0.254892  0.800405  0.583607  1
  Te  Te2  1  0.233081  0.623770  0.101500  1
  Te  Te3  1  0.237017  0.395350  0.073325  1
  Te  Te4  1  0.785126  0.361047  0.849006  1
  Te  Te5  1  0.706525  0.552050  0.901205  1
  Te  Te6  1  0.702655  0.125856  0.442188  1
  Te  Te7  1  0.745184  0.914158  0.428218  1
  As  As8  1  0.045314  0.001040  0.477972  1
  As  As9  1  0.280078  0.477635  0.351952  1
  As  As10  1  0.137877  0.009322  0.809697  1
  As  As11  1  0.514467  0.423453  0.054196  1
  As  As12  1  0.472891  0.001856  0.354311  1
  As  As13  1  0.762405  0.945817  0.147613  1
  As  As14  1  0.691185  0.521103  0.641409  1
  As  As15  1  0.972133  0.548031  0.953348  1
  S  S16  1  0.129752  0.112750  0.285902  1
  S  S17  1  0.289806  0.498872  0.735086  1
  S  S18  1  0.790583  0.508787  0.253566  1
  S  S19  1  0.653708  0.967829  0.736807  1
  I  I20  1  0.050386  0.151051  0.131563  1
  I  I21  1  0.120419  0.817936  0.119420  1
  I  I22  1  0.119781  0.661251  0.742530  1
  I  I23  1  0.153228  0.377719  0.695561  1
  I  I24  1  0.123924  0.247689  0.405888  1
  I  I25  1  0.150000  0.690025  0.369417  1
  I  I26  1  0.363463  0.751716  0.924436  1
  I  I27  1  0.402951  0.167748  0.869395  1
  I  I28  1  0.388861  0.202467  0.158358  1
  I  I29  1  0.393184  0.901888  0.172605  1
  I  I30  1  0.445613  0.300039  0.563545  1
  I  I31  1  0.409755  0.681439  0.599122  1
  I  I32  1  0.605442  0.325459  0.395184  1
  I  I33  1  0.606717  0.671467  0.331986  1
  I  I34  1  0.606642  0.131966  0.790019  1
  I  I35  1  0.595683  0.852603  0.853906  1
  I  I36  1  0.655599  0.778023  0.090034  1
  I  I37  1  0.687575  0.169890  0.066647  1
  I  I38  1  0.905626  0.311322  0.594897  1
  I  I39  1  0.920938  0.644501  0.583239  1
  I  I40  1  0.861446  0.351286  0.275981  1
  I  I41  1  0.913804  0.620674  0.305025  1
  I  I42  1  0.951390  0.163865  0.905460  1
  I  I43  1  0.986757  0.886292  0.962743  1
  O  O44  1  0.213954  0.730364  0.230764  1
  O  O45  1  0.382882  0.446004  0.758991  1
  O  O46  1  0.624644  0.282866  0.112427  1
  O  O47  1  0.701213  0.716174  0.225727  1
  O  O48  1  0.795422  0.317118  0.692533  1
  O  O49  1  0.794865  0.666492  0.632081  1
  O  O50  1  0.055181  0.905786  0.834762  1
  O  O51  1  0.056829  0.113982  0.804796  1
  F  F52  1  0.934162  0.168731  0.607937  1
  F  F53  1  0.952069  0.781898  0.590517  1
  F  F54  1  0.237583  0.473396  0.477673  1
  F  F55  1  0.166637  0.604366  0.974274  1
  F  F56  1  0.124959  0.404599  0.988209  1
  F  F57  1  0.087450  0.635806  0.508112  1
  F  F58  1  0.142028  0.383207  0.187997  1
  F  F59  1  0.106419  0.583283  0.154516  1
  F  F60  1  0.173457  0.976970  0.453466  1
  F  F61  1  0.267389  0.217931  0.915827  1
  F  F62  1  0.226335  0.804311  0.900023  1
  F  F63  1  0.059998  0.950505  0.599791  1
  F  F64  1  0.441908  0.532388  0.085569  1
  F  F65  1  0.351216  0.367374  0.359771  1
  F  F66  1  0.380597  0.555673  0.374963  1
  F  F67  1  0.320378  0.432056  0.954260  1
  F  F68  1  0.382619  0.081010  0.622708  1
  F  F69  1  0.302805  0.892786  0.683741  1
  F  F70  1  0.341036  0.060759  0.135395  1
  F  F71  1  0.360116  0.065241  0.383744  1
  F  F72  1  0.442724  0.900090  0.427383  1
  F  F73  1  0.176100  0.022454  0.935799  1
  F  F74  1  0.430088  0.364367  0.164660  1
  F  F75  1  0.433937  0.767526  0.206697  1
  F  F76  1  0.518589  0.710279  0.944637  1
  F  F77  1  0.640810  0.326677  0.866313  1
  F  F78  1  0.773463  0.982580  0.014560  1
  F  F79  1  0.555805  0.077720  0.468244  1
  F  F80  1  0.642605  0.891374  0.528708  1
  F  F81  1  0.584590  0.067131  0.096768  1
  F  F82  1  0.664829  0.114000  0.304281  1
  F  F83  1  0.632751  0.910260  0.323887  1
  F  F84  1  0.612745  0.475999  0.119690  1
  F  F85  1  0.614709  0.414520  0.652907  1
  F  F86  1  0.590738  0.603597  0.674425  1
  F  F87  1  0.567414  0.506446  0.921699  1
  F  F88  1  0.828952  0.953944  0.289927  1
  F  F89  1  0.827560  0.237461  0.019497  1
  F  F90  1  0.876419  0.875357  0.125422  1
  F  F91  1  0.836263  0.963075  0.535935  1
  F  F92  1  0.917199  0.425117  0.823614  1
  F  F93  1  0.866986  0.600954  0.880179  1
  F  F94  1  0.888602  0.463052  0.569470  1
  F  F95  1  0.942871  0.639881  0.045087  1
  F  F96  1  0.906495  0.458709  0.022042  1
  F  F97  1  0.672773  0.532691  0.510721  1
  F  F98  1  0.833965  0.152306  0.385678  1
  F  F99  1  0.009602  0.891854  0.415122  1
