# generated using pymatgen
data_HoGaO3
_symmetry_space_group_name_H-M   'P 1'
_cell_length_a   5.28377369
_cell_length_b   5.59309031
_cell_length_c   7.63411151
_cell_angle_alpha   90.00000000
_cell_angle_beta   90.00000000
_cell_angle_gamma   89.99966919
_symmetry_Int_Tables_number   1
_chemical_formula_structural   HoGaO3
_chemical_formula_sum   'Ho4 Ga4 O12'
_cell_volume   225.60802264
_cell_formula_units_Z   4
loop_
 _symmetry_equiv_pos_site_id
 _symmetry_equiv_pos_as_xyz
  1  'x, y, z'
loop_
 _atom_site_type_symbol
 _atom_site_label
 _atom_site_symmetry_multiplicity
 _atom_site_fract_x
 _atom_site_fract_y
 _atom_site_fract_z
 _atom_site_occupancy
  Ho  Ho0  1  0.020468  0.068962  0.008954  1
  Ho  Ho1  1  0.479532  0.568961  0.008954  1
  Ho  Ho2  1  0.520468  0.431039  0.508954  1
  Ho  Ho3  1  0.979532  0.931038  0.508954  1
  Ga  Ga4  1  0.999991  0.499953  0.759033  1
  Ga  Ga5  1  0.500009  0.999953  0.759033  1
  Ga  Ga6  1  0.499991  0.000047  0.259033  1
  Ga  Ga7  1  0.000009  0.500047  0.259033  1
  O  O8  1  0.114832  0.541487  0.509089  1
  O  O9  1  0.193834  0.803933  0.817788  1
  O  O10  1  0.193658  0.804279  0.200505  1
  O  O11  1  0.306341  0.304279  0.200505  1
  O  O12  1  0.306166  0.303931  0.817789  1
  O  O13  1  0.385166  0.041488  0.509089  1
  O  O14  1  0.614834  0.958512  0.009088  1
  O  O15  1  0.693834  0.696069  0.317789  1
  O  O16  1  0.693660  0.695721  0.700505  1
  O  O17  1  0.806341  0.195721  0.700505  1
  O  O18  1  0.806166  0.196067  0.317788  1
  O  O19  1  0.885168  0.458513  0.009088  1
