# generated using pymatgen
data_FeOF
_symmetry_space_group_name_H-M   'P 1'
_cell_length_a   14.14130490
_cell_length_b   14.24729546
_cell_length_c   3.09745471
_cell_angle_alpha   90.00000000
_cell_angle_beta   90.00000000
_cell_angle_gamma   90.19088127
_symmetry_Int_Tables_number   1
_chemical_formula_structural   FeOF
_chemical_formula_sum   'Fe18 O18 F18'
_cell_volume   624.05730564
_cell_formula_units_Z   18
loop_
 _symmetry_equiv_pos_site_id
 _symmetry_equiv_pos_as_xyz
  1  'x, y, z'
loop_
 _atom_site_type_symbol
 _atom_site_label
 _atom_site_symmetry_multiplicity
 _atom_site_fract_x
 _atom_site_fract_y
 _atom_site_fract_z
 _atom_site_occupancy
  Fe  Fe0  1  0.013256  0.996506  0.000000  1
  Fe  Fe1  1  0.017918  0.337450  0.000000  1
  Fe  Fe2  1  0.006962  0.663798  0.000000  1
  Fe  Fe3  1  0.153635  0.164980  0.500000  1
  Fe  Fe4  1  0.152772  0.502506  0.500000  1
  Fe  Fe5  1  0.173678  0.850289  0.500000  1
  Fe  Fe6  1  0.342129  0.994063  0.000000  1
  Fe  Fe7  1  0.340882  0.335404  0.000000  1
  Fe  Fe8  1  0.343093  0.663768  0.000000  1
  Fe  Fe9  1  0.486708  0.499079  0.500000  1
  Fe  Fe10  1  0.478518  0.167099  0.500000  1
  Fe  Fe11  1  0.485439  0.830315  0.500000  1
  Fe  Fe12  1  0.672666  0.003856  0.000000  1
  Fe  Fe13  1  0.676762  0.328508  0.000000  1
  Fe  Fe14  1  0.680114  0.665707  0.000000  1
  Fe  Fe15  1  0.822317  0.164830  0.500000  1
  Fe  Fe16  1  0.818848  0.495625  0.500000  1
  Fe  Fe17  1  0.840984  0.811631  0.500000  1
  O  O18  1  0.065010  0.271018  0.500000  1
  O  O19  1  0.068188  0.600822  0.500000  1
  O  O20  1  0.061485  0.932035  0.500000  1
  O  O21  1  0.101125  0.102231  0.000000  1
  O  O22  1  0.102062  0.442811  0.000000  1
  O  O23  1  0.235264  0.903368  0.000000  1
  O  O24  1  0.393086  0.272360  0.500000  1
  O  O25  1  0.397178  0.602487  0.500000  1
  O  O26  1  0.404481  0.937943  0.500000  1
  O  O27  1  0.434845  0.101568  0.000000  1
  O  O28  1  0.434646  0.436002  0.000000  1
  O  O29  1  0.435094  0.767796  0.000000  1
  O  O30  1  0.729490  0.264239  0.500000  1
  O  O31  1  0.731301  0.602162  0.500000  1
  O  O32  1  0.766912  0.097013  0.000000  1
  O  O33  1  0.765518  0.432590  0.000000  1
  O  O34  1  0.767608  0.772202  0.000000  1
  O  O35  1  0.943325  0.727925  0.500000  1
  F  F36  1  0.109462  0.769716  0.000000  1
  F  F37  1  0.231085  0.234312  0.000000  1
  F  F38  1  0.229257  0.568476  0.000000  1
  F  F39  1  0.268459  0.071372  0.500000  1
  F  F40  1  0.266384  0.731255  0.500000  1
  F  F41  1  0.262381  0.402620  0.500000  1
  F  F42  1  0.564511  0.230515  0.000000  1
  F  F43  1  0.565935  0.565901  0.000000  1
  F  F44  1  0.573002  0.901505  0.000000  1
  F  F45  1  0.602290  0.062469  0.500000  1
  F  F46  1  0.599556  0.396508  0.500000  1
  F  F47  1  0.601129  0.734179  0.500000  1
  F  F48  1  0.729688  0.935681  0.500000  1
  F  F49  1  0.895915  0.228444  0.000000  1
  F  F50  1  0.897835  0.559554  0.000000  1
  F  F51  1  0.895423  0.901998  0.000000  1
  F  F52  1  0.931803  0.066410  0.500000  1
  F  F53  1  0.932589  0.397105  0.500000  1
