# generated using pymatgen
data_LiMn3Al2(HO2)6
_symmetry_space_group_name_H-M   'P 1'
_cell_length_a   9.69124498
_cell_length_b   5.87796734
_cell_length_c   7.95150008
_cell_angle_alpha   79.06108960
_cell_angle_beta   79.06598411
_cell_angle_gamma   89.77266730
_symmetry_Int_Tables_number   1
_chemical_formula_structural   LiMn3Al2(HO2)6
_chemical_formula_sum   'Li2 Mn6 Al4 H12 O24'
_cell_volume   436.41114943
_cell_formula_units_Z   2
loop_
 _symmetry_equiv_pos_site_id
 _symmetry_equiv_pos_as_xyz
  1  'x, y, z'
loop_
 _atom_site_type_symbol
 _atom_site_label
 _atom_site_symmetry_multiplicity
 _atom_site_fract_x
 _atom_site_fract_y
 _atom_site_fract_z
 _atom_site_occupancy
  Li  Li0  1  0.499664  0.591675  0.655258  1
  Li  Li1  1  0.500380  0.908314  0.344752  1
  Mn  Mn2  1  0.993162  0.332008  0.664543  1
  Mn  Mn3  1  0.006848  0.168007  0.335444  1
  Mn  Mn4  1  0.993968  0.831444  0.664324  1
  Mn  Mn5  1  0.006053  0.668570  0.335659  1
  Mn  Mn6  1  0.999687  0.000045  0.000226  1
  Mn  Mn7  1  0.000319  0.499934  0.999759  1
  Al  Al8  1  0.500751  0.080726  0.659784  1
  Al  Al9  1  0.499283  0.419259  0.340231  1
  Al  Al10  1  0.500013  0.249998  0.000004  1
  Al  Al11  1  0.500016  0.749996  0.000004  1
  H  H12  1  0.711808  0.038879  0.836449  1
  H  H13  1  0.704100  0.539387  0.846771  1
  H  H14  1  0.300381  0.280331  0.824528  1
  H  H15  1  0.708627  0.362137  0.501784  1
  H  H16  1  0.295335  0.803736  0.829707  1
  H  H17  1  0.291400  0.137879  0.498245  1
  H  H18  1  0.709076  0.890748  0.516754  1
  H  H19  1  0.699649  0.219679  0.175474  1
  H  H20  1  0.290953  0.609266  0.483251  1
  H  H21  1  0.704704  0.696245  0.170281  1
  H  H22  1  0.288221  0.461121  0.163553  1
  H  H23  1  0.295933  0.960617  0.153225  1
  O  O24  1  0.885764  0.051807  0.780844  1
  O  O25  1  0.606405  0.034129  0.869080  1
  O  O26  1  0.600523  0.529068  0.883425  1
  O  O27  1  0.886584  0.552393  0.780803  1
  O  O28  1  0.403196  0.281104  0.808619  1
  O  O29  1  0.096017  0.281694  0.854638  1
  O  O30  1  0.605316  0.352428  0.520896  1
  O  O31  1  0.898454  0.384870  0.464775  1
  O  O32  1  0.096082  0.782690  0.854968  1
  O  O33  1  0.101561  0.115153  0.535216  1
  O  O34  1  0.398313  0.813943  0.811661  1
  O  O35  1  0.394710  0.147562  0.479123  1
  O  O36  1  0.596831  0.218888  0.191392  1
  O  O37  1  0.900062  0.886175  0.464543  1
  O  O38  1  0.606534  0.881151  0.545848  1
  O  O39  1  0.903984  0.218297  0.145363  1
  O  O40  1  0.099956  0.613837  0.535445  1
  O  O41  1  0.393505  0.618840  0.454164  1
  O  O42  1  0.601720  0.686048  0.188344  1
  O  O43  1  0.903944  0.717294  0.145016  1
  O  O44  1  0.114249  0.448203  0.219144  1
  O  O45  1  0.393625  0.465866  0.130926  1
  O  O46  1  0.399509  0.970926  0.116581  1
  O  O47  1  0.113426  0.947637  0.219177  1
