# generated using pymatgen
data_Li3Mn4(BO3)4
_symmetry_space_group_name_H-M   'P 1'
_cell_length_a   5.28846992
_cell_length_b   9.09230215
_cell_length_c   10.36966950
_cell_angle_alpha   90.00000000
_cell_angle_beta   90.83791014
_cell_angle_gamma   90.00000000
_symmetry_Int_Tables_number   1
_chemical_formula_structural   Li3Mn4(BO3)4
_chemical_formula_sum   'Li6 Mn8 B8 O24'
_cell_volume   498.56566889
_cell_formula_units_Z   2
loop_
 _symmetry_equiv_pos_site_id
 _symmetry_equiv_pos_as_xyz
  1  'x, y, z'
loop_
 _atom_site_type_symbol
 _atom_site_label
 _atom_site_symmetry_multiplicity
 _atom_site_fract_x
 _atom_site_fract_y
 _atom_site_fract_z
 _atom_site_occupancy
  Li  Li0  1  0.144255  0.981029  0.658045  1
  Li  Li1  1  0.165398  0.013853  0.180636  1
  Li  Li2  1  0.343477  0.490723  0.910219  1
  Li  Li3  1  0.644255  0.518971  0.158045  1
  Li  Li4  1  0.665398  0.486147  0.680636  1
  Li  Li5  1  0.843477  0.009277  0.410219  1
  Mn  Mn6  1  0.161039  0.638322  0.621123  1
  Mn  Mn7  1  0.153065  0.330291  0.135419  1
  Mn  Mn8  1  0.325823  0.148664  0.884962  1
  Mn  Mn9  1  0.355596  0.812673  0.378792  1
  Mn  Mn10  1  0.653065  0.169709  0.635419  1
  Mn  Mn11  1  0.661039  0.861678  0.121123  1
  Mn  Mn12  1  0.825823  0.351336  0.384962  1
  Mn  Mn13  1  0.855596  0.687327  0.878792  1
  B  B14  1  0.166586  0.321681  0.630905  1
  B  B15  1  0.174053  0.674831  0.121709  1
  B  B16  1  0.331352  0.811454  0.865934  1
  B  B17  1  0.331180  0.164119  0.380145  1
  B  B18  1  0.674053  0.825169  0.621709  1
  B  B19  1  0.666586  0.178319  0.130905  1
  B  B20  1  0.831180  0.335881  0.880145  1
  B  B21  1  0.831352  0.688546  0.365934  1
  O  O22  1  0.064534  0.693669  0.428708  1
  O  O23  1  0.081884  0.324727  0.924080  1
  O  O24  1  0.210537  0.938088  0.840176  1
  O  O25  1  0.197396  0.285969  0.337109  1
  O  O26  1  0.219994  0.674945  0.831589  1
  O  O27  1  0.214238  0.027179  0.373759  1
  O  O28  1  0.253939  0.182124  0.662417  1
  O  O29  1  0.284769  0.798605  0.183900  1
  O  O30  1  0.297900  0.545828  0.107298  1
  O  O31  1  0.327226  0.439610  0.636404  1
  O  O32  1  0.411344  0.155737  0.095271  1
  O  O33  1  0.427399  0.805160  0.571724  1
  O  O34  1  0.564534  0.806331  0.928708  1
  O  O35  1  0.581884  0.175273  0.424080  1
  O  O36  1  0.697396  0.214031  0.837109  1
  O  O37  1  0.714238  0.472821  0.873759  1
  O  O38  1  0.710537  0.561912  0.340176  1
  O  O39  1  0.719994  0.825055  0.331589  1
  O  O40  1  0.753939  0.317876  0.162417  1
  O  O41  1  0.784769  0.701395  0.683900  1
  O  O42  1  0.797900  0.954172  0.607298  1
  O  O43  1  0.827226  0.060390  0.136404  1
  O  O44  1  0.911344  0.344263  0.595271  1
  O  O45  1  0.927399  0.694840  0.071724  1
