# generated using pymatgen
data_Tm4(B2O5)3
_symmetry_space_group_name_H-M   'P 1'
_cell_length_a   4.38211265
_cell_length_b   6.21190572
_cell_length_c   18.77793952
_cell_angle_alpha   84.07908742
_cell_angle_beta   90.00000000
_cell_angle_gamma   69.34630156
_symmetry_Int_Tables_number   1
_chemical_formula_structural   Tm4(B2O5)3
_chemical_formula_sum   'Tm8 B12 O30'
_cell_volume   475.39151391
_cell_formula_units_Z   2
loop_
 _symmetry_equiv_pos_site_id
 _symmetry_equiv_pos_as_xyz
  1  'x, y, z'
loop_
 _atom_site_type_symbol
 _atom_site_label
 _atom_site_symmetry_multiplicity
 _atom_site_fract_x
 _atom_site_fract_y
 _atom_site_fract_z
 _atom_site_occupancy
  Tm  Tm0  1  0.344640  0.725612  0.802284  1
  Tm  Tm1  1  0.331843  0.732763  0.599336  1
  Tm  Tm2  1  0.929747  0.725612  0.302284  1
  Tm  Tm3  1  0.935394  0.732763  0.099336  1
  Tm  Tm4  1  0.064607  0.267237  0.900664  1
  Tm  Tm5  1  0.070253  0.274388  0.697716  1
  Tm  Tm6  1  0.668157  0.267237  0.400664  1
  Tm  Tm7  1  0.655360  0.274388  0.197716  1
  B  B8  1  0.802611  0.806071  0.912845  1
  B  B9  1  0.795668  0.863576  0.694190  1
  B  B10  1  0.358867  0.662238  0.974456  1
  B  B11  1  0.391318  0.806071  0.412845  1
  B  B12  1  0.340756  0.863576  0.194190  1
  B  B13  1  0.978894  0.662238  0.474456  1
  B  B14  1  0.021106  0.337762  0.525544  1
  B  B15  1  0.659244  0.136424  0.805810  1
  B  B16  1  0.608682  0.193929  0.587155  1
  B  B17  1  0.641133  0.337762  0.025544  1
  B  B18  1  0.204332  0.136424  0.305810  1
  B  B19  1  0.197389  0.193929  0.087155  1
  O  O20  1  0.840920  0.970846  0.621276  1
  O  O21  1  0.455835  0.831708  0.929206  1
  O  O22  1  0.465409  0.869118  0.696685  1
  O  O23  1  0.004763  0.745888  0.980022  1
  O  O24  1  0.188235  0.970846  0.121276  1
  O  O25  1  0.712458  0.831708  0.429206  1
  O  O26  1  0.925559  0.636745  0.861395  1
  O  O27  1  0.665472  0.869118  0.196685  1
  O  O28  1  0.249348  0.745888  0.480022  1
  O  O29  1  0.050332  0.634405  0.703923  1
  O  O30  1  0.910215  0.583472  0.549681  1
  O  O31  1  0.493687  0.416528  0.950319  1
  O  O32  1  0.437696  0.636745  0.361395  1
  O  O33  1  0.315263  0.634405  0.203923  1
  O  O34  1  0.684737  0.365595  0.796077  1
  O  O35  1  0.562303  0.363255  0.638605  1
  O  O36  1  0.506313  0.583472  0.049681  1
  O  O37  1  0.089785  0.416528  0.450319  1
  O  O38  1  0.949668  0.365595  0.296077  1
  O  O39  1  0.750652  0.254112  0.519978  1
  O  O40  1  0.334528  0.130882  0.803315  1
  O  O41  1  0.074441  0.363255  0.138605  1
  O  O42  1  0.287542  0.168292  0.570794  1
  O  O43  1  0.811765  0.029154  0.878724  1
  O  O44  1  0.868912  0.000000  0.750000  1
  O  O45  1  0.995237  0.254112  0.019978  1
  O  O46  1  0.534591  0.130882  0.303315  1
  O  O47  1  0.544165  0.168292  0.070794  1
  O  O48  1  0.159080  0.029154  0.378724  1
  O  O49  1  0.131088  1.000000  0.250000  1
