# generated using pymatgen
data_Li2Mn3F8
_symmetry_space_group_name_H-M   'P 1'
_cell_length_a   6.49734189
_cell_length_b   6.89329429
_cell_length_c   8.79297041
_cell_angle_alpha   90.00000000
_cell_angle_beta   90.00000000
_cell_angle_gamma   118.11740884
_symmetry_Int_Tables_number   1
_chemical_formula_structural   Li2Mn3F8
_chemical_formula_sum   'Li4 Mn6 F16'
_cell_volume   347.34313254
_cell_formula_units_Z   2
loop_
 _symmetry_equiv_pos_site_id
 _symmetry_equiv_pos_as_xyz
  1  'x, y, z'
loop_
 _atom_site_type_symbol
 _atom_site_label
 _atom_site_symmetry_multiplicity
 _atom_site_fract_x
 _atom_site_fract_y
 _atom_site_fract_z
 _atom_site_occupancy
  Li  Li0  1  0.115973  0.231944  0.607992  1
  Li  Li1  1  0.384027  0.768056  0.107992  1
  Li  Li2  1  0.615973  0.231944  0.892008  1
  Li  Li3  1  0.884027  0.768056  0.392008  1
  Mn  Mn4  1  0.102544  0.705087  0.750000  1
  Mn  Mn5  1  0.000000  0.000000  0.000000  1
  Mn  Mn6  1  0.602544  0.705087  0.750000  1
  Mn  Mn7  1  0.397456  0.294913  0.250000  1
  Mn  Mn8  1  0.500000  0.000000  0.500000  1
  Mn  Mn9  1  0.897456  0.294913  0.250000  1
  F  F10  1  0.133895  0.770517  0.513606  1
  F  F11  1  0.136622  0.770517  0.986394  1
  F  F12  1  0.984010  0.968021  0.753520  1
  F  F13  1  0.255743  0.511484  0.232399  1
  F  F14  1  0.515990  0.031979  0.253520  1
  F  F15  1  0.244257  0.488516  0.732399  1
  F  F16  1  0.633895  0.770517  0.986394  1
  F  F17  1  0.363378  0.229483  0.486394  1
  F  F18  1  0.636622  0.770517  0.513606  1
  F  F19  1  0.366105  0.229483  0.013606  1
  F  F20  1  0.015990  0.031979  0.246480  1
  F  F21  1  0.484010  0.968021  0.746480  1
  F  F22  1  0.744257  0.488516  0.767601  1
  F  F23  1  0.755743  0.511484  0.267601  1
  F  F24  1  0.863378  0.229483  0.013606  1
  F  F25  1  0.866105  0.229483  0.486394  1
