# generated using pymatgen
data_Ca(ClO3)2
_symmetry_space_group_name_H-M   'P 1'
_cell_length_a   6.78543314
_cell_length_b   7.14630802
_cell_length_c   8.37481243
_cell_angle_alpha   51.10049810
_cell_angle_beta   55.04865251
_cell_angle_gamma   73.85084938
_symmetry_Int_Tables_number   1
_chemical_formula_structural   Ca(ClO3)2
_chemical_formula_sum   'Ca2 Cl4 O12'
_cell_volume   256.91645585
_cell_formula_units_Z   2
loop_
 _symmetry_equiv_pos_site_id
 _symmetry_equiv_pos_as_xyz
  1  'x, y, z'
loop_
 _atom_site_type_symbol
 _atom_site_label
 _atom_site_symmetry_multiplicity
 _atom_site_fract_x
 _atom_site_fract_y
 _atom_site_fract_z
 _atom_site_occupancy
  Ca  Ca0  1  0.998975  0.998975  0.001025  1
  Ca  Ca1  1  0.248975  0.248975  0.251025  1
  Cl  Cl2  1  0.599065  0.028640  0.510088  1
  Cl  Cl3  1  0.387792  0.739912  0.221360  1
  Cl  Cl4  1  0.739912  0.387792  0.650935  1
  Cl  Cl5  1  0.028640  0.599065  0.862208  1
  O  O6  1  0.634882  0.104547  0.277785  1
  O  O7  1  0.813549  0.149893  0.433828  1
  O  O8  1  0.383825  0.148203  0.596826  1
  O  O9  1  0.378854  0.653174  0.101797  1
  O  O10  1  0.972215  0.267214  0.615118  1
  O  O11  1  0.647270  0.816172  0.100107  1
  O  O12  1  0.816172  0.647270  0.436451  1
  O  O13  1  0.267214  0.972215  0.145453  1
  O  O14  1  0.653174  0.378854  0.866175  1
  O  O15  1  0.148203  0.383825  0.871146  1
  O  O16  1  0.149893  0.813549  0.602730  1
  O  O17  1  0.104547  0.634882  0.982786  1
