# generated using pymatgen
data_MnTlO3
_symmetry_space_group_name_H-M   'P 1'
_cell_length_a   5.23466613
_cell_length_b   6.46307524
_cell_length_c   5.23466664
_cell_angle_alpha   113.88906541
_cell_angle_beta   119.99999627
_cell_angle_gamma   90.00000689
_symmetry_Int_Tables_number   1
_chemical_formula_structural   MnTlO3
_chemical_formula_sum   'Mn2 Tl2 O6'
_cell_volume   135.57095355
_cell_formula_units_Z   2
loop_
 _symmetry_equiv_pos_site_id
 _symmetry_equiv_pos_as_xyz
  1  'x, y, z'
loop_
 _atom_site_type_symbol
 _atom_site_label
 _atom_site_symmetry_multiplicity
 _atom_site_fract_x
 _atom_site_fract_y
 _atom_site_fract_z
 _atom_site_occupancy
  Mn  Mn0  1  0.335296  0.005890  0.670594  1
  Mn  Mn1  1  0.664704  0.994110  0.329406  1
  Tl  Tl2  1  0.125192  0.375576  0.250384  1
  Tl  Tl3  1  0.874808  0.624424  0.749616  1
  O  O4  1  0.059547  0.187684  0.510115  1
  O  O5  1  0.450569  0.187684  0.128137  1
  O  O6  1  0.677568  0.187684  0.737115  1
  O  O7  1  0.322432  0.812316  0.262885  1
  O  O8  1  0.549431  0.812316  0.871863  1
  O  O9  1  0.940453  0.812316  0.489885  1
