# generated using pymatgen
data_Sr20FeCo9(MoO6)10
_symmetry_space_group_name_H-M   'P 1'
_cell_length_a   11.29307417
_cell_length_b   28.20413802
_cell_length_c   9.78391524
_cell_angle_alpha   30.21186818
_cell_angle_beta   106.64675135
_cell_angle_gamma   89.85890521
_symmetry_Int_Tables_number   1
_chemical_formula_structural   Sr20FeCo9(MoO6)10
_chemical_formula_sum   'Sr20 Fe1 Co9 Mo10 O60'
_cell_volume   1284.57140645
_cell_formula_units_Z   1
loop_
 _symmetry_equiv_pos_site_id
 _symmetry_equiv_pos_as_xyz
  1  'x, y, z'
loop_
 _atom_site_type_symbol
 _atom_site_label
 _atom_site_symmetry_multiplicity
 _atom_site_fract_x
 _atom_site_fract_y
 _atom_site_fract_z
 _atom_site_occupancy
  Sr  Sr0  1  0.124167  0.150672  0.496902  1
  Sr  Sr1  1  0.123682  0.351229  0.496364  1
  Sr  Sr2  1  0.125109  0.550916  0.497736  1
  Sr  Sr3  1  0.126133  0.749408  0.502099  1
  Sr  Sr4  1  0.124423  0.949235  0.501335  1
  Sr  Sr5  1  0.374527  0.050837  0.498485  1
  Sr  Sr6  1  0.373991  0.251013  0.496416  1
  Sr  Sr7  1  0.375098  0.450316  0.498694  1
  Sr  Sr8  1  0.374697  0.649734  0.499706  1
  Sr  Sr9  1  0.375448  0.849406  0.501388  1
  Sr  Sr10  1  0.624552  0.150593  0.498612  1
  Sr  Sr11  1  0.625303  0.350266  0.500294  1
  Sr  Sr12  1  0.624902  0.549684  0.501306  1
  Sr  Sr13  1  0.626009  0.748987  0.503584  1
  Sr  Sr14  1  0.625473  0.949163  0.501515  1
  Sr  Sr15  1  0.875577  0.050765  0.498665  1
  Sr  Sr16  1  0.873867  0.250592  0.497901  1
  Sr  Sr17  1  0.874891  0.449084  0.502264  1
  Sr  Sr18  1  0.876318  0.648771  0.503636  1
  Sr  Sr19  1  0.875833  0.849328  0.503098  1
  Fe  Fe20  1  0.000000  0.000000  0.000000  1
  Co  Co21  1  0.000138  0.200094  0.000465  1
  Co  Co22  1  0.999825  0.399991  -0.000069  1
  Co  Co23  1  0.999862  0.799906  0.999535  1
  Co  Co24  1  0.500241  0.200312  -0.000144  1
  Co  Co25  1  0.500000  0.000000  0.000000  1
  Co  Co26  1  0.500235  0.400074  0.998668  1
  Co  Co27  1  0.499765  0.599926  0.001332  1
  Co  Co28  1  0.499759  0.799688  0.000144  1
  Co  Co29  1  0.000175  0.600009  0.000069  1
  Mo  Mo30  1  0.250400  0.100387  0.999819  1
  Mo  Mo31  1  0.250056  0.299912  0.000507  1
  Mo  Mo32  1  0.250382  0.499988  0.999968  1
  Mo  Mo33  1  0.251022  0.698961  0.003007  1
  Mo  Mo34  1  0.250833  0.899868  0.000205  1
  Mo  Mo35  1  0.749167  0.100132  -0.000205  1
  Mo  Mo36  1  0.748978  0.301039  0.996993  1
  Mo  Mo37  1  0.749618  0.500012  0.000032  1
  Mo  Mo38  1  0.749944  0.700088  -0.000507  1
  Mo  Mo39  1  0.749600  0.899613  0.000181  1
  O  O40  1  0.130038  0.043733  0.521226  1
  O  O41  1  0.129539  0.243808  0.519467  1
  O  O42  1  0.129752  0.444384  0.518823  1
  O  O43  1  0.129780  0.644072  0.519759  1
  O  O44  1  0.125020  0.850071  0.499853  1
  O  O45  1  0.111379  0.141012  0.000536  1
  O  O46  1  0.111791  0.340798  0.001694  1
  O  O47  1  0.111475  0.541053  0.001177  1
  O  O48  1  0.109142  0.743175  0.996295  1
  O  O49  1  0.110934  0.942332  0.000573  1
  O  O50  1  0.143636  0.044019  0.000678  1
  O  O51  1  0.147671  0.243451  0.003498  1
  O  O52  1  0.146791  0.444415  0.000781  1
  O  O53  1  0.145743  0.646078  0.996838  1
  O  O54  1  0.145637  0.845280  0.000757  1
  O  O55  1  0.371352  0.154162  0.486055  1
  O  O56  1  0.371086  0.354420  0.484977  1
  O  O57  1  0.370627  0.755297  0.483166  1
  O  O58  1  0.372009  0.553520  0.488423  1
  O  O59  1  0.370455  0.954936  0.482840  1
  O  O60  1  0.352669  0.353850  0.003224  1
  O  O61  1  0.352955  0.154757  0.000939  1
  O  O62  1  0.352358  0.554683  0.000591  1
  O  O63  1  0.351795  0.756273  0.996043  1
  O  O64  1  0.352465  0.955331  0.000118  1
  O  O65  1  0.388443  0.257570  0.002414  1
  O  O66  1  0.386393  0.058211  0.000914  1
  O  O67  1  0.388877  0.658942  0.997188  1
  O  O68  1  0.388727  0.457794  0.001833  1
  O  O69  1  0.388526  0.858730  0.000155  1
  O  O70  1  0.629373  0.244703  0.516834  1
  O  O71  1  0.629545  0.045064  0.517160  1
  O  O72  1  0.627992  0.446480  0.511577  1
  O  O73  1  0.628914  0.645580  0.515023  1
  O  O74  1  0.628648  0.845838  0.513945  1
  O  O75  1  0.611474  0.141270  -0.000155  1
  O  O76  1  0.611273  0.542206  0.998167  1
  O  O77  1  0.611557  0.742430  0.997586  1
  O  O78  1  0.611123  0.341058  0.002812  1
  O  O79  1  0.613607  0.941789  0.999086  1
  O  O80  1  0.647535  0.044669  -0.000118  1
  O  O81  1  0.648205  0.243727  0.003957  1
  O  O82  1  0.647642  0.445317  0.999409  1
  O  O83  1  0.647331  0.646150  0.996776  1
  O  O84  1  0.647045  0.845243  0.999061  1
  O  O85  1  0.874980  0.149929  0.500147  1
  O  O86  1  0.870220  0.355928  0.480241  1
  O  O87  1  0.870248  0.555616  0.481177  1
  O  O88  1  0.870461  0.756192  0.480533  1
  O  O89  1  0.869962  0.956267  0.478774  1
  O  O90  1  0.854363  0.154720  0.999243  1
  O  O91  1  0.854257  0.353922  0.003162  1
  O  O92  1  0.853209  0.555585  0.999219  1
  O  O93  1  0.852329  0.756549  0.996502  1
  O  O94  1  0.856364  0.955981  0.999322  1
  O  O95  1  0.889066  0.057668  0.999427  1
  O  O96  1  0.890858  0.256825  0.003705  1
  O  O97  1  0.888525  0.458947  0.998823  1
  O  O98  1  0.888209  0.659202  0.998306  1
  O  O99  1  0.888621  0.858988  0.999464  1
