# generated using pymatgen
data_Sr3Tm3Al4Si8N17O4
_symmetry_space_group_name_H-M   'P 1'
_cell_length_a   6.77486862
_cell_length_b   6.09152292
_cell_length_c   28.41123924
_cell_angle_alpha   92.05181928
_cell_angle_beta   90.93067713
_cell_angle_gamma   120.42422581
_symmetry_Int_Tables_number   1
_chemical_formula_structural   Sr3Tm3Al4Si8N17O4
_chemical_formula_sum   'Sr6 Tm6 Al8 Si16 N34 O8'
_cell_volume   1009.60346579
_cell_formula_units_Z   2
loop_
 _symmetry_equiv_pos_site_id
 _symmetry_equiv_pos_as_xyz
  1  'x, y, z'
loop_
 _atom_site_type_symbol
 _atom_site_label
 _atom_site_symmetry_multiplicity
 _atom_site_fract_x
 _atom_site_fract_y
 _atom_site_fract_z
 _atom_site_occupancy
  Sr  Sr0  1  0.324037  0.717051  0.378120  1
  Sr  Sr1  1  0.250679  0.604929  0.037128  1
  Sr  Sr2  1  0.379063  0.606077  0.701906  1
  Sr  Sr3  1  0.583578  0.280541  0.550147  1
  Sr  Sr4  1  0.727070  0.398577  0.874213  1
  Sr  Sr5  1  0.609609  0.294568  0.209333  1
  Tm  Tm6  1  0.400573  0.625069  0.919784  1
  Tm  Tm7  1  0.142861  0.519684  0.584616  1
  Tm  Tm8  1  0.165357  0.612445  0.256819  1
  Tm  Tm9  1  0.555292  0.323999  0.074609  1
  Tm  Tm10  1  0.636723  0.369823  0.431244  1
  Tm  Tm11  1  0.794191  0.416939  0.754950  1
  Al  Al12  1  0.233105  0.915862  0.800574  1
  Al  Al13  1  0.138803  0.796247  0.481198  1
  Al  Al14  1  0.802280  0.684335  0.309989  1
  Al  Al15  1  0.868723  0.623778  0.652486  1
  Al  Al16  1  0.811308  0.692433  0.986775  1
  Al  Al17  1  0.841233  0.196400  0.320672  1
  Al  Al18  1  0.752031  0.127124  0.647976  1
  Al  Al19  1  0.818109  0.176040  0.976923  1
  Si  Si20  1  0.042015  0.008922  0.241900  1
  Si  Si21  1  0.956583  0.955353  0.065745  1
  Si  Si22  1  0.144809  0.816389  0.149082  1
  Si  Si23  1  0.160245  0.308799  0.482245  1
  Si  Si24  1  0.157299  0.397483  0.813137  1
  Si  Si25  1  0.991857  0.990243  0.573178  1
  Si  Si26  1  0.199862  0.343690  0.149996  1
  Si  Si27  1  0.020035  0.080628  0.900960  1
  Si  Si28  1  0.580360  0.801230  0.472930  1
  Si  Si29  1  0.663279  0.862463  0.808295  1
  Si  Si30  1  0.563907  0.816197  0.128766  1
  Si  Si31  1  0.393559  0.243077  0.326902  1
  Si  Si32  1  0.342313  0.111035  0.650803  1
  Si  Si33  1  0.388176  0.189052  0.966063  1
  Si  Si34  1  0.945506  0.933913  0.394819  1
  Si  Si35  1  0.913860  0.018113  0.722332  1
  N  N36  1  0.500705  -0.021283  0.972385  1
  N  N37  1  0.174299  0.241395  0.090230  1
  N  N38  1  0.341511  0.008401  0.013674  1
  N  N39  1  0.116545  0.060074  0.181542  1
  N  N40  1  0.128314  0.248596  0.416860  1
  N  N41  1  0.295298  0.182934  0.388979  1
  N  N42  1  0.058498  0.019681  0.511670  1
  N  N43  1  0.083549  0.298012  0.753920  1
  N  N44  1  0.101590  0.929442  0.692677  1
  N  N45  1  0.303033  0.163035  0.908839  1
  N  N46  1  0.289030  0.054076  0.275548  1
  N  N47  1  0.254670  0.217882  0.605669  1
  N  N48  1  0.492792  0.552781  0.315444  1
  N  N49  1  0.602553  0.344070  0.676393  1
  N  N50  1  0.493411  0.491010  0.988486  1
  N  N51  1  0.500030  0.543753  0.152941  1
  N  N52  1  0.460878  0.498709  0.491731  1
  N  N53  1  0.451793  0.578252  0.834276  1
  N  N54  1  0.683348  0.874746  0.076943  1
  N  N55  1  0.683490  0.795445  0.420573  1
  N  N56  1  0.742982  0.765574  0.756974  1
  N  N57  1  0.814513  0.808947  0.926571  1
  N  N58  1  -0.024213  0.077084  0.838353  1
  N  N59  1  0.877226  0.692281  0.248145  1
  N  N60  1  0.912350  0.692790  0.590885  1
  N  N61  1  0.430771  0.986821  0.133071  1
  N  N62  1  0.460715  0.984258  0.475971  1
  N  N63  1  0.554993  0.068418  0.799596  1
  N  N64  1  0.087989  0.531413  0.173343  1
  N  N65  1  0.028872  0.471396  0.501815  1
  N  N66  1  0.044656  0.596190  0.819939  1
  N  N67  1  0.008635  0.338115  0.929136  1
  N  N68  1  0.919686  0.183879  0.260191  1
  N  N69  1  0.819330  0.111876  0.584936  1
  O  O70  1  0.004782  0.717572  0.421765  1
  O  O71  1  0.981888  0.728337  0.098360  1
  O  O72  1  0.176330  0.832692  0.733326  1
  O  O73  1  0.979857  0.538580  0.327244  1
  O  O74  1  0.012343  0.448527  0.658922  1
  O  O75  1  0.848568  0.438756  0.014552  1
  O  O76  1  0.589406  0.155655  0.348217  1
  O  O77  1  0.414695  0.891319  0.635132  1
