# generated using pymatgen
data_Er2TeO6
_symmetry_space_group_name_H-M   'P 1'
_cell_length_a   9.15263136
_cell_length_b   9.15263136
_cell_length_c   5.13740999
_cell_angle_alpha   90.00447144
_cell_angle_beta   90.00447144
_cell_angle_gamma   59.99997959
_symmetry_Int_Tables_number   1
_chemical_formula_structural   Er2TeO6
_chemical_formula_sum   'Er6 Te3 O18'
_cell_volume   372.70627763
_cell_formula_units_Z   3
loop_
 _symmetry_equiv_pos_site_id
 _symmetry_equiv_pos_as_xyz
  1  'x, y, z'
loop_
 _atom_site_type_symbol
 _atom_site_label
 _atom_site_symmetry_multiplicity
 _atom_site_fract_x
 _atom_site_fract_y
 _atom_site_fract_z
 _atom_site_occupancy
  Er  Er0  1  0.000013  0.624826  0.000007  1
  Er  Er1  1  0.287599  0.712401  0.500000  1
  Er  Er2  1  -0.000028  0.287542  0.500013  1
  Er  Er3  1  0.624798  0.375202  0.000000  1
  Er  Er4  1  0.375174  -0.000013  -0.000007  1
  Er  Er5  1  0.712457  0.000028  0.499987  1
  Te  Te6  1  0.333338  0.333502  0.507036  1
  Te  Te7  1  0.666498  0.666662  0.492964  1
  Te  Te8  1  -0.000018  0.000018  0.000000  1
  O  O9  1  0.082831  0.798062  0.788087  1
  O  O10  1  0.201938  0.917169  0.211913  1
  O  O11  1  0.221699  0.536990  0.292267  1
  O  O12  1  0.463010  0.778301  0.707733  1
  O  O13  1  0.131835  0.410919  0.723424  1
  O  O14  1  0.589081  0.868165  0.276576  1
  O  O15  1  0.542825  0.589088  0.276628  1
  O  O16  1  0.410912  0.457175  0.723372  1
  O  O17  1  0.241241  0.221710  0.292228  1
  O  O18  1  0.778289  0.758759  0.707772  1
  O  O19  1  0.119104  0.082852  0.788064  1
  O  O20  1  0.917148  0.880896  0.211936  1
  O  O21  1  0.537004  0.241246  0.292266  1
  O  O22  1  0.758754  0.462996  0.707734  1
  O  O23  1  0.457225  0.131829  0.723440  1
  O  O24  1  0.868171  0.542775  0.276560  1
  O  O25  1  0.880926  0.201924  0.211940  1
  O  O26  1  0.798076  0.119074  0.788060  1
