# generated using pymatgen
data_Al19CrO30
_symmetry_space_group_name_H-M   'P 1'
_cell_length_a   4.82030468
_cell_length_b   5.19121754
_cell_length_c   20.25189648
_cell_angle_alpha   94.04333795
_cell_angle_beta   96.85045189
_cell_angle_gamma   117.65082544
_symmetry_Int_Tables_number   1
_chemical_formula_structural   Al19CrO30
_chemical_formula_sum   'Al19 Cr1 O30'
_cell_volume   441.09878698
_cell_formula_units_Z   1
loop_
 _symmetry_equiv_pos_site_id
 _symmetry_equiv_pos_as_xyz
  1  'x, y, z'
loop_
 _atom_site_type_symbol
 _atom_site_label
 _atom_site_symmetry_multiplicity
 _atom_site_fract_x
 _atom_site_fract_y
 _atom_site_fract_z
 _atom_site_occupancy
  Al  Al0  1  0.576970  0.083727  0.071209  1
  Al  Al1  1  0.623188  0.016678  0.230125  1
  Al  Al2  1  0.777537  0.184583  0.370684  1
  Al  Al3  1  0.978441  0.787572  0.171775  1
  Al  Al4  1  0.822716  0.115783  0.529587  1
  Al  Al5  1  0.977340  0.284283  0.670295  1
  Al  Al6  1  0.422772  0.415832  0.429750  1
  Al  Al7  1  0.378524  0.485641  0.271299  1
  Al  Al8  1  0.223189  0.316050  0.131066  1
  Al  Al9  1  0.577392  0.584317  0.570432  1
  Al  Al10  1  0.776514  0.683776  0.868848  1
  Al  Al11  1  0.622047  0.515447  0.729089  1
  Al  Al12  1  0.021856  0.216041  0.828939  1
  Al  Al13  1  0.023026  0.716098  0.329901  1
  Al  Al14  1  0.222674  0.815570  0.629424  1
  Al  Al15  1  0.421972  0.914270  0.928211  1
  Al  Al16  1  0.177329  0.884252  0.470535  1
  Al  Al17  1  0.376792  0.984650  0.769878  1
  Al  Al18  1  0.178353  0.384023  0.969145  1
  Cr  Cr19  1  0.820905  0.610962  0.029902  1
  O  O20  1  0.993814  0.149878  0.450024  1
  O  O21  1  0.946129  0.472586  0.114075  1
  O  O22  1  0.655795  0.328245  0.289033  1
  O  O23  1  0.857287  0.939825  0.092587  1
  O  O24  1  0.838720  0.572548  0.411270  1
  O  O25  1  0.405616  0.050588  0.150582  1
  O  O26  1  0.805983  0.250408  0.749578  1
  O  O27  1  0.382512  0.340855  0.050084  1
  O  O28  1  0.793790  0.549988  0.649781  1
  O  O29  1  0.764785  0.220233  0.988071  1
  O  O30  1  0.561682  0.628396  0.189302  1
  O  O31  1  0.361301  0.027744  0.388858  1
  O  O32  1  0.960653  0.827342  0.788318  1
  O  O33  1  0.744823  0.872450  0.311485  1
  O  O34  1  0.544856  0.272476  0.511168  1
  O  O35  1  0.455086  0.727583  0.488802  1
  O  O36  1  0.257500  0.775915  0.010330  1
  O  O37  1  0.254728  0.127197  0.688424  1
  O  O38  1  0.638814  0.972476  0.611090  1
  O  O39  1  0.040657  0.174165  0.212773  1
  O  O40  1  0.437097  0.371970  0.810296  1
  O  O41  1  0.595994  0.646565  0.945805  1
  O  O42  1  0.206265  0.450453  0.350336  1
  O  O43  1  0.593567  0.951188  0.849039  1
  O  O44  1  0.194940  0.751254  0.250530  1
  O  O45  1  0.161198  0.427508  0.588675  1
  O  O46  1  0.344678  0.672537  0.710886  1
  O  O47  1  0.144883  0.071679  0.910689  1
  O  O48  1  0.051237  0.526377  0.888098  1
  O  O49  1  0.006073  0.850013  0.549919  1
