# generated using pymatgen
data_Li2Cr(PO4)2
_symmetry_space_group_name_H-M   'P 1'
_cell_length_a   7.46619853
_cell_length_b   12.45503041
_cell_length_c   6.25315957
_cell_angle_alpha   90.00000000
_cell_angle_beta   97.85357156
_cell_angle_gamma   90.00000000
_symmetry_Int_Tables_number   1
_chemical_formula_structural   Li2Cr(PO4)2
_chemical_formula_sum   'Li8 Cr4 P8 O32'
_cell_volume   576.03802762
_cell_formula_units_Z   4
loop_
 _symmetry_equiv_pos_site_id
 _symmetry_equiv_pos_as_xyz
  1  'x, y, z'
loop_
 _atom_site_type_symbol
 _atom_site_label
 _atom_site_symmetry_multiplicity
 _atom_site_fract_x
 _atom_site_fract_y
 _atom_site_fract_z
 _atom_site_occupancy
  Li  Li0  1  0.057768  0.775290  0.633861  1
  Li  Li1  1  0.057768  0.724710  0.133861  1
  Li  Li2  1  0.542911  0.376267  0.946490  1
  Li  Li3  1  0.457089  0.876267  0.553510  1
  Li  Li4  1  0.542911  0.123733  0.446490  1
  Li  Li5  1  0.457089  0.623733  0.053510  1
  Li  Li6  1  0.942232  0.275290  0.866139  1
  Li  Li7  1  0.942232  0.224710  0.366140  1
  Cr  Cr8  1  0.228925  0.076411  0.755580  1
  Cr  Cr9  1  0.228925  0.423589  0.255580  1
  Cr  Cr10  1  0.771075  0.576411  0.744420  1
  Cr  Cr11  1  0.771075  0.923589  0.244420  1
  P  P12  1  0.169972  0.470496  0.740207  1
  P  P13  1  0.169972  0.029504  0.240207  1
  P  P14  1  0.362969  0.642223  0.538102  1
  P  P15  1  0.362969  0.857777  0.038102  1
  P  P16  1  0.637031  0.142223  0.961898  1
  P  P17  1  0.637031  0.357777  0.461898  1
  P  P18  1  0.830028  0.970496  0.759793  1
  P  P19  1  0.830028  0.529504  0.259793  1
  O  O20  1  0.029629  0.965284  0.727487  1
  O  O21  1  0.029629  0.534716  0.227487  1
  O  O22  1  0.089791  0.183261  0.670605  1
  O  O23  1  0.089791  0.316739  0.170605  1
  O  O24  1  0.206717  0.590323  0.665724  1
  O  O25  1  0.297302  0.453587  0.954103  1
  O  O26  1  0.215829  0.393681  0.566582  1
  O  O27  1  0.287174  0.746281  0.988788  1
  O  O28  1  0.206717  0.909677  0.165724  1
  O  O29  1  0.297302  0.046413  0.454103  1
  O  O30  1  0.215829  0.106319  0.066582  1
  O  O31  1  0.287174  0.753719  0.488788  1
  O  O32  1  0.379673  0.928881  0.842207  1
  O  O33  1  0.379673  0.571119  0.342207  1
  O  O34  1  0.465940  0.146469  0.792381  1
  O  O35  1  0.465940  0.353531  0.292381  1
  O  O36  1  0.534060  0.646469  0.707619  1
  O  O37  1  0.534060  0.853531  0.207619  1
  O  O38  1  0.620327  0.428881  0.657793  1
  O  O39  1  0.620327  0.071119  0.157793  1
  O  O40  1  0.712826  0.246281  0.511212  1
  O  O41  1  0.784171  0.893681  0.933418  1
  O  O42  1  0.702698  0.953587  0.545897  1
  O  O43  1  0.793283  0.090323  0.834276  1
  O  O44  1  0.712826  0.253719  0.011212  1
  O  O45  1  0.784171  0.606319  0.433418  1
  O  O46  1  0.702698  0.546413  0.045897  1
  O  O47  1  0.793283  0.409677  0.334276  1
  O  O48  1  0.910209  0.683261  0.829395  1
  O  O49  1  0.910209  0.816739  0.329395  1
  O  O50  1  0.970371  0.465284  0.772513  1
  O  O51  1  0.970371  0.034716  0.272513  1
