# generated using pymatgen
data_Li4Co3Ni3(PO4)6
_symmetry_space_group_name_H-M   'P 1'
_cell_length_a   8.29865130
_cell_length_b   8.78982603
_cell_length_c   8.78534290
_cell_angle_alpha   59.89170723
_cell_angle_beta   58.93013063
_cell_angle_gamma   58.92992551
_symmetry_Int_Tables_number   1
_chemical_formula_structural   Li4Co3Ni3(PO4)6
_chemical_formula_sum   'Li4 Co3 Ni3 P6 O24'
_cell_volume   445.31819983
_cell_formula_units_Z   1
loop_
 _symmetry_equiv_pos_site_id
 _symmetry_equiv_pos_as_xyz
  1  'x, y, z'
loop_
 _atom_site_type_symbol
 _atom_site_label
 _atom_site_symmetry_multiplicity
 _atom_site_fract_x
 _atom_site_fract_y
 _atom_site_fract_z
 _atom_site_occupancy
  Li  Li0  1  0.251757  0.853420  0.642541  1
  Li  Li1  1  0.760054  0.147380  0.353023  1
  Li  Li2  1  0.762902  0.739411  0.144938  1
  Li  Li3  1  0.764471  0.353603  0.737844  1
  Co  Co4  1  0.007635  0.998342  0.004762  1
  Co  Co5  1  0.566963  0.145959  0.144029  1
  Co  Co6  1  0.494674  0.497209  0.498869  1
  Ni  Ni7  1  0.069942  0.643431  0.644185  1
  Ni  Ni8  1  0.431498  0.854919  0.854962  1
  Ni  Ni9  1  0.940874  0.353487  0.351515  1
  P  P10  1  0.251732  0.252671  0.548553  1
  P  P11  1  0.247704  0.952776  0.247616  1
  P  P12  1  0.249216  0.549408  0.951757  1
  P  P13  1  0.746080  0.454253  0.046263  1
  P  P14  1  0.757255  0.044156  0.751757  1
  P  P15  1  0.735785  0.753896  0.456123  1
  O  O16  1  0.051810  0.106100  0.314670  1
  O  O17  1  0.051581  0.524501  0.105009  1
  O  O18  1  0.053325  0.322721  0.521259  1
  O  O19  1  0.225960  0.089510  0.739416  1
  O  O20  1  0.442264  0.185981  0.386376  1
  O  O21  1  0.281607  0.402596  0.565766  1
  O  O22  1  0.225098  0.927874  0.097297  1
  O  O23  1  0.279893  0.762412  0.410801  1
  O  O24  1  0.558497  0.608226  0.010845  1
  O  O25  1  0.282707  0.569562  0.751020  1
  O  O26  1  0.767462  0.250854  0.072283  1
  O  O27  1  0.580000  0.995216  0.812958  1
  O  O28  1  0.440528  0.994763  0.175883  1
  O  O29  1  0.221073  0.750741  0.926761  1
  O  O30  1  0.723613  0.429925  0.246893  1
  O  O31  1  0.440677  0.388520  0.989509  1
  O  O32  1  0.728166  0.244562  0.595051  1
  O  O33  1  0.769696  0.075529  0.909629  1
  O  O34  1  0.722691  0.596622  0.427622  1
  O  O35  1  0.536327  0.818044  0.604528  1
  O  O36  1  0.763714  0.910798  0.253069  1
  O  O37  1  0.917039  0.693246  0.499458  1
  O  O38  1  0.937897  0.483149  0.893296  1
  O  O39  1  0.959833  0.897225  0.688865  1
