# generated using pymatgen
data_LiFe2(BO3)2
_symmetry_space_group_name_H-M   'P 1'
_cell_length_a   5.27178434
_cell_length_b   9.12471026
_cell_length_c   10.11996327
_cell_angle_alpha   90.39802425
_cell_angle_beta   90.96355034
_cell_angle_gamma   89.52411933
_symmetry_Int_Tables_number   1
_chemical_formula_structural   LiFe2(BO3)2
_chemical_formula_sum   'Li4 Fe8 B8 O24'
_cell_volume   486.70879505
_cell_formula_units_Z   4
loop_
 _symmetry_equiv_pos_site_id
 _symmetry_equiv_pos_as_xyz
  1  'x, y, z'
loop_
 _atom_site_type_symbol
 _atom_site_label
 _atom_site_symmetry_multiplicity
 _atom_site_fract_x
 _atom_site_fract_y
 _atom_site_fract_z
 _atom_site_occupancy
  Li  Li0  1  0.814662  0.835864  0.143150  1
  Li  Li1  1  0.681181  0.670591  0.413952  1
  Li  Li2  1  0.341519  0.321041  0.666194  1
  Li  Li3  1  0.310937  0.332665  0.163297  1
  Fe  Fe4  1  0.847963  0.149536  0.629972  1
  Fe  Fe5  1  0.814922  0.503210  0.125235  1
  Fe  Fe6  1  0.669990  0.001583  0.874881  1
  Fe  Fe7  1  0.679525  0.330161  0.380910  1
  Fe  Fe8  1  0.338994  0.666346  0.636551  1
  Fe  Fe9  1  0.312187  0.005403  0.123153  1
  Fe  Fe10  1  0.172979  0.846264  0.381687  1
  Fe  Fe11  1  0.165831  0.507921  0.879847  1
  B  B12  1  0.831055  0.494247  0.622333  1
  B  B13  1  0.827566  0.168308  0.130560  1
  B  B14  1  0.664193  0.998564  0.372316  1
  B  B15  1  0.675598  0.335371  0.874665  1
  B  B16  1  0.343047  0.002644  0.627562  1
  B  B17  1  0.325315  0.668135  0.133017  1
  B  B18  1  0.174783  0.508723  0.375441  1
  B  B19  1  0.168058  0.835608  0.883184  1
  O  O20  1  0.912585  0.499283  0.349899  1
  O  O21  1  0.912528  0.850604  0.891942  1
  O  O22  1  0.781252  0.201420  0.842059  1
  O  O23  1  0.766978  0.128035  0.418262  1
  O  O24  1  0.811324  0.872292  0.361384  1
  O  O25  1  0.828586  0.447254  0.923494  1
  O  O26  1  0.703324  0.622587  0.607433  1
  O  O27  1  0.699115  0.042918  0.087989  1
  O  O28  1  0.711381  0.361549  0.581764  1
  O  O29  1  0.683907  0.290599  0.177356  1
  O  O30  1  0.583346  0.672746  0.143098  1
  O  O31  1  0.589371  0.991015  0.679167  1
  O  O32  1  0.411415  0.993511  0.333406  1
  O  O33  1  0.419545  0.360756  0.857136  1
  O  O34  1  0.275700  0.702972  0.841021  1
  O  O35  1  0.278450  0.642179  0.414894  1
  O  O36  1  0.329929  0.389134  0.357534  1
  O  O37  1  0.328924  0.948071  0.921717  1
  O  O38  1  0.203583  0.539811  0.085633  1
  O  O39  1  0.216955  0.132866  0.627270  1
  O  O40  1  0.232538  0.875563  0.573764  1
  O  O41  1  0.176619  0.788574  0.172481  1
  O  O42  1  0.084039  0.176827  0.130499  1
  O  O43  1  0.082353  0.486360  0.671762  1
