# generated using pymatgen
data_Li3V4NiO12
_symmetry_space_group_name_H-M   'P 1'
_cell_length_a   5.38967322
_cell_length_b   10.75277152
_cell_length_c   9.51789535
_cell_angle_alpha   27.80484453
_cell_angle_beta   50.29134034
_cell_angle_gamma   55.71940054
_symmetry_Int_Tables_number   1
_chemical_formula_structural   Li3V4NiO12
_chemical_formula_sum   'Li3 V4 Ni1 O12'
_cell_volume   197.93884439
_cell_formula_units_Z   1
loop_
 _symmetry_equiv_pos_site_id
 _symmetry_equiv_pos_as_xyz
  1  'x, y, z'
loop_
 _atom_site_type_symbol
 _atom_site_label
 _atom_site_symmetry_multiplicity
 _atom_site_fract_x
 _atom_site_fract_y
 _atom_site_fract_z
 _atom_site_occupancy
  Li  Li0  1  0.287084  0.499087  0.287236  1
  Li  Li1  1  0.791198  0.001909  0.779936  1
  Li  Li2  1  0.781369  0.496371  0.791757  1
  V  V3  1  0.017661  0.001071  0.999940  1
  V  V4  1  0.990088  0.491496  0.017127  1
  V  V5  1  0.490865  0.993596  0.519112  1
  V  V6  1  0.512783  0.502479  0.498476  1
  Ni  Ni7  1  0.291711  0.002467  0.294150  1
  O  O8  1  0.360491  0.304633  0.108511  1
  O  O9  1  0.225854  0.117375  0.618222  1
  O  O10  1  0.109523  0.309075  0.730970  1
  O  O11  1  0.854643  0.181451  0.234276  1
  O  O12  1  0.350673  0.810397  0.110471  1
  O  O13  1  0.714679  0.385673  0.353865  1
  O  O14  1  0.231726  0.631399  0.594015  1
  O  O15  1  0.597791  0.189319  0.855528  1
  O  O16  1  0.129387  0.824838  0.708529  1
  O  O17  1  0.851762  0.689821  0.229278  1
  O  O18  1  0.729730  0.876978  0.347799  1
  O  O19  1  0.610582  0.690567  0.850399  1
