# generated using pymatgen
data_KSn2H36C12(Se2N)3
_symmetry_space_group_name_H-M   'P 1'
_cell_length_a   9.78492340
_cell_length_b   10.21831878
_cell_length_c   16.29654973
_cell_angle_alpha   95.16547861
_cell_angle_beta   92.65954236
_cell_angle_gamma   107.02632847
_symmetry_Int_Tables_number   1
_chemical_formula_structural   KSn2H36C12(Se2N)3
_chemical_formula_sum   'K2 Sn4 H72 C24 Se12 N6'
_cell_volume   1547.13764453
_cell_formula_units_Z   2
loop_
 _symmetry_equiv_pos_site_id
 _symmetry_equiv_pos_as_xyz
  1  'x, y, z'
loop_
 _atom_site_type_symbol
 _atom_site_label
 _atom_site_symmetry_multiplicity
 _atom_site_fract_x
 _atom_site_fract_y
 _atom_site_fract_z
 _atom_site_occupancy
  K  K0  1  0.696212  0.189647  0.686786  1
  K  K1  1  0.303788  0.810353  0.313214  1
  Sn  Sn2  1  0.903341  0.402315  0.905513  1
  Sn  Sn3  1  0.096659  0.597685  0.094487  1
  Sn  Sn4  1  0.603702  0.131882  0.438527  1
  Sn  Sn5  1  0.396298  0.868118  0.561473  1
  H  H6  1  0.813125  0.753289  0.915083  1
  H  H7  1  0.186875  0.246711  0.084917  1
  H  H8  1  0.847429  0.938213  0.935256  1
  H  H9  1  0.152571  0.061787  0.064744  1
  H  H10  1  0.905473  0.841490  0.011409  1
  H  H11  1  0.094527  0.158510  0.988591  1
  H  H12  1  0.649855  0.599014  0.984938  1
  H  H13  1  0.350145  0.400986  0.015062  1
  H  H14  1  0.738289  0.686234  0.082104  1
  H  H15  1  0.261711  0.313766  0.917896  1
  H  H16  1  0.546569  0.656144  0.062746  1
  H  H17  1  0.453431  0.343856  0.937254  1
  H  H18  1  0.570389  0.720463  0.885389  1
  H  H19  1  0.429611  0.279537  0.114611  1
  H  H20  1  0.462961  0.780496  0.957262  1
  H  H21  1  0.537039  0.219504  0.042738  1
  H  H22  1  0.593675  0.901435  0.904303  1
  H  H23  1  0.406325  0.098565  0.095697  1
  H  H24  1  0.768294  0.931447  0.113729  1
  H  H25  1  0.231706  0.068553  0.886271  1
  H  H26  1  0.710059  0.025263  0.038513  1
  H  H27  1  0.289941  0.974737  0.961487  1
  H  H28  1  0.580625  0.904926  0.091685  1
  H  H29  1  0.419375  0.095074  0.908315  1
  H  H30  1  0.678162  0.811521  0.332647  1
  H  H31  1  0.321838  0.188479  0.667353  1
  H  H32  1  0.774303  0.769982  0.246682  1
  H  H33  1  0.225697  0.230018  0.753318  1
  H  H34  1  0.581699  0.700454  0.243337  1
  H  H35  1  0.418301  0.299546  0.756663  1
  H  H36  1  0.570732  0.635237  0.420560  1
  H  H37  1  0.429268  0.364763  0.579440  1
  H  H38  1  0.475174  0.525654  0.331274  1
  H  H39  1  0.524826  0.474346  0.668726  1
  H  H40  1  0.587251  0.464055  0.400127  1
  H  H41  1  0.412749  0.535945  0.599873  1
  H  H42  1  0.712656  0.408318  0.283597  1
  H  H43  1  0.287344  0.591682  0.716403  1
  H  H44  1  0.603058  0.471428  0.216030  1
  H  H45  1  0.396942  0.528572  0.783970  1
  H  H46  1  0.794502  0.540560  0.218603  1
  H  H47  1  0.205498  0.459440  0.781397  1
  H  H48  1  0.832324  0.732474  0.424003  1
  H  H49  1  0.167676  0.267526  0.575997  1
  H  H50  1  0.851934  0.563085  0.404186  1
  H  H51  1  0.148066  0.436915  0.595814  1
  H  H52  1  0.925685  0.693585  0.337081  1
  H  H53  1  0.074315  0.306415  0.662919  1
  H  H54  1  0.027676  0.894276  0.803709  1
  H  H55  1  0.972324  0.105724  0.196291  1
  H  H56  1  0.954448  0.709665  0.796679  1
  H  H57  1  0.045552  0.290335  0.203321  1
  H  H58  1  0.119407  0.787476  0.749535  1
  H  H59  1  0.880593  0.212524  0.250465  1
  H  H60  1  0.842915  0.669276  0.576438  1
  H  H61  1  0.157085  0.330724  0.423562  1
  H  H62  1  0.009204  0.656454  0.619019  1
  H  H63  1  0.990796  0.343546  0.380981  1
  H  H64  1  0.845308  0.582185  0.667443  1
  H  H65  1  0.154692  0.417815  0.332557  1
  H  H66  1  0.804112  0.907282  0.753637  1
  H  H67  1  0.195888  0.092718  0.246363  1
  H  H68  1  0.713128  0.808316  0.659510  1
  H  H69  1  0.286872  0.191684  0.340490  1
  H  H70  1  0.738625  0.722432  0.748778  1
  H  H71  1  0.261375  0.277568  0.251222  1
  H  H72  1  0.014518  0.013593  0.683761  1
  H  H73  1  0.985482  0.986407  0.316239  1
  H  H74  1  0.104238  0.907995  0.626939  1
  H  H75  1  0.895762  0.092005  0.373061  1
  H  H76  1  0.932107  0.917634  0.587225  1
  H  H77  1  0.067893  0.082366  0.412775  1
  C  C78  1  0.823723  0.840135  0.962394  1
  C  C79  1  0.176277  0.159865  0.037606  1
  C  C80  1  0.650527  0.678162  0.035514  1
  C  C81  1  0.349473  0.321838  0.964486  1
  C  C82  1  0.568296  0.804100  0.931966  1
  C  C83  1  0.431704  0.195900  0.068034  1
  C  C84  1  0.685019  0.927189  0.065341  1
  C  C85  1  0.314981  0.072811  0.934659  1
  C  C86  1  0.682040  0.732366  0.283299  1
  C  C87  1  0.317960  0.267634  0.716701  1
  C  C88  1  0.573711  0.553922  0.372466  1
  C  C89  1  0.426289  0.446078  0.627534  1
  C  C90  1  0.703589  0.499230  0.255326  1
  C  C91  1  0.296411  0.500770  0.744674  1
  C  C92  1  0.837832  0.652275  0.375887  1
  C  C93  1  0.162168  0.347725  0.624113  1
  C  C94  1  0.014471  0.796720  0.765354  1
  C  C95  1  0.985529  0.203280  0.234646  1
  C  C96  1  0.904588  0.666643  0.633881  1
  C  C97  1  0.095412  0.333357  0.366119  1
  C  C98  1  0.784066  0.809796  0.713861  1
  C  C99  1  0.215934  0.190204  0.286139  1
  C  C100  1  0.999969  0.918507  0.643011  1
  C  C101  1  0.000031  0.081493  0.356989  1
  Se  Se102  1  0.133537  0.619408  0.937522  1
  Se  Se103  1  0.866463  0.380592  0.062478  1
  Se  Se104  1  0.701638  0.459970  0.830311  1
  Se  Se105  1  0.298362  0.540030  0.169689  1
  Se  Se106  1  0.955499  0.194512  0.834732  1
  Se  Se107  1  0.044501  0.805488  0.165268  1
  Se  Se108  1  0.344995  0.078751  0.494350  1
  Se  Se109  1  0.655005  0.921249  0.505650  1
  Se  Se110  1  0.774878  0.343738  0.511362  1
  Se  Se111  1  0.225122  0.656262  0.488638  1
  Se  Se112  1  0.422252  0.908659  0.715115  1
  Se  Se113  1  0.577748  0.091341  0.284885  1
  N  N114  1  0.681421  0.813515  0.999420  1
  N  N115  1  0.318579  0.186485  0.000580  1
  N  N116  1  0.699050  0.609129  0.322003  1
  N  N117  1  0.300950  0.390871  0.677997  1
  N  N118  1  0.926152  0.798830  0.688031  1
  N  N119  1  0.073848  0.201170  0.311969  1
