# generated using pymatgen
data_Li2MnO2F
_symmetry_space_group_name_H-M   'P 1'
_cell_length_a   5.21426311
_cell_length_b   5.21426311
_cell_length_c   9.37277805
_cell_angle_alpha   79.50224578
_cell_angle_beta   100.49775422
_cell_angle_gamma   68.76454288
_symmetry_Int_Tables_number   1
_chemical_formula_structural   Li2MnO2F
_chemical_formula_sum   'Li8 Mn4 O8 F4'
_cell_volume   224.82659654
_cell_formula_units_Z   4
loop_
 _symmetry_equiv_pos_site_id
 _symmetry_equiv_pos_as_xyz
  1  'x, y, z'
loop_
 _atom_site_type_symbol
 _atom_site_label
 _atom_site_symmetry_multiplicity
 _atom_site_fract_x
 _atom_site_fract_y
 _atom_site_fract_z
 _atom_site_occupancy
  Li  Li0  1  0.108764  0.648522  0.727974  1
  Li  Li1  1  0.351478  0.891236  0.227974  1
  Li  Li2  1  0.069771  0.213614  0.610231  1
  Li  Li3  1  0.207904  0.046661  0.910482  1
  Li  Li4  1  0.786386  0.930229  0.110231  1
  Li  Li5  1  0.953339  0.792096  0.410482  1
  Li  Li6  1  0.629504  0.128577  0.743967  1
  Li  Li7  1  0.871423  0.370496  0.243967  1
  Mn  Mn8  1  0.707377  0.542384  0.914763  1
  Mn  Mn9  1  0.542567  0.703935  0.590215  1
  Mn  Mn10  1  0.457616  0.292623  0.414763  1
  Mn  Mn11  1  0.296065  0.457433  0.090215  1
  O  O12  1  0.384105  0.847179  0.758407  1
  O  O13  1  0.740740  0.952309  0.572071  1
  O  O14  1  0.328772  0.467958  0.573083  1
  O  O15  1  0.152821  0.615895  0.258407  1
  O  O16  1  0.871184  0.398228  0.757773  1
  O  O17  1  0.047691  0.259260  0.072071  1
  O  O18  1  0.532042  0.671228  0.073083  1
  O  O19  1  0.601772  0.128816  0.257773  1
  F  F20  1  0.471065  0.258893  0.922090  1
  F  F21  1  0.960233  0.813727  0.918945  1
  F  F22  1  0.741107  0.528935  0.422090  1
  F  F23  1  0.186273  0.039767  0.418945  1
