# generated using pymatgen
data_Li4Ti3Fe2Sn3O16
_symmetry_space_group_name_H-M   'P 1'
_cell_length_a   6.14592116
_cell_length_b   6.13150037
_cell_length_c   9.93491888
_cell_angle_alpha   90.16256851
_cell_angle_beta   89.09324579
_cell_angle_gamma   119.96993443
_symmetry_Int_Tables_number   1
_chemical_formula_structural   Li4Ti3Fe2Sn3O16
_chemical_formula_sum   'Li4 Ti3 Fe2 Sn3 O16'
_cell_volume   324.27866220
_cell_formula_units_Z   1
loop_
 _symmetry_equiv_pos_site_id
 _symmetry_equiv_pos_as_xyz
  1  'x, y, z'
loop_
 _atom_site_type_symbol
 _atom_site_label
 _atom_site_symmetry_multiplicity
 _atom_site_fract_x
 _atom_site_fract_y
 _atom_site_fract_z
 _atom_site_occupancy
  Li  Li0  1  0.337245  0.668895  0.886447  1
  Li  Li1  1  0.982365  0.990361  0.996529  1
  Li  Li2  1  0.988296  0.993904  0.501517  1
  Li  Li3  1  0.669728  0.335212  0.391252  1
  Ti  Ti4  1  0.662166  0.831679  0.217690  1
  Ti  Ti5  1  0.830325  0.167046  0.715916  1
  Ti  Ti6  1  0.829460  0.662104  0.715912  1
  Fe  Fe7  1  0.336910  0.668285  0.497466  1
  Fe  Fe8  1  0.671195  0.336055  0.992381  1
  Sn  Sn9  1  0.168144  0.830204  0.214156  1
  Sn  Sn10  1  0.169124  0.337798  0.214752  1
  Sn  Sn11  1  0.339160  0.169487  0.713432  1
  O  O12  1  0.150302  0.837766  0.603777  1
  O  O13  1  0.031146  0.516172  0.336498  1
  O  O14  1  0.349712  0.673799  0.098710  1
  O  O15  1  0.987317  0.994015  0.319496  1
  O  O16  1  0.987368  0.994678  0.814771  1
  O  O17  1  0.150545  0.312860  0.604094  1
  O  O18  1  0.492057  0.967094  0.331433  1
  O  O19  1  0.492505  0.525829  0.331596  1
  O  O20  1  0.312304  0.155823  0.096409  1
  O  O21  1  0.688972  0.844407  0.613566  1
  O  O22  1  0.528433  0.494229  0.829138  1
  O  O23  1  0.528593  0.035860  0.829709  1
  O  O24  1  0.687890  0.343478  0.603436  1
  O  O25  1  0.833496  0.685500  0.106139  1
  O  O26  1  0.961608  0.481000  0.825155  1
  O  O27  1  0.833631  0.146756  0.106462  1
