# generated using pymatgen
data_Li3V3P8O29
_symmetry_space_group_name_H-M   'P 1'
_cell_length_a   9.75308419
_cell_length_b   9.77960326
_cell_length_c   14.21554915
_cell_angle_alpha   90.04793140
_cell_angle_beta   89.99483089
_cell_angle_gamma   60.07010555
_symmetry_Int_Tables_number   1
_chemical_formula_structural   Li3V3P8O29
_chemical_formula_sum   'Li6 V6 P16 O58'
_cell_volume   1175.06968316
_cell_formula_units_Z   2
loop_
 _symmetry_equiv_pos_site_id
 _symmetry_equiv_pos_as_xyz
  1  'x, y, z'
loop_
 _atom_site_type_symbol
 _atom_site_label
 _atom_site_symmetry_multiplicity
 _atom_site_fract_x
 _atom_site_fract_y
 _atom_site_fract_z
 _atom_site_occupancy
  Li  Li0  1  0.780103  0.919389  0.551480  1
  Li  Li1  1  0.768933  0.331162  0.058455  1
  Li  Li2  1  0.312802  0.773049  0.560176  1
  Li  Li3  1  0.675899  0.090124  0.944362  1
  Li  Li4  1  0.222388  0.094042  0.441738  1
  Li  Li5  1  0.073323  0.942952  0.000065  1
  V  V6  1  0.563952  0.435300  0.256215  1
  V  V7  1  0.432404  0.560685  0.752325  1
  V  V8  1  0.564365  0.999236  0.751695  1
  V  V9  1  0.435139  0.995680  0.241190  1
  V  V10  1  0.997535  0.566786  0.248032  1
  V  V11  1  -0.000068  0.436886  0.752401  1
  P  P12  1  0.918009  0.777361  0.845013  1
  P  P13  1  0.769767  0.910789  0.338189  1
  P  P14  1  0.914930  0.314808  0.342971  1
  P  P15  1  0.669238  0.661147  0.129933  1
  P  P16  1  0.664731  0.668032  0.632177  1
  P  P17  1  0.772870  0.313547  0.839196  1
  P  P18  1  0.686067  0.227152  0.656267  1
  P  P19  1  0.307667  0.912516  0.840328  1
  P  P20  1  0.685581  0.092003  0.159195  1
  P  P21  1  0.316168  0.774042  0.343105  1
  P  P22  1  0.225047  0.689305  0.162291  1
  P  P23  1  0.329310  0.329299  0.367501  1
  P  P24  1  0.335170  0.330326  0.869598  1
  P  P25  1  0.083545  0.687235  0.659107  1
  P  P26  1  0.226872  0.091563  0.660329  1
  P  P27  1  0.080355  0.225551  0.158146  1
  O  O28  1  0.993038  0.769168  0.573829  1
  O  O29  1  0.913953  0.742439  0.329904  1
  O  O30  1  0.764958  0.018063  0.068732  1
  O  O31  1  0.741388  0.915554  0.836546  1
  O  O32  1  0.921129  0.617200  0.831317  1
  O  O33  1  0.811990  0.667927  0.176230  1
  O  O34  1  0.908265  0.474023  0.323651  1
  O  O35  1  0.995571  0.209639  0.075327  1
  O  O36  1  0.912839  0.344481  0.833377  1
  O  O37  1  0.661062  0.819755  0.678674  1
  O  O38  1  0.617217  0.904053  0.315082  1
  O  O39  1  0.813600  0.527136  0.680372  1
  O  O40  1  0.671537  0.660649  0.025546  1
  O  O41  1  0.668644  0.679771  0.528324  1
  O  O42  1  0.673233  0.509985  0.170772  1
  O  O43  1  0.464058  0.917735  0.828228  1
  O  O44  1  0.516069  0.812061  0.172197  1
  O  O45  1  0.741892  0.346369  0.334640  1
  O  O46  1  0.790647  0.203482  0.751683  1
  O  O47  1  0.765812  0.231707  0.569983  1
  O  O48  1  0.767003  0.236428  0.929200  1
  O  O49  1  0.616556  0.473444  0.823940  1
  O  O50  1  0.513982  0.667270  0.669287  1
  O  O51  1  0.656876  0.262984  0.165315  1
  O  O52  1  0.478658  0.621922  0.322382  1
  O  O53  1  0.338373  0.920444  0.335219  1
  O  O54  1  0.790821  0.004344  0.249926  1
  O  O55  1  0.758129  0.991481  0.428286  1
  O  O56  1  0.243199  0.005565  0.570153  1
  O  O57  1  0.658243  0.082470  0.663629  1
  O  O58  1  0.525441  0.380933  0.678513  1
  O  O59  1  0.347825  0.738418  0.828565  1
  O  O60  1  0.475394  0.339089  0.322633  1
  O  O61  1  0.385993  0.535212  0.174546  1
  O  O62  1  0.212123  0.784547  0.078902  1
  O  O63  1  0.250456  0.764804  0.435356  1
  O  O64  1  0.203092  0.791160  0.257304  1
  O  O65  1  0.255070  0.659859  0.660900  1
  O  O66  1  0.490810  0.183403  0.828303  1
  O  O67  1  0.525704  0.093446  0.172672  1
  O  O68  1  0.331974  0.480735  0.823663  1
  O  O69  1  0.346150  0.328130  0.973563  1
  O  O70  1  0.330298  0.329810  0.471750  1
  O  O71  1  0.182786  0.472516  0.320546  1
  O  O72  1  0.380217  0.098802  0.681098  1
  O  O73  1  0.335713  0.177273  0.326316  1
  O  O74  1  0.089699  0.649985  0.168975  1
  O  O75  1  0.001202  0.794249  0.750954  1
  O  O76  1  0.992802  0.799039  0.929780  1
  O  O77  1  0.091711  0.526347  0.678604  1
  O  O78  1  0.188801  0.329398  0.825480  1
  O  O79  1  0.077624  0.384204  0.167829  1
  O  O80  1  0.255594  0.088799  0.164950  1
  O  O81  1  0.212752  0.988864  0.925041  1
  O  O82  1  0.207431  0.995167  0.745505  1
  O  O83  1  0.084358  0.259796  0.667509  1
  O  O84  1  0.002325  0.232384  0.428929  1
  O  O85  1  0.000923  0.204403  0.252492  1
