# generated using pymatgen
data_Rb2H8O5
_symmetry_space_group_name_H-M   'P 1'
_cell_length_a   7.51477353
_cell_length_b   13.58776049
_cell_length_c   8.40408979
_cell_angle_alpha   82.38322310
_cell_angle_beta   63.44284870
_cell_angle_gamma   73.94694787
_symmetry_Int_Tables_number   1
_chemical_formula_structural   Rb2H8O5
_chemical_formula_sum   'Rb8 H32 O20'
_cell_volume   737.61912311
_cell_formula_units_Z   4
loop_
 _symmetry_equiv_pos_site_id
 _symmetry_equiv_pos_as_xyz
  1  'x, y, z'
loop_
 _atom_site_type_symbol
 _atom_site_label
 _atom_site_symmetry_multiplicity
 _atom_site_fract_x
 _atom_site_fract_y
 _atom_site_fract_z
 _atom_site_occupancy
  Rb  Rb0  1  0.415620  0.054889  0.154315  1
  Rb  Rb1  1  0.868568  0.058489  0.194273  1
  Rb  Rb2  1  0.116263  0.196810  0.575822  1
  Rb  Rb3  1  0.375176  0.554889  0.654315  1
  Rb  Rb4  1  0.160557  0.441245  0.271782  1
  Rb  Rb5  1  0.878670  0.558489  0.694273  1
  Rb  Rb6  1  0.111107  0.696810  0.075822  1
  Rb  Rb7  1  0.126415  0.941245  0.771782  1
  H  H8  1  0.555898  0.033923  0.569079  1
  H  H9  1  0.817774  0.058914  0.565797  1
  H  H10  1  0.389488  0.111614  0.803815  1
  H  H11  1  0.708490  0.117482  0.758253  1
  H  H12  1  0.169330  0.190623  0.901072  1
  H  H13  1  0.741244  0.205875  0.883558  1
  H  H14  1  0.654632  0.402843  0.758590  1
  H  H15  1  0.132833  0.331731  0.809073  1
  H  H16  1  0.602156  0.418724  0.996151  1
  H  H17  1  0.000158  0.427547  0.987106  1
  H  H18  1  0.397576  0.324199  0.598567  1
  H  H19  1  0.676280  0.332856  0.602857  1
  H  H20  1  0.887782  0.265394  0.303943  1
  H  H21  1  0.454977  0.295260  0.367844  1
  H  H22  1  0.591083  0.265096  0.152408  1
  H  H23  1  0.056535  0.277310  0.110664  1
  H  H24  1  0.841099  0.533923  0.069080  1
  H  H25  1  0.557513  0.558914  0.065797  1
  H  H26  1  0.415774  0.617482  0.258253  1
  H  H27  1  0.695082  0.611614  0.303815  1
  H  H28  1  0.542880  0.765394  0.803943  1
  H  H29  1  0.881920  0.795260  0.867844  1
  H  H30  1  0.738976  0.690623  0.401072  1
  H  H31  1  0.555490  0.777310  0.610664  1
  H  H32  1  0.169323  0.705875  0.383558  1
  H  H33  1  0.991413  0.765096  0.652408  1
  H  H34  1  0.726363  0.831731  0.309073  1
  H  H35  1  0.183936  0.902843  0.258590  1
  H  H36  1  0.982969  0.918724  0.496151  1
  H  H37  1  0.585189  0.927547  0.487106  1
  H  H38  1  0.388008  0.832856  0.102857  1
  H  H39  1  0.679658  0.824199  0.098567  1
  O  O40  1  0.244464  0.114189  0.883630  1
  O  O41  1  0.757288  0.132044  0.887284  1
  O  O42  1  0.068736  0.965482  0.427733  1
  O  O43  1  0.502910  0.001760  0.505041  1
  O  O44  1  0.682041  0.102773  0.642575  1
  O  O45  1  0.044982  0.307966  0.926267  1
  O  O46  1  0.036326  0.253208  0.237424  1
  O  O47  1  0.512476  0.238597  0.269601  1
  O  O48  1  0.990290  0.501760  0.005041  1
  O  O49  1  0.328675  0.363017  0.527867  1
  O  O50  1  0.753294  0.368141  0.633210  1
  O  O51  1  0.538048  0.465482  0.927733  1
  O  O52  1  0.979325  0.738597  0.769601  1
  O  O53  1  0.223385  0.632044  0.387284  1
  O  O54  1  0.757718  0.614189  0.383630  1
  O  O55  1  0.473044  0.753208  0.737424  1
  O  O56  1  0.572610  0.602773  0.142575  1
  O  O57  1  0.720785  0.807966  0.426267  1
  O  O58  1  0.780441  0.863017  0.027867  1
  O  O59  1  0.245355  0.868142  0.133210  1
