# generated using pymatgen
data_CoH16RuN10ClO10
_symmetry_space_group_name_H-M   'P 1'
_cell_length_a   6.19367654
_cell_length_b   17.96547385
_cell_length_c   14.71900811
_cell_angle_alpha   90.00000000
_cell_angle_beta   94.68349306
_cell_angle_gamma   90.00000000
_symmetry_Int_Tables_number   1
_chemical_formula_structural   CoH16RuN10ClO10
_chemical_formula_sum   'Co4 H64 Ru4 N40 Cl4 O40'
_cell_volume   1632.34963098
_cell_formula_units_Z   4
loop_
 _symmetry_equiv_pos_site_id
 _symmetry_equiv_pos_as_xyz
  1  'x, y, z'
loop_
 _atom_site_type_symbol
 _atom_site_label
 _atom_site_symmetry_multiplicity
 _atom_site_fract_x
 _atom_site_fract_y
 _atom_site_fract_z
 _atom_site_occupancy
  Co  Co0  1  0.645216  0.497616  0.231297  1
  Co  Co1  1  0.354784  0.997616  0.268703  1
  Co  Co2  1  0.354784  0.502384  0.768703  1
  Co  Co3  1  0.645216  0.002384  0.731297  1
  H  H4  1  0.420038  0.291272  0.616915  1
  H  H5  1  0.579962  0.791272  0.883085  1
  H  H6  1  0.579962  0.708728  0.383085  1
  H  H7  1  0.420038  0.208728  0.116915  1
  H  H8  1  0.877172  0.447355  0.104869  1
  H  H9  1  0.122828  0.947355  0.395131  1
  H  H10  1  0.122828  0.552645  0.895131  1
  H  H11  1  0.877172  0.052645  0.604869  1
  H  H12  1  0.617422  0.435787  0.075035  1
  H  H13  1  0.382578  0.935787  0.424965  1
  H  H14  1  0.382578  0.564213  0.924965  1
  H  H15  1  0.617422  0.064213  0.575035  1
  H  H16  1  0.729605  0.519116  0.067998  1
  H  H17  1  0.270395  0.019116  0.432002  1
  H  H18  1  0.270395  0.480884  0.932002  1
  H  H19  1  0.729605  0.980884  0.567998  1
  H  H20  1  0.767656  0.629993  0.275974  1
  H  H21  1  0.232344  0.129993  0.224026  1
  H  H22  1  0.232344  0.370007  0.724026  1
  H  H23  1  0.767656  0.870007  0.775974  1
  H  H24  1  0.654305  0.624960  0.170232  1
  H  H25  1  0.345695  0.124960  0.329768  1
  H  H26  1  0.345695  0.375040  0.829768  1
  H  H27  1  0.654305  0.875040  0.670232  1
  H  H28  1  0.910256  0.599908  0.192432  1
  H  H29  1  0.089744  0.099908  0.307568  1
  H  H30  1  0.089744  0.400092  0.807568  1
  H  H31  1  0.910256  0.900092  0.692432  1
  H  H32  1  0.638006  0.357829  0.228246  1
  H  H33  1  0.361994  0.857829  0.271754  1
  H  H34  1  0.361994  0.642171  0.771754  1
  H  H35  1  0.638006  0.142171  0.728246  1
  H  H36  1  0.398415  0.392424  0.195749  1
  H  H37  1  0.601585  0.892424  0.304251  1
  H  H38  1  0.601585  0.607576  0.804251  1
  H  H39  1  0.398415  0.107576  0.695749  1
  H  H40  1  0.473448  0.385070  0.305607  1
  H  H41  1  0.526552  0.885070  0.194393  1
  H  H42  1  0.526552  0.614930  0.694393  1
  H  H43  1  0.473448  0.114930  0.805607  1
  H  H44  1  0.053032  0.489086  0.255912  1
  H  H45  1  0.946968  0.989086  0.244088  1
  H  H46  1  0.946968  0.510914  0.744088  1
  H  H47  1  0.053032  0.010914  0.755912  1
  H  H48  1  0.948046  0.475522  0.353173  1
  H  H49  1  0.051954  0.975522  0.146827  1
  H  H50  1  0.051954  0.524478  0.646827  1
  H  H51  1  0.948046  0.024478  0.853173  1
  H  H52  1  0.951030  0.407103  0.276746  1
  H  H53  1  0.048970  0.907103  0.223254  1
  H  H54  1  0.048970  0.592897  0.723254  1
  H  H55  1  0.951030  0.092897  0.776746  1
  H  H56  1  0.629583  0.575002  0.374473  1
  H  H57  1  0.370417  0.075002  0.125527  1
  H  H58  1  0.370417  0.424998  0.625527  1
  H  H59  1  0.629583  0.924998  0.874473  1
  H  H60  1  0.602700  0.485959  0.402223  1
  H  H61  1  0.397300  0.985959  0.097777  1
  H  H62  1  0.397300  0.514041  0.597777  1
  H  H63  1  0.602700  0.014041  0.902223  1
  H  H64  1  0.395021  0.533066  0.352710  1
  H  H65  1  0.604979  0.033066  0.147290  1
  H  H66  1  0.604979  0.466934  0.647290  1
  H  H67  1  0.395021  0.966934  0.852710  1
  Ru  Ru68  1  0.061574  0.273072  0.528528  1
  Ru  Ru69  1  0.938426  0.773072  0.971472  1
  Ru  Ru70  1  0.938426  0.726928  0.471472  1
  Ru  Ru71  1  0.061574  0.226928  0.028528  1
  N  N72  1  0.859825  0.236117  0.448810  1
  N  N73  1  0.140175  0.736117  0.051190  1
  N  N74  1  0.140175  0.763883  0.551190  1
  N  N75  1  0.859825  0.263883  0.948810  1
  N  N76  1  0.233152  0.317615  0.421586  1
  N  N77  1  0.766848  0.817615  0.078414  1
  N  N78  1  0.766848  0.682385  0.578414  1
  N  N79  1  0.233152  0.182385  0.921586  1
  N  N80  1  0.893727  0.375489  0.533804  1
  N  N81  1  0.106273  0.875489  0.966196  1
  N  N82  1  0.106273  0.624511  0.466196  1
  N  N83  1  0.893727  0.124511  0.033804  1
  N  N84  1  0.921278  0.230020  0.646674  1
  N  N85  1  0.078722  0.730020  0.853326  1
  N  N86  1  0.078722  0.769980  0.353326  1
  N  N87  1  0.921278  0.269980  0.146674  1
  N  N88  1  0.247827  0.173612  0.523359  1
  N  N89  1  0.752173  0.673612  0.976641  1
  N  N90  1  0.752173  0.826388  0.476641  1
  N  N91  1  0.247827  0.326388  0.023359  1
  N  N92  1  0.728025  0.471750  0.107174  1
  N  N93  1  0.271975  0.971750  0.392826  1
  N  N94  1  0.271975  0.528250  0.892826  1
  N  N95  1  0.728025  0.028250  0.607174  1
  N  N96  1  0.759970  0.598687  0.216608  1
  N  N97  1  0.240030  0.098687  0.283392  1
  N  N98  1  0.240030  0.401313  0.783392  1
  N  N99  1  0.759970  0.901313  0.716608  1
  N  N100  1  0.527779  0.397656  0.243103  1
  N  N101  1  0.472221  0.897656  0.256897  1
  N  N102  1  0.472221  0.602344  0.756897  1
  N  N103  1  0.527779  0.102344  0.743103  1
  N  N104  1  0.927474  0.463238  0.285234  1
  N  N105  1  0.072526  0.963238  0.214766  1
  N  N106  1  0.072526  0.536762  0.714766  1
  N  N107  1  0.927474  0.036762  0.785234  1
  N  N108  1  0.559121  0.525116  0.353197  1
  N  N109  1  0.440879  0.025116  0.146803  1
  N  N110  1  0.440879  0.474884  0.646803  1
  N  N111  1  0.559121  0.974884  0.853197  1
  Cl  Cl112  1  0.314135  0.535302  0.163745  1
  Cl  Cl113  1  0.685865  0.035302  0.336255  1
  Cl  Cl114  1  0.685865  0.464698  0.836255  1
  Cl  Cl115  1  0.314135  0.964698  0.663745  1
  O  O116  1  0.288357  0.275246  0.360697  1
  O  O117  1  0.711643  0.775246  0.139303  1
  O  O118  1  0.711643  0.724754  0.639303  1
  O  O119  1  0.288357  0.224754  0.860697  1
  O  O120  1  0.276426  0.385605  0.420243  1
  O  O121  1  0.723574  0.885605  0.079757  1
  O  O122  1  0.723574  0.614395  0.579757  1
  O  O123  1  0.276426  0.114395  0.920243  1
  O  O124  1  0.771840  0.394801  0.465824  1
  O  O125  1  0.228160  0.894801  0.034176  1
  O  O126  1  0.228160  0.605199  0.534176  1
  O  O127  1  0.771840  0.105199  0.965824  1
  O  O128  1  0.919542  0.416571  0.602087  1
  O  O129  1  0.080458  0.916571  0.897913  1
  O  O130  1  0.080458  0.583429  0.397913  1
  O  O131  1  0.919542  0.083429  0.102087  1
  O  O132  1  0.771943  0.262523  0.681534  1
  O  O133  1  0.228057  0.762523  0.818466  1
  O  O134  1  0.228057  0.737477  0.318466  1
  O  O135  1  0.771943  0.237477  0.181534  1
  O  O136  1  0.995233  0.169799  0.679986  1
  O  O137  1  0.004767  0.669799  0.820014  1
  O  O138  1  0.004767  0.830201  0.320014  1
  O  O139  1  0.995233  0.330201  0.179986  1
  O  O140  1  0.443667  0.172640  0.552283  1
  O  O141  1  0.556333  0.672640  0.947717  1
  O  O142  1  0.556333  0.827360  0.447717  1
  O  O143  1  0.443667  0.327360  0.052283  1
  O  O144  1  0.160063  0.115917  0.489725  1
  O  O145  1  0.839937  0.615917  0.010275  1
  O  O146  1  0.839937  0.884083  0.510275  1
  O  O147  1  0.160063  0.384083  0.989725  1
  O  O148  1  0.733826  0.212826  0.392721  1
  O  O149  1  0.266174  0.712826  0.107279  1
  O  O150  1  0.266174  0.787174  0.607279  1
  O  O151  1  0.733826  0.287174  0.892721  1
  O  O152  1  0.283591  0.318927  0.615810  1
  O  O153  1  0.716409  0.818927  0.884190  1
  O  O154  1  0.716409  0.681073  0.384190  1
  O  O155  1  0.283591  0.181073  0.115810  1
