# generated using pymatgen
data_Na2Ca17V2(PO4)14
_symmetry_space_group_name_H-M   'P 1'
_cell_length_a   13.86182132
_cell_length_b   13.87379423
_cell_length_c   27.72713585
_cell_angle_alpha   44.22605972
_cell_angle_beta   44.23457731
_cell_angle_gamma   44.22590385
_symmetry_Int_Tables_number   1
_chemical_formula_structural   Na2Ca17V2(PO4)14
_chemical_formula_sum   'Na4 Ca34 V4 P28 O112'
_cell_volume   2357.56735035
_cell_formula_units_Z   2
loop_
 _symmetry_equiv_pos_site_id
 _symmetry_equiv_pos_as_xyz
  1  'x, y, z'
loop_
 _atom_site_type_symbol
 _atom_site_label
 _atom_site_symmetry_multiplicity
 _atom_site_fract_x
 _atom_site_fract_y
 _atom_site_fract_z
 _atom_site_occupancy
  Na  Na0  1  0.219095  0.238866  0.911106  1
  Na  Na1  1  0.454079  0.454772  0.730811  1
  Na  Na2  1  0.321842  0.739160  0.859642  1
  Na  Na3  1  0.961076  0.955227  0.977157  1
  Ca  Ca4  1  0.177829  0.619708  0.101078  1
  Ca  Ca5  1  0.202092  0.172966  0.311410  1
  Ca  Ca6  1  0.618610  0.208404  0.086759  1
  Ca  Ca7  1  0.220681  0.241234  0.409027  1
  Ca  Ca8  1  0.243739  0.820336  0.108734  1
  Ca  Ca9  1  0.123795  0.673119  0.350728  1
  Ca  Ca10  1  0.820229  0.222396  0.119232  1
  Ca  Ca11  1  0.333154  0.345173  0.461637  1
  Ca  Ca12  1  0.344723  0.923421  0.166032  1
  Ca  Ca13  1  0.672627  0.701444  0.061083  1
  Ca  Ca14  1  0.702628  0.123674  0.336056  1
  Ca  Ca15  1  0.318604  0.740707  0.360280  1
  Ca  Ca16  1  0.923380  0.333242  0.171869  1
  Ca  Ca17  1  0.720284  0.318453  0.370518  1
  Ca  Ca18  1  0.171548  0.622877  0.601660  1
  Ca  Ca19  1  0.736854  0.715944  0.162541  1
  Ca  Ca20  1  0.206922  0.173997  0.810861  1
  Ca  Ca21  1  0.623208  0.199583  0.587105  1
  Ca  Ca22  1  0.422720  0.846009  0.416115  1
  Ca  Ca23  1  0.235006  0.824888  0.609110  1
  Ca  Ca24  1  0.833689  0.422595  0.422174  1
  Ca  Ca25  1  0.845891  0.832811  0.211469  1
  Ca  Ca26  1  0.120456  0.673994  0.853797  1
  Ca  Ca27  1  0.825208  0.215440  0.618856  1
  Ca  Ca28  1  0.331553  0.346490  0.961004  1
  Ca  Ca29  1  0.344296  0.922920  0.668261  1
  Ca  Ca30  1  0.675323  0.706420  0.559798  1
  Ca  Ca31  1  0.703134  0.118855  0.838529  1
  Ca  Ca32  1  0.924190  0.331771  0.673150  1
  Ca  Ca33  1  0.715501  0.326632  0.868933  1
  Ca  Ca34  1  0.739394  0.721814  0.660172  1
  Ca  Ca35  1  0.422797  0.845548  0.916235  1
  Ca  Ca36  1  0.834641  0.423869  0.922431  1
  Ca  Ca37  1  0.843973  0.832357  0.712328  1
  V  V38  1  0.268812  0.269720  0.134271  1
  V  V39  1  0.269006  0.268179  0.634823  1
  V  V40  1  0.769571  0.769657  0.383621  1
  V  V41  1  0.768966  0.768072  0.885128  1
  P  P42  1  0.036065  0.035616  0.018258  1
  P  P43  1  0.042572  0.591280  0.038566  1
  P  P44  1  0.078227  0.043699  0.295136  1
  P  P45  1  0.590902  0.077622  0.021604  1
  P  P46  1  0.035579  0.035628  0.517508  1
  P  P47  1  0.090549  0.543524  0.288997  1
  P  P48  1  0.543680  0.578116  0.045170  1
  P  P49  1  0.578168  0.090668  0.271625  1
  P  P50  1  0.043676  0.590314  0.539091  1
  P  P51  1  0.077580  0.042724  0.795787  1
  P  P52  1  0.535438  0.535443  0.267798  1
  P  P53  1  0.589970  0.078438  0.521743  1
  P  P54  1  0.451696  0.490005  0.477722  1
  P  P55  1  0.490741  0.954981  0.225556  1
  P  P56  1  0.091972  0.542717  0.788689  1
  P  P57  1  0.955120  0.451843  0.245096  1
  P  P58  1  0.543104  0.577689  0.545329  1
  P  P59  1  0.577165  0.091185  0.771299  1
  P  P60  1  0.454885  0.989803  0.476112  1
  P  P61  1  0.950992  0.454949  0.495368  1
  P  P62  1  0.989939  0.951461  0.227718  1
  P  P63  1  0.536270  0.535799  0.767940  1
  P  P64  1  0.450760  0.491755  0.976573  1
  P  P65  1  0.489511  0.954054  0.726453  1
  P  P66  1  0.955678  0.450574  0.745275  1
  P  P67  1  0.453037  0.992035  0.975284  1
  P  P68  1  0.952741  0.453662  0.994994  1
  P  P69  1  0.990768  0.951325  0.727533  1
  O  O70  1  0.074805  0.074235  0.040970  1
  O  O71  1  0.142130  0.412394  0.075308  1
  O  O72  1  0.150161  0.143398  0.204912  1
  O  O73  1  0.024246  0.681873  0.060073  1
  O  O74  1  0.413181  0.148704  0.071176  1
  O  O75  1  0.124707  0.027860  0.337263  1
  O  O76  1  0.133819  0.381483  0.200672  1
  O  O77  1  0.380586  0.399610  0.067334  1
  O  O78  1  0.400841  0.134207  0.190511  1
  O  O79  1  0.026190  0.877840  0.080036  1
  O  O80  1  0.682632  0.117863  0.013185  1
  O  O81  1  0.161796  0.028753  0.438909  1
  O  O82  1  0.102076  0.382881  0.328124  1
  O  O83  1  0.139019  0.622681  0.202672  1
  O  O84  1  0.077224  0.077122  0.538305  1
  O  O85  1  0.382514  0.655605  0.051751  1
  O  O86  1  0.405170  0.139074  0.311436  1
  O  O87  1  0.174460  0.527604  0.312449  1
  O  O88  1  0.655908  0.101977  0.191557  1
  O  O89  1  0.622071  0.405085  0.069944  1
  O  O90  1  0.878106  0.159182  0.013754  1
  O  O91  1  0.162384  0.856124  0.208432  1
  O  O92  1  0.119231  0.402365  0.468346  1
  O  O93  1  0.528264  0.623519  0.087625  1
  O  O94  1  0.624187  0.174437  0.264208  1
  O  O95  1  0.416181  0.162080  0.428363  1
  O  O96  1  0.403252  0.936254  0.059490  1
  O  O97  1  0.156104  0.883123  0.301067  1
  O  O98  1  0.122604  0.639091  0.452725  1
  O  O99  1  0.377919  0.528515  0.330973  1
  O  O100  1  0.143491  0.410019  0.574990  1
  O  O101  1  0.149471  0.142764  0.706173  1
  O  O102  1  0.856511  0.416874  0.081229  1
  O  O103  1  0.528711  0.662053  0.188950  1
  O  O104  1  0.661732  0.378065  0.264359  1
  O  O105  1  0.935735  0.119642  0.201530  1
  O  O106  1  0.027883  0.674861  0.562116  1
  O  O107  1  0.410679  0.149373  0.571382  1
  O  O108  1  0.114720  0.031676  0.840519  1
  O  O109  1  0.602090  0.156177  0.441365  1
  O  O110  1  0.641947  0.904225  0.060945  1
  O  O111  1  0.441795  0.453859  0.440670  1
  O  O112  1  0.453727  0.881420  0.220768  1
  O  O113  1  0.576972  0.576888  0.288604  1
  O  O114  1  0.134334  0.381102  0.700241  1
  O  O115  1  0.881097  0.602053  0.079442  1
  O  O116  1  0.905403  0.122628  0.319684  1
  O  O117  1  0.381086  0.401231  0.566982  1
  O  O118  1  0.400145  0.134655  0.689841  1
  O  O119  1  0.356660  0.662448  0.458125  1
  O  O120  1  0.028796  0.878075  0.580897  1
  O  O121  1  0.674977  0.124380  0.513739  1
  O  O122  1  0.881590  0.441570  0.226849  1
  O  O123  1  0.157946  0.024428  0.940264  1
  O  O124  1  0.436664  0.902486  0.309583  1
  O  O125  1  0.100279  0.385853  0.826846  1
  O  O126  1  0.663070  0.916361  0.177593  1
  O  O127  1  0.620014  0.436080  0.451314  1
  O  O128  1  0.140645  0.623164  0.701925  1
  O  O129  1  0.382332  0.656748  0.551246  1
  O  O130  1  0.916271  0.356534  0.331227  1
  O  O131  1  0.902150  0.620151  0.217898  1
  O  O132  1  0.406588  0.140279  0.809430  1
  O  O133  1  0.181177  0.531941  0.807271  1
  O  O134  1  0.659016  0.102026  0.690573  1
  O  O135  1  0.621655  0.404395  0.570955  1
  O  O136  1  0.877982  0.162072  0.514288  1
  O  O137  1  0.381654  0.953172  0.470955  1
  O  O138  1  0.642227  0.649035  0.456493  1
  O  O139  1  0.649439  0.909977  0.321822  1
  O  O140  1  0.163040  0.856055  0.707615  1
  O  O141  1  0.117772  0.407140  0.968215  1
  O  O142  1  0.525710  0.618669  0.591132  1
  O  O143  1  0.910023  0.642836  0.325044  1
  O  O144  1  0.620270  0.182199  0.761896  1
  O  O145  1  0.420886  0.161569  0.927291  1
  O  O146  1  0.402926  0.934861  0.560194  1
  O  O147  1  0.941340  0.381452  0.476962  1
  O  O148  1  0.952980  0.941115  0.191294  1
  O  O149  1  0.634375  0.900546  0.440481  1
  O  O150  1  0.153748  0.885253  0.800265  1
  O  O151  1  0.119146  0.640199  0.953161  1
  O  O152  1  0.380213  0.524680  0.828957  1
  O  O153  1  0.880437  0.634475  0.450416  1
  O  O154  1  0.901089  0.881183  0.317083  1
  O  O155  1  0.854899  0.416633  0.581511  1
  O  O156  1  0.527445  0.659195  0.689056  1
  O  O157  1  0.659954  0.377969  0.763165  1
  O  O158  1  0.936092  0.119682  0.701095  1
  O  O159  1  0.603870  0.156069  0.941127  1
  O  O160  1  0.639899  0.905205  0.560907  1
  O  O161  1  0.444373  0.448142  0.941756  1
  O  O162  1  0.456932  0.882060  0.718650  1
  O  O163  1  0.581500  0.574597  0.787345  1
  O  O164  1  0.882986  0.601926  0.578061  1
  O  O165  1  0.903445  0.123118  0.820291  1
  O  O166  1  0.354814  0.661263  0.960270  1
  O  O167  1  0.881949  0.441651  0.726564  1
  O  O168  1  0.436574  0.907118  0.808800  1
  O  O169  1  0.662677  0.917134  0.678043  1
  O  O170  1  0.619736  0.435114  0.951611  1
  O  O171  1  0.915861  0.355725  0.831463  1
  O  O172  1  0.903087  0.619240  0.718020  1
  O  O173  1  0.383153  0.948854  0.972155  1
  O  O174  1  0.642627  0.649101  0.955529  1
  O  O175  1  0.650922  0.912407  0.821034  1
  O  O176  1  0.911358  0.643985  0.825045  1
  O  O177  1  0.937480  0.382238  0.978362  1
  O  O178  1  0.953723  0.942020  0.690569  1
  O  O179  1  0.634841  0.899857  0.940094  1
  O  O180  1  0.880477  0.634581  0.950043  1
  O  O181  1  0.900939  0.881457  0.816979  1
