# generated using pymatgen
data_Li2TiV3O8
_symmetry_space_group_name_H-M   'P 1'
_cell_length_a   6.44141602
_cell_length_b   6.44141603
_cell_length_c   6.58281416
_cell_angle_alpha   73.24859522
_cell_angle_beta   106.75140166
_cell_angle_gamma   143.37947967
_symmetry_Int_Tables_number   1
_chemical_formula_structural   Li2TiV3O8
_chemical_formula_sum   'Li2 Ti1 V3 O8'
_cell_volume   155.23750096
_cell_formula_units_Z   1
loop_
 _symmetry_equiv_pos_site_id
 _symmetry_equiv_pos_as_xyz
  1  'x, y, z'
loop_
 _atom_site_type_symbol
 _atom_site_label
 _atom_site_symmetry_multiplicity
 _atom_site_fract_x
 _atom_site_fract_y
 _atom_site_fract_z
 _atom_site_occupancy
  Li  Li0  1  0.059054  0.940946  0.356419  1
  Li  Li1  1  0.943101  0.056899  0.651564  1
  Ti  Ti2  1  0.704228  0.295772  0.282006  1
  V  V3  1  0.389716  0.610284  0.304345  1
  V  V4  1  0.611360  0.388640  0.699801  1
  V  V5  1  0.291678  0.708322  0.717135  1
  O  O6  1  0.125589  0.874411  0.676440  1
  O  O7  1  0.226162  0.773838  0.345104  1
  O  O8  1  0.349860  0.650140  0.988871  1
  O  O9  1  0.437826  0.562174  0.628311  1
  O  O10  1  0.565067  0.434933  0.360469  1
  O  O11  1  0.647152  0.352848  0.006660  1
  O  O12  1  0.771731  0.228269  0.662551  1
  O  O13  1  0.877474  0.122526  0.320325  1
