# generated using pymatgen
data_Li4MnFe3(PO4)4
_symmetry_space_group_name_H-M   'P 1'
_cell_length_a   10.51703284
_cell_length_b   7.74046331
_cell_length_c   7.72961673
_cell_angle_alpha   103.98916141
_cell_angle_beta   90.05412383
_cell_angle_gamma   90.07980486
_symmetry_Int_Tables_number   1
_chemical_formula_structural   Li4MnFe3(PO4)4
_chemical_formula_sum   'Li8 Mn2 Fe6 P8 O32'
_cell_volume   610.57910883
_cell_formula_units_Z   2
loop_
 _symmetry_equiv_pos_site_id
 _symmetry_equiv_pos_as_xyz
  1  'x, y, z'
loop_
 _atom_site_type_symbol
 _atom_site_label
 _atom_site_symmetry_multiplicity
 _atom_site_fract_x
 _atom_site_fract_y
 _atom_site_fract_z
 _atom_site_occupancy
  Li  Li0  1  0.500511  0.749839  0.750485  1
  Li  Li1  1  0.500000  0.000000  0.500000  1
  Li  Li2  1  0.499489  0.250161  0.249515  1
  Li  Li3  1  0.500000  0.500000  0.000000  1
  Li  Li4  1  0.999485  0.250031  0.750372  1
  Li  Li5  1  0.000000  0.500000  0.500000  1
  Li  Li6  1  0.000515  0.749969  0.249628  1
  Li  Li7  1  0.000000  0.000000  0.000000  1
  Mn  Mn8  1  0.717581  0.635761  0.385290  1
  Mn  Mn9  1  0.282419  0.364239  0.614710  1
  Fe  Fe10  1  0.782607  0.137000  0.387207  1
  Fe  Fe11  1  0.782573  0.637863  0.887603  1
  Fe  Fe12  1  0.717563  0.136571  0.886978  1
  Fe  Fe13  1  0.282437  0.863429  0.113022  1
  Fe  Fe14  1  0.217394  0.863000  0.612793  1
  Fe  Fe15  1  0.217427  0.362137  0.112397  1
  P  P16  1  0.904930  0.917396  0.667364  1
  P  P17  1  0.905721  0.414613  0.164658  1
  P  P18  1  0.596606  0.416607  0.668746  1
  P  P19  1  0.595525  0.918414  0.166317  1
  P  P20  1  0.404475  0.081586  0.833684  1
  P  P21  1  0.403394  0.583393  0.331254  1
  P  P22  1  0.094279  0.585387  0.835341  1
  P  P23  1  0.095070  0.082604  0.332636  1
  O  O24  1  0.957953  0.021124  0.271259  1
  O  O25  1  0.957630  0.522370  0.772372  1
  O  O26  1  0.902191  0.253687  0.003613  1
  O  O27  1  0.902039  0.755701  0.505537  1
  O  O28  1  0.834581  0.084852  0.631941  1
  O  O29  1  0.835721  0.379569  0.333169  1
  O  O30  1  0.834606  0.882095  0.834930  1
  O  O31  1  0.835829  0.582987  0.129711  1
  O  O32  1  0.665156  0.887496  0.336406  1
  O  O33  1  0.665032  0.086539  0.130393  1
  O  O34  1  0.666005  0.586256  0.637291  1
  O  O35  1  0.665830  0.380075  0.836511  1
  O  O36  1  0.599175  0.256842  0.505502  1
  O  O37  1  0.599399  0.755501  0.006594  1
  O  O38  1  0.540742  0.522218  0.270544  1
  O  O39  1  0.542000  0.021213  0.772893  1
  O  O40  1  0.459258  0.477782  0.729456  1
  O  O41  1  0.458000  0.978787  0.227107  1
  O  O42  1  0.400825  0.743158  0.494498  1
  O  O43  1  0.400601  0.244499  0.993406  1
  O  O44  1  0.334968  0.913461  0.869607  1
  O  O45  1  0.334844  0.112504  0.663594  1
  O  O46  1  0.333995  0.413744  0.362709  1
  O  O47  1  0.334170  0.619925  0.163489  1
  O  O48  1  0.164279  0.620431  0.666831  1
  O  O49  1  0.165419  0.915148  0.368059  1
  O  O50  1  0.164171  0.417013  0.870289  1
  O  O51  1  0.165394  0.117905  0.165070  1
  O  O52  1  0.097809  0.746313  0.996387  1
  O  O53  1  0.097961  0.244299  0.494463  1
  O  O54  1  0.042047  0.978876  0.728741  1
  O  O55  1  0.042370  0.477630  0.227628  1
