# generated using pymatgen
data_Ti3MnSb2(PO4)6
_symmetry_space_group_name_H-M   'P 1'
_cell_length_a   8.89964912
_cell_length_b   8.89964992
_cell_length_c   8.89964943
_cell_angle_alpha   59.04862733
_cell_angle_beta   59.04862791
_cell_angle_gamma   59.04862646
_symmetry_Int_Tables_number   1
_chemical_formula_structural   Ti3MnSb2(PO4)6
_chemical_formula_sum   'Ti3 Mn1 Sb2 P6 O24'
_cell_volume   487.61599512
_cell_formula_units_Z   1
loop_
 _symmetry_equiv_pos_site_id
 _symmetry_equiv_pos_as_xyz
  1  'x, y, z'
loop_
 _atom_site_type_symbol
 _atom_site_label
 _atom_site_symmetry_multiplicity
 _atom_site_fract_x
 _atom_site_fract_y
 _atom_site_fract_z
 _atom_site_occupancy
  Ti  Ti0  1  0.146994  0.146994  0.146994  1
  Ti  Ti1  1  0.350266  0.350266  0.350266  1
  Ti  Ti2  1  0.649474  0.649474  0.649474  1
  Mn  Mn3  1  0.848495  0.848495  0.848495  1
  Sb  Sb4  1  0.994672  0.994672  0.994672  1
  Sb  Sb5  1  0.496783  0.496783  0.496783  1
  P  P6  1  0.046870  0.750324  0.454296  1
  P  P7  1  0.454296  0.046870  0.750324  1
  P  P8  1  0.254374  0.539280  0.958155  1
  P  P9  1  0.539280  0.958155  0.254374  1
  P  P10  1  0.958155  0.254374  0.539280  1
  P  P11  1  0.750324  0.454296  0.046870  1
  O  O12  1  0.113498  0.317015  0.493799  1
  O  O13  1  0.317015  0.493799  0.113498  1
  O  O14  1  0.066813  0.912914  0.261877  1
  O  O15  1  0.493799  0.113498  0.317015  1
  O  O16  1  0.026645  0.798546  0.604119  1
  O  O17  1  0.238290  0.582296  0.426247  1
  O  O18  1  0.261877  0.066813  0.912914  1
  O  O19  1  0.426247  0.238290  0.582296  1
  O  O20  1  0.194840  0.384885  0.996542  1
  O  O21  1  0.582296  0.426247  0.238290  1
  O  O22  1  0.093508  0.731163  0.944083  1
  O  O23  1  0.384885  0.996542  0.194840  1
  O  O24  1  0.604119  0.026645  0.798546  1
  O  O25  1  0.912914  0.261877  0.066813  1
  O  O26  1  0.419662  0.557366  0.768114  1
  O  O27  1  0.798546  0.604119  0.026645  1
  O  O28  1  0.557366  0.768114  0.419662  1
  O  O29  1  0.731163  0.944083  0.093508  1
  O  O30  1  0.768114  0.419662  0.557366  1
  O  O31  1  0.996542  0.194840  0.384885  1
  O  O32  1  0.494819  0.885979  0.696995  1
  O  O33  1  0.944083  0.093508  0.731163  1
  O  O34  1  0.696995  0.494819  0.885979  1
  O  O35  1  0.885979  0.696995  0.494819  1
