# generated using pymatgen
data_Li2VSiO4
_symmetry_space_group_name_H-M   'P 1'
_cell_length_a   6.71776563
_cell_length_b   10.59905205
_cell_length_c   4.90940622
_cell_angle_alpha   90.00000000
_cell_angle_beta   90.00000000
_cell_angle_gamma   90.00000000
_symmetry_Int_Tables_number   1
_chemical_formula_structural   Li2VSiO4
_chemical_formula_sum   'Li8 V4 Si4 O16'
_cell_volume   349.55928429
_cell_formula_units_Z   4
loop_
 _symmetry_equiv_pos_site_id
 _symmetry_equiv_pos_as_xyz
  1  'x, y, z'
loop_
 _atom_site_type_symbol
 _atom_site_label
 _atom_site_symmetry_multiplicity
 _atom_site_fract_x
 _atom_site_fract_y
 _atom_site_fract_z
 _atom_site_occupancy
  Li  Li0  1  0.001102  0.409950  0.183336  1
  Li  Li1  1  0.001102  0.909950  0.316664  1
  Li  Li2  1  0.498898  0.909950  0.316664  1
  Li  Li3  1  0.498898  0.409950  0.183336  1
  Li  Li4  1  0.501102  0.090050  0.683337  1
  Li  Li5  1  0.501102  0.590050  0.816663  1
  Li  Li6  1  0.998898  0.090050  0.683337  1
  Li  Li7  1  0.998898  0.590050  0.816663  1
  V  V8  1  0.250000  0.153013  0.194388  1
  V  V9  1  0.250000  0.653013  0.305612  1
  V  V10  1  0.750000  0.346987  0.694388  1
  V  V11  1  0.750000  0.846987  0.805612  1
  Si  Si12  1  0.250000  0.335767  0.668639  1
  Si  Si13  1  0.250000  0.835767  0.831361  1
  Si  Si14  1  0.750000  0.664233  0.331361  1
  Si  Si15  1  0.750000  0.164233  0.168639  1
  O  O16  1  0.045739  0.405441  0.778473  1
  O  O17  1  0.045739  0.905441  0.721527  1
  O  O18  1  0.250000  0.342112  0.331577  1
  O  O19  1  0.250000  0.683834  0.744502  1
  O  O20  1  0.250000  0.183834  0.755498  1
  O  O21  1  0.250000  0.842112  0.168423  1
  O  O22  1  0.454261  0.905441  0.721527  1
  O  O23  1  0.454261  0.405441  0.778473  1
  O  O24  1  0.545739  0.094559  0.278473  1
  O  O25  1  0.545739  0.594559  0.221527  1
  O  O26  1  0.750000  0.657888  0.668423  1
  O  O27  1  0.750000  0.157888  0.831577  1
  O  O28  1  0.750000  0.316166  0.255497  1
  O  O29  1  0.750000  0.816166  0.244503  1
  O  O30  1  0.954261  0.594559  0.221527  1
  O  O31  1  0.954261  0.094559  0.278473  1
