# generated using pymatgen
data_Li5La3Nb2O12
_symmetry_space_group_name_H-M   'P 1'
_cell_length_a   11.12828385
_cell_length_b   11.20195688
_cell_length_c   11.12828385
_cell_angle_alpha   109.62292367
_cell_angle_beta   108.68474582
_cell_angle_gamma   109.83672304
_symmetry_Int_Tables_number   1
_chemical_formula_structural   Li5La3Nb2O12
_chemical_formula_sum   'Li20 La12 Nb8 O48'
_cell_volume   1071.33690477
_cell_formula_units_Z   4
loop_
 _symmetry_equiv_pos_site_id
 _symmetry_equiv_pos_as_xyz
  1  'x, y, z'
loop_
 _atom_site_type_symbol
 _atom_site_label
 _atom_site_symmetry_multiplicity
 _atom_site_fract_x
 _atom_site_fract_y
 _atom_site_fract_z
 _atom_site_occupancy
  Li  Li0  1  0.765646  0.279739  0.171925  1
  Li  Li1  1  0.463686  0.252106  0.076666  1
  Li  Li2  1  0.677237  0.386279  0.424766  1
  Li  Li3  1  0.961513  0.886279  0.209042  1
  Li  Li4  1  0.812748  0.252479  0.699804  1
  Li  Li5  1  0.890858  0.213854  0.969133  1
  Li  Li6  1  0.702008  0.807659  0.259307  1
  Li  Li7  1  0.548352  0.307659  0.605650  1
  Li  Li8  1  0.446317  0.692256  0.393453  1
  Li  Li9  1  0.071881  0.463836  0.254403  1
  Li  Li10  1  0.298803  0.192256  0.745939  1
  Li  Li11  1  0.389328  0.435075  0.683339  1
  Li  Li12  1  0.107814  0.779739  0.014093  1
  Li  Li13  1  0.751737  0.935075  0.545746  1
  Li  Li14  1  0.321172  0.612148  0.571506  1
  Li  Li15  1  0.175441  0.752106  0.288420  1
  Li  Li16  1  0.040642  0.112148  0.790976  1
  Li  Li17  1  0.552675  0.752479  0.939732  1
  Li  Li18  1  0.244720  0.713854  0.822995  1
  Li  Li19  1  0.209433  0.963836  0.891954  1
  La  La20  1  0.751931  0.123644  0.370203  1
  La  La21  1  0.359948  0.114261  0.253060  1
  La  La22  1  0.861200  0.614261  0.254312  1
  La  La23  1  0.254749  0.371291  0.124080  1
  La  La24  1  0.116362  0.241583  0.367960  1
  La  La25  1  0.873623  0.741583  0.625223  1
  La  La26  1  0.620705  0.251408  0.871154  1
  La  La27  1  0.380255  0.751408  0.130704  1
  La  La28  1  0.753441  0.623644  0.871712  1
  La  La29  1  0.126408  0.379920  0.748768  1
  La  La30  1  0.631152  0.879920  0.753513  1
  La  La31  1  0.247211  0.871291  0.616542  1
  Nb  Nb32  1  0.504599  0.000653  0.001793  1
  Nb  Nb33  1  0.993557  0.001025  0.998227  1
  Nb  Nb34  1  0.498846  0.002048  0.502040  1
  Nb  Nb35  1  0.500010  0.502048  0.003203  1
  Nb  Nb36  1  0.998861  0.500653  0.996054  1
  Nb  Nb37  1  0.499664  0.502742  0.494745  1
  Nb  Nb38  1  0.007996  0.002742  0.503077  1
  Nb  Nb39  1  0.002796  0.501025  0.507467  1
  O  O40  1  0.673977  0.099498  0.975803  1
  O  O41  1  0.883523  0.403184  0.084461  1
  O  O42  1  0.924654  0.308501  0.328655  1
  O  O43  1  0.920362  0.116693  0.599223  1
  O  O44  1  0.587608  0.177819  0.198577  1
  O  O45  1  0.610066  0.407249  0.079942  1
  O  O46  1  0.202754  0.115871  0.028155  1
  O  O47  1  0.702082  0.675419  0.091010  1
  O  O48  1  0.584409  0.175419  0.473338  1
  O  O49  1  0.911151  0.377644  0.580989  1
  O  O50  1  0.829208  0.525733  0.418850  1
  O  O51  1  0.106884  0.025733  0.196526  1
  O  O52  1  0.676485  0.084335  0.695292  1
  O  O53  1  0.014091  0.322064  0.898736  1
  O  O54  1  0.473307  0.372157  0.301847  1
  O  O55  1  0.033228  0.208111  0.114395  1
  O  O56  1  0.472588  0.591666  0.172955  1
  O  O57  1  0.418711  0.091666  0.619078  1
  O  O58  1  0.690938  0.518454  0.610397  1
  O  O59  1  0.908057  0.018454  0.327516  1
  O  O60  1  0.585373  0.911808  0.116458  1
  O  O61  1  0.795350  0.411808  0.826435  1
  O  O62  1  0.379998  0.313917  0.485388  1
  O  O63  1  0.828529  0.813917  0.433919  1
  O  O64  1  0.174927  0.208352  0.588701  1
  O  O65  1  0.619651  0.708352  0.533425  1
  O  O66  1  0.188608  0.576122  0.175593  1
  O  O67  1  0.307689  0.490171  0.382857  1
  O  O68  1  0.107314  0.990171  0.682482  1
  O  O69  1  0.400528  0.076122  0.887514  1
  O  O70  1  0.590222  0.911851  0.387167  1
  O  O71  1  0.524683  0.411851  0.821629  1
  O  O72  1  0.979846  0.808501  0.883847  1
  O  O73  1  0.979242  0.677819  0.090211  1
  O  O74  1  0.517470  0.616693  0.696331  1
  O  O75  1  0.886954  0.980474  0.800637  1
  O  O76  1  0.179837  0.480474  0.593520  1
  O  O77  1  0.327307  0.907249  0.297184  1
  O  O78  1  0.410035  0.824699  0.524457  1
  O  O79  1  0.300242  0.324699  0.914664  1
  O  O80  1  0.087717  0.615871  0.413117  1
  O  O81  1  0.796655  0.877644  0.966494  1
  O  O82  1  0.389044  0.584335  0.907851  1
  O  O83  1  0.070310  0.872157  0.398849  1
  O  O84  1  0.423327  0.822064  0.807973  1
  O  O85  1  0.093716  0.708111  0.674882  1
  O  O86  1  0.123695  0.599498  0.925521  1
  O  O87  1  0.318722  0.903184  0.019660  1
