# generated using pymatgen
data_LiFePO4
_symmetry_space_group_name_H-M   'P 1'
_cell_length_a   10.67160516
_cell_length_b   10.73715029
_cell_length_c   12.31200269
_cell_angle_alpha   90.00000000
_cell_angle_beta   90.00000000
_cell_angle_gamma   118.82031883
_symmetry_Int_Tables_number   1
_chemical_formula_structural   LiFePO4
_chemical_formula_sum   'Li12 Fe12 P12 O48'
_cell_volume   1236.00121833
_cell_formula_units_Z   12
loop_
 _symmetry_equiv_pos_site_id
 _symmetry_equiv_pos_as_xyz
  1  'x, y, z'
loop_
 _atom_site_type_symbol
 _atom_site_label
 _atom_site_symmetry_multiplicity
 _atom_site_fract_x
 _atom_site_fract_y
 _atom_site_fract_z
 _atom_site_occupancy
  Li  Li0  1  0.000000  0.500000  0.152973  1
  Li  Li1  1  0.000000  0.500000  0.507590  1
  Li  Li2  1  0.000000  0.000000  0.985858  1
  Li  Li3  1  0.000000  0.000000  0.332298  1
  Li  Li4  1  0.000000  0.000000  0.681399  1
  Li  Li5  1  0.500000  0.500000  0.176269  1
  Li  Li6  1  0.500000  0.500000  0.839898  1
  Li  Li7  1  0.500000  0.000000  0.444712  1
  Li  Li8  1  0.500000  0.000000  0.013971  1
  Li  Li9  1  0.500000  0.000000  0.207632  1
  Li  Li10  1  0.500000  0.000000  0.640217  1
  Li  Li11  1  0.500000  0.000000  0.823045  1
  Fe  Fe12  1  0.004138  0.729757  0.834448  1
  Fe  Fe13  1  0.239199  0.746852  0.168933  1
  Fe  Fe14  1  0.995862  0.270243  0.834448  1
  Fe  Fe15  1  0.266010  0.494240  0.498657  1
  Fe  Fe16  1  0.244367  0.245094  0.166056  1
  Fe  Fe17  1  0.505323  0.750529  0.833935  1
  Fe  Fe18  1  0.241260  0.007730  0.498632  1
  Fe  Fe19  1  0.494677  0.249471  0.833935  1
  Fe  Fe20  1  0.755633  0.754906  0.166056  1
  Fe  Fe21  1  0.733990  0.505760  0.498657  1
  Fe  Fe22  1  0.760801  0.253148  0.168933  1
  Fe  Fe23  1  0.758740  0.992270  0.498632  1
  P  P24  1  0.996233  0.742265  0.337116  1
  P  P25  1  0.003767  0.257735  0.337116  1
  P  P26  1  0.268398  0.765102  0.654980  1
  P  P27  1  0.260250  0.501270  0.007534  1
  P  P28  1  0.492968  0.751870  0.327324  1
  P  P29  1  0.243299  0.245568  0.676832  1
  P  P30  1  0.257921  0.998269  0.999814  1
  P  P31  1  0.756701  0.754432  0.676832  1
  P  P32  1  0.507032  0.248130  0.327324  1
  P  P33  1  0.739750  0.498730  0.007534  1
  P  P34  1  0.731602  0.234898  0.654980  1
  P  P35  1  0.742079  0.001731  0.999814  1
  O  O36  1  0.116961  0.889047  0.947521  1
  O  O37  1  0.110994  0.889543  0.381835  1
  O  O38  1  0.055829  0.684991  0.245202  1
  O  O39  1  0.148340  0.754756  0.726381  1
  O  O40  1  0.319330  0.938557  0.089862  1
  O  O41  1  0.323167  0.889508  0.568919  1
  O  O42  1  0.064379  0.372396  0.426813  1
  O  O43  1  0.201416  0.589719  0.069321  1
  O  O44  1  0.220485  0.622288  0.597487  1
  O  O45  1  0.137381  0.391953  0.939578  1
  O  O46  1  0.098396  0.200372  0.733372  1
  O  O47  1  0.416920  0.816916  0.256276  1
  O  O48  1  0.409716  0.823920  0.728471  1
  O  O49  1  0.112727  0.215318  0.288169  1
  O  O50  1  0.317262  0.433566  0.091610  1
  O  O51  1  0.381906  0.619278  0.385701  1
  O  O52  1  0.390886  0.593653  0.932188  1
  O  O53  1  0.283429  0.356341  0.587717  1
  O  O54  1  0.582350  0.875274  0.407652  1
  O  O55  1  0.222130  0.111366  0.045347  1
  O  O56  1  0.612071  0.940689  0.917157  1
  O  O57  1  0.217807  0.100626  0.628121  1
  O  O58  1  0.579764  0.706264  0.253137  1
  O  O59  1  0.368041  0.308036  0.761973  1
  O  O60  1  0.631959  0.691964  0.761973  1
  O  O61  1  0.420236  0.293736  0.253137  1
  O  O62  1  0.782193  0.899374  0.628121  1
  O  O63  1  0.387929  0.059311  0.917157  1
  O  O64  1  0.777870  0.888634  0.045347  1
  O  O65  1  0.417650  0.124726  0.407652  1
  O  O66  1  0.716571  0.643659  0.587717  1
  O  O67  1  0.609114  0.406347  0.932188  1
  O  O68  1  0.618094  0.380722  0.385701  1
  O  O69  1  0.682738  0.566434  0.091610  1
  O  O70  1  0.887273  0.784682  0.288169  1
  O  O71  1  0.590284  0.176080  0.728471  1
  O  O72  1  0.583080  0.183084  0.256276  1
  O  O73  1  0.901604  0.799628  0.733372  1
  O  O74  1  0.862619  0.608047  0.939578  1
  O  O75  1  0.779515  0.377712  0.597487  1
  O  O76  1  0.798584  0.410282  0.069321  1
  O  O77  1  0.935621  0.627604  0.426813  1
  O  O78  1  0.676833  0.110492  0.568919  1
  O  O79  1  0.680670  0.061443  0.089862  1
  O  O80  1  0.851660  0.245244  0.726381  1
  O  O81  1  0.944171  0.315009  0.245202  1
  O  O82  1  0.889006  0.110457  0.381835  1
  O  O83  1  0.883039  0.110953  0.947521  1
