# generated using pymatgen
data_Ti3Mn(PO4)6
_symmetry_space_group_name_H-M   'P 1'
_cell_length_a   8.81531309
_cell_length_b   8.81531243
_cell_length_c   8.81531309
_cell_angle_alpha   58.39762458
_cell_angle_beta   58.39762437
_cell_angle_gamma   58.39762727
_symmetry_Int_Tables_number   1
_chemical_formula_structural   Ti3Mn(PO4)6
_chemical_formula_sum   'Ti3 Mn1 P6 O24'
_cell_volume   466.62743632
_cell_formula_units_Z   1
loop_
 _symmetry_equiv_pos_site_id
 _symmetry_equiv_pos_as_xyz
  1  'x, y, z'
loop_
 _atom_site_type_symbol
 _atom_site_label
 _atom_site_symmetry_multiplicity
 _atom_site_fract_x
 _atom_site_fract_y
 _atom_site_fract_z
 _atom_site_occupancy
  Ti  Ti0  1  0.140340  0.140340  0.140340  1
  Ti  Ti1  1  0.359196  0.359196  0.359196  1
  Ti  Ti2  1  0.640126  0.640126  0.640126  1
  Mn  Mn3  1  0.855294  0.855294  0.855294  1
  P  P4  1  0.031586  0.749529  0.470740  1
  P  P5  1  0.470740  0.031586  0.749529  1
  P  P6  1  0.749529  0.470740  0.031586  1
  P  P7  1  0.242784  0.538270  0.966121  1
  P  P8  1  0.538270  0.966121  0.242784  1
  P  P9  1  0.966121  0.242784  0.538270  1
  O  O10  1  0.137872  0.274757  0.506707  1
  O  O11  1  0.274757  0.506707  0.137872  1
  O  O12  1  0.060320  0.923235  0.290828  1
  O  O13  1  0.506707  0.137872  0.274757  1
  O  O14  1  0.211643  0.575240  0.442252  1
  O  O15  1  0.008186  0.774908  0.642753  1
  O  O16  1  0.290828  0.060320  0.923235  1
  O  O17  1  0.442252  0.211643  0.575240  1
  O  O18  1  0.575240  0.442252  0.211643  1
  O  O19  1  0.216498  0.364598  0.996242  1
  O  O20  1  0.069465  0.719865  0.940176  1
  O  O21  1  0.364598  0.996242  0.216498  1
  O  O22  1  0.642753  0.008186  0.774908  1
  O  O23  1  0.923235  0.290828  0.060320  1
  O  O24  1  0.774908  0.642753  0.008186  1
  O  O25  1  0.417684  0.566960  0.785933  1
  O  O26  1  0.566960  0.785933  0.417684  1
  O  O27  1  0.719865  0.940176  0.069465  1
  O  O28  1  0.996242  0.216498  0.364598  1
  O  O29  1  0.785933  0.417684  0.566960  1
  O  O30  1  0.499045  0.860742  0.720102  1
  O  O31  1  0.940176  0.069465  0.719865  1
  O  O32  1  0.720102  0.499045  0.860742  1
  O  O33  1  0.860742  0.720102  0.499045  1
