# generated using pymatgen
data_Na8(NiO2)9
_symmetry_space_group_name_H-M   'P 1'
_cell_length_a   7.59193123
_cell_length_b   7.08358567
_cell_length_c   8.06400499
_cell_angle_alpha   89.67194339
_cell_angle_beta   66.05004860
_cell_angle_gamma   66.06612409
_symmetry_Int_Tables_number   1
_chemical_formula_structural   Na8(NiO2)9
_chemical_formula_sum   'Na8 Ni9 O18'
_cell_volume   355.63034281
_cell_formula_units_Z   1
loop_
 _symmetry_equiv_pos_site_id
 _symmetry_equiv_pos_as_xyz
  1  'x, y, z'
loop_
 _atom_site_type_symbol
 _atom_site_label
 _atom_site_symmetry_multiplicity
 _atom_site_fract_x
 _atom_site_fract_y
 _atom_site_fract_z
 _atom_site_occupancy
  Na  Na0  1  0.887688  0.789046  0.789328  1
  Na  Na1  1  0.424779  0.891773  0.896741  1
  Na  Na2  1  0.778260  0.553936  0.555613  1
  Na  Na3  1  0.321648  0.681855  0.678063  1
  Na  Na4  1  0.678352  0.318145  0.321937  1
  Na  Na5  1  0.221740  0.446064  0.444388  1
  Na  Na6  1  0.575221  0.108227  0.103259  1
  Na  Na7  1  0.112312  0.210954  0.210672  1
  Ni  Ni8  1  0.946574  0.882503  0.388226  1
  Ni  Ni9  1  0.719328  0.449387  0.947414  1
  Ni  Ni10  1  0.832445  0.665895  0.166673  1
  Ni  Ni11  1  0.615707  0.221393  0.716226  1
  Ni  Ni12  1  0.384293  0.778607  0.283774  1
  Ni  Ni13  1  0.167555  0.334105  0.833327  1
  Ni  Ni14  1  0.500000  0.000000  0.500000  1
  Ni  Ni15  1  0.280672  0.550613  0.052586  1
  Ni  Ni16  1  0.053426  0.117497  0.611774  1
  O  O17  1  0.966030  0.431637  0.731419  1
  O  O18  1  0.697669  0.907346  0.604683  1
  O  O19  1  0.807906  0.141474  0.824900  1
  O  O20  1  0.751302  0.954834  0.278353  1
  O  O21  1  0.525268  0.533677  0.835923  1
  O  O22  1  0.861361  0.198448  0.499438  1
  O  O23  1  0.562584  0.711514  0.408521  1
  O  O24  1  0.102390  0.615991  0.929838  1
  O  O25  1  0.371406  0.237499  0.933165  1
  O  O26  1  0.897610  0.384009  0.070162  1
  O  O27  1  0.628594  0.762501  0.066835  1
  O  O28  1  0.437416  0.288486  0.591479  1
  O  O29  1  0.138639  0.801552  0.500562  1
  O  O30  1  0.192094  0.858526  0.175100  1
  O  O31  1  0.474732  0.466323  0.164077  1
  O  O32  1  0.248698  0.045166  0.721647  1
  O  O33  1  0.302331  0.092654  0.395317  1
  O  O34  1  0.033970  0.568363  0.268581  1
