# generated using pymatgen
data_Li24Mn5Cr7O36
_symmetry_space_group_name_H-M   'P 1'
_cell_length_a   5.02761217
_cell_length_b   13.27310592
_cell_length_c   9.76979861
_cell_angle_alpha   96.92629817
_cell_angle_beta   94.94423450
_cell_angle_gamma   100.50049872
_symmetry_Int_Tables_number   1
_chemical_formula_structural   Li24Mn5Cr7O36
_chemical_formula_sum   'Li24 Mn5 Cr7 O36'
_cell_volume   632.44281955
_cell_formula_units_Z   1
loop_
 _symmetry_equiv_pos_site_id
 _symmetry_equiv_pos_as_xyz
  1  'x, y, z'
loop_
 _atom_site_type_symbol
 _atom_site_label
 _atom_site_symmetry_multiplicity
 _atom_site_fract_x
 _atom_site_fract_y
 _atom_site_fract_z
 _atom_site_occupancy
  Li  Li0  1  0.831936  0.166904  0.000503  1
  Li  Li1  1  0.948590  0.386848  0.999616  1
  Li  Li2  1  0.999348  0.749377  0.249634  1
  Li  Li3  1  0.663291  0.083205  0.249720  1
  Li  Li4  1  0.950469  0.887988  0.501479  1
  Li  Li5  1  0.613959  0.220045  0.500418  1
  Li  Li6  1  0.832838  0.666579  0.500273  1
  Li  Li7  1  0.498756  0.999649  0.500632  1
  Li  Li8  1  0.717065  0.446495  0.500138  1
  Li  Li9  1  0.666515  0.583393  0.750028  1
  Li  Li10  1  0.505208  0.500846  0.998429  1
  Li  Li11  1  0.713219  0.946051  0.999612  1
  Li  Li12  1  0.382810  0.278699  0.000019  1
  Li  Li13  1  0.618659  0.719831  0.999495  1
  Li  Li14  1  0.287700  0.053685  0.000659  1
  Li  Li15  1  0.329537  0.415958  0.250398  1
  Li  Li16  1  0.281616  0.553884  0.500552  1
  Li  Li17  1  0.169052  0.333898  0.499597  1
  Li  Li18  1  0.385841  0.779353  0.500070  1
  Li  Li19  1  0.052997  0.112297  0.498286  1
  Li  Li20  1  0.335844  0.917901  0.749717  1
  Li  Li21  1  0.163052  0.833616  0.000429  1
  Li  Li22  1  0.000431  0.250098  0.750026  1
  Li  Li23  1  0.048122  0.613526  0.000112  1
  Mn  Mn24  1  0.891179  0.528041  0.251465  1
  Mn  Mn25  1  0.777376  0.805376  0.749157  1
  Mn  Mn26  1  0.554409  0.360804  0.749251  1
  Mn  Mn27  1  0.445941  0.139454  0.751193  1
  Mn  Mn28  1  0.222973  0.194570  0.249300  1
  Cr  Cr29  1  0.895179  0.028830  0.750038  1
  Cr  Cr30  1  0.771878  0.306194  0.250358  1
  Cr  Cr31  1  0.556678  0.858563  0.249262  1
  Cr  Cr32  1  0.439792  0.635818  0.248899  1
  Cr  Cr33  1  0.227759  0.695998  0.751557  1
  Cr  Cr34  1  0.104765  0.471462  0.749085  1
  Cr  Cr35  1  0.107350  0.974137  0.250741  1
  O  O36  1  0.001858  0.071465  0.138495  1
  O  O37  1  0.933176  0.216284  0.363194  1
  O  O38  1  0.005501  0.570229  0.638901  1
  O  O39  1  0.853861  0.356474  0.638358  1
  O  O40  1  0.734282  0.116755  0.636944  1
  O  O41  1  0.671909  0.404086  0.139043  1
  O  O42  1  0.926078  0.716037  0.865008  1
  O  O43  1  0.806937  0.474859  0.861859  1
  O  O44  1  0.594093  0.049079  0.864982  1
  O  O45  1  0.847438  0.857542  0.137520  1
  O  O46  1  0.740880  0.617421  0.135377  1
  O  O47  1  0.518705  0.189267  0.137731  1
  O  O48  1  0.668388  0.262031  0.861736  1
  O  O49  1  0.819349  0.976105  0.362295  1
  O  O50  1  0.598859  0.548927  0.363354  1
  O  O51  1  0.478755  0.309136  0.361058  1
  O  O52  1  0.661720  0.761463  0.361143  1
  O  O53  1  0.337982  0.098186  0.362813  1
  O  O54  1  0.665437  0.903780  0.637505  1
  O  O55  1  0.331960  0.238094  0.638910  1
  O  O56  1  0.527484  0.691036  0.637593  1
  O  O57  1  0.406386  0.450723  0.635325  1
  O  O58  1  0.193043  0.024901  0.638202  1
  O  O59  1  0.335253  0.735588  0.137293  1
  O  O60  1  0.476909  0.809245  0.860784  1
  O  O61  1  0.266272  0.382997  0.863702  1
  O  O62  1  0.145714  0.142959  0.861341  1
  O  O63  1  0.398303  0.951164  0.135352  1
  O  O64  1  0.189418  0.523876  0.138896  1
  O  O65  1  0.070374  0.285042  0.135860  1
  O  O66  1  0.328156  0.596426  0.862032  1
  O  O67  1  0.268382  0.883225  0.363546  1
  O  O68  1  0.138507  0.642708  0.362302  1
  O  O69  1  0.004015  0.430722  0.363495  1
  O  O70  1  0.067819  0.783607  0.636595  1
  O  O71  1  0.994664  0.929184  0.861307  1
