# generated using pymatgen
data_Li2MnFe(BO3)2
_symmetry_space_group_name_H-M   'P 1'
_cell_length_a   5.25606289
_cell_length_b   5.23406347
_cell_length_c   20.80806765
_cell_angle_alpha   89.31154441
_cell_angle_beta   91.06690068
_cell_angle_gamma   60.03799394
_symmetry_Int_Tables_number   1
_chemical_formula_structural   Li2MnFe(BO3)2
_chemical_formula_sum   'Li8 Mn4 Fe4 B8 O24'
_cell_volume   495.70265284
_cell_formula_units_Z   4
loop_
 _symmetry_equiv_pos_site_id
 _symmetry_equiv_pos_as_xyz
  1  'x, y, z'
loop_
 _atom_site_type_symbol
 _atom_site_label
 _atom_site_symmetry_multiplicity
 _atom_site_fract_x
 _atom_site_fract_y
 _atom_site_fract_z
 _atom_site_occupancy
  Li  Li0  1  0.325942  0.653392  0.666210  1
  Li  Li1  1  0.345735  0.676610  0.916880  1
  Li  Li2  1  0.323182  0.652906  0.166068  1
  Li  Li3  1  0.348394  0.677383  0.416503  1
  Li  Li4  1  0.651146  0.332166  0.792758  1
  Li  Li5  1  0.663180  0.349081  0.541748  1
  Li  Li6  1  0.651332  0.334087  0.291419  1
  Li  Li7  1  0.660600  0.351294  0.041347  1
  Mn  Mn8  1  0.326564  0.007929  0.559387  1
  Mn  Mn9  1  0.675764  0.999680  0.931930  1
  Mn  Mn10  1  0.677580  0.000767  0.432527  1
  Mn  Mn11  1  0.998592  0.325683  0.183748  1
  Fe  Fe12  1  0.336876  0.011573  0.058680  1
  Fe  Fe13  1  0.992734  0.323113  0.684788  1
  Fe  Fe14  1  0.002010  0.668968  0.807376  1
  Fe  Fe15  1  0.004396  0.668094  0.307476  1
  B  B16  1  0.003571  0.337852  0.936730  1
  B  B17  1  0.004478  0.340603  0.436353  1
  B  B18  1  0.328319  0.003162  0.811047  1
  B  B19  1  0.330193  0.006710  0.311676  1
  B  B20  1  0.663446  0.998558  0.688078  1
  B  B21  1  0.660226  0.996840  0.187332  1
  B  B22  1  0.993537  0.668450  0.563209  1
  B  B23  1  0.995898  0.665621  0.061911  1
  O  O24  1  0.063630  0.252873  0.792425  1
  O  O25  1  0.064879  0.253628  0.292166  1
  O  O26  1  0.254146  0.066037  0.951909  1
  O  O27  1  0.033092  0.576430  0.916279  1
  O  O28  1  0.254755  0.068739  0.452017  1
  O  O29  1  0.035637  0.577700  0.415661  1
  O  O30  1  0.578755  0.023586  0.825125  1
  O  O31  1  0.268177  0.643115  0.570046  1
  O  O32  1  0.579197  0.029118  0.325933  1
  O  O33  1  0.265158  0.652172  0.068669  1
  O  O34  1  0.346813  0.730022  0.818005  1
  O  O35  1  0.347323  0.733732  0.318092  1
  O  O36  1  0.640241  0.273808  0.694463  1
  O  O37  1  0.631054  0.273192  0.193761  1
  O  O38  1  0.727836  0.367569  0.943559  1
  O  O39  1  0.417793  0.979163  0.669297  1
  O  O40  1  0.729116  0.370601  0.443554  1
  O  O41  1  0.423488  0.964914  0.166907  1
  O  O42  1  0.960617  0.425416  0.579042  1
  O  O43  1  0.969017  0.416643  0.076214  1
  O  O44  1  0.750718  0.932491  0.541452  1
  O  O45  1  0.746754  0.929169  0.042047  1
  O  O46  1  0.934039  0.743871  0.701711  1
  O  O47  1  0.932871  0.746691  0.202689  1
