# generated using pymatgen
data_Mn3(O2F)2
_symmetry_space_group_name_H-M   'P 1'
_cell_length_a   6.99307158
_cell_length_b   5.50298836
_cell_length_c   5.52254448
_cell_angle_alpha   75.60383049
_cell_angle_beta   74.36093629
_cell_angle_gamma   73.92162286
_symmetry_Int_Tables_number   1
_chemical_formula_structural   Mn3(O2F)2
_chemical_formula_sum   'Mn6 O8 F4'
_cell_volume   193.14303413
_cell_formula_units_Z   2
loop_
 _symmetry_equiv_pos_site_id
 _symmetry_equiv_pos_as_xyz
  1  'x, y, z'
loop_
 _atom_site_type_symbol
 _atom_site_label
 _atom_site_symmetry_multiplicity
 _atom_site_fract_x
 _atom_site_fract_y
 _atom_site_fract_z
 _atom_site_occupancy
  Mn  Mn0  1  0.833333  0.666667  0.666667  1
  Mn  Mn1  1  0.666401  0.356238  0.307991  1
  Mn  Mn2  1  0.333333  0.666667  0.666667  1
  Mn  Mn3  1  0.160314  0.357350  0.323550  1
  Mn  Mn4  1  0.506353  0.975984  0.009784  1
  Mn  Mn5  1  0.000266  0.977096  0.025343  1
  O  O6  1  0.295808  0.887092  0.910876  1
  O  O7  1  0.630895  0.576234  0.546617  1
  O  O8  1  0.958606  0.236438  0.234523  1
  O  O9  1  0.708061  0.096895  0.098810  1
  O  O10  1  0.035772  0.757100  0.786717  1
  O  O11  1  0.370859  0.446241  0.422457  1
  O  O12  1  0.667297  0.633136  0.015731  1
  O  O13  1  0.999370  0.700198  0.317602  1
  F  F14  1  0.663433  0.056778  0.609463  1
  F  F15  1  0.351000  0.336916  0.960979  1
  F  F16  1  0.315667  0.996417  0.372354  1
  F  F17  1  0.003233  0.276555  0.723870  1
