# generated using pymatgen
data_V3OF11
_symmetry_space_group_name_H-M   'P 1'
_cell_length_a   5.45735718
_cell_length_b   5.27625751
_cell_length_c   14.79589256
_cell_angle_alpha   89.95327186
_cell_angle_beta   100.28379653
_cell_angle_gamma   89.98058411
_symmetry_Int_Tables_number   1
_chemical_formula_structural   V3OF11
_chemical_formula_sum   'V6 O2 F22'
_cell_volume   419.19490227
_cell_formula_units_Z   2
loop_
 _symmetry_equiv_pos_site_id
 _symmetry_equiv_pos_as_xyz
  1  'x, y, z'
loop_
 _atom_site_type_symbol
 _atom_site_label
 _atom_site_symmetry_multiplicity
 _atom_site_fract_x
 _atom_site_fract_y
 _atom_site_fract_z
 _atom_site_occupancy
  V  V0  1  0.000019  -0.000008  0.000047  1
  V  V1  1  0.155202  0.509746  0.334644  1
  V  V2  1  0.333284  0.009032  0.672853  1
  V  V3  1  0.500027  0.500124  0.000064  1
  V  V4  1  0.625983  0.025031  0.330324  1
  V  V5  1  0.831474  0.504432  0.665744  1
  O  O6  1  0.378147  0.081500  0.781352  1
  O  O7  1  0.375385  0.204240  0.311075  1
  F  F8  1  0.031283  0.203380  0.640714  1
  F  F9  1  0.189848  0.301597  0.975413  1
  F  F10  1  0.137252  0.706826  0.690762  1
  F  F11  1  0.041858  0.085643  0.117114  1
  F  F12  1  0.214518  0.412749  0.450283  1
  F  F13  1  0.128650  0.576151  0.216498  1
  F  F14  1  0.295518  0.909293  0.551545  1
  F  F15  1  0.458174  0.585058  0.883111  1
  F  F16  1  0.528053  0.292718  0.640836  1
  F  F17  1  0.690426  0.198658  0.975415  1
  F  F18  1  0.310375  0.801451  0.024784  1
  F  F19  1  0.470194  0.712557  0.357350  1
  F  F20  1  0.637612  0.797206  0.691584  1
  F  F21  1  0.541944  0.412980  0.117079  1
  F  F22  1  0.726684  0.073608  0.449930  1
  F  F23  1  0.876238  0.412152  0.781629  1
  F  F24  1  0.634221  0.907942  0.218244  1
  F  F25  1  0.789734  0.580751  0.548490  1
  F  F26  1  0.959116  0.914223  0.883258  1
  F  F27  1  0.858046  0.290544  0.308787  1
  F  F28  1  0.810078  0.698351  0.024488  1
  F  F29  1  0.970659  0.792062  0.356586  1
