# generated using pymatgen
data_Li2Co(CO3)2
_symmetry_space_group_name_H-M   'P 1'
_cell_length_a   5.20234547
_cell_length_b   6.57831644
_cell_length_c   7.84871077
_cell_angle_alpha   89.14923602
_cell_angle_beta   89.37028179
_cell_angle_gamma   112.89479420
_symmetry_Int_Tables_number   1
_chemical_formula_structural   Li2Co(CO3)2
_chemical_formula_sum   'Li4 Co2 C4 O12'
_cell_volume   247.37519469
_cell_formula_units_Z   2
loop_
 _symmetry_equiv_pos_site_id
 _symmetry_equiv_pos_as_xyz
  1  'x, y, z'
loop_
 _atom_site_type_symbol
 _atom_site_label
 _atom_site_symmetry_multiplicity
 _atom_site_fract_x
 _atom_site_fract_y
 _atom_site_fract_z
 _atom_site_occupancy
  Li  Li0  1  0.286619  0.919454  0.598408  1
  Li  Li1  1  0.338725  0.751058  0.081513  1
  Li  Li2  1  0.852841  0.251372  0.418615  1
  Li  Li3  1  0.653126  0.249424  0.919600  1
  Co  Co4  1  0.997704  0.005448  0.005994  1
  Co  Co5  1  0.499427  0.500537  0.500456  1
  C  C6  1  0.731751  0.876334  0.736091  1
  C  C7  1  0.773851  0.625421  0.232889  1
  C  C8  1  0.208789  0.358001  0.760752  1
  C  C9  1  0.286061  0.120716  0.268791  1
  O  O10  1  0.986659  0.896516  0.754719  1
  O  O11  1  0.605861  0.917017  0.869255  1
  O  O12  1  0.605762  0.827078  0.592194  1
  O  O13  1  0.927346  0.691249  0.096464  1
  O  O14  1  0.866499  0.558651  0.367229  1
  O  O15  1  0.522558  0.620787  0.243633  1
  O  O16  1  0.463168  0.366619  0.754138  1
  O  O17  1  0.109847  0.400179  0.618912  1
  O  O18  1  0.419328  0.155003  0.411519  1
  O  O19  1  0.064299  0.314753  0.901438  1
  O  O20  1  0.397650  0.085278  0.128055  1
  O  O21  1  0.035472  0.115158  0.259757  1
