# generated using pymatgen
data_V5O12
_symmetry_space_group_name_H-M   'P 1'
_cell_length_a   8.98366405
_cell_length_b   12.72826614
_cell_length_c   9.11599915
_cell_angle_alpha   90.00000000
_cell_angle_beta   90.00000000
_cell_angle_gamma   90.61132553
_symmetry_Int_Tables_number   1
_chemical_formula_structural   V5O12
_chemical_formula_sum   'V20 O48'
_cell_volume   1042.32296233
_cell_formula_units_Z   4
loop_
 _symmetry_equiv_pos_site_id
 _symmetry_equiv_pos_as_xyz
  1  'x, y, z'
loop_
 _atom_site_type_symbol
 _atom_site_label
 _atom_site_symmetry_multiplicity
 _atom_site_fract_x
 _atom_site_fract_y
 _atom_site_fract_z
 _atom_site_occupancy
  V  V0  1  0.253075  0.875814  0.019480  1
  V  V1  1  0.246925  0.624186  0.519480  1
  V  V2  1  0.246551  0.377564  0.970404  1
  V  V3  1  0.253449  0.122436  0.470404  1
  V  V4  1  0.746551  0.877564  0.529596  1
  V  V5  1  0.753449  0.622436  0.029596  1
  V  V6  1  0.753075  0.375814  0.480520  1
  V  V7  1  0.746925  0.124186  0.980520  1
  V  V8  1  0.025757  0.489729  0.253811  1
  V  V9  1  0.108688  0.858698  0.382343  1
  V  V10  1  0.112352  0.139121  0.111116  1
  V  V11  1  0.391312  0.641302  0.882343  1
  V  V12  1  0.387648  0.360879  0.611116  1
  V  V13  1  0.474243  0.010271  0.753811  1
  V  V14  1  0.525757  0.989729  0.246189  1
  V  V15  1  0.612352  0.639121  0.388885  1
  V  V16  1  0.608688  0.358698  0.117657  1
  V  V17  1  0.887648  0.860879  0.888884  1
  V  V18  1  0.891312  0.141302  0.617657  1
  V  V19  1  0.974243  0.510271  0.746189  1
  O  O20  1  0.083957  0.433873  0.856508  1
  O  O21  1  0.083975  0.884545  0.908287  1
  O  O22  1  0.081662  0.605818  0.660431  1
  O  O23  1  0.075095  0.163911  0.580798  1
  O  O24  1  0.120762  0.576021  0.380203  1
  O  O25  1  0.137023  0.849197  0.193339  1
  O  O26  1  0.157703  0.980975  0.443729  1
  O  O27  1  0.159888  0.248836  0.997969  1
  O  O28  1  0.150521  0.166745  0.291047  1
  O  O29  1  0.160612  0.430491  0.150803  1
  O  O30  1  0.214464  0.760172  0.483072  1
  O  O31  1  0.285536  0.739828  0.983072  1
  O  O32  1  0.213959  0.034539  0.061759  1
  O  O33  1  0.286041  0.465461  0.561759  1
  O  O34  1  0.339388  0.069509  0.650803  1
  O  O35  1  0.349479  0.333255  0.791047  1
  O  O36  1  0.342297  0.519025  0.943729  1
  O  O37  1  0.340112  0.251164  0.497969  1
  O  O38  1  0.362977  0.650803  0.693339  1
  O  O39  1  0.379238  0.923979  0.880203  1
  O  O40  1  0.418338  0.894182  0.160431  1
  O  O41  1  0.416025  0.615455  0.408287  1
  O  O42  1  0.424905  0.336089  0.080798  1
  O  O43  1  0.416043  0.066127  0.356508  1
  O  O44  1  0.583957  0.933873  0.643492  1
  O  O45  1  0.575095  0.663911  0.919202  1
  O  O46  1  0.583975  0.384545  0.591713  1
  O  O47  1  0.581662  0.105818  0.839569  1
  O  O48  1  0.620762  0.076021  0.119797  1
  O  O49  1  0.637023  0.349197  0.306661  1
  O  O50  1  0.659888  0.748836  0.502031  1
  O  O51  1  0.657703  0.480975  0.056271  1
  O  O52  1  0.650521  0.666745  0.208953  1
  O  O53  1  0.660612  0.930491  0.349197  1
  O  O54  1  0.713959  0.534539  0.438241  1
  O  O55  1  0.786041  0.965461  0.938241  1
  O  O56  1  0.714464  0.260172  0.016928  1
  O  O57  1  0.785536  0.239828  0.516928  1
  O  O58  1  0.839388  0.569509  0.849197  1
  O  O59  1  0.849479  0.833255  0.708953  1
  O  O60  1  0.840112  0.751164  0.002031  1
  O  O61  1  0.842297  0.019025  0.556271  1
  O  O62  1  0.862977  0.150803  0.806661  1
  O  O63  1  0.879238  0.423979  0.619797  1
  O  O64  1  0.924905  0.836089  0.419202  1
  O  O65  1  0.918338  0.394182  0.339569  1
  O  O66  1  0.916025  0.115455  0.091713  1
  O  O67  1  0.916043  0.566127  0.143492  1
