# generated using pymatgen
data_Cr(PO3)2
_symmetry_space_group_name_H-M   'P 1'
_cell_length_a   9.34821541
_cell_length_b   13.72555863
_cell_length_c   7.33335735
_cell_angle_alpha   90.00000000
_cell_angle_beta   90.00000000
_cell_angle_gamma   90.00000000
_symmetry_Int_Tables_number   1
_chemical_formula_structural   Cr(PO3)2
_chemical_formula_sum   'Cr8 P16 O48'
_cell_volume   940.93925867
_cell_formula_units_Z   8
loop_
 _symmetry_equiv_pos_site_id
 _symmetry_equiv_pos_as_xyz
  1  'x, y, z'
loop_
 _atom_site_type_symbol
 _atom_site_label
 _atom_site_symmetry_multiplicity
 _atom_site_fract_x
 _atom_site_fract_y
 _atom_site_fract_z
 _atom_site_occupancy
  Cr  Cr0  1  0.007930  0.716973  0.448632  1
  Cr  Cr1  1  0.007930  0.783027  0.948632  1
  Cr  Cr2  1  0.492070  0.283027  0.948632  1
  Cr  Cr3  1  0.492070  0.216973  0.448632  1
  Cr  Cr4  1  0.507930  0.716973  0.051368  1
  Cr  Cr5  1  0.507930  0.783027  0.551368  1
  Cr  Cr6  1  0.992070  0.216973  0.051368  1
  Cr  Cr7  1  0.992070  0.283027  0.551368  1
  P  P8  1  0.204592  0.899873  0.570348  1
  P  P9  1  0.204592  0.600127  0.070348  1
  P  P10  1  0.220466  0.105416  0.671583  1
  P  P11  1  0.220466  0.394584  0.171583  1
  P  P12  1  0.279534  0.605416  0.671583  1
  P  P13  1  0.279534  0.894584  0.171583  1
  P  P14  1  0.295408  0.100127  0.070348  1
  P  P15  1  0.295408  0.399873  0.570348  1
  P  P16  1  0.704592  0.899873  0.929652  1
  P  P17  1  0.704592  0.600127  0.429652  1
  P  P18  1  0.720466  0.105416  0.828417  1
  P  P19  1  0.720466  0.394584  0.328417  1
  P  P20  1  0.779534  0.894584  0.328417  1
  P  P21  1  0.779534  0.605416  0.828417  1
  P  P22  1  0.795408  0.100127  0.429652  1
  P  P23  1  0.795408  0.399873  0.929652  1
  O  O24  1  0.097119  0.822259  0.622880  1
  O  O25  1  0.097119  0.677741  0.122880  1
  O  O26  1  0.103948  0.320707  0.208670  1
  O  O27  1  0.103948  0.179293  0.708670  1
  O  O28  1  0.141835  0.001696  0.642680  1
  O  O29  1  0.141835  0.498304  0.142680  1
  O  O30  1  0.141620  0.388372  0.625122  1
  O  O31  1  0.141620  0.111628  0.125122  1
  O  O32  1  0.188012  0.912257  0.353036  1
  O  O33  1  0.188012  0.587743  0.853036  1
  O  O34  1  0.175598  0.623667  0.519753  1
  O  O35  1  0.175598  0.876333  0.019753  1
  O  O36  1  0.324402  0.123667  0.519753  1
  O  O37  1  0.324402  0.376333  0.019753  1
  O  O38  1  0.311988  0.087743  0.853036  1
  O  O39  1  0.311988  0.412257  0.353036  1
  O  O40  1  0.358380  0.611628  0.125122  1
  O  O41  1  0.358380  0.888372  0.625122  1
  O  O42  1  0.358165  0.501696  0.642680  1
  O  O43  1  0.358165  0.998304  0.142680  1
  O  O44  1  0.396052  0.679293  0.708670  1
  O  O45  1  0.396052  0.820707  0.208670  1
  O  O46  1  0.402881  0.177741  0.122880  1
  O  O47  1  0.402881  0.322259  0.622880  1
  O  O48  1  0.597119  0.677741  0.377120  1
  O  O49  1  0.597119  0.822259  0.877120  1
  O  O50  1  0.603948  0.179293  0.791330  1
  O  O51  1  0.603948  0.320707  0.291330  1
  O  O52  1  0.641835  0.001696  0.857320  1
  O  O53  1  0.641835  0.498304  0.357320  1
  O  O54  1  0.641620  0.111628  0.374878  1
  O  O55  1  0.641620  0.388372  0.874878  1
  O  O56  1  0.688012  0.912257  0.146964  1
  O  O57  1  0.688012  0.587743  0.646964  1
  O  O58  1  0.675598  0.876333  0.480247  1
  O  O59  1  0.675598  0.623667  0.980247  1
  O  O60  1  0.824402  0.123667  0.980247  1
  O  O61  1  0.824402  0.376333  0.480247  1
  O  O62  1  0.811988  0.087743  0.646964  1
  O  O63  1  0.811988  0.412257  0.146964  1
  O  O64  1  0.858380  0.888372  0.874878  1
  O  O65  1  0.858380  0.611628  0.374878  1
  O  O66  1  0.858165  0.501696  0.857320  1
  O  O67  1  0.858165  0.998304  0.357320  1
  O  O68  1  0.896052  0.679293  0.791330  1
  O  O69  1  0.896052  0.820707  0.291330  1
  O  O70  1  0.902881  0.177741  0.377120  1
  O  O71  1  0.902881  0.322259  0.877120  1
