# generated using pymatgen
data_Hf2N2O
_symmetry_space_group_name_H-M   'P 1'
_cell_length_a   8.71738731
_cell_length_b   8.73169312
_cell_length_c   8.76937045
_cell_angle_alpha   109.67985253
_cell_angle_beta   109.50487304
_cell_angle_gamma   109.31684636
_symmetry_Int_Tables_number   1
_chemical_formula_structural   Hf2N2O
_chemical_formula_sum   'Hf16 N16 O8'
_cell_volume   513.28194560
_cell_formula_units_Z   8
loop_
 _symmetry_equiv_pos_site_id
 _symmetry_equiv_pos_as_xyz
  1  'x, y, z'
loop_
 _atom_site_type_symbol
 _atom_site_label
 _atom_site_symmetry_multiplicity
 _atom_site_fract_x
 _atom_site_fract_y
 _atom_site_fract_z
 _atom_site_occupancy
  Hf  Hf0  1  0.962029  0.249694  0.217846  1
  Hf  Hf1  1  0.505034  0.995182  0.995702  1
  Hf  Hf2  1  0.780725  0.025508  0.751411  1
  Hf  Hf3  1  0.710846  0.460700  0.241709  1
  Hf  Hf4  1  0.743622  0.779305  0.033271  1
  Hf  Hf5  1  0.748432  0.285514  0.528047  1
  Hf  Hf6  1  0.006618  0.515887  0.995682  1
  Hf  Hf7  1  0.491887  0.497197  0.510029  1
  Hf  Hf8  1  0.459041  0.249906  0.715092  1
  Hf  Hf9  1  0.006847  0.995169  0.506336  1
  Hf  Hf10  1  0.537683  0.749939  0.284429  1
  Hf  Hf11  1  0.258578  0.715993  0.469111  1
  Hf  Hf12  1  0.248744  0.214275  0.954557  1
  Hf  Hf13  1  0.220155  0.961076  0.257969  1
  Hf  Hf14  1  0.283233  0.539086  0.750983  1
  Hf  Hf15  1  0.037512  0.752631  0.786734  1
  N  N16  1  0.745495  0.232058  0.277859  1
  N  N17  1  0.773959  0.726405  0.264749  1
  N  N18  1  0.469133  0.227235  0.451551  1
  N  N19  1  0.487853  0.764882  0.037334  1
  N  N20  1  0.986928  0.955708  0.728725  1
  N  N21  1  0.225524  0.452477  0.461102  1
  N  N22  1  0.512076  0.242108  0.968157  1
  N  N23  1  0.270560  0.733755  0.224951  1
  N  N24  1  0.959139  0.732684  0.993053  1
  N  N25  1  0.546377  0.534525  0.772431  1
  N  N26  1  0.224092  0.271876  0.738397  1
  N  N27  1  0.537109  0.772676  0.544101  1
  N  N28  1  0.026860  0.486025  0.758233  1
  N  N29  1  0.733227  0.991671  0.958066  1
  N  N30  1  0.234294  0.964634  0.507435  1
  N  N31  1  0.261155  0.777124  0.728034  1
  O  O32  1  0.758112  0.035994  0.487234  1
  O  O33  1  0.271591  0.012781  0.044940  1
  O  O34  1  0.960024  0.503769  0.229595  1
  O  O35  1  0.453151  0.463523  0.226095  1
  O  O36  1  0.051769  0.279824  0.016589  1
  O  O37  1  0.010513  0.048729  0.276835  1
  O  O38  1  0.727881  0.254363  0.773942  1
  O  O39  1  0.772191  0.548114  0.531684  1
