# generated using pymatgen
data_V3(O2F)2
_symmetry_space_group_name_H-M   'P 1'
_cell_length_a   4.71693259
_cell_length_b   4.71693259
_cell_length_c   9.02389883
_cell_angle_alpha   90.75942005
_cell_angle_beta   90.75942005
_cell_angle_gamma   90.10767884
_symmetry_Int_Tables_number   1
_chemical_formula_structural   V3(O2F)2
_chemical_formula_sum   'V6 O8 F4'
_cell_volume   200.74111927
_cell_formula_units_Z   2
loop_
 _symmetry_equiv_pos_site_id
 _symmetry_equiv_pos_as_xyz
  1  'x, y, z'
loop_
 _atom_site_type_symbol
 _atom_site_label
 _atom_site_symmetry_multiplicity
 _atom_site_fract_x
 _atom_site_fract_y
 _atom_site_fract_z
 _atom_site_occupancy
  V  V0  1  0.984830  0.959160  0.013143  1
  V  V1  1  0.040840  0.015170  0.320190  1
  V  V2  1  0.010687  0.989313  0.666667  1
  V  V3  1  0.509056  0.490944  0.166667  1
  V  V4  1  0.484389  0.534551  0.820898  1
  V  V5  1  0.465449  0.515611  0.512435  1
  O  O6  1  0.213164  0.786836  0.166667  1
  O  O7  1  0.194720  0.809144  0.494644  1
  O  O8  1  0.190856  0.805280  0.838689  1
  O  O9  1  0.316759  0.307108  0.337035  1
  O  O10  1  0.290696  0.301759  0.669443  1
  O  O11  1  0.692892  0.683241  0.996300  1
  O  O12  1  0.698241  0.709304  0.663890  1
  O  O13  1  0.808477  0.191523  0.166667  1
  F  F14  1  0.294483  0.292946  0.995587  1
  F  F15  1  0.707054  0.705517  0.337747  1
  F  F16  1  0.793222  0.195815  0.836829  1
  F  F17  1  0.804185  0.206778  0.496504  1
