# generated using pymatgen
data_Li4FeNi5O12
_symmetry_space_group_name_H-M   'P 1'
_cell_length_a   5.02196412
_cell_length_b   4.93583401
_cell_length_c   9.95904839
_cell_angle_alpha   88.99441328
_cell_angle_beta   88.71123299
_cell_angle_gamma   59.54782430
_symmetry_Int_Tables_number   1
_chemical_formula_structural   Li4FeNi5O12
_chemical_formula_sum   'Li4 Fe1 Ni5 O12'
_cell_volume   212.74765141
_cell_formula_units_Z   1
loop_
 _symmetry_equiv_pos_site_id
 _symmetry_equiv_pos_as_xyz
  1  'x, y, z'
loop_
 _atom_site_type_symbol
 _atom_site_label
 _atom_site_symmetry_multiplicity
 _atom_site_fract_x
 _atom_site_fract_y
 _atom_site_fract_z
 _atom_site_occupancy
  Li  Li0  1  0.149869  0.497812  0.752176  1
  Li  Li1  1  0.346560  0.503520  0.249000  1
  Li  Li2  1  0.647884  0.493646  0.750824  1
  Li  Li3  1  0.852967  0.493306  0.250554  1
  Fe  Fe4  1  0.999650  0.999515  0.000419  1
  Ni  Ni5  1  0.163251  0.665785  0.500584  1
  Ni  Ni6  1  0.664140  0.668954  0.000488  1
  Ni  Ni7  1  0.335350  0.329334  0.000976  1
  Ni  Ni8  1  0.833398  0.325443  0.500921  1
  Ni  Ni9  1  0.495186  0.001699  0.500649  1
  O  O10  1  0.025420  0.647232  0.109185  1
  O  O11  1  0.326033  0.647613  0.891038  1
  O  O12  1  0.170249  0.359190  0.392900  1
  O  O13  1  0.499513  0.649357  0.399470  1
  O  O14  1  0.464273  0.355931  0.608304  1
  O  O15  1  0.167115  0.993071  0.594704  1
  O  O16  1  0.845556  0.646040  0.602082  1
  O  O17  1  0.674498  0.350532  0.110940  1
  O  O18  1  0.329170  0.997053  0.097874  1
  O  O19  1  0.972225  0.350741  0.891174  1
  O  O20  1  0.670154  0.000720  0.903609  1
  O  O21  1  0.830353  0.996585  0.406717  1
