# generated using pymatgen
data_K4Li7Mn2O8
_symmetry_space_group_name_H-M   'P 1'
_cell_length_a   5.68891019
_cell_length_b   8.95134182
_cell_length_c   10.91357976
_cell_angle_alpha   90.00925817
_cell_angle_beta   97.98282962
_cell_angle_gamma   90.02577957
_symmetry_Int_Tables_number   1
_chemical_formula_structural   K4Li7Mn2O8
_chemical_formula_sum   'K8 Li14 Mn4 O16'
_cell_volume   550.37086809
_cell_formula_units_Z   2
loop_
 _symmetry_equiv_pos_site_id
 _symmetry_equiv_pos_as_xyz
  1  'x, y, z'
loop_
 _atom_site_type_symbol
 _atom_site_label
 _atom_site_symmetry_multiplicity
 _atom_site_fract_x
 _atom_site_fract_y
 _atom_site_fract_z
 _atom_site_occupancy
  K  K0  1  0.088345  0.005759  0.837146  1
  K  K1  1  0.132163  0.755179  0.369910  1
  K  K2  1  0.421072  0.501940  0.659100  1
  K  K3  1  0.627617  0.747378  0.860882  1
  K  K4  1  0.381973  0.250704  0.122868  1
  K  K5  1  0.589504  0.500155  0.337578  1
  K  K6  1  0.888529  0.252282  0.631310  1
  K  K7  1  0.918352  0.003613  0.157411  1
  Li  Li8  1  0.004452  0.509483  0.501469  1
  Li  Li9  1  0.096990  0.748477  0.693215  1
  Li  Li10  1  0.317138  0.482197  0.926708  1
  Li  Li11  1  0.191594  0.982590  0.572192  1
  Li  Li12  1  0.072779  0.478047  0.202247  1
  Li  Li13  1  0.414228  0.249208  0.808931  1
  Li  Li14  1  0.496420  0.989958  0.998080  1
  Li  Li15  1  0.576638  0.015046  0.697703  1
  Li  Li16  1  0.435187  0.980121  0.298799  1
  Li  Li17  1  0.597532  0.755816  0.194848  1
  Li  Li18  1  0.807769  0.011476  0.434708  1
  Li  Li19  1  0.932652  0.512197  0.803683  1
  Li  Li20  1  0.699895  0.510891  0.064368  1
  Li  Li21  1  0.912272  0.255430  0.306675  1
  Mn  Mn22  1  0.343400  0.210173  0.448800  1
  Mn  Mn23  1  0.839104  0.279067  0.948751  1
  Mn  Mn24  1  0.164334  0.706843  0.051775  1
  Mn  Mn25  1  0.668784  0.782999  0.552211  1
  O  O26  1  0.123095  0.318839  0.858443  1
  O  O27  1  0.150016  0.688060  0.876301  1
  O  O28  1  0.136335  0.055177  0.383093  1
  O  O29  1  0.151158  0.411719  0.390097  1
  O  O30  1  0.364520  0.188068  0.624947  1
  O  O31  1  0.382776  0.819659  0.640381  1
  O  O32  1  0.629196  0.454955  0.880481  1
  O  O33  1  0.350050  0.906957  0.115622  1
  O  O34  1  0.367943  0.550422  0.115439  1
  O  O35  1  0.639194  0.083136  0.885159  1
  O  O36  1  0.603447  0.182927  0.357845  1
  O  O37  1  0.641757  0.817207  0.364950  1
  O  O38  1  0.865278  0.588011  0.621898  1
  O  O39  1  0.877505  0.959433  0.618827  1
  O  O40  1  0.868431  0.316749  0.135817  1
  O  O41  1  0.900566  0.681861  0.141353  1
