# generated using pymatgen
data_Mn2P4O13
_symmetry_space_group_name_H-M   'P 1'
_cell_length_a   8.38444385
_cell_length_b   9.00230318
_cell_length_c   13.39916251
_cell_angle_alpha   90.00000000
_cell_angle_beta   107.87139284
_cell_angle_gamma   90.00000000
_symmetry_Int_Tables_number   1
_chemical_formula_structural   Mn2P4O13
_chemical_formula_sum   'Mn8 P16 O52'
_cell_volume   962.55910599
_cell_formula_units_Z   4
loop_
 _symmetry_equiv_pos_site_id
 _symmetry_equiv_pos_as_xyz
  1  'x, y, z'
loop_
 _atom_site_type_symbol
 _atom_site_label
 _atom_site_symmetry_multiplicity
 _atom_site_fract_x
 _atom_site_fract_y
 _atom_site_fract_z
 _atom_site_occupancy
  Mn  Mn0  1  0.034834  0.998928  0.722097  1
  Mn  Mn1  1  0.034834  0.501072  0.222097  1
  Mn  Mn2  1  0.443747  0.001189  0.737974  1
  Mn  Mn3  1  0.556253  0.501189  0.762026  1
  Mn  Mn4  1  0.443747  0.498811  0.237974  1
  Mn  Mn5  1  0.556253  0.998811  0.262026  1
  Mn  Mn6  1  0.965166  0.498928  0.777903  1
  Mn  Mn7  1  0.965166  0.001072  0.277903  1
  P  P8  1  0.140376  0.241069  0.929000  1
  P  P9  1  0.274748  0.724181  0.841777  1
  P  P10  1  0.226779  0.297783  0.659919  1
  P  P11  1  0.140376  0.258931  0.429000  1
  P  P12  1  0.502743  0.251432  0.931920  1
  P  P13  1  0.274748  0.775819  0.341777  1
  P  P14  1  0.226779  0.202217  0.159919  1
  P  P15  1  0.497257  0.751432  0.568080  1
  P  P16  1  0.502743  0.248568  0.431920  1
  P  P17  1  0.773221  0.797783  0.840081  1
  P  P18  1  0.725252  0.224181  0.658223  1
  P  P19  1  0.497257  0.748568  0.068080  1
  P  P20  1  0.859624  0.741069  0.571000  1
  P  P21  1  0.773221  0.702217  0.340081  1
  P  P22  1  0.725252  0.275819  0.158223  1
  P  P23  1  0.859624  0.758931  0.071000  1
  O  O24  1  0.027404  0.376017  0.904811  1
  O  O25  1  0.102646  0.112630  0.854384  1
  O  O26  1  0.119918  0.648258  0.855010  1
  O  O27  1  0.126242  0.369955  0.720886  1
  O  O28  1  0.027404  0.123983  0.404811  1
  O  O29  1  0.128036  0.324406  0.536761  1
  O  O30  1  0.330947  0.300442  0.954741  1
  O  O31  1  0.232662  0.868383  0.775049  1
  O  O32  1  0.241320  0.125157  0.672507  1
  O  O33  1  0.102646  0.387370  0.354384  1
  O  O34  1  0.375134  0.791837  0.956367  1
  O  O35  1  0.119918  0.851742  0.355010  1
  O  O36  1  0.126242  0.130045  0.220886  1
  O  O37  1  0.385822  0.624818  0.803967  1
  O  O38  1  0.467552  0.110695  0.869349  1
  O  O39  1  0.400703  0.363311  0.677437  1
  O  O40  1  0.128036  0.175594  0.036761  1
  O  O41  1  0.330947  0.199558  0.454741  1
  O  O42  1  0.232662  0.631617  0.275049  1
  O  O43  1  0.241320  0.374843  0.172507  1
  O  O44  1  0.423012  0.882674  0.607929  1
  O  O45  1  0.375134  0.708163  0.456367  1
  O  O46  1  0.576988  0.382674  0.892071  1
  O  O47  1  0.599297  0.863311  0.822563  1
  O  O48  1  0.532448  0.610695  0.630651  1
  O  O49  1  0.385822  0.875182  0.303967  1
  O  O50  1  0.614178  0.124818  0.696033  1
  O  O51  1  0.467552  0.389305  0.369349  1
  O  O52  1  0.400703  0.136689  0.177437  1
  O  O53  1  0.423012  0.617326  0.107929  1
  O  O54  1  0.624866  0.291837  0.543633  1
  O  O55  1  0.576988  0.117326  0.392071  1
  O  O56  1  0.758680  0.625157  0.827493  1
  O  O57  1  0.767338  0.368383  0.724951  1
  O  O58  1  0.669053  0.800442  0.545259  1
  O  O59  1  0.871964  0.824406  0.963239  1
  O  O60  1  0.599297  0.636689  0.322563  1
  O  O61  1  0.532448  0.889305  0.130651  1
  O  O62  1  0.614178  0.375182  0.196033  1
  O  O63  1  0.873758  0.869955  0.779114  1
  O  O64  1  0.880082  0.148258  0.644990  1
  O  O65  1  0.624866  0.208163  0.043633  1
  O  O66  1  0.897354  0.612630  0.645616  1
  O  O67  1  0.758680  0.874843  0.327493  1
  O  O68  1  0.767338  0.131617  0.224951  1
  O  O69  1  0.669053  0.699558  0.045259  1
  O  O70  1  0.871964  0.675594  0.463239  1
  O  O71  1  0.972596  0.876017  0.595189  1
  O  O72  1  0.873758  0.630045  0.279114  1
  O  O73  1  0.880082  0.351742  0.144990  1
  O  O74  1  0.897354  0.887370  0.145616  1
  O  O75  1  0.972596  0.623983  0.095189  1
