# generated using pymatgen
data_Li6MnFe5(BO3)6
_symmetry_space_group_name_H-M   'P 1'
_cell_length_a   8.24899798
_cell_length_b   8.24281404
_cell_length_c   6.28056664
_cell_angle_alpha   90.00000000
_cell_angle_beta   90.00000000
_cell_angle_gamma   120.08084322
_symmetry_Int_Tables_number   1
_chemical_formula_structural   Li6MnFe5(BO3)6
_chemical_formula_sum   'Li6 Mn1 Fe5 B6 O18'
_cell_volume   369.53177925
_cell_formula_units_Z   1
loop_
 _symmetry_equiv_pos_site_id
 _symmetry_equiv_pos_as_xyz
  1  'x, y, z'
loop_
 _atom_site_type_symbol
 _atom_site_label
 _atom_site_symmetry_multiplicity
 _atom_site_fract_x
 _atom_site_fract_y
 _atom_site_fract_z
 _atom_site_occupancy
  Li  Li0  1  0.284836  0.982781  0.250495  1
  Li  Li1  1  0.284836  0.982781  0.749505  1
  Li  Li2  1  0.015821  0.301715  0.249403  1
  Li  Li3  1  0.015821  0.301715  0.750597  1
  Li  Li4  1  0.698314  0.714529  0.749284  1
  Li  Li5  1  0.698314  0.714529  0.250716  1
  Mn  Mn6  1  0.373229  0.360387  0.000000  1
  Fe  Fe7  1  0.366960  0.359755  0.500000  1
  Fe  Fe8  1  0.640761  0.007825  0.000000  1
  Fe  Fe9  1  0.639941  0.008227  0.500000  1
  Fe  Fe10  1  0.992063  0.633070  0.000000  1
  Fe  Fe11  1  0.991981  0.631645  0.500000  1
  B  B12  1  0.997904  0.999644  0.000000  1
  B  B13  1  0.000144  0.000074  0.500000  1
  B  B14  1  0.333422  0.667910  0.251751  1
  B  B15  1  0.333422  0.667910  0.748249  1
  B  B16  1  0.667909  0.332895  0.251553  1
  B  B17  1  0.667909  0.332895  0.748447  1
  O  O18  1  0.109361  0.915072  0.500000  1
  O  O19  1  0.109319  0.916695  0.000000  1
  O  O20  1  0.139240  0.581693  0.249908  1
  O  O21  1  0.139240  0.581693  0.750092  1
  O  O22  1  0.079595  0.193330  0.000000  1
  O  O23  1  0.084963  0.194211  0.500000  1
  O  O24  1  0.441762  0.861954  0.250078  1
  O  O25  1  0.441762  0.861954  0.749922  1
  O  O26  1  0.419202  0.559995  0.253903  1
  O  O27  1  0.419202  0.559995  0.746097  1
  O  O28  1  0.473307  0.252395  0.253322  1
  O  O29  1  0.473307  0.252395  0.746678  1
  O  O30  1  0.803489  0.887081  0.000000  1
  O  O31  1  0.805833  0.890627  0.500000  1
  O  O32  1  0.781598  0.526981  0.250385  1
  O  O33  1  0.781598  0.526981  0.749615  1
  O  O34  1  0.746815  0.218330  0.749972  1
  O  O35  1  0.746815  0.218330  0.250028  1
