# generated using pymatgen
data_Li3Mn4(BO3)4
_symmetry_space_group_name_H-M   'P 1'
_cell_length_a   5.27492632
_cell_length_b   13.97357951
_cell_length_c   10.37347844
_cell_angle_alpha   91.31537408
_cell_angle_beta   91.48075275
_cell_angle_gamma   100.42443143
_symmetry_Int_Tables_number   1
_chemical_formula_structural   Li3Mn4(BO3)4
_chemical_formula_sum   'Li9 Mn12 B12 O36'
_cell_volume   751.45631187
_cell_formula_units_Z   3
loop_
 _symmetry_equiv_pos_site_id
 _symmetry_equiv_pos_as_xyz
  1  'x, y, z'
loop_
 _atom_site_type_symbol
 _atom_site_label
 _atom_site_symmetry_multiplicity
 _atom_site_fract_x
 _atom_site_fract_y
 _atom_site_fract_z
 _atom_site_occupancy
  Li  Li0  1  0.217027  0.618686  0.844424  1
  Li  Li1  1  0.243311  0.608982  0.329422  1
  Li  Li2  1  0.107376  0.055265  0.098372  1
  Li  Li3  1  0.439684  0.725146  0.601054  1
  Li  Li4  1  0.869762  0.951910  0.838541  1
  Li  Li5  1  0.552160  0.285344  0.830250  1
  Li  Li6  1  0.920849  0.941283  0.327701  1
  Li  Li7  1  0.575765  0.278376  0.341677  1
  Li  Li8  1  0.775415  0.385696  0.600517  1
  Mn  Mn9  1  0.991016  0.844187  0.612789  1
  Mn  Mn10  1  0.126979  0.395124  0.869159  1
  Mn  Mn11  1  0.343514  0.829906  0.366176  1
  Mn  Mn12  1  0.023931  0.164869  0.374660  1
  Mn  Mn13  1  0.329595  0.507229  0.615756  1
  Mn  Mn14  1  0.550198  0.934721  0.114320  1
  Mn  Mn15  1  0.213210  0.277327  0.124626  1
  Mn  Mn16  1  0.426721  0.058167  0.868648  1
  Mn  Mn17  1  0.787322  0.729982  0.867455  1
  Mn  Mn18  1  0.677736  0.500428  0.365840  1
  Mn  Mn19  1  0.670160  0.151861  0.619717  1
  Mn  Mn20  1  0.875607  0.609602  0.117288  1
  B  B21  1  0.016454  0.832811  0.113734  1
  B  B22  1  0.334847  0.834188  0.866232  1
  B  B23  1  0.110937  0.388240  0.382853  1
  B  B24  1  0.215607  0.282812  0.630795  1
  B  B25  1  0.539480  0.947752  0.627994  1
  B  B26  1  0.340103  0.497027  0.119644  1
  B  B27  1  0.671807  0.502876  0.865075  1
  B  B28  1  0.779310  0.720630  0.378653  1
  B  B29  1  0.460118  0.047829  0.372343  1
  B  B30  1  0.883979  0.616842  0.634063  1
  B  B31  1  0.660861  0.158316  0.133259  1
  B  B32  1  0.989774  0.167210  0.868644  1
  O  O33  1  0.079467  0.842855  0.832591  1
  O  O34  1  0.146119  0.623983  0.644878  1
  O  O35  1  0.255691  0.823146  0.162569  1
  O  O36  1  0.124661  0.367555  0.676364  1
  O  O37  1  0.031302  0.208301  0.577973  1
  O  O38  1  0.380986  0.863298  0.578765  1
  O  O39  1  0.227525  0.574201  0.145526  1
  O  O40  1  0.202481  0.412644  0.052142  1
  O  O41  1  0.049909  0.078615  0.895309  1
  O  O42  1  0.414189  0.746663  0.858537  1
  O  O43  1  0.168003  0.252333  0.898470  1
  O  O44  1  0.505825  0.918212  0.905403  1
  O  O45  1  0.277554  0.476689  0.413084  1
  O  O46  1  0.215286  0.310259  0.335168  1
  O  O47  1  0.571520  0.969819  0.330756  1
  O  O48  1  0.413820  0.510579  0.836142  1
  O  O49  1  0.518802  0.709675  0.401222  1
  O  O50  1  0.203917  0.047244  0.357703  1
  O  O51  1  0.794888  0.952203  0.651912  1
  O  O52  1  0.472549  0.278254  0.636746  1
  O  O53  1  0.588628  0.493096  0.162141  1
  O  O54  1  0.429741  0.030644  0.657575  1
  O  O55  1  0.774498  0.699096  0.672896  1
  O  O56  1  0.725504  0.532435  0.587767  1
  O  O57  1  0.562684  0.239073  0.162327  1
  O  O58  1  0.930571  0.919627  0.127404  1
  O  O59  1  0.502539  0.076610  0.074783  1
  O  O60  1  0.860690  0.750348  0.053677  1
  O  O61  1  0.752206  0.415382  0.854901  1
  O  O62  1  0.844598  0.588128  0.901538  1
  O  O63  1  0.940570  0.810675  0.407366  1
  O  O64  1  0.626366  0.131442  0.428291  1
  O  O65  1  0.887863  0.643731  0.331279  1
  O  O66  1  0.743400  0.174099  0.815004  1
  O  O67  1  0.851065  0.379902  0.404941  1
  O  O68  1  0.920560  0.154938  0.164185  1
