# generated using pymatgen
data_K4ZnH6(S2O9)2
_symmetry_space_group_name_H-M   'P 1'
_cell_length_a   7.39828706
_cell_length_b   21.67202859
_cell_length_c   12.27145522
_cell_angle_alpha   90.00000000
_cell_angle_beta   90.00000000
_cell_angle_gamma   90.00000000
_symmetry_Int_Tables_number   1
_chemical_formula_structural   K4ZnH6(S2O9)2
_chemical_formula_sum   'K16 Zn4 H24 S16 O72'
_cell_volume   1967.55467811
_cell_formula_units_Z   4
loop_
 _symmetry_equiv_pos_site_id
 _symmetry_equiv_pos_as_xyz
  1  'x, y, z'
loop_
 _atom_site_type_symbol
 _atom_site_label
 _atom_site_symmetry_multiplicity
 _atom_site_fract_x
 _atom_site_fract_y
 _atom_site_fract_z
 _atom_site_occupancy
  K  K0  1  0.605293  0.184327  0.364967  1
  K  K1  1  0.894707  0.315673  0.364967  1
  K  K2  1  0.105293  0.815673  0.135033  1
  K  K3  1  0.394707  0.684327  0.135033  1
  K  K4  1  0.394707  0.815673  0.635033  1
  K  K5  1  0.105293  0.684327  0.635033  1
  K  K6  1  0.894707  0.184327  0.864967  1
  K  K7  1  0.605293  0.315673  0.864967  1
  K  K8  1  0.239688  0.430344  0.662434  1
  K  K9  1  0.260312  0.069656  0.662434  1
  K  K10  1  0.739688  0.569656  0.837566  1
  K  K11  1  0.760312  0.930344  0.837566  1
  K  K12  1  0.760312  0.569656  0.337566  1
  K  K13  1  0.739688  0.930344  0.337566  1
  K  K14  1  0.260312  0.430344  0.162434  1
  K  K15  1  0.239688  0.069656  0.162434  1
  Zn  Zn16  1  0.250000  0.250000  0.662819  1
  Zn  Zn17  1  0.750000  0.750000  0.837181  1
  Zn  Zn18  1  0.750000  0.750000  0.337181  1
  Zn  Zn19  1  0.250000  0.250000  0.162819  1
  H  H20  1  0.275067  0.068928  0.897010  1
  H  H21  1  0.224933  0.431072  0.897010  1
  H  H22  1  0.775067  0.931072  0.602990  1
  H  H23  1  0.724933  0.568928  0.602990  1
  H  H24  1  0.724933  0.931072  0.102990  1
  H  H25  1  0.775067  0.568928  0.102990  1
  H  H26  1  0.224933  0.068928  0.397010  1
  H  H27  1  0.275067  0.431072  0.397010  1
  H  H28  1  0.552030  0.229911  0.111397  1
  H  H29  1  0.947970  0.270089  0.111397  1
  H  H30  1  0.052030  0.770089  0.388603  1
  H  H31  1  0.447970  0.729911  0.388603  1
  H  H32  1  0.447970  0.770089  0.888603  1
  H  H33  1  0.052030  0.729911  0.888603  1
  H  H34  1  0.947970  0.229911  0.611397  1
  H  H35  1  0.552030  0.270089  0.611397  1
  H  H36  1  0.607060  0.331912  0.138113  1
  H  H37  1  0.892940  0.168088  0.138113  1
  H  H38  1  0.107060  0.668088  0.361887  1
  H  H39  1  0.392940  0.831912  0.361887  1
  H  H40  1  0.392940  0.668088  0.861887  1
  H  H41  1  0.107060  0.831912  0.861887  1
  H  H42  1  0.892940  0.331912  0.638113  1
  H  H43  1  0.607060  0.168088  0.638113  1
  S  S44  1  0.739034  0.072973  0.143195  1
  S  S45  1  0.760966  0.427027  0.143195  1
  S  S46  1  0.239034  0.927027  0.356805  1
  S  S47  1  0.260966  0.572973  0.356805  1
  S  S48  1  0.260966  0.927027  0.856805  1
  S  S49  1  0.239034  0.572973  0.856805  1
  S  S50  1  0.760966  0.072973  0.643195  1
  S  S51  1  0.739034  0.427027  0.643195  1
  S  S52  1  0.354750  0.163431  0.916244  1
  S  S53  1  0.145250  0.336569  0.916244  1
  S  S54  1  0.854750  0.836569  0.583756  1
  S  S55  1  0.645250  0.663431  0.583756  1
  S  S56  1  0.645250  0.836569  0.083756  1
  S  S57  1  0.854750  0.663431  0.083756  1
  S  S58  1  0.145250  0.163431  0.416244  1
  S  S59  1  0.354750  0.336569  0.416244  1
  O  O60  1  0.583869  0.104072  0.201414  1
  O  O61  1  0.916131  0.395928  0.201414  1
  O  O62  1  0.083869  0.895928  0.298586  1
  O  O63  1  0.416131  0.604072  0.298586  1
  O  O64  1  0.416131  0.895928  0.798586  1
  O  O65  1  0.083869  0.604072  0.798586  1
  O  O66  1  0.916131  0.104072  0.701414  1
  O  O67  1  0.583869  0.395928  0.701414  1
  O  O68  1  0.859706  0.041516  0.225139  1
  O  O69  1  0.640294  0.458484  0.225139  1
  O  O70  1  0.359706  0.958484  0.274861  1
  O  O71  1  0.140294  0.541516  0.274861  1
  O  O72  1  0.140294  0.958484  0.774861  1
  O  O73  1  0.359706  0.541516  0.774861  1
  O  O74  1  0.640294  0.041516  0.725139  1
  O  O75  1  0.859706  0.458484  0.725139  1
  O  O76  1  0.865414  0.130583  0.091452  1
  O  O77  1  0.634586  0.369417  0.091452  1
  O  O78  1  0.365414  0.869417  0.408548  1
  O  O79  1  0.134586  0.630583  0.408548  1
  O  O80  1  0.134586  0.869417  0.908548  1
  O  O81  1  0.365414  0.630583  0.908548  1
  O  O82  1  0.634586  0.130583  0.591452  1
  O  O83  1  0.865414  0.369417  0.591452  1
  O  O84  1  0.074879  0.992701  0.020799  1
  O  O85  1  0.425121  0.507299  0.020799  1
  O  O86  1  0.574879  0.007299  0.479201  1
  O  O87  1  0.925121  0.492701  0.479201  1
  O  O88  1  0.925121  0.007299  0.979201  1
  O  O89  1  0.574879  0.492701  0.979201  1
  O  O90  1  0.425121  0.992701  0.520799  1
  O  O91  1  0.074879  0.507299  0.520799  1
  O  O92  1  0.260490  0.172518  0.811842  1
  O  O93  1  0.239510  0.327482  0.811842  1
  O  O94  1  0.760490  0.827482  0.688158  1
  O  O95  1  0.739510  0.672518  0.688158  1
  O  O96  1  0.739510  0.827482  0.188158  1
  O  O97  1  0.760490  0.672518  0.188158  1
  O  O98  1  0.239510  0.172518  0.311842  1
  O  O99  1  0.260490  0.327482  0.311842  1
  O  O100  1  0.238563  0.178354  0.009639  1
  O  O101  1  0.261437  0.321646  0.009639  1
  O  O102  1  0.738563  0.821646  0.490361  1
  O  O103  1  0.761437  0.678354  0.490361  1
  O  O104  1  0.761437  0.821646  0.990361  1
  O  O105  1  0.738563  0.678354  0.990361  1
  O  O106  1  0.261437  0.178354  0.509639  1
  O  O107  1  0.238563  0.321646  0.509639  1
  O  O108  1  0.384825  0.089361  0.923119  1
  O  O109  1  0.115175  0.410639  0.923119  1
  O  O110  1  0.884825  0.910639  0.576881  1
  O  O111  1  0.615175  0.589361  0.576881  1
  O  O112  1  0.615175  0.910639  0.076881  1
  O  O113  1  0.884825  0.589361  0.076881  1
  O  O114  1  0.115175  0.089361  0.423119  1
  O  O115  1  0.384825  0.410639  0.423119  1
  O  O116  1  0.536241  0.189029  0.922278  1
  O  O117  1  0.963759  0.310971  0.922278  1
  O  O118  1  0.036241  0.810971  0.577722  1
  O  O119  1  0.463759  0.689029  0.577722  1
  O  O120  1  0.463759  0.810971  0.077722  1
  O  O121  1  0.036241  0.689029  0.077722  1
  O  O122  1  0.963759  0.189029  0.422278  1
  O  O123  1  0.536241  0.310971  0.422278  1
  O  O124  1  0.505177  0.256421  0.168980  1
  O  O125  1  0.994823  0.243579  0.168980  1
  O  O126  1  0.005177  0.743579  0.331020  1
  O  O127  1  0.494823  0.756421  0.331020  1
  O  O128  1  0.494823  0.743579  0.831020  1
  O  O129  1  0.005177  0.756421  0.831020  1
  O  O130  1  0.994823  0.256421  0.668980  1
  O  O131  1  0.505177  0.243579  0.668980  1
