# generated using pymatgen
data_LiAgF4
_symmetry_space_group_name_H-M   'P 1'
_cell_length_a   5.78593722
_cell_length_b   6.44592141
_cell_length_c   5.56197029
_cell_angle_alpha   73.67284766
_cell_angle_beta   89.98056110
_cell_angle_gamma   63.36209588
_symmetry_Int_Tables_number   1
_chemical_formula_structural   LiAgF4
_chemical_formula_sum   'Li2 Ag2 F8'
_cell_volume   176.02123704
_cell_formula_units_Z   2
loop_
 _symmetry_equiv_pos_site_id
 _symmetry_equiv_pos_as_xyz
  1  'x, y, z'
loop_
 _atom_site_type_symbol
 _atom_site_label
 _atom_site_symmetry_multiplicity
 _atom_site_fract_x
 _atom_site_fract_y
 _atom_site_fract_z
 _atom_site_occupancy
  Li  Li0  1  0.896128  0.999572  0.250307  1
  Li  Li1  1  0.103924  0.000322  0.749808  1
  Ag  Ag2  1  -0.000346  0.500224  -0.000279  1
  Ag  Ag3  1  0.500263  0.500162  0.499553  1
  F  F4  1  0.732673  0.703955  0.703005  1
  F  F5  1  0.971794  0.211128  0.969781  1
  F  F6  1  0.816592  0.210704  0.470023  1
  F  F7  1  0.564169  0.703814  0.203314  1
  F  F8  1  0.435928  0.295820  0.796970  1
  F  F9  1  0.183513  0.789164  0.530060  1
  F  F10  1  0.028007  0.789033  0.030221  1
  F  F11  1  0.267354  0.296104  0.297237  1
