# generated using pymatgen
data_Li3V3P8O29
_symmetry_space_group_name_H-M   'P 1'
_cell_length_a   9.75320033
_cell_length_b   9.74947577
_cell_length_c   14.38381278
_cell_angle_alpha   89.63138103
_cell_angle_beta   90.08111636
_cell_angle_gamma   59.90008082
_symmetry_Int_Tables_number   1
_chemical_formula_structural   Li3V3P8O29
_chemical_formula_sum   'Li6 V6 P16 O58'
_cell_volume   1183.25860285
_cell_formula_units_Z   2
loop_
 _symmetry_equiv_pos_site_id
 _symmetry_equiv_pos_as_xyz
  1  'x, y, z'
loop_
 _atom_site_type_symbol
 _atom_site_label
 _atom_site_symmetry_multiplicity
 _atom_site_fract_x
 _atom_site_fract_y
 _atom_site_fract_z
 _atom_site_occupancy
  Li  Li0  1  0.770035  0.322588  0.052962  1
  Li  Li1  1  0.319704  0.907790  0.051557  1
  Li  Li2  1  0.324788  0.765398  0.563250  1
  Li  Li3  1  0.223381  0.096706  0.453793  1
  Li  Li4  1  0.981663  0.968149  0.993576  1
  Li  Li5  1  0.919337  0.006379  0.514288  1
  V  V6  1  0.566567  0.434655  0.255597  1
  V  V7  1  0.436517  0.560580  0.750950  1
  V  V8  1  0.569460  0.998373  0.751437  1
  V  V9  1  0.441633  0.001313  0.246705  1
  V  V10  1  0.000006  0.564501  0.247654  1
  V  V11  1  0.999052  0.440522  0.746819  1
  P  P12  1  0.919879  0.778221  0.839924  1
  P  P13  1  0.781348  0.912719  0.338710  1
  P  P14  1  0.920601  0.304839  0.341148  1
  P  P15  1  0.665185  0.664124  0.134164  1
  P  P16  1  0.661484  0.670961  0.632191  1
  P  P17  1  0.780812  0.311403  0.840451  1
  P  P18  1  0.696089  0.219321  0.661891  1
  P  P19  1  0.312371  0.909982  0.840848  1
  P  P20  1  0.697399  0.087471  0.157262  1
  P  P21  1  0.317745  0.776301  0.344874  1
  P  P22  1  0.222013  0.694498  0.166110  1
  P  P23  1  0.331168  0.332366  0.364451  1
  P  P24  1  0.333671  0.329987  0.865453  1
  P  P25  1  0.083069  0.700017  0.656873  1
  P  P26  1  0.224640  0.090645  0.662862  1
  P  P27  1  0.084371  0.222891  0.158041  1
  O  O28  1  0.007625  0.801884  0.574272  1
  O  O29  1  0.914929  0.738285  0.328213  1
  O  O30  1  0.790456  0.011723  0.073104  1
  O  O31  1  0.743126  0.911990  0.830539  1
  O  O32  1  0.924974  0.617651  0.827102  1
  O  O33  1  0.811243  0.665583  0.178175  1
  O  O34  1  0.921410  0.462356  0.327159  1
  O  O35  1  0.994999  0.214227  0.076720  1
  O  O36  1  0.917008  0.347985  0.828393  1
  O  O37  1  0.659702  0.817157  0.679486  1
  O  O38  1  0.619152  0.917683  0.322795  1
  O  O39  1  0.810311  0.525639  0.678267  1
  O  O40  1  0.656167  0.665364  0.031082  1
  O  O41  1  0.656207  0.676770  0.529075  1
  O  O42  1  0.670885  0.511890  0.176208  1
  O  O43  1  0.467249  0.914051  0.829539  1
  O  O44  1  0.513771  0.814118  0.176273  1
  O  O45  1  0.745613  0.341784  0.332634  1
  O  O46  1  0.797459  0.197530  0.756359  1
  O  O47  1  0.794358  0.198912  0.579277  1
  O  O48  1  0.791091  0.232309  0.931280  1
  O  O49  1  0.620567  0.468446  0.824703  1
  O  O50  1  0.510654  0.670763  0.671647  1
  O  O51  1  0.656035  0.263646  0.165289  1
  O  O52  1  0.476715  0.618975  0.326107  1
  O  O53  1  0.343317  0.921163  0.332897  1
  O  O54  1  0.798900  0.002727  0.249393  1
  O  O55  1  0.789346  0.990970  0.423847  1
  O  O56  1  0.223984  0.004776  0.576186  1
  O  O57  1  0.653914  0.085506  0.670122  1
  O  O58  1  0.541097  0.381162  0.671835  1
  O  O59  1  0.346829  0.736946  0.827561  1
  O  O60  1  0.480843  0.333731  0.323150  1
  O  O61  1  0.382682  0.537866  0.177522  1
  O  O62  1  0.209626  0.797070  0.085767  1
  O  O63  1  0.248701  0.779305  0.437103  1
  O  O64  1  0.200347  0.791155  0.262201  1
  O  O65  1  0.261981  0.653209  0.662458  1
  O  O66  1  0.481046  0.182438  0.822884  1
  O  O67  1  0.539609  0.082435  0.171053  1
  O  O68  1  0.339463  0.475795  0.818753  1
  O  O69  1  0.331498  0.334572  0.968168  1
  O  O70  1  0.327744  0.322289  0.467077  1
  O  O71  1  0.187474  0.479372  0.318111  1
  O  O72  1  0.382010  0.088800  0.675675  1
  O  O73  1  0.331299  0.184523  0.318231  1
  O  O74  1  0.085584  0.656453  0.167820  1
  O  O75  1  0.004544  0.800564  0.749517  1
  O  O76  1  0.995959  0.796660  0.924067  1
  O  O77  1  0.073649  0.546261  0.667755  1
  O  O78  1  0.186607  0.336118  0.816898  1
  O  O79  1  0.081050  0.382770  0.170955  1
  O  O80  1  0.260242  0.083802  0.159621  1
  O  O81  1  0.226948  0.975757  0.929903  1
  O  O82  1  0.200245  0.004271  0.752508  1
  O  O83  1  0.084797  0.263130  0.664930  1
  O  O84  1  0.003446  0.210059  0.425118  1
  O  O85  1  0.006925  0.198068  0.251173  1
