# generated using pymatgen
data_Li4V3NiO8
_symmetry_space_group_name_H-M   'P 1'
_cell_length_a   10.30727306
_cell_length_b   10.37283464
_cell_length_c   14.63802835
_cell_angle_alpha   19.43305339
_cell_angle_beta   19.34279364
_cell_angle_gamma   33.37432064
_symmetry_Int_Tables_number   1
_chemical_formula_structural   Li4V3NiO8
_chemical_formula_sum   'Li4 V3 Ni1 O8'
_cell_volume   149.71204515
_cell_formula_units_Z   1
loop_
 _symmetry_equiv_pos_site_id
 _symmetry_equiv_pos_as_xyz
  1  'x, y, z'
loop_
 _atom_site_type_symbol
 _atom_site_label
 _atom_site_symmetry_multiplicity
 _atom_site_fract_x
 _atom_site_fract_y
 _atom_site_fract_z
 _atom_site_occupancy
  Li  Li0  1  0.000025  -0.000063  0.500030  1
  Li  Li1  1  0.999961  0.499878  0.500107  1
  Li  Li2  1  0.499989  0.999994  0.500002  1
  Li  Li3  1  0.500016  0.499989  0.500001  1
  V  V4  1  0.000043  0.500514  -0.000451  1
  V  V5  1  0.499894  -0.000243  0.000227  1
  V  V6  1  0.499808  0.499823  0.000238  1
  Ni  Ni7  1  0.000176  0.000261  -0.000245  1
  O  O8  1  0.987676  0.984154  0.273846  1
  O  O9  1  0.028150  0.492954  0.243526  1
  O  O10  1  0.484616  0.011947  0.259887  1
  O  O11  1  0.012253  0.015784  0.726228  1
  O  O12  1  0.511704  0.514849  0.240323  1
  O  O13  1  0.971736  0.506992  0.756615  1
  O  O14  1  0.515585  0.988127  0.739956  1
  O  O15  1  0.488366  0.485039  0.759712  1
