# generated using pymatgen
data_Tl2Mo7O22
_symmetry_space_group_name_H-M   'P 1'
_cell_length_a   5.65398570
_cell_length_b   10.87674857
_cell_length_c   16.60342016
_cell_angle_alpha   84.88519929
_cell_angle_beta   80.19673042
_cell_angle_gamma   74.93518621
_symmetry_Int_Tables_number   1
_chemical_formula_structural   Tl2Mo7O22
_chemical_formula_sum   'Tl4 Mo14 O44'
_cell_volume   970.48977205
_cell_formula_units_Z   2
loop_
 _symmetry_equiv_pos_site_id
 _symmetry_equiv_pos_as_xyz
  1  'x, y, z'
loop_
 _atom_site_type_symbol
 _atom_site_label
 _atom_site_symmetry_multiplicity
 _atom_site_fract_x
 _atom_site_fract_y
 _atom_site_fract_z
 _atom_site_occupancy
  Tl  Tl0  1  0.352515  0.878166  0.332810  1
  Tl  Tl1  1  0.647485  0.121834  0.667190  1
  Tl  Tl2  1  0.063491  0.621834  0.167190  1
  Tl  Tl3  1  0.936509  0.378166  0.832810  1
  Mo  Mo4  1  0.219588  0.656132  0.907285  1
  Mo  Mo5  1  0.525186  0.529994  0.637621  1
  Mo  Mo6  1  0.110684  0.250000  0.250000  1
  Mo  Mo7  1  0.889316  0.750000  0.750000  1
  Mo  Mo8  1  0.510026  0.841743  0.025625  1
  Mo  Mo9  1  0.283005  0.843868  0.592715  1
  Mo  Mo10  1  0.489974  0.158257  0.974375  1
  Mo  Mo11  1  0.122606  0.341743  0.525625  1
  Mo  Mo12  1  0.877394  0.658257  0.474375  1
  Mo  Mo13  1  0.807199  0.029994  0.137621  1
  Mo  Mo14  1  0.474814  0.470006  0.362379  1
  Mo  Mo15  1  0.780412  0.343868  0.092715  1
  Mo  Mo16  1  0.192801  0.970006  0.862379  1
  Mo  Mo17  1  0.716995  0.156132  0.407285  1
  O  O18  1  0.442512  0.300536  0.454580  1
  O  O19  1  0.557488  0.699464  0.545420  1
  O  O20  1  0.772353  0.921666  0.219095  1
  O  O21  1  0.555030  0.078427  0.359116  1
  O  O22  1  0.227647  0.078334  0.780905  1
  O  O23  1  0.278652  0.669990  0.678975  1
  O  O24  1  0.485004  0.740374  0.111375  1
  O  O25  1  0.377532  0.150604  0.197627  1
  O  O26  1  0.640459  0.543491  0.415799  1
  O  O27  1  0.622468  0.849396  0.802373  1
  O  O28  1  0.185916  0.562101  0.996263  1
  O  O29  1  0.755719  0.062101  0.496263  1
  O  O30  1  0.507428  0.578427  0.859116  1
  O  O31  1  0.721348  0.330010  0.321025  1
  O  O32  1  0.950851  0.273023  0.473451  1
  O  O33  1  0.302373  0.800536  0.954580  1
  O  O34  1  0.774237  0.650604  0.697627  1
  O  O35  1  0.900251  0.043491  0.915799  1
  O  O36  1  0.413324  0.012193  0.933223  1
  O  O37  1  0.514996  0.259626  0.888625  1
  O  O38  1  0.858741  0.487807  0.566777  1
  O  O39  1  0.033536  0.121883  0.334574  1
  O  O40  1  0.197325  0.226977  0.026549  1
  O  O41  1  0.989994  0.378117  0.165426  1
  O  O42  1  0.872384  0.169990  0.178975  1
  O  O43  1  0.225763  0.349396  0.302373  1
  O  O44  1  0.049149  0.726977  0.526549  1
  O  O45  1  0.010006  0.621883  0.834574  1
  O  O46  1  0.141259  0.512193  0.433223  1
  O  O47  1  0.586886  0.421666  0.719095  1
  O  O48  1  0.966464  0.878117  0.665426  1
  O  O49  1  0.492572  0.421573  0.140884  1
  O  O50  1  0.244281  0.937899  0.503737  1
  O  O51  1  0.697627  0.199464  0.045420  1
  O  O52  1  0.359541  0.456509  0.584201  1
  O  O53  1  0.413114  0.578334  0.280905  1
  O  O54  1  0.836753  0.759626  0.388625  1
  O  O55  1  0.814084  0.437899  0.003737  1
  O  O56  1  0.444970  0.921573  0.640884  1
  O  O57  1  0.802675  0.773023  0.973451  1
  O  O58  1  0.163247  0.240374  0.611375  1
  O  O59  1  0.127616  0.830010  0.821025  1
  O  O60  1  0.586676  0.987807  0.066777  1
  O  O61  1  0.099749  0.956509  0.084201  1
