# generated using pymatgen
data_Fe6O7F5
_symmetry_space_group_name_H-M   'P 1'
_cell_length_a   7.67712389
_cell_length_b   5.67210097
_cell_length_c   5.67210097
_cell_angle_alpha   69.79104831
_cell_angle_beta   68.84161463
_cell_angle_gamma   68.84161463
_symmetry_Int_Tables_number   1
_chemical_formula_structural   Fe6O7F5
_chemical_formula_sum   'Fe6 O7 F5'
_cell_volume   208.13744386
_cell_formula_units_Z   1
loop_
 _symmetry_equiv_pos_site_id
 _symmetry_equiv_pos_as_xyz
  1  'x, y, z'
loop_
 _atom_site_type_symbol
 _atom_site_label
 _atom_site_symmetry_multiplicity
 _atom_site_fract_x
 _atom_site_fract_y
 _atom_site_fract_z
 _atom_site_occupancy
  Fe  Fe0  1  0.854000  0.680854  0.699128  1
  Fe  Fe1  1  0.676464  0.331545  0.343138  1
  Fe  Fe2  1  0.323536  0.656862  0.668455  1
  Fe  Fe3  1  0.146000  0.300872  0.319146  1
  Fe  Fe4  1  0.500000  0.997233  0.002767  1
  Fe  Fe5  1  0.000000  0.027788  0.972212  1
  O  O6  1  0.662905  0.033315  0.654129  1
  O  O7  1  0.337095  0.345871  0.966685  1
  O  O8  1  0.954882  0.228458  0.222277  1
  O  O9  1  0.045118  0.777723  0.771542  1
  O  O10  1  0.340038  0.955805  0.352196  1
  O  O11  1  0.659962  0.647804  0.044195  1
  O  O12  1  0.000000  0.322829  0.677171  1
  F  F13  1  0.297360  0.891679  0.896048  1
  F  F14  1  0.621532  0.565828  0.573371  1
  F  F15  1  0.378468  0.426629  0.434172  1
  F  F16  1  0.702640  0.103952  0.108321  1
  F  F17  1  0.000000  0.704954  0.295046  1
