# generated using pymatgen
data_LiTi3Sb(PO4)6
_symmetry_space_group_name_H-M   'P 1'
_cell_length_a   8.83051573
_cell_length_b   8.83051562
_cell_length_c   8.83051520
_cell_angle_alpha   58.50239652
_cell_angle_beta   58.50240582
_cell_angle_gamma   58.50240437
_symmetry_Int_Tables_number   1
_chemical_formula_structural   LiTi3Sb(PO4)6
_chemical_formula_sum   'Li1 Ti3 Sb1 P6 O24'
_cell_volume   470.22328133
_cell_formula_units_Z   1
loop_
 _symmetry_equiv_pos_site_id
 _symmetry_equiv_pos_as_xyz
  1  'x, y, z'
loop_
 _atom_site_type_symbol
 _atom_site_label
 _atom_site_symmetry_multiplicity
 _atom_site_fract_x
 _atom_site_fract_y
 _atom_site_fract_z
 _atom_site_occupancy
  Li  Li0  1  0.003610  0.003610  0.003610  1
  Ti  Ti1  1  0.144331  0.144331  0.144331  1
  Ti  Ti2  1  0.359800  0.359800  0.359800  1
  Ti  Ti3  1  0.639284  0.639284  0.639284  1
  Sb  Sb4  1  0.854656  0.854656  0.854656  1
  P  P5  1  0.034427  0.749774  0.458954  1
  P  P6  1  0.458954  0.034427  0.749774  1
  P  P7  1  0.749774  0.458954  0.034427  1
  P  P8  1  0.249635  0.536030  0.966885  1
  P  P9  1  0.536030  0.966885  0.249635  1
  P  P10  1  0.966885  0.249635  0.536030  1
  O  O11  1  0.137903  0.277202  0.506062  1
  O  O12  1  0.277202  0.506062  0.137903  1
  O  O13  1  0.059448  0.923602  0.277080  1
  O  O14  1  0.506062  0.137903  0.277202  1
  O  O15  1  0.213725  0.577484  0.435176  1
  O  O16  1  0.018237  0.778149  0.629309  1
  O  O17  1  0.277080  0.059448  0.923602  1
  O  O18  1  0.435176  0.213725  0.577484  1
  O  O19  1  0.577484  0.435176  0.213725  1
  O  O20  1  0.210027  0.370146  0.996440  1
  O  O21  1  0.074691  0.726555  0.942829  1
  O  O22  1  0.370146  0.996440  0.210027  1
  O  O23  1  0.629309  0.018237  0.778149  1
  O  O24  1  0.923602  0.277080  0.059448  1
  O  O25  1  0.778149  0.629309  0.018237  1
  O  O26  1  0.419777  0.564160  0.785610  1
  O  O27  1  0.564160  0.785610  0.419777  1
  O  O28  1  0.726555  0.942829  0.074691  1
  O  O29  1  0.996440  0.210027  0.370146  1
  O  O30  1  0.785610  0.419777  0.564160  1
  O  O31  1  0.497723  0.860194  0.721087  1
  O  O32  1  0.942829  0.074691  0.726555  1
  O  O33  1  0.721087  0.497723  0.860194  1
  O  O34  1  0.860194  0.721087  0.497723  1
