# generated using pymatgen
data_Mg3Mn4O7
_symmetry_space_group_name_H-M   'P 1'
_cell_length_a   3.12000822
_cell_length_b   11.27474296
_cell_length_c   4.41198867
_cell_angle_alpha   78.71445325
_cell_angle_beta   90.00059346
_cell_angle_gamma   97.98033901
_symmetry_Int_Tables_number   1
_chemical_formula_structural   Mg3Mn4O7
_chemical_formula_sum   'Mg3 Mn4 O7'
_cell_volume   150.66793554
_cell_formula_units_Z   1
loop_
 _symmetry_equiv_pos_site_id
 _symmetry_equiv_pos_as_xyz
  1  'x, y, z'
loop_
 _atom_site_type_symbol
 _atom_site_label
 _atom_site_symmetry_multiplicity
 _atom_site_fract_x
 _atom_site_fract_y
 _atom_site_fract_z
 _atom_site_occupancy
  Mg  Mg0  1  0.715207  0.429209  0.286589  1
  Mg  Mg1  1  0.574348  0.146969  0.429440  1
  Mg  Mg2  1  0.859963  0.711499  0.145131  1
  Mn  Mn3  1  0.002239  0.000827  0.002449  1
  Mn  Mn4  1  0.144010  0.286963  0.858654  1
  Mn  Mn5  1  0.287909  0.571448  0.715083  1
  Mn  Mn6  1  0.433183  0.857639  0.573097  1
  O  O7  1  0.145039  0.288899  0.357702  1
  O  O8  1  0.286595  0.569512  0.216057  1
  O  O9  1  0.428410  0.847303  0.078114  1
  O  O10  1  0.007323  0.011161  0.497450  1
  O  O11  1  0.715597  0.429200  0.786737  1
  O  O12  1  0.572675  0.143563  0.931226  1
  O  O13  1  0.861340  0.714882  0.643630  1
