# generated using pymatgen
data_V(PO3)3
_symmetry_space_group_name_H-M   'P 1'
_cell_length_a   8.55803023
_cell_length_b   8.49120522
_cell_length_c   9.06102301
_cell_angle_alpha   90.00000000
_cell_angle_beta   90.00000000
_cell_angle_gamma   90.00000000
_symmetry_Int_Tables_number   1
_chemical_formula_structural   V(PO3)3
_chemical_formula_sum   'V4 P12 O36'
_cell_volume   658.44633820
_cell_formula_units_Z   4
loop_
 _symmetry_equiv_pos_site_id
 _symmetry_equiv_pos_as_xyz
  1  'x, y, z'
loop_
 _atom_site_type_symbol
 _atom_site_label
 _atom_site_symmetry_multiplicity
 _atom_site_fract_x
 _atom_site_fract_y
 _atom_site_fract_z
 _atom_site_occupancy
  V  V0  1  0.120762  0.096491  0.138935  1
  V  V1  1  0.379238  0.903509  0.638935  1
  V  V2  1  0.620762  0.403509  0.861065  1
  V  V3  1  0.879238  0.596491  0.361065  1
  P  P4  1  0.062645  0.948561  0.825053  1
  P  P5  1  0.065948  0.723849  0.071298  1
  P  P6  1  0.219915  0.560878  0.556116  1
  P  P7  1  0.280085  0.439122  0.056116  1
  P  P8  1  0.434052  0.276151  0.571298  1
  P  P9  1  0.437355  0.051439  0.325053  1
  P  P10  1  0.562645  0.551439  0.174947  1
  P  P11  1  0.565948  0.776151  0.928702  1
  P  P12  1  0.719915  0.939122  0.443884  1
  P  P13  1  0.780085  0.060878  0.943884  1
  P  P14  1  0.934052  0.223849  0.428702  1
  P  P15  1  0.937355  0.448561  0.674947  1
  O  O16  1  0.015843  0.785642  0.910485  1
  O  O17  1  0.065325  0.133421  0.357127  1
  O  O18  1  0.110237  0.521213  0.698949  1
  O  O19  1  0.133988  0.909562  0.678829  1
  O  O20  1  0.128029  0.860686  0.159376  1
  O  O21  1  0.119358  0.601526  0.425676  1
  O  O22  1  0.151928  0.329600  0.103379  1
  O  O23  1  0.156852  0.055542  0.923654  1
  O  O24  1  0.204002  0.608371  0.023377  1
  O  O25  1  0.295998  0.391629  0.523377  1
  O  O26  1  0.343148  0.944458  0.423654  1
  O  O27  1  0.348072  0.670400  0.603379  1
  O  O28  1  0.380642  0.398474  0.925676  1
  O  O29  1  0.371971  0.139314  0.659376  1
  O  O30  1  0.366012  0.090438  0.178829  1
  O  O31  1  0.389763  0.478787  0.198949  1
  O  O32  1  0.434675  0.866579  0.857127  1
  O  O33  1  0.484157  0.214358  0.410485  1
  O  O34  1  0.515843  0.714358  0.089515  1
  O  O35  1  0.565325  0.366579  0.642873  1
  O  O36  1  0.610237  0.978787  0.301051  1
  O  O37  1  0.633988  0.590438  0.321171  1
  O  O38  1  0.628029  0.639314  0.840624  1
  O  O39  1  0.619358  0.898474  0.574324  1
  O  O40  1  0.651928  0.170400  0.896621  1
  O  O41  1  0.656852  0.444458  0.076346  1
  O  O42  1  0.704002  0.891629  0.976623  1
  O  O43  1  0.795998  0.108371  0.476623  1
  O  O44  1  0.843148  0.555542  0.576346  1
  O  O45  1  0.848072  0.829600  0.396621  1
  O  O46  1  0.880642  0.101526  0.074324  1
  O  O47  1  0.871971  0.360686  0.340624  1
  O  O48  1  0.866012  0.409562  0.821171  1
  O  O49  1  0.889763  0.021213  0.801051  1
  O  O50  1  0.934675  0.633421  0.142873  1
  O  O51  1  0.984157  0.285642  0.589515  1
