# generated using pymatgen
data_K8Li9Mn4O16
_symmetry_space_group_name_H-M   'P 1'
_cell_length_a   5.62044568
_cell_length_b   8.75360352
_cell_length_c   10.67364419
_cell_angle_alpha   91.00887593
_cell_angle_beta   78.56536455
_cell_angle_gamma   90.36807070
_symmetry_Int_Tables_number   1
_chemical_formula_structural   K8Li9Mn4O16
_chemical_formula_sum   'K8 Li9 Mn4 O16'
_cell_volume   514.62903729
_cell_formula_units_Z   1
loop_
 _symmetry_equiv_pos_site_id
 _symmetry_equiv_pos_as_xyz
  1  'x, y, z'
loop_
 _atom_site_type_symbol
 _atom_site_label
 _atom_site_symmetry_multiplicity
 _atom_site_fract_x
 _atom_site_fract_y
 _atom_site_fract_z
 _atom_site_occupancy
  K  K0  1  0.135567  0.010514  0.149302  1
  K  K1  1  0.120524  0.279636  0.603206  1
  K  K2  1  0.329730  0.470432  0.355317  1
  K  K3  1  0.617502  0.219035  0.099152  1
  K  K4  1  0.395402  0.782530  0.897941  1
  K  K5  1  0.657861  0.508467  0.655274  1
  K  K6  1  0.871939  0.715484  0.400410  1
  K  K7  1  0.846538  0.998658  0.848115  1
  Li  Li8  1  0.302749  0.509339  0.072498  1
  Li  Li9  1  0.200690  0.009805  0.425178  1
  Li  Li10  1  0.098059  0.552325  0.797108  1
  Li  Li11  1  0.414772  0.731882  0.202986  1
  Li  Li12  1  0.396024  0.049203  0.701649  1
  Li  Li13  1  0.610526  0.955674  0.300639  1
  Li  Li14  1  0.893756  0.457848  0.203866  1
  Li  Li15  1  0.802329  0.987388  0.570933  1
  Li  Li16  1  0.693809  0.489174  0.930857  1
  Mn  Mn17  1  0.192964  0.294840  0.922581  1
  Mn  Mn18  1  0.305822  0.792678  0.569773  1
  Mn  Mn19  1  0.700617  0.207159  0.426401  1
  Mn  Mn20  1  0.847149  0.706252  0.065780  1
  O  O21  1  0.099070  0.670646  0.160569  1
  O  O22  1  0.127325  0.308093  0.096111  1
  O  O23  1  0.131955  0.973497  0.612565  1
  O  O24  1  0.202300  0.598196  0.600599  1
  O  O25  1  0.366481  0.798540  0.391569  1
  O  O26  1  0.447922  0.158120  0.353093  1
  O  O27  1  0.297179  0.097495  0.892934  1
  O  O28  1  0.622386  0.531604  0.123851  1
  O  O29  1  0.364280  0.476015  0.883515  1
  O  O30  1  0.669973  0.892082  0.119485  1
  O  O31  1  0.553004  0.845624  0.646112  1
  O  O32  1  0.634708  0.195517  0.598351  1
  O  O33  1  0.802066  0.403513  0.395007  1
  O  O34  1  0.872785  0.024952  0.385947  1
  O  O35  1  0.853465  0.690602  0.891668  1
  O  O36  1  0.941646  0.341986  0.849755  1
