# generated using pymatgen
data_Na3Mn2P2(CO7)2
_symmetry_space_group_name_H-M   'P 1'
_cell_length_a   10.36602390
_cell_length_b   6.57297486
_cell_length_c   10.43403589
_cell_angle_alpha   90.00000000
_cell_angle_beta   121.20850673
_cell_angle_gamma   90.00000000
_symmetry_Int_Tables_number   1
_chemical_formula_structural   Na3Mn2P2(CO7)2
_chemical_formula_sum   'Na6 Mn4 P4 C4 O28'
_cell_volume   608.04895490
_cell_formula_units_Z   2
loop_
 _symmetry_equiv_pos_site_id
 _symmetry_equiv_pos_as_xyz
  1  'x, y, z'
loop_
 _atom_site_type_symbol
 _atom_site_label
 _atom_site_symmetry_multiplicity
 _atom_site_fract_x
 _atom_site_fract_y
 _atom_site_fract_z
 _atom_site_occupancy
  Na  Na0  1  0.000840  0.477692  0.241615  1
  Na  Na1  1  0.496452  0.009811  0.243407  1
  Na  Na2  1  0.497486  0.492866  0.242030  1
  Na  Na3  1  0.503548  0.509811  0.756593  1
  Na  Na4  1  0.502514  0.992866  0.757970  1
  Na  Na5  1  0.999160  0.977692  0.758385  1
  Mn  Mn6  1  0.275227  0.758105  0.344108  1
  Mn  Mn7  1  0.786625  0.754468  0.348642  1
  Mn  Mn8  1  0.213375  0.254468  0.651358  1
  Mn  Mn9  1  0.724773  0.258105  0.655892  1
  P  P10  1  0.358607  0.252524  0.424175  1
  P  P11  1  0.854801  0.251186  0.425732  1
  P  P12  1  0.145199  0.751186  0.574268  1
  P  P13  1  0.641393  0.752524  0.575825  1
  C  C14  1  0.170152  0.745896  0.072560  1
  C  C15  1  0.672008  0.748947  0.074937  1
  C  C16  1  0.327992  0.248947  0.925063  1
  C  C17  1  0.829848  0.245896  0.927440  1
  O  O18  1  0.390423  0.249851  0.064064  1
  O  O19  1  0.882409  0.245695  0.063541  1
  O  O20  1  0.091629  0.743516  0.139316  1
  O  O21  1  0.596342  0.754256  0.145738  1
  O  O22  1  0.318028  0.750521  0.174685  1
  O  O23  1  0.817713  0.742922  0.169211  1
  O  O24  1  0.281348  0.064890  0.326163  1
  O  O25  1  0.274228  0.440634  0.328536  1
  O  O26  1  0.768583  0.064989  0.328192  1
  O  O27  1  0.770107  0.439550  0.329953  1
  O  O28  1  0.021336  0.256981  0.462774  1
  O  O29  1  0.140133  0.744928  0.423495  1
  O  O30  1  0.526827  0.257954  0.461176  1
  O  O31  1  0.638599  0.749718  0.425556  1
  O  O32  1  0.361401  0.249718  0.574444  1
  O  O33  1  0.473173  0.757954  0.538824  1
  O  O34  1  0.859867  0.244928  0.576505  1
  O  O35  1  0.978664  0.756981  0.537227  1
  O  O36  1  0.231417  0.564989  0.671808  1
  O  O37  1  0.229893  0.939550  0.670047  1
  O  O38  1  0.718652  0.564890  0.673837  1
  O  O39  1  0.725772  0.940634  0.671464  1
  O  O40  1  0.182287  0.242922  0.830789  1
  O  O41  1  0.681972  0.250521  0.825315  1
  O  O42  1  0.403658  0.254256  0.854262  1
  O  O43  1  0.908371  0.243516  0.860684  1
  O  O44  1  0.117591  0.745695  0.936459  1
  O  O45  1  0.609577  0.749851  0.935936  1
