# generated using pymatgen
data_LaP3H3O10
_symmetry_space_group_name_H-M   'P 1'
_cell_length_a   8.32192294
_cell_length_b   9.49419669
_cell_length_c   7.31122790
_cell_angle_alpha   110.11062902
_cell_angle_beta   78.46170802
_cell_angle_gamma   116.36014085
_symmetry_Int_Tables_number   1
_chemical_formula_structural   LaP3H3O10
_chemical_formula_sum   'La2 P6 H6 O20'
_cell_volume   485.26734957
_cell_formula_units_Z   2
loop_
 _symmetry_equiv_pos_site_id
 _symmetry_equiv_pos_as_xyz
  1  'x, y, z'
loop_
 _atom_site_type_symbol
 _atom_site_label
 _atom_site_symmetry_multiplicity
 _atom_site_fract_x
 _atom_site_fract_y
 _atom_site_fract_z
 _atom_site_occupancy
  La  La0  1  0.545036  0.884822  0.681277  1
  La  La1  1  0.454964  0.115178  0.318723  1
  P  P2  1  0.091547  0.819101  0.954344  1
  P  P3  1  0.908453  0.180899  0.045656  1
  P  P4  1  0.447437  0.729769  0.152645  1
  P  P5  1  0.552563  0.270231  0.847355  1
  P  P6  1  0.795307  0.580560  0.463749  1
  P  P7  1  0.204693  0.419440  0.536251  1
  H  H8  1  0.040493  0.649209  0.930142  1
  H  H9  1  0.959507  0.350791  0.069858  1
  H  H10  1  0.281960  0.591104  0.128193  1
  H  H11  1  0.718040  0.408896  0.871807  1
  H  H12  1  0.750978  0.798949  0.274651  1
  H  H13  1  0.249022  0.201051  0.725349  1
  O  O14  1  0.171535  0.917509  0.153554  1
  O  O15  1  0.828465  0.082491  0.846446  1
  O  O16  1  0.230943  0.866182  0.789657  1
  O  O17  1  0.769057  0.133818  0.210343  1
  O  O18  1  0.911491  0.822663  0.935820  1
  O  O19  1  0.088509  0.177337  0.064180  1
  O  O20  1  0.436868  0.853702  0.354468  1
  O  O21  1  0.563132  0.146298  0.645532  1
  O  O22  1  0.476612  0.810088  0.991807  1
  O  O23  1  0.523388  0.189912  0.008193  1
  O  O24  1  0.589573  0.665304  0.151413  1
  O  O25  1  0.410427  0.334696  0.848587  1
  O  O26  1  0.738446  0.718893  0.576914  1
  O  O27  1  0.261554  0.281107  0.423086  1
  O  O28  1  0.977567  0.611993  0.372601  1
  O  O29  1  0.022433  0.388007  0.627399  1
  O  O30  1  0.346253  0.588366  0.548933  1
  O  O31  1  0.653747  0.411634  0.451067  1
  O  O32  1  0.794515  0.891132  0.402548  1
  O  O33  1  0.205485  0.108868  0.597452  1
