# generated using pymatgen
data_K3CuB2P4H3O17
_symmetry_space_group_name_H-M   'P 1'
_cell_length_a   9.70173634
_cell_length_b   17.84098724
_cell_length_c   9.49098361
_cell_angle_alpha   90.00000000
_cell_angle_beta   112.05970985
_cell_angle_gamma   90.00000000
_symmetry_Int_Tables_number   1
_chemical_formula_structural   K3CuB2P4H3O17
_chemical_formula_sum   'K12 Cu4 B8 P16 H12 O68'
_cell_volume   1522.51752553
_cell_formula_units_Z   4
loop_
 _symmetry_equiv_pos_site_id
 _symmetry_equiv_pos_as_xyz
  1  'x, y, z'
loop_
 _atom_site_type_symbol
 _atom_site_label
 _atom_site_symmetry_multiplicity
 _atom_site_fract_x
 _atom_site_fract_y
 _atom_site_fract_z
 _atom_site_occupancy
  K  K0  1  0.015774  0.131248  0.944680  1
  K  K1  1  0.015774  0.368752  0.444680  1
  K  K2  1  0.372060  0.869137  0.536006  1
  K  K3  1  0.543301  0.111994  0.901675  1
  K  K4  1  0.456699  0.611994  0.598325  1
  K  K5  1  0.627940  0.369137  0.963994  1
  K  K6  1  0.372060  0.630863  0.036006  1
  K  K7  1  0.543301  0.388006  0.401675  1
  K  K8  1  0.456699  0.888006  0.098325  1
  K  K9  1  0.627940  0.130863  0.463994  1
  K  K10  1  0.984226  0.631248  0.555320  1
  K  K11  1  0.984226  0.868752  0.055320  1
  Cu  Cu12  1  0.025919  0.167698  0.563340  1
  Cu  Cu13  1  0.025919  0.332302  0.063340  1
  Cu  Cu14  1  0.974082  0.667698  0.936660  1
  Cu  Cu15  1  0.974082  0.832302  0.436660  1
  B  B16  1  0.011142  0.413308  0.793007  1
  B  B17  1  0.011142  0.086692  0.293007  1
  B  B18  1  0.276698  0.091609  0.507385  1
  B  B19  1  0.276698  0.408391  0.007385  1
  B  B20  1  0.723302  0.591609  0.992615  1
  B  B21  1  0.723302  0.908391  0.492615  1
  B  B22  1  0.988858  0.913308  0.706993  1
  B  B23  1  0.988858  0.586692  0.206993  1
  P  P24  1  0.141715  0.780505  0.777038  1
  P  P25  1  0.203784  0.022332  0.730090  1
  P  P26  1  0.246882  0.481276  0.743501  1
  P  P27  1  0.141715  0.719495  0.277039  1
  P  P28  1  0.203784  0.477668  0.230090  1
  P  P29  1  0.349172  0.240816  0.606502  1
  P  P30  1  0.246882  0.018724  0.243501  1
  P  P31  1  0.349172  0.259184  0.106502  1
  P  P32  1  0.650828  0.740816  0.893498  1
  P  P33  1  0.753118  0.981276  0.756499  1
  P  P34  1  0.650828  0.759184  0.393498  1
  P  P35  1  0.796216  0.522332  0.769910  1
  P  P36  1  0.858285  0.280505  0.722962  1
  P  P37  1  0.753118  0.518724  0.256499  1
  P  P38  1  0.796216  0.977668  0.269910  1
  P  P39  1  0.858285  0.219495  0.222961  1
  H  H40  1  0.270733  0.240391  0.848005  1
  H  H41  1  0.392203  0.777361  0.832738  1
  H  H42  1  0.296939  0.465519  0.525319  1
  H  H43  1  0.270733  0.259609  0.348005  1
  H  H44  1  0.392203  0.722639  0.332738  1
  H  H45  1  0.296939  0.034481  0.025319  1
  H  H46  1  0.703061  0.965519  0.974681  1
  H  H47  1  0.607797  0.277361  0.667262  1
  H  H48  1  0.729267  0.740391  0.651995  1
  H  H49  1  0.703061  0.534481  0.474681  1
  H  H50  1  0.607797  0.222639  0.167262  1
  H  H51  1  0.729267  0.759609  0.151995  1
  O  O52  1  0.065110  0.851493  0.815056  1
  O  O53  1  0.123538  0.381758  0.931843  1
  O  O54  1  0.076143  0.708293  0.810874  1
  O  O55  1  0.077513  0.462567  0.708914  1
  O  O56  1  0.115729  0.093859  0.726477  1
  O  O57  1  0.098243  0.953723  0.661282  1
  O  O58  1  0.129076  0.782869  0.610996  1
  O  O59  1  0.065110  0.648507  0.315056  1
  O  O60  1  0.123538  0.118242  0.431843  1
  O  O61  1  0.076143  0.791707  0.310874  1
  O  O62  1  0.327034  0.217730  0.950773  1
  O  O63  1  0.215449  0.252015  0.650984  1
  O  O64  1  0.314418  0.004160  0.890014  1
  O  O65  1  0.310655  0.784406  0.884933  1
  O  O66  1  0.272245  0.564058  0.744065  1
  O  O67  1  0.077513  0.037433  0.208914  1
  O  O68  1  0.337066  0.439654  0.896558  1
  O  O69  1  0.115729  0.406141  0.226477  1
  O  O70  1  0.098243  0.546277  0.161282  1
  O  O71  1  0.292084  0.438728  0.622600  1
  O  O72  1  0.292855  0.030422  0.621148  1
  O  O73  1  0.129076  0.717131  0.110996  1
  O  O74  1  0.327034  0.282270  0.450773  1
  O  O75  1  0.215449  0.247985  0.150984  1
  O  O76  1  0.376859  0.154173  0.585500  1
  O  O77  1  0.314418  0.495840  0.390014  1
  O  O78  1  0.310655  0.715594  0.384933  1
  O  O79  1  0.272245  0.935942  0.244065  1
  O  O80  1  0.337066  0.060346  0.396558  1
  O  O81  1  0.504783  0.770245  0.777313  1
  O  O82  1  0.495217  0.270245  0.722687  1
  O  O83  1  0.292084  0.061272  0.122600  1
  O  O84  1  0.292855  0.469578  0.121148  1
  O  O85  1  0.623141  0.654173  0.914500  1
  O  O86  1  0.376859  0.345827  0.085500  1
  O  O87  1  0.707145  0.530422  0.878852  1
  O  O88  1  0.707916  0.938728  0.877400  1
  O  O89  1  0.504783  0.729755  0.277313  1
  O  O90  1  0.495217  0.229755  0.222687  1
  O  O91  1  0.662934  0.939654  0.603442  1
  O  O92  1  0.727755  0.064058  0.755935  1
  O  O93  1  0.689345  0.284406  0.615067  1
  O  O94  1  0.685582  0.504160  0.609986  1
  O  O95  1  0.623141  0.845827  0.414500  1
  O  O96  1  0.784551  0.752015  0.849016  1
  O  O97  1  0.672966  0.717730  0.549227  1
  O  O98  1  0.870924  0.282869  0.889004  1
  O  O99  1  0.707145  0.969578  0.378852  1
  O  O100  1  0.707916  0.561272  0.377400  1
  O  O101  1  0.901757  0.453723  0.838718  1
  O  O102  1  0.884271  0.593859  0.773523  1
  O  O103  1  0.662934  0.560346  0.103442  1
  O  O104  1  0.922487  0.962567  0.791086  1
  O  O105  1  0.727755  0.435942  0.255935  1
  O  O106  1  0.689345  0.215594  0.115067  1
  O  O107  1  0.685582  0.995840  0.109986  1
  O  O108  1  0.784551  0.747985  0.349016  1
  O  O109  1  0.672966  0.782270  0.049227  1
  O  O110  1  0.923857  0.208293  0.689126  1
  O  O111  1  0.876462  0.881758  0.568157  1
  O  O112  1  0.934890  0.351493  0.684944  1
  O  O113  1  0.870924  0.217131  0.389004  1
  O  O114  1  0.901757  0.046277  0.338718  1
  O  O115  1  0.884271  0.906141  0.273523  1
  O  O116  1  0.922487  0.537433  0.291086  1
  O  O117  1  0.923857  0.291707  0.189126  1
  O  O118  1  0.876462  0.618242  0.068157  1
  O  O119  1  0.934890  0.148507  0.184944  1
