# generated using pymatgen
data_Yb6H20N8O49
_symmetry_space_group_name_H-M   'P 1'
_cell_length_a   10.11230856
_cell_length_b   10.28489502
_cell_length_c   11.50108006
_cell_angle_alpha   96.38306254
_cell_angle_beta   108.15209118
_cell_angle_gamma   108.44803186
_symmetry_Int_Tables_number   1
_chemical_formula_structural   Yb6H20N8O49
_chemical_formula_sum   'Yb6 H20 N8 O49'
_cell_volume   1048.61927021
_cell_formula_units_Z   1
loop_
 _symmetry_equiv_pos_site_id
 _symmetry_equiv_pos_as_xyz
  1  'x, y, z'
loop_
 _atom_site_type_symbol
 _atom_site_label
 _atom_site_symmetry_multiplicity
 _atom_site_fract_x
 _atom_site_fract_y
 _atom_site_fract_z
 _atom_site_occupancy
  Yb  Yb0  1  0.740276  0.467906  0.620635  1
  Yb  Yb1  1  0.259724  0.532094  0.379365  1
  Yb  Yb2  1  0.363545  0.238436  0.482542  1
  Yb  Yb3  1  0.636455  0.761564  0.517458  1
  Yb  Yb4  1  0.538992  0.444189  0.305264  1
  Yb  Yb5  1  0.461008  0.555811  0.694736  1
  H  H6  1  0.589288  0.198114  0.393801  1
  H  H7  1  0.410712  0.801886  0.606199  1
  H  H8  1  0.830843  0.647587  0.440514  1
  H  H9  1  0.169157  0.352413  0.559486  1
  H  H10  1  0.207700  0.252401  0.215592  1
  H  H11  1  0.792300  0.747599  0.784408  1
  H  H12  1  0.440137  0.669426  0.240364  1
  H  H13  1  0.559863  0.330574  0.759636  1
  H  H14  1  0.978300  0.726238  0.646138  1
  H  H15  1  0.021700  0.273762  0.353862  1
  H  H16  1  0.088260  0.653198  0.708372  1
  H  H17  1  0.911740  0.346802  0.291628  1
  H  H18  1  0.964628  0.539484  0.872579  1
  H  H19  1  0.035372  0.460516  0.127421  1
  H  H20  1  0.192402  0.986529  0.214665  1
  H  H21  1  0.807598  0.013471  0.785335  1
  H  H22  1  0.062710  0.971633  0.344651  1
  H  H23  1  0.937290  0.028367  0.655349  1
  H  H24  1  0.021256  0.813415  0.870309  1
  H  H25  1  0.978744  0.186585  0.129691  1
  N  N26  1  0.901251  0.275677  0.602891  1
  N  N27  1  0.098749  0.724323  0.397109  1
  N  N28  1  0.321392  0.021007  0.635951  1
  N  N29  1  0.678608  0.978993  0.364049  1
  N  N30  1  0.756932  0.501244  0.179287  1
  N  N31  1  0.243068  0.498756  0.820713  1
  N  N32  1  0.676866  0.205381  0.959105  1
  N  N33  1  0.323134  0.794619  0.040895  1
  O  O34  1  0.500000  0.500000  0.500000  1
  O  O35  1  0.569533  0.279882  0.424933  1
  O  O36  1  0.430467  0.720118  0.575067  1
  O  O37  1  0.752442  0.609823  0.474781  1
  O  O38  1  0.247558  0.390177  0.525219  1
  O  O39  1  0.289307  0.330087  0.285818  1
  O  O40  1  0.710693  0.669913  0.714182  1
  O  O41  1  0.468143  0.637278  0.318031  1
  O  O42  1  0.531857  0.362722  0.681969  1
  O  O43  1  -0.000660  0.672175  0.709573  1
  O  O44  1  0.000660  0.327825  0.290427  1
  O  O45  1  0.855060  0.512197  0.845336  1
  O  O46  1  0.144940  0.487803  0.154664  1
  O  O47  1  0.238239  0.038754  0.303034  1
  O  O48  1  0.761761  0.961246  0.696966  1
  O  O49  1  0.113011  0.063086  0.326666  1
  O  O50  1  0.886989  0.936914  0.673334  1
  O  O51  1  0.368295  0.216361  0.067840  1
  O  O52  1  0.631705  0.783639  0.932160  1
  O  O53  1  0.352257  0.337515  0.088896  1
  O  O54  1  0.647743  0.662485  0.911104  1
  O  O55  1  0.729538  0.877894  0.028716  1
  O  O56  1  0.270462  0.122106  0.971284  1
  O  O57  1  0.961681  0.844529  0.913541  1
  O  O58  1  0.038319  0.155471  0.086459  1
  O  O59  1  0.806990  0.245891  0.656542  1
  O  O60  1  0.193010  0.754109  0.343458  1
  O  O61  1  0.915801  0.381539  0.553794  1
  O  O62  1  0.084199  0.618461  0.446206  1
  O  O63  1  0.980477  0.202980  0.597997  1
  O  O64  1  0.019523  0.797020  0.402003  1
  O  O65  1  0.248339  0.100077  0.637273  1
  O  O66  1  0.751661  0.899923  0.362727  1
  O  O67  1  0.409406  0.043394  0.575291  1
  O  O68  1  0.590594  0.956606  0.424709  1
  O  O69  1  0.308466  0.922770  0.690719  1
  O  O70  1  0.691534  0.077230  0.309281  1
  O  O71  1  0.743061  0.405406  0.242308  1
  O  O72  1  0.256939  0.594594  0.757692  1
  O  O73  1  0.661352  0.558886  0.160840  1
  O  O74  1  0.338648  0.441114  0.839160  1
  O  O75  1  0.861264  0.535912  0.139495  1
  O  O76  1  0.138736  0.464088  0.860505  1
  O  O77  1  0.573357  0.244990  0.904044  1
  O  O78  1  0.426643  0.755010  0.095956  1
  O  O79  1  0.668036  0.140875  0.044078  1
  O  O80  1  0.331964  0.859125  0.955922  1
  O  O81  1  0.791188  0.231242  0.928744  1
  O  O82  1  0.208812  0.768758  0.071256  1
