# generated using pymatgen
data_CsSi3HO7
_symmetry_space_group_name_H-M   'P 1'
_cell_length_a   4.97285873
_cell_length_b   10.46010640
_cell_length_c   14.35197028
_cell_angle_alpha   90.00000000
_cell_angle_beta   90.00000000
_cell_angle_gamma   90.00000000
_symmetry_Int_Tables_number   1
_chemical_formula_structural   CsSi3HO7
_chemical_formula_sum   'Cs4 Si12 H4 O28'
_cell_volume   746.54114832
_cell_formula_units_Z   4
loop_
 _symmetry_equiv_pos_site_id
 _symmetry_equiv_pos_as_xyz
  1  'x, y, z'
loop_
 _atom_site_type_symbol
 _atom_site_label
 _atom_site_symmetry_multiplicity
 _atom_site_fract_x
 _atom_site_fract_y
 _atom_site_fract_z
 _atom_site_occupancy
  Cs  Cs0  1  0.030670  0.083445  0.747226  1
  Cs  Cs1  1  0.469330  0.916555  0.247226  1
  Cs  Cs2  1  0.530670  0.416555  0.252774  1
  Cs  Cs3  1  0.969330  0.583445  0.752774  1
  Si  Si4  1  0.018195  0.915958  0.008329  1
  Si  Si5  1  0.023794  0.648496  0.108340  1
  Si  Si6  1  0.108379  0.204340  0.055026  1
  Si  Si7  1  0.391621  0.795660  0.555026  1
  Si  Si8  1  0.476206  0.351504  0.608340  1
  Si  Si9  1  0.481805  0.084042  0.508329  1
  Si  Si10  1  0.518195  0.584042  0.991671  1
  Si  Si11  1  0.523794  0.851504  0.891660  1
  Si  Si12  1  0.608379  0.295660  0.944974  1
  Si  Si13  1  0.891621  0.704340  0.444973  1
  Si  Si14  1  0.976206  0.148496  0.391660  1
  Si  Si15  1  0.981805  0.415958  0.491671  1
  H  H16  1  0.030322  0.699240  0.290531  1
  H  H17  1  0.469678  0.300760  0.790531  1
  H  H18  1  0.530322  0.800760  0.709469  1
  H  H19  1  0.969678  0.199240  0.209469  1
  O  O20  1  0.020335  0.263444  0.154665  1
  O  O21  1  0.052717  0.804337  0.086952  1
  O  O22  1  0.082794  0.750795  0.531757  1
  O  O23  1  0.098602  0.616867  0.213273  1
  O  O24  1  0.101640  0.047382  0.061459  1
  O  O25  1  0.209617  0.890819  0.917522  1
  O  O26  1  0.208735  0.574337  0.028572  1
  O  O27  1  0.291265  0.425663  0.528572  1
  O  O28  1  0.290383  0.109181  0.417522  1
  O  O29  1  0.398360  0.952618  0.561459  1
  O  O30  1  0.401398  0.383133  0.713273  1
  O  O31  1  0.417206  0.249205  0.031757  1
  O  O32  1  0.447283  0.195663  0.586952  1
  O  O33  1  0.479665  0.736556  0.654665  1
  O  O34  1  0.520335  0.236556  0.845335  1
  O  O35  1  0.552717  0.695663  0.913048  1
  O  O36  1  0.582794  0.749205  0.468243  1
  O  O37  1  0.598602  0.883133  0.786727  1
  O  O38  1  0.601640  0.452618  0.938541  1
  O  O39  1  0.709617  0.609181  0.082478  1
  O  O40  1  0.708735  0.925663  0.971428  1
  O  O41  1  0.791265  0.074337  0.471428  1
  O  O42  1  0.790383  0.390819  0.582478  1
  O  O43  1  0.898360  0.547382  0.438541  1
  O  O44  1  0.901398  0.116867  0.286727  1
  O  O45  1  0.917206  0.250795  0.968243  1
  O  O46  1  0.947283  0.304337  0.413048  1
  O  O47  1  0.979665  0.763444  0.345335  1
