# generated using pymatgen
data_Mn7Sn(PO4)12
_symmetry_space_group_name_H-M   'P 1'
_cell_length_a   8.52922680
_cell_length_b   8.53223375
_cell_length_c   11.89141984
_cell_angle_alpha   89.99377521
_cell_angle_beta   89.95401646
_cell_angle_gamma   89.98644530
_symmetry_Int_Tables_number   1
_chemical_formula_structural   Mn7Sn(PO4)12
_chemical_formula_sum   'Mn7 Sn1 P12 O48'
_cell_volume   865.37823027
_cell_formula_units_Z   1
loop_
 _symmetry_equiv_pos_site_id
 _symmetry_equiv_pos_as_xyz
  1  'x, y, z'
loop_
 _atom_site_type_symbol
 _atom_site_label
 _atom_site_symmetry_multiplicity
 _atom_site_fract_x
 _atom_site_fract_y
 _atom_site_fract_z
 _atom_site_occupancy
  Mn  Mn0  1  0.250166  0.964642  0.616080  1
  Mn  Mn1  1  0.249976  0.535375  0.382113  1
  Mn  Mn2  1  0.249767  0.035439  0.117088  1
  Mn  Mn3  1  0.249351  0.465596  0.882846  1
  Mn  Mn4  1  0.750624  0.535787  0.117801  1
  Mn  Mn5  1  0.750527  0.963606  0.883195  1
  Mn  Mn6  1  0.749799  0.035353  0.381713  1
  Sn  Sn7  1  0.749070  0.464680  0.621787  1
  P  P8  1  0.042621  0.247225  0.497215  1
  P  P9  1  0.464094  0.750045  0.000155  1
  P  P10  1  0.536526  0.249925  0.999478  1
  P  P11  1  0.966373  0.755534  0.497960  1
  P  P12  1  0.107408  0.391547  0.145217  1
  P  P13  1  0.107215  0.108983  0.855000  1
  P  P14  1  0.385349  0.610911  0.646015  1
  P  P15  1  0.393191  0.891559  0.354331  1
  P  P16  1  0.606425  0.099316  0.647118  1
  P  P17  1  0.603318  0.389585  0.349562  1
  P  P18  1  0.896191  0.609637  0.860677  1
  P  P19  1  0.892519  0.891721  0.145544  1
  O  O20  1  0.060996  0.643113  0.422913  1
  O  O21  1  0.062649  0.865361  0.572787  1
  O  O22  1  0.073713  0.901850  0.157987  1
  O  O23  1  0.077311  0.604046  0.847200  1
  O  O24  1  0.153190  0.156604  0.577089  1
  O  O25  1  0.151012  0.338382  0.415544  1
  O  O26  1  0.160516  0.437985  0.027370  1
  O  O27  1  0.159755  0.061292  0.972915  1
  O  O28  1  0.153135  0.222287  0.175512  1
  O  O29  1  0.152282  0.278359  0.824959  1
  O  O30  1  0.177391  0.513661  0.228074  1
  O  O31  1  0.177208  0.988961  0.770918  1
  O  O32  1  0.321038  0.011933  0.271441  1
  O  O33  1  0.313744  0.488589  0.727811  1
  O  O34  1  0.335336  0.778618  0.675790  1
  O  O35  1  0.347573  0.722343  0.324153  1
  O  O36  1  0.337737  0.561117  0.527025  1
  O  O37  1  0.341985  0.937920  0.472817  1
  O  O38  1  0.353645  0.841108  0.080473  1
  O  O39  1  0.355834  0.658342  0.919207  1
  O  O40  1  0.425367  0.089903  0.658843  1
  O  O41  1  0.422462  0.401500  0.335187  1
  O  O42  1  0.440414  0.141270  0.076293  1
  O  O43  1  0.440266  0.358327  0.923017  1
  O  O44  1  0.559921  0.640981  0.076447  1
  O  O45  1  0.559998  0.859468  0.924226  1
  O  O46  1  0.564941  0.608843  0.660902  1
  O  O47  1  0.574566  0.901312  0.341746  1
  O  O48  1  0.647029  0.341500  0.079131  1
  O  O49  1  0.646120  0.157568  0.919274  1
  O  O50  1  0.660781  0.060447  0.527595  1
  O  O51  1  0.654971  0.439727  0.466183  1
  O  O52  1  0.650732  0.220136  0.321406  1
  O  O53  1  0.647651  0.266627  0.682371  1
  O  O54  1  0.675747  0.510603  0.267693  1
  O  O55  1  0.677771  0.976970  0.728870  1
  O  O56  1  0.820480  0.013590  0.227465  1
  O  O57  1  0.823224  0.485330  0.783530  1
  O  O58  1  0.845648  0.723296  0.177442  1
  O  O59  1  0.848404  0.777427  0.827273  1
  O  O60  1  0.844880  0.568696  0.979919  1
  O  O61  1  0.840136  0.938823  0.027508  1
  O  O62  1  0.858511  0.669472  0.580785  1
  O  O63  1  0.858261  0.844657  0.415155  1
  O  O64  1  0.925721  0.097504  0.841532  1
  O  O65  1  0.926204  0.401846  0.159074  1
  O  O66  1  0.942016  0.140756  0.422291  1
  O  O67  1  0.951218  0.355087  0.575962  1
