# generated using pymatgen
data_Li4MnV(PO4)3
_symmetry_space_group_name_H-M   'P 1'
_cell_length_a   9.30093259
_cell_length_b   8.41544872
_cell_length_c   8.43679734
_cell_angle_alpha   60.59734037
_cell_angle_beta   63.27214585
_cell_angle_gamma   90.37341048
_symmetry_Int_Tables_number   1
_chemical_formula_structural   Li4MnV(PO4)3
_chemical_formula_sum   'Li8 Mn2 V2 P6 O24'
_cell_volume   491.41474035
_cell_formula_units_Z   2
loop_
 _symmetry_equiv_pos_site_id
 _symmetry_equiv_pos_as_xyz
  1  'x, y, z'
loop_
 _atom_site_type_symbol
 _atom_site_label
 _atom_site_symmetry_multiplicity
 _atom_site_fract_x
 _atom_site_fract_y
 _atom_site_fract_z
 _atom_site_occupancy
  Li  Li0  1  0.864612  0.264494  0.803533  1
  Li  Li1  1  0.902621  0.943483  0.364151  1
  Li  Li2  1  0.852939  0.658556  0.074992  1
  Li  Li3  1  0.590628  0.798333  0.668721  1
  Li  Li4  1  0.409372  0.201667  0.331279  1
  Li  Li5  1  0.147061  0.341444  0.925008  1
  Li  Li6  1  0.097379  0.056517  0.635849  1
  Li  Li7  1  0.135388  0.735506  0.196467  1
  Mn  Mn8  1  0.438222  0.150059  0.712762  1
  Mn  Mn9  1  0.561778  0.849941  0.287238  1
  V  V10  1  0.965100  0.648343  0.691292  1
  V  V11  1  0.034900  0.351657  0.308708  1
  P  P12  1  0.754090  0.949374  0.784992  1
  P  P13  1  0.753635  0.546976  0.506607  1
  P  P14  1  0.761931  0.254579  0.191365  1
  P  P15  1  0.238069  0.745421  0.808635  1
  P  P16  1  0.246365  0.453024  0.493393  1
  P  P17  1  0.245910  0.050626  0.215008  1
  O  O18  1  0.893091  0.150493  0.637827  1
  O  O19  1  0.821153  0.503236  0.659639  1
  O  O20  1  0.817028  0.832223  0.680243  1
  O  O21  1  0.899249  0.554262  0.306209  1
  O  O22  1  0.899229  0.209737  0.257695  1
  O  O23  1  0.732280  0.751050  0.425861  1
  O  O24  1  0.587929  0.967294  0.795803  1
  O  O25  1  0.592880  0.397778  0.616993  1
  O  O26  1  0.823130  0.472344  0.013302  1
  O  O27  1  0.755308  0.133738  0.103861  1
  O  O28  1  0.591364  0.208156  0.381017  1
  O  O29  1  0.745806  0.852150  0.999174  1
  O  O30  1  0.254194  0.147850  0.000826  1
  O  O31  1  0.408636  0.791844  0.618983  1
  O  O32  1  0.244692  0.866262  0.896139  1
  O  O33  1  0.176870  0.527656  0.986698  1
  O  O34  1  0.407120  0.602222  0.383007  1
  O  O35  1  0.412071  0.032706  0.204197  1
  O  O36  1  0.267720  0.248950  0.574139  1
  O  O37  1  0.100771  0.790263  0.742305  1
  O  O38  1  0.100751  0.445738  0.693791  1
  O  O39  1  0.182972  0.167777  0.319757  1
  O  O40  1  0.178847  0.496764  0.340361  1
  O  O41  1  0.106909  0.849507  0.362173  1
