# generated using pymatgen
data_Mn2Fe3Sn2(CO)19
_symmetry_space_group_name_H-M   'P 1'
_cell_length_a   9.63252905
_cell_length_b   11.41148679
_cell_length_c   27.92808147
_cell_angle_alpha   90.00000000
_cell_angle_beta   96.04407994
_cell_angle_gamma   90.00000000
_symmetry_Int_Tables_number   1
_chemical_formula_structural   Mn2Fe3Sn2(CO)19
_chemical_formula_sum   'Mn8 Fe12 Sn8 C76 O76'
_cell_volume   3052.83100322
_cell_formula_units_Z   4
loop_
 _symmetry_equiv_pos_site_id
 _symmetry_equiv_pos_as_xyz
  1  'x, y, z'
loop_
 _atom_site_type_symbol
 _atom_site_label
 _atom_site_symmetry_multiplicity
 _atom_site_fract_x
 _atom_site_fract_y
 _atom_site_fract_z
 _atom_site_occupancy
  Mn  Mn0  1  0.282526  0.055680  0.583691  1
  Mn  Mn1  1  0.217474  0.555680  0.916309  1
  Mn  Mn2  1  0.753899  0.425945  0.661460  1
  Mn  Mn3  1  0.246101  0.574055  0.338540  1
  Mn  Mn4  1  0.746101  0.925945  0.838540  1
  Mn  Mn5  1  0.782526  0.444320  0.083691  1
  Mn  Mn6  1  0.717474  0.944320  0.416309  1
  Mn  Mn7  1  0.253899  0.074055  0.161460  1
  Fe  Fe8  1  0.104640  0.178760  0.373118  1
  Fe  Fe9  1  0.912852  0.342619  0.414387  1
  Fe  Fe10  1  0.587148  0.842619  0.085613  1
  Fe  Fe11  1  0.895360  0.821240  0.626882  1
  Fe  Fe12  1  0.872183  0.272094  0.317303  1
  Fe  Fe13  1  0.372183  0.227906  0.817303  1
  Fe  Fe14  1  0.127817  0.727906  0.682697  1
  Fe  Fe15  1  0.604640  0.321240  0.873118  1
  Fe  Fe16  1  0.627817  0.772094  0.182697  1
  Fe  Fe17  1  0.412852  0.157381  0.914387  1
  Fe  Fe18  1  0.395360  0.678760  0.126882  1
  Fe  Fe19  1  0.087148  0.657381  0.585613  1
  Sn  Sn20  1  0.916255  0.601903  0.644603  1
  Sn  Sn21  1  0.583745  0.101903  0.855397  1
  Sn  Sn22  1  0.146382  0.868380  0.610586  1
  Sn  Sn23  1  0.646382  0.631620  0.110586  1
  Sn  Sn24  1  0.083745  0.398097  0.355397  1
  Sn  Sn25  1  0.353618  0.368380  0.889414  1
  Sn  Sn26  1  0.853618  0.131620  0.389414  1
  Sn  Sn27  1  0.416255  0.898097  0.144603  1
  C  C28  1  0.696774  0.308407  0.822183  1
  C  C29  1  0.314701  0.141668  0.106488  1
  C  C30  1  0.685299  0.858332  0.893512  1
  C  C31  1  0.539691  0.126713  0.964034  1
  C  C32  1  0.758782  0.804653  0.579208  1
  C  C33  1  0.241218  0.195347  0.420792  1
  C  C34  1  0.114964  0.996226  0.121844  1
  C  C35  1  0.562585  0.008811  0.379816  1
  C  C36  1  0.189949  0.198366  0.817860  1
  C  C37  1  0.638208  0.304248  0.672095  1
  C  C38  1  0.227067  0.689659  0.551618  1
  C  C39  1  0.325942  0.976648  0.528384  1
  C  C40  1  0.810051  0.801634  0.182140  1
  C  C41  1  0.039691  0.373287  0.464034  1
  C  C42  1  0.405376  0.122255  0.773352  1
  C  C43  1  0.437415  0.991189  0.620184  1
  C  C44  1  0.129186  0.850678  0.722227  1
  C  C45  1  0.602724  0.475548  0.873157  1
  C  C46  1  0.689949  0.301634  0.317860  1
  C  C47  1  0.905802  0.357089  0.698477  1
  C  C48  1  0.460309  0.873287  0.035966  1
  C  C49  1  0.905376  0.377745  0.273352  1
  C  C50  1  0.629186  0.649322  0.222227  1
  C  C51  1  0.272933  0.189659  0.948382  1
  C  C52  1  0.062585  0.491189  0.879816  1
  C  C53  1  0.741218  0.304653  0.920792  1
  C  C54  1  0.789403  0.010143  0.784288  1
  C  C55  1  0.289403  0.489857  0.284288  1
  C  C56  1  0.960309  0.626713  0.535966  1
  C  C57  1  0.303226  0.691593  0.177817  1
  C  C58  1  0.102724  0.024452  0.373157  1
  C  C59  1  0.772933  0.310341  0.448382  1
  C  C60  1  0.614386  0.401923  0.049002  1
  C  C61  1  0.385036  0.496226  0.378156  1
  C  C62  1  0.614964  0.503774  0.621844  1
  C  C63  1  0.937415  0.508811  0.120184  1
  C  C64  1  0.405802  0.142911  0.198477  1
  C  C65  1  0.814701  0.358332  0.606488  1
  C  C66  1  0.885614  0.901923  0.450998  1
  C  C67  1  0.151853  0.515769  0.602100  1
  C  C68  1  0.710597  0.510143  0.715712  1
  C  C69  1  0.348147  0.015769  0.897900  1
  C  C70  1  0.397276  0.524452  0.126843  1
  C  C71  1  0.094624  0.622255  0.726648  1
  C  C72  1  0.594198  0.857089  0.801523  1
  C  C73  1  0.094198  0.642911  0.301523  1
  C  C74  1  0.727067  0.810341  0.051618  1
  C  C75  1  0.310051  0.698366  0.682140  1
  C  C76  1  0.878571  0.312664  0.068342  1
  C  C77  1  0.594624  0.877745  0.226648  1
  C  C78  1  0.196774  0.191593  0.322183  1
  C  C79  1  0.803226  0.808407  0.677817  1
  C  C80  1  0.378571  0.187336  0.568342  1
  C  C81  1  0.138208  0.195752  0.172095  1
  C  C82  1  0.361792  0.695752  0.327905  1
  C  C83  1  0.621429  0.812664  0.431658  1
  C  C84  1  0.272688  0.628773  0.861369  1
  C  C85  1  0.370814  0.350678  0.777773  1
  C  C86  1  0.897276  0.975548  0.626843  1
  C  C87  1  0.227312  0.128773  0.638631  1
  C  C88  1  0.185299  0.641668  0.393512  1
  C  C89  1  0.258782  0.695347  0.079208  1
  C  C90  1  0.861792  0.804248  0.827905  1
  C  C91  1  0.848147  0.484231  0.397900  1
  C  C92  1  0.210597  0.989857  0.215712  1
  C  C93  1  0.870814  0.149322  0.277773  1
  C  C94  1  0.651853  0.984231  0.102100  1
  C  C95  1  0.385614  0.598077  0.950998  1
  C  C96  1  0.174058  0.476648  0.971616  1
  C  C97  1  0.825942  0.523352  0.028384  1
  C  C98  1  0.885036  0.003774  0.878156  1
  C  C99  1  0.121429  0.687336  0.931658  1
  C  C100  1  0.674058  0.023352  0.471616  1
  C  C101  1  0.727312  0.371227  0.138631  1
  C  C102  1  0.772688  0.871227  0.361369  1
  C  C103  1  0.114386  0.098077  0.549002  1
  O  O104  1  0.193383  0.176909  0.671753  1
  O  O105  1  0.199252  0.422936  0.610740  1
  O  O106  1  0.971455  0.048744  0.903393  1
  O  O107  1  0.086744  0.559482  0.759573  1
  O  O108  1  0.528545  0.548744  0.596607  1
  O  O109  1  0.699252  0.077064  0.110740  1
  O  O110  1  0.928943  0.821973  0.183219  1
  O  O111  1  0.260077  0.191263  0.288638  1
  O  O112  1  0.167006  0.700531  0.048475  1
  O  O113  1  0.800748  0.577064  0.389260  1
  O  O114  1  0.681273  0.304998  0.472561  1
  O  O115  1  0.120511  0.393786  0.496969  1
  O  O116  1  0.028545  0.951256  0.096607  1
  O  O117  1  0.806617  0.823091  0.328247  1
  O  O118  1  0.379851  0.422818  0.129011  1
  O  O119  1  0.648500  0.065582  0.507206  1
  O  O120  1  0.071057  0.178027  0.816782  1
  O  O121  1  0.879489  0.606214  0.503031  1
  O  O122  1  0.571057  0.321973  0.316781  1
  O  O123  1  0.300748  0.922936  0.889260  1
  O  O124  1  0.685183  0.560221  0.749539  1
  O  O125  1  0.314817  0.439779  0.250461  1
  O  O126  1  0.471455  0.451256  0.403393  1
  O  O127  1  0.814817  0.060221  0.750461  1
  O  O128  1  0.879851  0.077182  0.629011  1
  O  O129  1  0.851500  0.565582  0.992794  1
  O  O130  1  0.818727  0.804998  0.027439  1
  O  O131  1  0.913256  0.440518  0.240427  1
  O  O132  1  0.620511  0.106214  0.996969  1
  O  O133  1  0.064023  0.272691  0.178246  1
  O  O134  1  0.534870  0.953233  0.642412  1
  O  O135  1  0.760077  0.308737  0.788638  1
  O  O136  1  0.351500  0.934418  0.492794  1
  O  O137  1  0.739923  0.808737  0.711362  1
  O  O138  1  0.628324  0.573449  0.250146  1
  O  O139  1  0.935977  0.727309  0.821754  1
  O  O140  1  0.511273  0.376838  0.026351  1
  O  O141  1  0.940947  0.230047  0.059994  1
  O  O142  1  0.646690  0.817220  0.927461  1
  O  O143  1  0.440947  0.269953  0.559994  1
  O  O144  1  0.002052  0.687903  0.279201  1
  O  O145  1  0.318727  0.695002  0.527439  1
  O  O146  1  0.148500  0.434418  0.007206  1
  O  O147  1  0.965130  0.453232  0.857588  1
  O  O148  1  0.988727  0.876838  0.473649  1
  O  O149  1  0.488727  0.623162  0.973649  1
  O  O150  1  0.185183  0.939779  0.249539  1
  O  O151  1  0.997948  0.312097  0.720799  1
  O  O152  1  0.465130  0.046767  0.357588  1
  O  O153  1  0.871676  0.073450  0.249854  1
  O  O154  1  0.413256  0.059482  0.740427  1
  O  O155  1  0.059053  0.769953  0.940006  1
  O  O156  1  0.559053  0.730047  0.440006  1
  O  O157  1  0.502052  0.812097  0.779201  1
  O  O158  1  0.620149  0.577182  0.870989  1
  O  O159  1  0.853310  0.317220  0.572539  1
  O  O160  1  0.564023  0.227309  0.678246  1
  O  O161  1  0.353310  0.182780  0.072539  1
  O  O162  1  0.011273  0.123162  0.526351  1
  O  O163  1  0.586744  0.940518  0.259573  1
  O  O164  1  0.435977  0.772691  0.321754  1
  O  O165  1  0.832994  0.299469  0.951525  1
  O  O166  1  0.693383  0.323091  0.171753  1
  O  O167  1  0.034870  0.546767  0.142412  1
  O  O168  1  0.120149  0.922818  0.370989  1
  O  O169  1  0.497948  0.187903  0.220799  1
  O  O170  1  0.379489  0.893786  0.003031  1
  O  O171  1  0.667006  0.799469  0.548475  1
  O  O172  1  0.181273  0.195002  0.972561  1
  O  O173  1  0.332994  0.200531  0.451525  1
  O  O174  1  0.239923  0.691263  0.211362  1
  O  O175  1  0.428943  0.678027  0.683218  1
  O  O176  1  0.146690  0.682780  0.427461  1
  O  O177  1  0.371676  0.426550  0.749853  1
  O  O178  1  0.128324  0.926551  0.750147  1
  O  O179  1  0.306617  0.676909  0.828247  1
