# generated using pymatgen
data_Na5CrO4
_symmetry_space_group_name_H-M   'P 1'
_cell_length_a   10.77020735
_cell_length_b   6.02218749
_cell_length_c   17.96886516
_cell_angle_alpha   90.00000000
_cell_angle_beta   90.00000000
_cell_angle_gamma   90.00000000
_symmetry_Int_Tables_number   1
_chemical_formula_structural   Na5CrO4
_chemical_formula_sum   'Na40 Cr8 O32'
_cell_volume   1165.46433122
_cell_formula_units_Z   8
loop_
 _symmetry_equiv_pos_site_id
 _symmetry_equiv_pos_as_xyz
  1  'x, y, z'
loop_
 _atom_site_type_symbol
 _atom_site_label
 _atom_site_symmetry_multiplicity
 _atom_site_fract_x
 _atom_site_fract_y
 _atom_site_fract_z
 _atom_site_occupancy
  Na  Na0  1  0.072038  0.082878  0.436400  1
  Na  Na1  1  0.072038  0.417122  0.936400  1
  Na  Na2  1  0.074086  0.596897  0.752482  1
  Na  Na3  1  0.074086  0.903103  0.252482  1
  Na  Na4  1  0.161811  0.918491  0.001575  1
  Na  Na5  1  0.161811  0.581509  0.501575  1
  Na  Na6  1  0.176913  0.106796  0.826927  1
  Na  Na7  1  0.176913  0.393204  0.326927  1
  Na  Na8  1  0.195191  0.594264  0.138890  1
  Na  Na9  1  0.195191  0.905736  0.638890  1
  Na  Na10  1  0.304809  0.094264  0.138890  1
  Na  Na11  1  0.304809  0.405736  0.638890  1
  Na  Na12  1  0.323087  0.606796  0.826927  1
  Na  Na13  1  0.323087  0.893204  0.326927  1
  Na  Na14  1  0.338189  0.418491  0.001575  1
  Na  Na15  1  0.338189  0.081509  0.501575  1
  Na  Na16  1  0.425914  0.403103  0.252482  1
  Na  Na17  1  0.425914  0.096897  0.752482  1
  Na  Na18  1  0.427962  0.917122  0.936400  1
  Na  Na19  1  0.427962  0.582878  0.436400  1
  Na  Na20  1  0.572038  0.082878  0.063600  1
  Na  Na21  1  0.572038  0.417122  0.563600  1
  Na  Na22  1  0.574086  0.903103  0.247518  1
  Na  Na23  1  0.574086  0.596897  0.747518  1
  Na  Na24  1  0.661811  0.581509  0.998425  1
  Na  Na25  1  0.661811  0.918491  0.498425  1
  Na  Na26  1  0.676913  0.393204  0.173073  1
  Na  Na27  1  0.676913  0.106796  0.673073  1
  Na  Na28  1  0.695191  0.594264  0.361110  1
  Na  Na29  1  0.695191  0.905736  0.861110  1
  Na  Na30  1  0.804809  0.094264  0.361110  1
  Na  Na31  1  0.804809  0.405736  0.861110  1
  Na  Na32  1  0.823087  0.606796  0.673073  1
  Na  Na33  1  0.823087  0.893204  0.173073  1
  Na  Na34  1  0.838189  0.418491  0.498425  1
  Na  Na35  1  0.838189  0.081509  0.998425  1
  Na  Na36  1  0.925914  0.096897  0.747518  1
  Na  Na37  1  0.925914  0.403103  0.247518  1
  Na  Na38  1  0.927962  0.917122  0.563600  1
  Na  Na39  1  0.927962  0.582878  0.063600  1
  Cr  Cr40  1  0.040210  0.175879  0.122018  1
  Cr  Cr41  1  0.040210  0.324121  0.622018  1
  Cr  Cr42  1  0.459790  0.675879  0.122018  1
  Cr  Cr43  1  0.459790  0.824121  0.622018  1
  Cr  Cr44  1  0.540210  0.175879  0.377982  1
  Cr  Cr45  1  0.540210  0.324121  0.877982  1
  Cr  Cr46  1  0.959790  0.675879  0.377982  1
  Cr  Cr47  1  0.959790  0.824121  0.877982  1
  O  O48  1  0.030405  0.859791  0.120152  1
  O  O49  1  0.030405  0.640209  0.620152  1
  O  O50  1  0.130562  0.270496  0.208862  1
  O  O51  1  0.130562  0.229504  0.708862  1
  O  O52  1  0.144967  0.309857  0.048765  1
  O  O53  1  0.144967  0.190143  0.548765  1
  O  O54  1  0.136251  0.750517  0.375380  1
  O  O55  1  0.136251  0.749483  0.875380  1
  O  O56  1  0.363749  0.250517  0.375380  1
  O  O57  1  0.363749  0.249483  0.875380  1
  O  O58  1  0.355033  0.809857  0.048765  1
  O  O59  1  0.355033  0.690143  0.548765  1
  O  O60  1  0.369438  0.729504  0.708862  1
  O  O61  1  0.369438  0.770496  0.208862  1
  O  O62  1  0.469595  0.359791  0.120152  1
  O  O63  1  0.469595  0.140209  0.620152  1
  O  O64  1  0.530405  0.859791  0.379848  1
  O  O65  1  0.530405  0.640209  0.879848  1
  O  O66  1  0.630562  0.229504  0.791138  1
  O  O67  1  0.630562  0.270496  0.291138  1
  O  O68  1  0.644967  0.190143  0.951235  1
  O  O69  1  0.644967  0.309857  0.451235  1
  O  O70  1  0.636251  0.750517  0.124620  1
  O  O71  1  0.636251  0.749483  0.624620  1
  O  O72  1  0.863749  0.249483  0.624620  1
  O  O73  1  0.863749  0.250517  0.124620  1
  O  O74  1  0.855033  0.809857  0.451235  1
  O  O75  1  0.855033  0.690143  0.951235  1
  O  O76  1  0.869438  0.729504  0.791138  1
  O  O77  1  0.869438  0.770496  0.291138  1
  O  O78  1  0.969595  0.359791  0.379848  1
  O  O79  1  0.969595  0.140209  0.879848  1
