# generated using pymatgen
data_Li24Ti5Cr7O36
_symmetry_space_group_name_H-M   'P 1'
_cell_length_a   5.05174547
_cell_length_b   13.41088015
_cell_length_c   9.78415152
_cell_angle_alpha   97.27081571
_cell_angle_beta   94.66849812
_cell_angle_gamma   100.75299331
_symmetry_Int_Tables_number   1
_chemical_formula_structural   Li24Ti5Cr7O36
_chemical_formula_sum   'Li24 Ti5 Cr7 O36'
_cell_volume   642.22365291
_cell_formula_units_Z   1
loop_
 _symmetry_equiv_pos_site_id
 _symmetry_equiv_pos_as_xyz
  1  'x, y, z'
loop_
 _atom_site_type_symbol
 _atom_site_label
 _atom_site_symmetry_multiplicity
 _atom_site_fract_x
 _atom_site_fract_y
 _atom_site_fract_z
 _atom_site_occupancy
  Li  Li0  1  0.828777  0.166917  0.001192  1
  Li  Li1  1  0.948988  0.386139  0.000780  1
  Li  Li2  1  0.001105  0.750277  0.249982  1
  Li  Li3  1  0.666777  0.082533  0.250537  1
  Li  Li4  1  0.950016  0.886888  0.500713  1
  Li  Li5  1  0.625088  0.221660  0.501606  1
  Li  Li6  1  0.829003  0.666621  0.501561  1
  Li  Li7  1  0.493762  0.001288  0.500277  1
  Li  Li8  1  0.709470  0.444460  0.499860  1
  Li  Li9  1  0.666954  0.582984  0.750361  1
  Li  Li10  1  0.499246  0.500391  0.999166  1
  Li  Li11  1  0.716613  0.946455  0.001095  1
  Li  Li12  1  0.384041  0.280564  0.999749  1
  Li  Li13  1  0.619157  0.719115  0.999929  1
  Li  Li14  1  0.288040  0.053422  0.999029  1
  Li  Li15  1  0.335258  0.417205  0.249261  1
  Li  Li16  1  0.290914  0.555029  0.499130  1
  Li  Li17  1  0.164806  0.334176  0.497488  1
  Li  Li18  1  0.384827  0.779316  0.499003  1
  Li  Li19  1  0.048253  0.112014  0.499097  1
  Li  Li20  1  0.336377  0.918192  0.749300  1
  Li  Li21  1  0.164739  0.833645  0.000130  1
  Li  Li22  1  0.999789  0.249422  0.750120  1
  Li  Li23  1  0.048534  0.613580  0.000772  1
  Ti  Ti24  1  0.884193  0.026331  0.744665  1
  Ti  Ti25  1  0.885193  0.526851  0.248581  1
  Ti  Ti26  1  0.223063  0.191858  0.252328  1
  Ti  Ti27  1  0.225438  0.694801  0.753605  1
  Ti  Ti28  1  0.107244  0.472356  0.750304  1
  Cr  Cr29  1  0.780634  0.306003  0.250263  1
  Cr  Cr30  1  0.782924  0.806948  0.750289  1
  Cr  Cr31  1  0.558823  0.359355  0.751627  1
  Cr  Cr32  1  0.437184  0.140197  0.749745  1
  Cr  Cr33  1  0.554302  0.864130  0.248839  1
  Cr  Cr34  1  0.446787  0.641438  0.251369  1
  Cr  Cr35  1  0.106922  0.968305  0.249335  1
  O  O36  1  0.000960  0.069417  0.136568  1
  O  O37  1  0.931388  0.213255  0.366865  1
  O  O38  1  0.001600  0.571069  0.635410  1
  O  O39  1  0.848424  0.354792  0.636658  1
  O  O40  1  0.734934  0.119511  0.635564  1
  O  O41  1  0.663076  0.405442  0.135979  1
  O  O42  1  0.932244  0.714361  0.866831  1
  O  O43  1  0.812045  0.476951  0.864236  1
  O  O44  1  0.595398  0.050253  0.865272  1
  O  O45  1  0.866093  0.859521  0.138548  1
  O  O46  1  0.732246  0.619935  0.135126  1
  O  O47  1  0.528601  0.190736  0.137657  1
  O  O48  1  0.670393  0.265237  0.860719  1
  O  O49  1  0.802082  0.973041  0.362925  1
  O  O50  1  0.598687  0.548449  0.366949  1
  O  O51  1  0.480046  0.310231  0.361749  1
  O  O52  1  0.665017  0.760758  0.359489  1
  O  O53  1  0.332387  0.093360  0.362552  1
  O  O54  1  0.662110  0.905629  0.635379  1
  O  O55  1  0.330057  0.233852  0.638873  1
  O  O56  1  0.528133  0.691792  0.638172  1
  O  O57  1  0.405229  0.449421  0.635341  1
  O  O58  1  0.187739  0.022576  0.635855  1
  O  O59  1  0.335911  0.740967  0.138070  1
  O  O60  1  0.481549  0.811843  0.861848  1
  O  O61  1  0.265405  0.379932  0.863879  1
  O  O62  1  0.151434  0.144004  0.863726  1
  O  O63  1  0.408481  0.949626  0.135007  1
  O  O64  1  0.193460  0.525073  0.137586  1
  O  O65  1  0.061929  0.285457  0.135214  1
  O  O66  1  0.334147  0.595650  0.864436  1
  O  O67  1  0.257912  0.884262  0.364276  1
  O  O68  1  0.147911  0.644801  0.362153  1
  O  O69  1  0.998589  0.425192  0.362359  1
  O  O70  1  0.062066  0.786668  0.635191  1
  O  O71  1  0.999076  0.926071  0.862450  1
