# generated using pymatgen
data_LiVP2O7
_symmetry_space_group_name_H-M   'P 1'
_cell_length_a   7.93577127
_cell_length_b   6.41110734
_cell_length_c   6.16668005
_cell_angle_alpha   109.39613657
_cell_angle_beta   103.69887022
_cell_angle_gamma   98.96087219
_symmetry_Int_Tables_number   1
_chemical_formula_structural   LiVP2O7
_chemical_formula_sum   'Li2 V2 P4 O14'
_cell_volume   277.95312992
_cell_formula_units_Z   2
loop_
 _symmetry_equiv_pos_site_id
 _symmetry_equiv_pos_as_xyz
  1  'x, y, z'
loop_
 _atom_site_type_symbol
 _atom_site_label
 _atom_site_symmetry_multiplicity
 _atom_site_fract_x
 _atom_site_fract_y
 _atom_site_fract_z
 _atom_site_occupancy
  Li  Li0  1  0.000000  0.000000  0.000000  1
  Li  Li1  1  0.500000  0.000000  0.000000  1
  V  V2  1  0.228283  0.679765  0.368284  1
  V  V3  1  0.771717  0.320235  0.631716  1
  P  P4  1  0.211204  0.546043  0.820953  1
  P  P5  1  0.317022  0.229805  0.447759  1
  P  P6  1  0.682978  0.770195  0.552241  1
  P  P7  1  0.788796  0.453957  0.179047  1
  O  O8  1  0.037297  0.383790  0.785443  1
  O  O9  1  0.194477  0.716882  0.695460  1
  O  O10  1  0.205396  0.998471  0.408862  1
  O  O11  1  0.208141  0.324715  0.275684  1
  O  O12  1  0.343683  0.396873  0.723068  1
  O  O13  1  0.316491  0.686276  0.088537  1
  O  O14  1  0.496289  0.773328  0.578992  1
  O  O15  1  0.503711  0.226672  0.421008  1
  O  O16  1  0.683509  0.313724  0.911463  1
  O  O17  1  0.656317  0.603127  0.276932  1
  O  O18  1  0.791859  0.675285  0.724316  1
  O  O19  1  0.794604  0.001529  0.591138  1
  O  O20  1  0.805523  0.283118  0.304540  1
  O  O21  1  0.962703  0.616210  0.214557  1
