# generated using pymatgen
data_LiFe(PO3)4
_symmetry_space_group_name_H-M   'P 1'
_cell_length_a   6.84593559
_cell_length_b   7.19514710
_cell_length_c   9.17080497
_cell_angle_alpha   90.00000000
_cell_angle_beta   90.00000000
_cell_angle_gamma   95.02666819
_symmetry_Int_Tables_number   1
_chemical_formula_structural   LiFe(PO3)4
_chemical_formula_sum   'Li2 Fe2 P8 O24'
_cell_volume   449.99370389
_cell_formula_units_Z   2
loop_
 _symmetry_equiv_pos_site_id
 _symmetry_equiv_pos_as_xyz
  1  'x, y, z'
loop_
 _atom_site_type_symbol
 _atom_site_label
 _atom_site_symmetry_multiplicity
 _atom_site_fract_x
 _atom_site_fract_y
 _atom_site_fract_z
 _atom_site_occupancy
  Li  Li0  1  0.262839  0.718208  0.256475  1
  Li  Li1  1  0.737161  0.281792  0.756475  1
  Fe  Fe2  1  0.269898  0.255130  0.969982  1
  Fe  Fe3  1  0.730102  0.744870  0.469982  1
  P  P4  1  0.969723  0.405815  0.363387  1
  P  P5  1  0.060321  0.089126  0.569183  1
  P  P6  1  0.421580  0.587525  0.748073  1
  P  P7  1  0.429338  0.063385  0.399012  1
  P  P8  1  0.570662  0.936615  0.899012  1
  P  P9  1  0.578420  0.412475  0.248073  1
  P  P10  1  0.939679  0.910874  0.069183  1
  P  P11  1  0.030277  0.594185  0.863387  1
  O  O12  1  0.016276  0.797352  0.930918  1
  O  O13  1  0.961880  0.893036  0.551259  1
  O  O14  1  0.122389  0.474752  0.977188  1
  O  O15  1  0.044604  0.192549  0.708809  1
  O  O16  1  0.196880  0.636904  0.737037  1
  O  O17  1  0.159135  0.474136  0.297693  1
  O  O18  1  0.292437  0.075678  0.539771  1
  O  O19  1  0.324996  0.978626  0.270094  1
  O  O20  1  0.430464  0.386129  0.796337  1
  O  O21  1  0.506545  0.717096  0.878982  1
  O  O22  1  0.387979  0.023037  0.947343  1
  O  O23  1  0.517895  0.642116  0.605167  1
  O  O24  1  0.482106  0.357884  0.105167  1
  O  O25  1  0.612021  0.976963  0.447343  1
  O  O26  1  0.493455  0.282904  0.378982  1
  O  O27  1  0.569536  0.613871  0.296337  1
  O  O28  1  0.675004  0.021374  0.770094  1
  O  O29  1  0.707563  0.924322  0.039771  1
  O  O30  1  0.840865  0.525864  0.797693  1
  O  O31  1  0.803120  0.363096  0.237037  1
  O  O32  1  0.955396  0.807451  0.208809  1
  O  O33  1  0.877611  0.525248  0.477188  1
  O  O34  1  0.038120  0.106964  0.051259  1
  O  O35  1  0.983724  0.202648  0.430918  1
