# generated using pymatgen
data_Li2NbNi3O8
_symmetry_space_group_name_H-M   'P 1'
_cell_length_a   5.87660022
_cell_length_b   5.87581562
_cell_length_c   9.63638902
_cell_angle_alpha   90.23047337
_cell_angle_beta   89.88477965
_cell_angle_gamma   119.99558308
_symmetry_Int_Tables_number   1
_chemical_formula_structural   Li2NbNi3O8
_chemical_formula_sum   'Li4 Nb2 Ni6 O16'
_cell_volume   288.17418697
_cell_formula_units_Z   2
loop_
 _symmetry_equiv_pos_site_id
 _symmetry_equiv_pos_as_xyz
  1  'x, y, z'
loop_
 _atom_site_type_symbol
 _atom_site_label
 _atom_site_symmetry_multiplicity
 _atom_site_fract_x
 _atom_site_fract_y
 _atom_site_fract_z
 _atom_site_occupancy
  Li  Li0  1  0.333245  0.666581  0.893915  1
  Li  Li1  1  0.000095  0.999951  0.992412  1
  Li  Li2  1  0.999905  0.999856  0.492412  1
  Li  Li3  1  0.666755  0.333336  0.393915  1
  Nb  Nb4  1  0.333278  0.665193  0.496126  1
  Nb  Nb5  1  0.666722  0.331914  0.996126  1
  Ni  Ni6  1  0.169023  0.830617  0.215407  1
  Ni  Ni7  1  0.169435  0.338634  0.215514  1
  Ni  Ni8  1  0.661447  0.830680  0.215507  1
  Ni  Ni9  1  0.338553  0.169233  0.715507  1
  Ni  Ni10  1  0.830977  0.661594  0.715407  1
  Ni  Ni11  1  0.830565  0.169198  0.715514  1
  O  O12  1  0.165898  0.836746  0.592622  1
  O  O13  1  0.034143  0.517892  0.342400  1
  O  O14  1  0.333420  0.666745  0.118183  1
  O  O15  1  0.999917  0.000006  0.302542  1
  O  O16  1  0.000083  0.000089  0.802542  1
  O  O17  1  0.164240  0.330473  0.592330  1
  O  O18  1  0.484094  0.965781  0.341655  1
  O  O19  1  0.482122  0.516070  0.342888  1
  O  O20  1  0.329907  0.164914  0.092418  1
  O  O21  1  0.670093  0.835008  0.592418  1
  O  O22  1  0.515906  0.481687  0.841655  1
  O  O23  1  0.517878  0.033948  0.842888  1
  O  O24  1  0.666580  0.333324  0.618183  1
  O  O25  1  0.834102  0.670847  0.092622  1
  O  O26  1  0.965857  0.483749  0.842400  1
  O  O27  1  0.835760  0.166233  0.092330  1
