# generated using pymatgen
data_Ti5Pb5O14
_symmetry_space_group_name_H-M   'P 1'
_cell_length_a   8.61570240
_cell_length_b   7.14360912
_cell_length_c   6.02632876
_cell_angle_alpha   83.51281404
_cell_angle_beta   72.32465185
_cell_angle_gamma   77.50986335
_symmetry_Int_Tables_number   1
_chemical_formula_structural   Ti5Pb5O14
_chemical_formula_sum   'Ti5 Pb5 O14'
_cell_volume   344.58387274
_cell_formula_units_Z   1
loop_
 _symmetry_equiv_pos_site_id
 _symmetry_equiv_pos_as_xyz
  1  'x, y, z'
loop_
 _atom_site_type_symbol
 _atom_site_label
 _atom_site_symmetry_multiplicity
 _atom_site_fract_x
 _atom_site_fract_y
 _atom_site_fract_z
 _atom_site_occupancy
  Ti  Ti0  1  0.598849  0.302359  0.223311  1
  Ti  Ti1  1  0.403257  0.689760  0.836380  1
  Ti  Ti2  1  0.794901  0.911593  0.615143  1
  Ti  Ti3  1  0.989805  0.519440  0.013017  1
  Ti  Ti4  1  0.185947  0.131813  0.392542  1
  Pb  Pb5  1  0.791746  0.429333  0.641730  1
  Pb  Pb6  1  0.384796  0.216566  0.825969  1
  Pb  Pb7  1  0.200067  0.652664  0.448741  1
  Pb  Pb8  1  0.562640  0.825944  0.268879  1
  Pb  Pb9  1  0.983122  0.025758  0.028209  1
  O  O10  1  0.718473  0.068156  0.846389  1
  O  O11  1  0.914652  0.677074  0.759734  1
  O  O12  1  0.711610  0.073314  0.366990  1
  O  O13  1  0.514458  0.470810  0.973781  1
  O  O14  1  0.523875  0.451940  0.463281  1
  O  O15  1  0.912924  0.668641  0.249473  1
  O  O16  1  0.216399  0.574171  0.852174  1
  O  O17  1  0.121168  0.256601  0.653222  1
  O  O18  1  0.612589  0.768586  0.655884  1
  O  O19  1  0.816846  0.366311  0.052337  1
  O  O20  1  0.414333  0.164363  0.259729  1
  O  O21  1  0.111877  0.277929  0.148551  1
  O  O22  1  0.310925  0.879429  0.030402  1
  O  O23  1  0.017442  0.972046  0.456034  1
