# generated using pymatgen
data_VH4NO3
_symmetry_space_group_name_H-M   'P 1'
_cell_length_a   4.95935043
_cell_length_b   12.00363654
_cell_length_c   5.85986322
_cell_angle_alpha   90.00000000
_cell_angle_beta   90.00000000
_cell_angle_gamma   90.00000000
_symmetry_Int_Tables_number   1
_chemical_formula_structural   VH4NO3
_chemical_formula_sum   'V4 H16 N4 O12'
_cell_volume   348.83906407
_cell_formula_units_Z   4
loop_
 _symmetry_equiv_pos_site_id
 _symmetry_equiv_pos_as_xyz
  1  'x, y, z'
loop_
 _atom_site_type_symbol
 _atom_site_label
 _atom_site_symmetry_multiplicity
 _atom_site_fract_x
 _atom_site_fract_y
 _atom_site_fract_z
 _atom_site_occupancy
  V  V0  1  0.464210  0.326876  0.750000  1
  V  V1  1  0.535790  0.673124  0.250000  1
  V  V2  1  0.464210  0.173124  0.250000  1
  V  V3  1  0.535790  0.826876  0.750000  1
  H  H4  1  0.756718  0.043869  0.750000  1
  H  H5  1  0.243282  0.956131  0.250000  1
  H  H6  1  0.756718  0.456131  0.250000  1
  H  H7  1  0.243282  0.543869  0.750000  1
  H  H8  1  0.103544  0.030298  0.750000  1
  H  H9  1  0.896456  0.969702  0.250000  1
  H  H10  1  0.103544  0.469702  0.250000  1
  H  H11  1  0.896456  0.530298  0.750000  1
  H  H12  1  0.951008  0.136294  0.892601  1
  H  H13  1  0.048993  0.863706  0.392601  1
  H  H14  1  0.951008  0.363706  0.107399  1
  H  H15  1  0.048993  0.636294  0.607399  1
  H  H16  1  0.048993  0.863706  0.107399  1
  H  H17  1  0.951008  0.136294  0.607399  1
  H  H18  1  0.048993  0.636294  0.892601  1
  H  H19  1  0.951008  0.363706  0.392601  1
  N  N20  1  0.940976  0.086099  0.750000  1
  N  N21  1  0.059024  0.913901  0.250000  1
  N  N22  1  0.940976  0.413901  0.250000  1
  N  N23  1  0.059024  0.586099  0.750000  1
  O  O24  1  0.127901  0.330709  0.750000  1
  O  O25  1  0.872099  0.669291  0.250000  1
  O  O26  1  0.127901  0.169291  0.250000  1
  O  O27  1  0.872099  0.830709  0.750000  1
  O  O28  1  0.578130  0.459313  0.750000  1
  O  O29  1  0.421870  0.540687  0.250000  1
  O  O30  1  0.578130  0.040687  0.250000  1
  O  O31  1  0.421870  0.959313  0.750000  1
  O  O32  1  0.581194  0.250000  0.500000  1
  O  O33  1  0.418806  0.750000  0.000000  1
  O  O34  1  0.418806  0.750000  0.500000  1
  O  O35  1  0.581194  0.250000  0.000000  1
