# generated using pymatgen
data_K4Hf3Mn(PO4)6
_symmetry_space_group_name_H-M   'P 1'
_cell_length_a   10.30264539
_cell_length_b   10.30312743
_cell_length_c   10.28287907
_cell_angle_alpha   90.00000000
_cell_angle_beta   90.00000000
_cell_angle_gamma   90.01144749
_symmetry_Int_Tables_number   1
_chemical_formula_structural   K4Hf3Mn(PO4)6
_chemical_formula_sum   'K8 Hf6 Mn2 P12 O48'
_cell_volume   1091.52212458
_cell_formula_units_Z   2
loop_
 _symmetry_equiv_pos_site_id
 _symmetry_equiv_pos_as_xyz
  1  'x, y, z'
loop_
 _atom_site_type_symbol
 _atom_site_label
 _atom_site_symmetry_multiplicity
 _atom_site_fract_x
 _atom_site_fract_y
 _atom_site_fract_z
 _atom_site_occupancy
  K  K0  1  0.072524  0.428927  0.568421  1
  K  K1  1  0.207731  0.810587  0.299566  1
  K  K2  1  0.292269  0.189413  0.799566  1
  K  K3  1  0.427476  0.571073  0.068421  1
  K  K4  1  0.557895  0.060110  0.437469  1
  K  K5  1  0.692946  0.710880  0.700839  1
  K  K6  1  0.807054  0.289120  0.200839  1
  K  K7  1  0.942105  0.939890  0.937469  1
  Hf  Hf8  1  0.089219  0.586612  0.912620  1
  Hf  Hf9  1  0.410781  0.413388  0.412620  1
  Hf  Hf10  1  0.582414  0.914583  0.084283  1
  Hf  Hf11  1  0.643132  0.354708  0.856944  1
  Hf  Hf12  1  0.856868  0.645292  0.356944  1
  Hf  Hf13  1  0.917586  0.085417  0.584283  1
  Mn  Mn14  1  0.148349  0.145642  0.147595  1
  Mn  Mn15  1  0.351651  0.854358  0.647595  1
  P  P16  1  0.039498  0.767816  0.623708  1
  P  P17  1  0.122183  0.460719  0.231097  1
  P  P18  1  0.232515  0.123663  0.461176  1
  P  P19  1  0.267485  0.876337  0.961176  1
  P  P20  1  0.377817  0.539281  0.731097  1
  P  P21  1  0.460502  0.232184  0.123708  1
  P  P22  1  0.537737  0.728766  0.373016  1
  P  P23  1  0.628659  0.037887  0.769811  1
  P  P24  1  0.729132  0.373408  0.538463  1
  P  P25  1  0.770868  0.626592  0.038463  1
  P  P26  1  0.871341  0.962113  0.269811  1
  P  P27  1  0.962263  0.271234  0.873016  1
  O  O28  1  0.005107  0.414485  0.850248  1
  O  O29  1  0.021429  0.692490  0.754168  1
  O  O30  1  0.024881  0.556771  0.298055  1
  O  O31  1  0.044381  0.201249  0.971757  1
  O  O32  1  0.069572  0.323856  0.239756  1
  O  O33  1  0.087756  0.147964  0.505131  1
  O  O34  1  0.144707  0.507351  0.088988  1
  O  O35  1  0.176008  0.758349  0.570338  1
  O  O36  1  0.198310  0.739831  0.972722  1
  O  O37  1  0.199399  0.965471  0.056931  1
  O  O38  1  0.238446  0.074654  0.321663  1
  O  O39  1  0.246907  0.520262  0.805458  1
  O  O40  1  0.253093  0.479738  0.305459  1
  O  O41  1  0.261554  0.925346  0.821663  1
  O  O42  1  0.300601  0.034529  0.556931  1
  O  O43  1  0.301690  0.260169  0.472722  1
  O  O44  1  0.323992  0.241651  0.070338  1
  O  O45  1  0.355293  0.492649  0.588988  1
  O  O46  1  0.412244  0.852036  0.005131  1
  O  O47  1  0.430428  0.676144  0.739756  1
  O  O48  1  0.455619  0.798751  0.471757  1
  O  O49  1  0.475119  0.443229  0.798055  1
  O  O50  1  0.478571  0.307510  0.254168  1
  O  O51  1  0.494893  0.585515  0.350248  1
  O  O52  1  0.507111  0.090068  0.146230  1
  O  O53  1  0.525600  0.800555  0.240041  1
  O  O54  1  0.531674  0.953405  0.700434  1
  O  O55  1  0.558316  0.298272  0.027309  1
  O  O56  1  0.585712  0.183707  0.770694  1
  O  O57  1  0.587850  0.352655  0.493196  1
  O  O58  1  0.651152  0.995390  0.913772  1
  O  O59  1  0.683589  0.727500  0.414780  1
  O  O60  1  0.693691  0.753974  0.020921  1
  O  O61  1  0.702330  0.523539  0.952702  1
  O  O62  1  0.730790  0.419057  0.682189  1
  O  O63  1  0.738932  0.972663  0.197508  1
  O  O64  1  0.761068  0.027337  0.697508  1
  O  O65  1  0.769210  0.580943  0.182189  1
  O  O66  1  0.797670  0.476461  0.452702  1
  O  O67  1  0.806309  0.246026  0.520921  1
  O  O68  1  0.816411  0.272500  0.914780  1
  O  O69  1  0.848848  0.004610  0.413772  1
  O  O70  1  0.912150  0.647345  0.993196  1
  O  O71  1  0.914288  0.816293  0.270694  1
  O  O72  1  0.941684  0.701728  0.527309  1
  O  O73  1  0.968326  0.046595  0.200434  1
  O  O74  1  0.974400  0.199445  0.740041  1
  O  O75  1  0.992889  0.909932  0.646230  1
