# generated using pymatgen
data_V2OF5
_symmetry_space_group_name_H-M   'P 1'
_cell_length_a   5.27511758
_cell_length_b   5.43831784
_cell_length_c   17.36666375
_cell_angle_alpha   91.11909648
_cell_angle_beta   98.17072652
_cell_angle_gamma   61.21689174
_symmetry_Int_Tables_number   1
_chemical_formula_structural   V2OF5
_chemical_formula_sum   'V8 O4 F20'
_cell_volume   431.53649612
_cell_formula_units_Z   4
loop_
 _symmetry_equiv_pos_site_id
 _symmetry_equiv_pos_as_xyz
  1  'x, y, z'
loop_
 _atom_site_type_symbol
 _atom_site_label
 _atom_site_symmetry_multiplicity
 _atom_site_fract_x
 _atom_site_fract_y
 _atom_site_fract_z
 _atom_site_occupancy
  V  V0  1  0.754740  0.622668  0.123827  1
  V  V1  1  0.751335  0.123611  0.624504  1
  V  V2  1  0.499245  0.252718  0.251718  1
  V  V3  1  0.494815  0.743083  0.756945  1
  V  V4  1  0.265309  0.842993  0.370979  1
  V  V5  1  0.251975  0.390700  0.874941  1
  V  V6  1  0.000550  0.034145  0.004975  1
  V  V7  1  0.994257  0.475959  0.505971  1
  O  O8  1  0.957477  0.307405  0.058446  1
  O  O9  1  0.919096  0.329530  0.577099  1
  O  O10  1  0.442873  0.568325  0.316225  1
  O  O11  1  0.419791  0.596126  0.829622  1
  F  F12  1  0.931849  0.835918  0.087304  1
  F  F13  1  0.978117  0.798844  0.563942  1
  F  F14  1  0.531031  0.940850  0.188266  1
  F  F15  1  0.927382  0.037863  0.288559  1
  F  F16  1  0.922999  0.542219  0.787456  1
  F  F17  1  0.425662  0.797887  0.037020  1
  F  F18  1  0.568729  0.421329  0.162515  1
  F  F19  1  0.580339  0.907330  0.667971  1
  F  F20  1  0.576349  0.713220  0.461547  1
  F  F21  1  0.523214  0.446565  0.684764  1
  F  F22  1  0.430958  0.071622  0.337895  1
  F  F23  1  0.423042  0.279061  0.537049  1
  F  F24  1  0.578931  0.209722  0.961485  1
  F  F25  1  0.071734  0.664174  0.418690  1
  F  F26  1  0.070225  0.455100  0.211541  1
  F  F27  1  0.077935  0.974380  0.711467  1
  F  F28  1  0.480163  0.066188  0.812766  1
  F  F29  1  0.034108  0.702573  0.940295  1
  F  F30  1  0.037150  0.181262  0.432177  1
  F  F31  1  0.078623  0.166627  0.912040  1
