# generated using pymatgen
data_VCu13Sn(AsS8)2
_symmetry_space_group_name_H-M   'P 1'
_cell_length_a   10.70217373
_cell_length_b   10.70356945
_cell_length_c   21.42791651
_cell_angle_alpha   90.00000000
_cell_angle_beta   90.00000000
_cell_angle_gamma   90.00000000
_symmetry_Int_Tables_number   1
_chemical_formula_structural   VCu13Sn(AsS8)2
_chemical_formula_sum   'V4 Cu52 Sn4 As8 S64'
_cell_volume   2454.59911637
_cell_formula_units_Z   4
loop_
 _symmetry_equiv_pos_site_id
 _symmetry_equiv_pos_as_xyz
  1  'x, y, z'
loop_
 _atom_site_type_symbol
 _atom_site_label
 _atom_site_symmetry_multiplicity
 _atom_site_fract_x
 _atom_site_fract_y
 _atom_site_fract_z
 _atom_site_occupancy
  V  V0  1  0.000060  0.000000  0.000000  1
  V  V1  1  0.999940  0.000000  0.500000  1
  V  V2  1  0.500000  0.499472  0.250000  1
  V  V3  1  0.500000  0.500528  0.750000  1
  Cu  Cu4  1  0.001009  0.255787  0.999658  1
  Cu  Cu5  1  0.999328  0.001095  0.127873  1
  Cu  Cu6  1  0.001009  0.744213  0.000342  1
  Cu  Cu7  1  0.002082  0.500313  0.124899  1
  Cu  Cu8  1  0.000672  0.998905  0.627873  1
  Cu  Cu9  1  0.998991  0.744213  0.499658  1
  Cu  Cu10  1  0.002082  0.499687  0.875101  1
  Cu  Cu11  1  0.244285  0.498996  0.249824  1
  Cu  Cu12  1  0.244285  0.501004  0.750176  1
  Cu  Cu13  1  0.249874  0.250032  0.125049  1
  Cu  Cu14  1  0.250436  0.247968  0.625234  1
  Cu  Cu15  1  0.250436  0.752032  0.374766  1
  Cu  Cu16  1  0.249874  0.749968  0.874951  1
  Cu  Cu17  1  0.250944  0.000873  0.250493  1
  Cu  Cu18  1  0.250944  0.999127  0.749507  1
  Cu  Cu19  1  0.250932  0.248645  0.374633  1
  Cu  Cu20  1  0.250752  0.748966  0.124209  1
  Cu  Cu21  1  0.250752  0.251034  0.875791  1
  Cu  Cu22  1  0.250932  0.751355  0.625367  1
  Cu  Cu23  1  0.256484  0.000000  0.000000  1
  Cu  Cu24  1  0.256702  0.000000  0.500000  1
  Cu  Cu25  1  0.500000  0.243537  0.250000  1
  Cu  Cu26  1  0.499177  0.499638  0.122184  1
  Cu  Cu27  1  0.500000  0.243594  0.750000  1
  Cu  Cu28  1  0.500823  0.500362  0.622184  1
  Cu  Cu29  1  0.499402  0.249089  0.000627  1
  Cu  Cu30  1  0.500598  0.249089  0.499373  1
  Cu  Cu31  1  0.499177  0.500362  0.877816  1
  Cu  Cu32  1  0.500823  0.499638  0.377816  1
  Cu  Cu33  1  0.499402  0.750911  0.999373  1
  Cu  Cu34  1  0.500000  0.756406  0.250000  1
  Cu  Cu35  1  0.500598  0.750911  0.500627  1
  Cu  Cu36  1  0.500000  0.756463  0.750000  1
  Cu  Cu37  1  0.743298  0.000000  0.000000  1
  Cu  Cu38  1  0.743516  0.000000  0.500000  1
  Cu  Cu39  1  0.749068  0.248645  0.125367  1
  Cu  Cu40  1  0.749248  0.251034  0.624209  1
  Cu  Cu41  1  0.749068  0.751355  0.874633  1
  Cu  Cu42  1  0.749248  0.748966  0.375791  1
  Cu  Cu43  1  0.749056  0.000873  0.249507  1
  Cu  Cu44  1  0.749056  0.999127  0.750493  1
  Cu  Cu45  1  0.750126  0.250032  0.374951  1
  Cu  Cu46  1  0.749564  0.247968  0.874766  1
  Cu  Cu47  1  0.749564  0.752032  0.125234  1
  Cu  Cu48  1  0.750126  0.749968  0.625049  1
  Cu  Cu49  1  0.755715  0.498996  0.250176  1
  Cu  Cu50  1  0.755715  0.501004  0.749824  1
  Cu  Cu51  1  0.997918  0.499687  0.624899  1
  Cu  Cu52  1  0.998991  0.255787  0.500342  1
  Cu  Cu53  1  0.997918  0.500313  0.375101  1
  Cu  Cu54  1  0.000672  0.001095  0.372127  1
  Cu  Cu55  1  0.999328  0.998905  0.872127  1
  Sn  Sn56  1  0.000000  0.250226  0.750000  1
  Sn  Sn57  1  0.250144  0.500000  0.500000  1
  Sn  Sn58  1  0.749856  0.500000  0.000000  1
  Sn  Sn59  1  0.000000  0.749774  0.250000  1
  As  As60  1  0.000000  0.249766  0.250000  1
  As  As61  1  0.249734  0.500000  0.000000  1
  As  As62  1  0.500182  0.000272  0.624979  1
  As  As63  1  0.499818  0.999728  0.124979  1
  As  As64  1  0.499818  0.000272  0.875021  1
  As  As65  1  0.500182  0.999728  0.375021  1
  As  As66  1  0.750266  0.500000  0.500000  1
  As  As67  1  0.000000  0.750234  0.750000  1
  S  S68  1  0.120731  0.120373  0.059726  1
  S  S69  1  0.120184  0.120371  0.560341  1
  S  S70  1  0.120184  0.879629  0.439659  1
  S  S71  1  0.120731  0.879627  0.940274  1
  S  S72  1  0.124273  0.372174  0.186452  1
  S  S73  1  0.130354  0.379015  0.682469  1
  S  S74  1  0.130354  0.620985  0.317531  1
  S  S75  1  0.124273  0.627826  0.813548  1
  S  S76  1  0.127866  0.126985  0.311394  1
  S  S77  1  0.134772  0.879093  0.184712  1
  S  S78  1  0.134772  0.120907  0.815288  1
  S  S79  1  0.127866  0.873015  0.688606  1
  S  S80  1  0.127804  0.623601  0.064487  1
  S  S81  1  0.120937  0.368740  0.433112  1
  S  S82  1  0.127804  0.376399  0.935513  1
  S  S83  1  0.120937  0.631260  0.566888  1
  S  S84  1  0.380119  0.634562  0.435195  1
  S  S85  1  0.372191  0.628056  0.938087  1
  S  S86  1  0.372191  0.371944  0.061913  1
  S  S87  1  0.380119  0.365438  0.564805  1
  S  S88  1  0.373078  0.875714  0.814073  1
  S  S89  1  0.371923  0.877657  0.313602  1
  S  S90  1  0.373078  0.124286  0.185927  1
  S  S91  1  0.371923  0.122343  0.686398  1
  S  S92  1  0.376610  0.128334  0.435984  1
  S  S93  1  0.376926  0.126640  0.936278  1
  S  S94  1  0.376926  0.873360  0.063722  1
  S  S95  1  0.376610  0.871666  0.564016  1
  S  S96  1  0.380425  0.379334  0.310293  1
  S  S97  1  0.379034  0.619967  0.190341  1
  S  S98  1  0.380425  0.620666  0.689707  1
  S  S99  1  0.379034  0.380033  0.809659  1
  S  S100  1  0.619575  0.379334  0.189707  1
  S  S101  1  0.620966  0.619967  0.309659  1
  S  S102  1  0.620966  0.380033  0.690341  1
  S  S103  1  0.619575  0.620666  0.810293  1
  S  S104  1  0.623390  0.128334  0.064016  1
  S  S105  1  0.623074  0.126640  0.563722  1
  S  S106  1  0.623390  0.871666  0.935984  1
  S  S107  1  0.623074  0.873360  0.436278  1
  S  S108  1  0.626922  0.124286  0.314073  1
  S  S109  1  0.628077  0.122343  0.813602  1
  S  S110  1  0.626922  0.875714  0.685927  1
  S  S111  1  0.628077  0.877657  0.186398  1
  S  S112  1  0.619881  0.634562  0.064805  1
  S  S113  1  0.627809  0.628056  0.561913  1
  S  S114  1  0.627809  0.371944  0.438087  1
  S  S115  1  0.619881  0.365438  0.935195  1
  S  S116  1  0.872196  0.376399  0.564487  1
  S  S117  1  0.879063  0.368740  0.066888  1
  S  S118  1  0.872196  0.623601  0.435513  1
  S  S119  1  0.879063  0.631260  0.933112  1
  S  S120  1  0.872134  0.126985  0.188606  1
  S  S121  1  0.865228  0.879093  0.315288  1
  S  S122  1  0.865228  0.120907  0.684712  1
  S  S123  1  0.872134  0.873015  0.811394  1
  S  S124  1  0.875727  0.372174  0.313548  1
  S  S125  1  0.869646  0.620985  0.182469  1
  S  S126  1  0.869646  0.379015  0.817531  1
  S  S127  1  0.875727  0.627826  0.686452  1
  S  S128  1  0.879269  0.120373  0.440274  1
  S  S129  1  0.879816  0.879629  0.060341  1
  S  S130  1  0.879269  0.879627  0.559726  1
  S  S131  1  0.879816  0.120371  0.939659  1
