# generated using pymatgen
data_V(SbO3)4
_symmetry_space_group_name_H-M   'P 1'
_cell_length_a   5.56027734
_cell_length_b   10.91710658
_cell_length_c   9.70179808
_cell_angle_alpha   28.05271021
_cell_angle_beta   50.64997187
_cell_angle_gamma   56.69080847
_symmetry_Int_Tables_number   1
_chemical_formula_structural   V(SbO3)4
_chemical_formula_sum   'V1 Sb4 O12'
_cell_volume   214.08134845
_cell_formula_units_Z   1
loop_
 _symmetry_equiv_pos_site_id
 _symmetry_equiv_pos_as_xyz
  1  'x, y, z'
loop_
 _atom_site_type_symbol
 _atom_site_label
 _atom_site_symmetry_multiplicity
 _atom_site_fract_x
 _atom_site_fract_y
 _atom_site_fract_z
 _atom_site_occupancy
  V  V0  1  0.314351  0.018187  0.262363  1
  Sb  Sb1  1  0.025377  0.992126  0.979331  1
  Sb  Sb2  1  0.957801  0.500899  0.005116  1
  Sb  Sb3  1  0.495646  0.984080  0.515924  1
  Sb  Sb4  1  0.480164  0.512746  0.468832  1
  O  O5  1  0.341679  0.284468  0.129674  1
  O  O6  1  0.244606  0.144318  0.587508  1
  O  O7  1  0.102508  0.309536  0.749950  1
  O  O8  1  0.899539  0.170140  0.236298  1
  O  O9  1  0.383321  0.824635  0.091241  1
  O  O10  1  0.738569  0.357313  0.384724  1
  O  O11  1  0.214111  0.654889  0.591501  1
  O  O12  1  0.586974  0.177124  0.887074  1
  O  O13  1  0.131350  0.833715  0.686715  1
  O  O14  1  0.860291  0.685146  0.239239  1
  O  O15  1  0.690062  0.891841  0.349023  1
  O  O16  1  0.592950  0.658834  0.894788  1
