# generated using pymatgen
data_Li2Mn2C2O7
_symmetry_space_group_name_H-M   'P 1'
_cell_length_a   6.85324901
_cell_length_b   9.62748570
_cell_length_c   10.33578867
_cell_angle_alpha   64.58251063
_cell_angle_beta   90.00005155
_cell_angle_gamma   90.00001723
_symmetry_Int_Tables_number   1
_chemical_formula_structural   Li2Mn2C2O7
_chemical_formula_sum   'Li8 Mn8 C8 O28'
_cell_volume   615.94086878
_cell_formula_units_Z   4
loop_
 _symmetry_equiv_pos_site_id
 _symmetry_equiv_pos_as_xyz
  1  'x, y, z'
loop_
 _atom_site_type_symbol
 _atom_site_label
 _atom_site_symmetry_multiplicity
 _atom_site_fract_x
 _atom_site_fract_y
 _atom_site_fract_z
 _atom_site_occupancy
  Li  Li0  1  0.252850  0.239344  0.496377  1
  Li  Li1  1  0.646070  0.076170  0.350771  1
  Li  Li2  1  0.146067  0.423832  0.649229  1
  Li  Li3  1  0.752850  0.260655  0.503624  1
  Li  Li4  1  0.247154  0.739346  0.496375  1
  Li  Li5  1  0.853935  0.576168  0.350772  1
  Li  Li6  1  0.353932  0.923830  0.649229  1
  Li  Li7  1  0.747150  0.760655  0.503625  1
  Mn  Mn8  1  0.952871  0.085720  0.836108  1
  Mn  Mn9  1  0.547127  0.585721  0.836105  1
  Mn  Mn10  1  0.452875  0.414281  0.163892  1
  Mn  Mn11  1  0.047123  0.914280  0.163895  1
  Mn  Mn12  1  0.635376  0.226464  0.984957  1
  Mn  Mn13  1  0.864629  0.726459  0.984959  1
  Mn  Mn14  1  0.135378  0.273537  0.015045  1
  Mn  Mn15  1  0.364634  0.773544  0.015037  1
  C  C16  1  0.355187  0.149678  0.783232  1
  C  C17  1  0.761843  0.434943  0.650582  1
  C  C18  1  0.261844  0.065058  0.349416  1
  C  C19  1  0.144816  0.649679  0.783233  1
  C  C20  1  0.855189  0.350321  0.216768  1
  C  C21  1  0.738151  0.934943  0.650582  1
  C  C22  1  0.238151  0.565056  0.349419  1
  C  C23  1  0.644814  0.850323  0.216767  1
  O  O24  1  0.512104  0.117961  0.855199  1
  O  O25  1  0.408116  0.370547  0.987076  1
  O  O26  1  0.320557  0.100522  0.685163  1
  O  O27  1  0.215567  0.231833  0.805203  1
  O  O28  1  0.760953  0.055805  0.530721  1
  O  O29  1  0.700597  0.431107  0.769936  1
  O  O30  1  0.852638  0.315495  0.648579  1
  O  O31  1  0.987903  0.617960  0.855200  1
  O  O32  1  0.091886  0.870546  0.987079  1
  O  O33  1  0.179445  0.600522  0.685164  1
  O  O34  1  0.284438  0.731835  0.805204  1
  O  O35  1  0.352637  0.184506  0.351420  1
  O  O36  1  0.200598  0.068894  0.230063  1
  O  O37  1  0.739041  0.555805  0.530723  1
  O  O38  1  0.260954  0.444194  0.469278  1
  O  O39  1  0.799404  0.931104  0.769936  1
  O  O40  1  0.647352  0.815498  0.648577  1
  O  O41  1  0.715566  0.268166  0.194797  1
  O  O42  1  0.820561  0.399478  0.314835  1
  O  O43  1  0.908115  0.129454  0.012924  1
  O  O44  1  0.012101  0.382038  0.144802  1
  O  O45  1  0.147353  0.684502  0.351423  1
  O  O46  1  0.299404  0.568894  0.230066  1
  O  O47  1  0.239042  0.944197  0.469276  1
  O  O48  1  0.784435  0.768165  0.194797  1
  O  O49  1  0.679447  0.899477  0.314838  1
  O  O50  1  0.591888  0.629451  0.012922  1
  O  O51  1  0.487898  0.882041  0.144800  1
