# generated using pymatgen
data_LaTiNO2
_symmetry_space_group_name_H-M   'P 1'
_cell_length_a   5.61057162
_cell_length_b   5.62136000
_cell_length_c   7.94823656
_cell_angle_alpha   90.02001420
_cell_angle_beta   90.07790038
_cell_angle_gamma   89.27619854
_symmetry_Int_Tables_number   1
_chemical_formula_structural   LaTiNO2
_chemical_formula_sum   'La4 Ti4 N4 O8'
_cell_volume   250.65952599
_cell_formula_units_Z   4
loop_
 _symmetry_equiv_pos_site_id
 _symmetry_equiv_pos_as_xyz
  1  'x, y, z'
loop_
 _atom_site_type_symbol
 _atom_site_label
 _atom_site_symmetry_multiplicity
 _atom_site_fract_x
 _atom_site_fract_y
 _atom_site_fract_z
 _atom_site_occupancy
  La  La0  1  0.494129  0.007158  0.262107  1
  La  La1  1  0.992791  0.506665  0.263319  1
  La  La2  1  0.492507  0.005581  0.744873  1
  La  La3  1  0.993902  0.505093  0.744561  1
  Ti  Ti4  1  0.993850  0.004403  0.016013  1
  Ti  Ti5  1  0.494839  0.506962  0.987783  1
  Ti  Ti6  1  0.994698  0.018906  0.500814  1
  Ti  Ti7  1  0.495611  0.487805  0.508101  1
  N  N8  1  0.950032  0.046627  0.244933  1
  N  N9  1  0.750382  0.248046  0.548944  1
  N  N10  1  0.250636  0.249944  0.499846  1
  N  N11  1  0.452922  0.552332  0.753558  1
  O  O12  1  0.254139  0.245654  0.997186  1
  O  O13  1  0.752792  0.747587  0.997951  1
  O  O14  1  0.561248  0.445323  0.245516  1
  O  O15  1  0.252709  0.746281  0.055373  1
  O  O16  1  0.754606  0.746251  0.497105  1
  O  O17  1  0.255742  0.748615  0.441710  1
  O  O18  1  0.753752  0.246904  0.942296  1
  O  O19  1  0.058651  0.933923  0.748071  1
