# generated using pymatgen
data_NiP4O11
_symmetry_space_group_name_H-M   'P 1'
_cell_length_a   8.21310993
_cell_length_b   12.43007020
_cell_length_c   8.48241152
_cell_angle_alpha   90.00000000
_cell_angle_beta   96.56190383
_cell_angle_gamma   90.00000000
_symmetry_Int_Tables_number   1
_chemical_formula_structural   NiP4O11
_chemical_formula_sum   'Ni4 P16 O44'
_cell_volume   860.29246292
_cell_formula_units_Z   4
loop_
 _symmetry_equiv_pos_site_id
 _symmetry_equiv_pos_as_xyz
  1  'x, y, z'
loop_
 _atom_site_type_symbol
 _atom_site_label
 _atom_site_symmetry_multiplicity
 _atom_site_fract_x
 _atom_site_fract_y
 _atom_site_fract_z
 _atom_site_occupancy
  Ni  Ni0  1  0.228403  0.465670  0.735964  1
  Ni  Ni1  1  0.271597  0.965670  0.764036  1
  Ni  Ni2  1  0.728403  0.034330  0.235964  1
  Ni  Ni3  1  0.771597  0.534330  0.264036  1
  P  P4  1  0.106296  0.211850  0.604391  1
  P  P5  1  0.114336  0.165188  0.263991  1
  P  P6  1  0.177745  0.496186  0.342422  1
  P  P7  1  0.251485  0.847774  0.402511  1
  P  P8  1  0.248515  0.347774  0.097489  1
  P  P9  1  0.322255  0.996186  0.157578  1
  P  P10  1  0.393704  0.711850  0.895609  1
  P  P11  1  0.385664  0.665188  0.236009  1
  P  P12  1  0.614336  0.334812  0.763991  1
  P  P13  1  0.606296  0.288150  0.104391  1
  P  P14  1  0.677745  0.003814  0.842422  1
  P  P15  1  0.751485  0.652226  0.902511  1
  P  P16  1  0.748515  0.152226  0.597489  1
  P  P17  1  0.822255  0.503814  0.657578  1
  P  P18  1  0.885664  0.834812  0.736009  1
  P  P19  1  0.893704  0.788150  0.395609  1
  O  O20  1  0.034829  0.899940  0.754635  1
  O  O21  1  0.002872  0.469362  0.295665  1
  O  O22  1  0.094985  0.780684  0.426244  1
  O  O23  1  0.158001  0.102696  0.657749  1
  O  O24  1  0.159562  0.310904  0.690490  1
  O  O25  1  0.186457  0.419222  0.966661  1
  O  O26  1  0.145787  0.232994  0.421225  1
  O  O27  1  0.117604  0.255282  0.128308  1
  O  O28  1  0.209125  0.905098  0.236426  1
  O  O29  1  0.219633  0.601315  0.236471  1
  O  O30  1  0.253696  0.512402  0.507813  1
  O  O31  1  0.246304  0.012402  0.992187  1
  O  O32  1  0.280367  0.101315  0.263529  1
  O  O33  1  0.313543  0.919222  0.533339  1
  O  O34  1  0.340438  0.810904  0.809510  1
  O  O35  1  0.290875  0.405098  0.263574  1
  O  O36  1  0.341999  0.602696  0.842251  1
  O  O37  1  0.382396  0.755282  0.371692  1
  O  O38  1  0.354213  0.732994  0.078774  1
  O  O39  1  0.405015  0.280684  0.073756  1
  O  O40  1  0.465171  0.399940  0.745365  1
  O  O41  1  0.502872  0.030638  0.795665  1
  O  O42  1  0.497128  0.969362  0.204335  1
  O  O43  1  0.534829  0.600060  0.254635  1
  O  O44  1  0.594985  0.719316  0.926244  1
  O  O45  1  0.645787  0.267006  0.921226  1
  O  O46  1  0.617604  0.244718  0.628308  1
  O  O47  1  0.658001  0.397304  0.157749  1
  O  O48  1  0.709125  0.594902  0.736426  1
  O  O49  1  0.659562  0.189096  0.190490  1
  O  O50  1  0.686457  0.080778  0.466661  1
  O  O51  1  0.719633  0.898685  0.736471  1
  O  O52  1  0.753696  0.987598  0.007813  1
  O  O53  1  0.746304  0.487598  0.492187  1
  O  O54  1  0.780367  0.398685  0.763529  1
  O  O55  1  0.790875  0.094902  0.763574  1
  O  O56  1  0.882396  0.744718  0.871692  1
  O  O57  1  0.854213  0.767006  0.578774  1
  O  O58  1  0.813543  0.580778  0.033339  1
  O  O59  1  0.840438  0.689096  0.309510  1
  O  O60  1  0.841999  0.897304  0.342251  1
  O  O61  1  0.905015  0.219316  0.573756  1
  O  O62  1  0.997128  0.530638  0.704335  1
  O  O63  1  0.965171  0.100060  0.245365  1
