# generated using pymatgen
data_Fe4OF7
_symmetry_space_group_name_H-M   'P 1'
_cell_length_a   4.81167535
_cell_length_b   10.14005681
_cell_length_c   6.52240471
_cell_angle_alpha   71.49583075
_cell_angle_beta   90.00000000
_cell_angle_gamma   90.00000000
_symmetry_Int_Tables_number   1
_chemical_formula_structural   Fe4OF7
_chemical_formula_sum   'Fe8 O2 F14'
_cell_volume   301.78000192
_cell_formula_units_Z   2
loop_
 _symmetry_equiv_pos_site_id
 _symmetry_equiv_pos_as_xyz
  1  'x, y, z'
loop_
 _atom_site_type_symbol
 _atom_site_label
 _atom_site_symmetry_multiplicity
 _atom_site_fract_x
 _atom_site_fract_y
 _atom_site_fract_z
 _atom_site_occupancy
  Fe  Fe0  1  0.484581  0.253758  0.627720  1
  Fe  Fe1  1  0.500238  0.745321  0.874599  1
  Fe  Fe2  1  0.520791  0.757552  0.373977  1
  Fe  Fe3  1  0.485993  0.260924  0.100318  1
  Fe  Fe4  1  0.984581  0.996242  0.497280  1
  Fe  Fe5  1  0.020791  0.492449  0.751023  1
  Fe  Fe6  1  0.985993  0.989076  0.024682  1
  Fe  Fe7  1  0.000238  0.504679  0.250401  1
  O  O8  1  0.810054  0.906739  0.283429  1
  O  O9  1  0.310054  0.343261  0.841571  1
  F  F10  1  0.802076  0.395894  0.545029  1
  F  F11  1  0.795728  0.394815  0.058273  1
  F  F12  1  0.796651  0.902549  0.816558  1
  F  F13  1  0.678813  0.156507  0.407586  1
  F  F14  1  0.698764  0.648617  0.171789  1
  F  F15  1  0.712553  0.150818  0.937498  1
  F  F16  1  0.713754  0.644513  0.679866  1
  F  F17  1  0.295728  0.855185  0.066727  1
  F  F18  1  0.302076  0.854106  0.579971  1
  F  F19  1  0.296651  0.347451  0.308442  1
  F  F20  1  0.198764  0.601383  0.953211  1
  F  F21  1  0.212553  0.099182  0.187502  1
  F  F22  1  0.213754  0.605487  0.445134  1
  F  F23  1  0.178813  0.093493  0.717414  1
