# generated using pymatgen
data_Li5Mn17(SiO16)2
_symmetry_space_group_name_H-M   'P 1'
_cell_length_a   8.63365292
_cell_length_b   8.42886241
_cell_length_c   8.34877140
_cell_angle_alpha   90.63866069
_cell_angle_beta   90.04809109
_cell_angle_gamma   90.34428091
_symmetry_Int_Tables_number   1
_chemical_formula_structural   Li5Mn17(SiO16)2
_chemical_formula_sum   'Li5 Mn17 Si2 O32'
_cell_volume   607.50676763
_cell_formula_units_Z   1
loop_
 _symmetry_equiv_pos_site_id
 _symmetry_equiv_pos_as_xyz
  1  'x, y, z'
loop_
 _atom_site_type_symbol
 _atom_site_label
 _atom_site_symmetry_multiplicity
 _atom_site_fract_x
 _atom_site_fract_y
 _atom_site_fract_z
 _atom_site_occupancy
  Li  Li0  1  0.000008  0.501495  0.505076  1
  Li  Li1  1  0.492016  0.498260  0.993573  1
  Li  Li2  1  0.498133  0.011698  0.503010  1
  Li  Li3  1  0.756418  0.246121  0.753935  1
  Li  Li4  1  0.002084  0.006760  0.997661  1
  Mn  Mn5  1  0.128759  0.873894  0.378766  1
  Mn  Mn6  1  0.136491  0.621974  0.116051  1
  Mn  Mn7  1  0.247985  0.747760  0.742119  1
  Mn  Mn8  1  0.242455  0.248226  0.251445  1
  Mn  Mn9  1  0.375696  0.363308  0.624032  1
  Mn  Mn10  1  0.364563  0.121622  0.873679  1
  Mn  Mn11  1  0.375286  0.626275  0.374298  1
  Mn  Mn12  1  0.366506  0.876878  0.125642  1
  Mn  Mn13  1  0.627252  0.370411  0.375432  1
  Mn  Mn14  1  0.626579  0.126079  0.126115  1
  Mn  Mn15  1  0.626242  0.621573  0.626748  1
  Mn  Mn16  1  0.626181  0.878087  0.873458  1
  Mn  Mn17  1  0.754265  0.746232  0.249871  1
  Mn  Mn18  1  0.877970  0.135682  0.382084  1
  Mn  Mn19  1  0.875216  0.375612  0.122917  1
  Mn  Mn20  1  0.877902  0.878500  0.633974  1
  Mn  Mn21  1  0.881664  0.623274  0.868840  1
  Si  Si22  1  0.113350  0.132051  0.636617  1
  Si  Si23  1  0.120680  0.370182  0.864175  1
  O  O24  1  0.107457  0.125953  0.414500  1
  O  O25  1  0.130407  0.578342  0.860753  1
  O  O26  1  0.134745  0.387430  0.084623  1
  O  O27  1  0.151806  0.633491  0.376947  1
  O  O28  1  0.107664  0.914579  0.634382  1
  O  O29  1  0.112392  0.155105  0.852951  1
  O  O30  1  0.115845  0.345187  0.646517  1
  O  O31  1  0.144943  0.855774  0.124591  1
  O  O32  1  0.325961  0.125429  0.636610  1
  O  O33  1  0.367074  0.646461  0.135967  1
  O  O34  1  0.353821  0.885693  0.355794  1
  O  O35  1  0.369760  0.102378  0.110001  1
  O  O36  1  0.340263  0.355794  0.856420  1
  O  O37  1  0.391257  0.607458  0.608809  1
  O  O38  1  0.400803  0.363451  0.392712  1
  O  O39  1  0.372832  0.890058  0.893805  1
  O  O40  1  0.622380  0.373279  0.603413  1
  O  O41  1  0.602098  0.886804  0.119565  1
  O  O42  1  0.617991  0.108975  0.894406  1
  O  O43  1  0.654535  0.883131  0.637619  1
  O  O44  1  0.607371  0.607566  0.386111  1
  O  O45  1  0.622015  0.358924  0.141815  1
  O  O46  1  0.645457  0.141318  0.363961  1
  O  O47  1  0.622820  0.644661  0.855119  1
  O  O48  1  0.849400  0.389606  0.356384  1
  O  O49  1  0.879537  0.855612  0.862834  1
  O  O50  1  0.861814  0.646258  0.635694  1
  O  O51  1  0.908235  0.385929  0.885809  1
  O  O52  1  0.882579  0.144790  0.149483  1
  O  O53  1  0.901701  0.872056  0.397189  1
  O  O54  1  0.901771  0.112850  0.619679  1
  O  O55  1  0.899569  0.613791  0.106107  1
