# generated using pymatgen
data_Na2MnO2
_symmetry_space_group_name_H-M   'P 1'
_cell_length_a   8.74701857
_cell_length_b   5.47800126
_cell_length_c   12.83719805
_cell_angle_alpha   90.00000000
_cell_angle_beta   89.17632038
_cell_angle_gamma   90.00000000
_symmetry_Int_Tables_number   1
_chemical_formula_structural   Na2MnO2
_chemical_formula_sum   'Na16 Mn8 O16'
_cell_volume   615.04591610
_cell_formula_units_Z   8
loop_
 _symmetry_equiv_pos_site_id
 _symmetry_equiv_pos_as_xyz
  1  'x, y, z'
loop_
 _atom_site_type_symbol
 _atom_site_label
 _atom_site_symmetry_multiplicity
 _atom_site_fract_x
 _atom_site_fract_y
 _atom_site_fract_z
 _atom_site_occupancy
  Na  Na0  1  0.120748  0.508975  0.236022  1
  Na  Na1  1  0.034663  0.071587  0.364925  1
  Na  Na2  1  0.178843  0.589726  0.956557  1
  Na  Na3  1  0.215607  0.507480  0.693083  1
  Na  Na4  1  0.284393  0.007480  0.806917  1
  Na  Na5  1  0.321157  0.089726  0.543443  1
  Na  Na6  1  0.465337  0.571587  0.135075  1
  Na  Na7  1  0.379252  0.008975  0.263978  1
  Na  Na8  1  0.620748  0.991025  0.736022  1
  Na  Na9  1  0.534663  0.428413  0.864925  1
  Na  Na10  1  0.678843  0.910274  0.456557  1
  Na  Na11  1  0.715607  0.992520  0.193083  1
  Na  Na12  1  0.784393  0.492520  0.306917  1
  Na  Na13  1  0.821157  0.410274  0.043443  1
  Na  Na14  1  0.965337  0.928413  0.635075  1
  Na  Na15  1  0.879252  0.491025  0.763978  1
  Mn  Mn16  1  0.037467  0.004793  0.111679  1
  Mn  Mn17  1  0.154974  0.543937  0.470893  1
  Mn  Mn18  1  0.345026  0.043937  0.029107  1
  Mn  Mn19  1  0.462533  0.504793  0.388321  1
  Mn  Mn20  1  0.537467  0.495207  0.611679  1
  Mn  Mn21  1  0.654974  0.956063  0.970893  1
  Mn  Mn22  1  0.845026  0.456063  0.529107  1
  Mn  Mn23  1  0.962533  0.995207  0.888321  1
  O  O24  1  0.044630  0.307307  0.580731  1
  O  O25  1  0.071975  0.764804  0.792151  1
  O  O26  1  0.141029  0.173856  0.969862  1
  O  O27  1  0.234185  0.801489  0.133300  1
  O  O28  1  0.265815  0.301489  0.366700  1
  O  O29  1  0.358971  0.673856  0.530138  1
  O  O30  1  0.544630  0.192693  0.080731  1
  O  O31  1  0.428025  0.264804  0.707849  1
  O  O32  1  0.571975  0.735196  0.292151  1
  O  O33  1  0.455370  0.807307  0.919269  1
  O  O34  1  0.641029  0.326144  0.469862  1
  O  O35  1  0.734185  0.698511  0.633300  1
  O  O36  1  0.765815  0.198511  0.866700  1
  O  O37  1  0.858971  0.826144  0.030138  1
  O  O38  1  0.928025  0.235196  0.207849  1
  O  O39  1  0.955370  0.692693  0.419269  1
