# generated using pymatgen
data_Li2VP2HO8
_symmetry_space_group_name_H-M   'P 1'
_cell_length_a   8.28487082
_cell_length_b   8.56928956
_cell_length_c   4.85357216
_cell_angle_alpha   101.67969503
_cell_angle_beta   107.11498185
_cell_angle_gamma   96.65536301
_symmetry_Int_Tables_number   1
_chemical_formula_structural   Li2VP2HO8
_chemical_formula_sum   'Li4 V2 P4 H2 O16'
_cell_volume   316.78456168
_cell_formula_units_Z   2
loop_
 _symmetry_equiv_pos_site_id
 _symmetry_equiv_pos_as_xyz
  1  'x, y, z'
loop_
 _atom_site_type_symbol
 _atom_site_label
 _atom_site_symmetry_multiplicity
 _atom_site_fract_x
 _atom_site_fract_y
 _atom_site_fract_z
 _atom_site_occupancy
  Li  Li0  1  0.131301  0.771102  0.237420  1
  Li  Li1  1  0.375071  0.614078  0.662137  1
  Li  Li2  1  0.624929  0.385922  0.337863  1
  Li  Li3  1  0.868699  0.228898  0.762580  1
  V  V4  1  0.185822  0.211352  0.408010  1
  V  V5  1  0.814178  0.788648  0.591990  1
  P  P6  1  0.235382  0.938727  0.852968  1
  P  P7  1  0.244497  0.424061  0.090595  1
  P  P8  1  0.755503  0.575939  0.909405  1
  P  P9  1  0.764618  0.061273  0.147032  1
  H  H10  1  0.444221  0.132869  0.887929  1
  H  H11  1  0.555779  0.867131  0.112071  1
  O  O12  1  0.067692  0.861382  0.594181  1
  O  O13  1  0.076085  0.313876  0.086433  1
  O  O14  1  0.198507  0.999809  0.147073  1
  O  O15  1  0.252221  0.405453  0.767423  1
  O  O16  1  0.366836  0.828186  0.892164  1
  O  O17  1  0.257935  0.600675  0.239552  1
  O  O18  1  0.315932  0.093346  0.757394  1
  O  O19  1  0.380428  0.346185  0.290155  1
  O  O20  1  0.619572  0.653815  0.709845  1
  O  O21  1  0.684068  0.906654  0.242606  1
  O  O22  1  0.742065  0.399325  0.760448  1
  O  O23  1  0.633164  0.171814  0.107836  1
  O  O24  1  0.747779  0.594547  0.232577  1
  O  O25  1  0.801493  0.000191  0.852927  1
  O  O26  1  0.923915  0.686124  0.913567  1
  O  O27  1  0.932308  0.138618  0.405819  1
