# generated using pymatgen
data_TiFe2Ni3(PO4)6
_symmetry_space_group_name_H-M   'P 1'
_cell_length_a   8.41873217
_cell_length_b   8.41873291
_cell_length_c   8.41873267
_cell_angle_alpha   61.86089611
_cell_angle_beta   61.86089899
_cell_angle_gamma   61.86089507
_symmetry_Int_Tables_number   1
_chemical_formula_structural   TiFe2Ni3(PO4)6
_chemical_formula_sum   'Ti1 Fe2 Ni3 P6 O24'
_cell_volume   439.49449737
_cell_formula_units_Z   1
loop_
 _symmetry_equiv_pos_site_id
 _symmetry_equiv_pos_as_xyz
  1  'x, y, z'
loop_
 _atom_site_type_symbol
 _atom_site_label
 _atom_site_symmetry_multiplicity
 _atom_site_fract_x
 _atom_site_fract_y
 _atom_site_fract_z
 _atom_site_occupancy
  Ti  Ti0  1  0.852953  0.852953  0.852953  1
  Fe  Fe1  1  0.002252  0.002252  0.002252  1
  Fe  Fe2  1  0.501116  0.501116  0.501116  1
  Ni  Ni3  1  0.144775  0.144775  0.144775  1
  Ni  Ni4  1  0.357672  0.357672  0.357672  1
  Ni  Ni5  1  0.643086  0.643086  0.643086  1
  P  P6  1  0.250889  0.549979  0.948637  1
  P  P7  1  0.549979  0.948637  0.250889  1
  P  P8  1  0.948637  0.250889  0.549979  1
  P  P9  1  0.048925  0.748550  0.449451  1
  P  P10  1  0.449451  0.048925  0.748550  1
  P  P11  1  0.748550  0.449451  0.048925  1
  O  O12  1  0.100752  0.325667  0.512195  1
  O  O13  1  0.325667  0.512195  0.100752  1
  O  O14  1  0.061988  0.903733  0.250363  1
  O  O15  1  0.512195  0.100752  0.325667  1
  O  O16  1  0.984629  0.831756  0.609316  1
  O  O17  1  0.251170  0.601797  0.446485  1
  O  O18  1  0.250363  0.061988  0.903733  1
  O  O19  1  0.446485  0.251170  0.601797  1
  O  O20  1  0.173541  0.397776  0.997743  1
  O  O21  1  0.601797  0.446485  0.251170  1
  O  O22  1  0.093831  0.755249  0.930039  1
  O  O23  1  0.397776  0.997743  0.173541  1
  O  O24  1  0.609316  0.984629  0.831756  1
  O  O25  1  0.903733  0.250363  0.061988  1
  O  O26  1  0.399366  0.568429  0.744524  1
  O  O27  1  0.831756  0.609316  0.984629  1
  O  O28  1  0.568429  0.744524  0.399366  1
  O  O29  1  0.755249  0.930039  0.093831  1
  O  O30  1  0.744524  0.399366  0.568429  1
  O  O31  1  0.997743  0.173541  0.397776  1
  O  O32  1  0.495626  0.903883  0.661853  1
  O  O33  1  0.930039  0.093831  0.755249  1
  O  O34  1  0.661853  0.495626  0.903883  1
  O  O35  1  0.903883  0.661853  0.495626  1
