# generated using pymatgen
data_Nb8Tl8O25
_symmetry_space_group_name_H-M   'P 1'
_cell_length_a   7.64763075
_cell_length_b   7.64763075
_cell_length_c   13.23486096
_cell_angle_alpha   89.99777877
_cell_angle_beta   73.19807412
_cell_angle_gamma   119.97906744
_symmetry_Int_Tables_number   1
_chemical_formula_structural   Nb8Tl8O25
_chemical_formula_sum   'Nb8 Tl8 O25'
_cell_volume   632.05342204
_cell_formula_units_Z   1
loop_
 _symmetry_equiv_pos_site_id
 _symmetry_equiv_pos_as_xyz
  1  'x, y, z'
loop_
 _atom_site_type_symbol
 _atom_site_label
 _atom_site_symmetry_multiplicity
 _atom_site_fract_x
 _atom_site_fract_y
 _atom_site_fract_z
 _atom_site_occupancy
  Nb  Nb0  1  0.000060  0.000597  0.999864  1
  Nb  Nb1  1  0.499465  0.000167  0.499904  1
  Nb  Nb2  1  0.499540  0.500076  0.999864  1
  Nb  Nb3  1  0.999843  0.000340  0.499817  1
  Nb  Nb4  1  0.999945  0.500360  0.999695  1
  Nb  Nb5  1  0.999746  0.250144  0.250110  1
  Nb  Nb6  1  0.999929  0.500630  0.499904  1
  Nb  Nb7  1  0.000489  0.750423  0.749088  1
  Tl  Tl8  1  0.494233  0.228695  0.244851  1
  Tl  Tl9  1  0.007626  0.253784  0.749312  1
  Tl  Tl10  1  0.496742  0.253740  0.749518  1
  Tl  Tl11  1  0.498861  0.998447  0.002692  1
  Tl  Tl12  1  0.510856  0.734625  0.254520  1
  Tl  Tl13  1  0.491825  0.495341  0.512835  1
  Tl  Tl14  1  0.026456  0.760917  0.244851  1
  Tl  Tl15  1  0.496904  0.743062  0.749312  1
  O  O16  1  0.940394  0.033957  0.155173  1
  O  O17  1  0.938026  0.406155  0.155818  1
  O  O18  1  0.689558  0.409075  0.029925  1
  O  O19  1  0.688708  0.093334  0.344415  1
  O  O20  1  0.688876  0.279803  0.531321  1
  O  O21  1  0.688362  0.780704  0.030934  1
  O  O22  1  0.938265  0.219227  0.968831  1
  O  O23  1  0.310871  0.404434  0.155173  1
  O  O24  1  0.310913  0.091273  0.469449  1
  O  O25  1  0.624637  0.062285  0.813077  1
  O  O26  1  0.937871  0.532207  0.656402  1
  O  O27  1  0.939277  0.719638  0.469449  1
  O  O28  1  0.059945  0.095004  0.345051  1
  O  O29  1  0.937950  0.905660  0.656390  1
  O  O30  1  0.688602  0.594413  0.844380  1
  O  O31  1  0.061000  0.780517  0.029925  1
  O  O32  1  0.062250  0.466876  0.344415  1
  O  O33  1  0.688764  0.909044  0.531452  1
  O  O34  1  0.059503  0.279784  0.531452  1
  O  O35  1  0.312118  0.219078  0.968805  1
  O  O36  1  0.310002  0.719684  0.470314  1
  O  O37  1  0.311391  0.905727  0.656402  1
  O  O38  1  0.311942  0.592904  0.968831  1
  O  O39  1  0.061488  0.594193  0.844319  1
  O  O40  1  0.061206  0.967017  0.844380  1
