# generated using pymatgen
data_Fe4O3F5
_symmetry_space_group_name_H-M   'P 1'
_cell_length_a   4.80824265
_cell_length_b   10.05267077
_cell_length_c   6.21232522
_cell_angle_alpha   72.17488980
_cell_angle_beta   90.14093872
_cell_angle_gamma   87.33918202
_symmetry_Int_Tables_number   1
_chemical_formula_structural   Fe4O3F5
_chemical_formula_sum   'Fe8 O6 F10'
_cell_volume   285.51018824
_cell_formula_units_Z   2
loop_
 _symmetry_equiv_pos_site_id
 _symmetry_equiv_pos_as_xyz
  1  'x, y, z'
loop_
 _atom_site_type_symbol
 _atom_site_label
 _atom_site_symmetry_multiplicity
 _atom_site_fract_x
 _atom_site_fract_y
 _atom_site_fract_z
 _atom_site_occupancy
  Fe  Fe0  1  0.478109  0.255291  0.626336  1
  Fe  Fe1  1  0.505432  0.744903  0.882272  1
  Fe  Fe2  1  0.534172  0.761036  0.363794  1
  Fe  Fe3  1  0.484651  0.260060  0.116160  1
  Fe  Fe4  1  0.021758  0.975010  0.500997  1
  Fe  Fe5  1  0.015873  0.494574  0.749159  1
  Fe  Fe6  1  0.955570  0.009352  0.005812  1
  Fe  Fe7  1  -0.000198  0.503443  0.252238  1
  O  O8  1  0.809114  0.907759  0.295614  1
  O  O9  1  0.707789  0.652359  0.184378  1
  O  O10  1  0.684263  0.156737  0.920396  1
  O  O11  1  0.317106  0.841240  0.572040  1
  O  O12  1  0.307910  0.344485  0.827981  1
  O  O13  1  0.296761  0.346658  0.327710  1
  F  F14  1  0.802675  0.397399  0.540569  1
  F  F15  1  0.798233  0.401250  0.061047  1
  F  F16  1  0.819608  0.905012  0.796995  1
  F  F17  1  0.695560  0.146878  0.428772  1
  F  F18  1  0.707285  0.647543  0.661424  1
  F  F19  1  0.292785  0.862207  0.079486  1
  F  F20  1  0.187638  0.595171  0.962716  1
  F  F21  1  0.187304  0.099176  0.204379  1
  F  F22  1  0.208362  0.601566  0.438804  1
  F  F23  1  0.182239  0.090890  0.700920  1
