# generated using pymatgen
data_Li2Ni(PO3)4
_symmetry_space_group_name_H-M   'P 1'
_cell_length_a   9.30633171
_cell_length_b   9.32088682
_cell_length_c   4.63260221
_cell_angle_alpha   90.85707955
_cell_angle_beta   89.31318679
_cell_angle_gamma   89.98908137
_symmetry_Int_Tables_number   1
_chemical_formula_structural   Li2Ni(PO3)4
_chemical_formula_sum   'Li4 Ni2 P8 O24'
_cell_volume   401.77318486
_cell_formula_units_Z   2
loop_
 _symmetry_equiv_pos_site_id
 _symmetry_equiv_pos_as_xyz
  1  'x, y, z'
loop_
 _atom_site_type_symbol
 _atom_site_label
 _atom_site_symmetry_multiplicity
 _atom_site_fract_x
 _atom_site_fract_y
 _atom_site_fract_z
 _atom_site_occupancy
  Li  Li0  1  0.003072  0.998184  0.499460  1
  Li  Li1  1  0.996705  0.503513  0.499892  1
  Li  Li2  1  0.501796  0.498988  0.500285  1
  Li  Li3  1  0.496093  0.002577  0.500124  1
  Ni  Ni4  1  0.220865  0.252496  0.498987  1
  Ni  Ni5  1  0.756011  0.778902  0.498211  1
  P  P6  1  0.026072  0.748015  0.002374  1
  P  P7  1  0.252277  0.525002  0.996019  1
  P  P8  1  0.252272  0.973690  0.003597  1
  P  P9  1  0.475339  0.747886  0.996840  1
  P  P10  1  0.525212  0.250658  0.002361  1
  P  P11  1  0.749087  0.026308  0.998030  1
  P  P12  1  0.748598  0.474275  0.003199  1
  P  P13  1  0.973740  0.250381  0.998563  1
  O  O14  1  0.050455  0.320841  0.246386  1
  O  O15  1  0.052982  0.176559  0.753526  1
  O  O16  1  0.134328  0.864902  0.859717  1
  O  O17  1  0.135099  0.634496  0.147262  1
  O  O18  1  0.179052  0.446736  0.752274  1
  O  O19  1  0.178758  0.052439  0.249863  1
  O  O20  1  0.322459  0.451293  0.240626  1
  O  O21  1  0.323123  0.047101  0.756599  1
  O  O22  1  0.364907  0.863905  0.149253  1
  O  O23  1  0.363938  0.635537  0.843019  1
  O  O24  1  0.450792  0.176381  0.244696  1
  O  O25  1  0.452818  0.320731  0.756631  1
  O  O26  1  0.548229  0.676764  0.240900  1
  O  O27  1  0.553493  0.820293  0.753312  1
  O  O28  1  0.637691  0.132805  0.850684  1
  O  O29  1  0.637243  0.362367  0.154101  1
  O  O30  1  0.678345  0.545467  0.757021  1
  O  O31  1  0.679315  0.949408  0.245231  1
  O  O32  1  0.823941  0.947756  0.753091  1
  O  O33  1  0.823193  0.549716  0.245483  1
  O  O34  1  0.866995  0.133033  0.144220  1
  O  O35  1  0.867327  0.362262  0.852595  1
  O  O36  1  0.950727  0.677346  0.755707  1
  O  O37  1  0.947709  0.821050  0.249867  1
