# generated using pymatgen
data_Li3V3P8O29
_symmetry_space_group_name_H-M   'P 1'
_cell_length_a   9.77811449
_cell_length_b   9.73380525
_cell_length_c   14.21764155
_cell_angle_alpha   89.80882933
_cell_angle_beta   90.32316880
_cell_angle_gamma   60.06603724
_symmetry_Int_Tables_number   1
_chemical_formula_structural   Li3V3P8O29
_chemical_formula_sum   'Li6 V6 P16 O58'
_cell_volume   1172.64545466
_cell_formula_units_Z   2
loop_
 _symmetry_equiv_pos_site_id
 _symmetry_equiv_pos_as_xyz
  1  'x, y, z'
loop_
 _atom_site_type_symbol
 _atom_site_label
 _atom_site_symmetry_multiplicity
 _atom_site_fract_x
 _atom_site_fract_y
 _atom_site_fract_z
 _atom_site_occupancy
  Li  Li0  1  0.318881  0.911305  0.065298  1
  Li  Li1  1  0.667853  0.235329  0.439896  1
  Li  Li2  1  0.325935  0.769142  0.554198  1
  Li  Li3  1  0.218766  0.689027  0.950487  1
  Li  Li4  1  0.080220  0.227961  0.940788  1
  Li  Li5  1  0.005558  0.002256  0.492379  1
  V  V6  1  0.570525  0.430811  0.244047  1
  V  V7  1  0.438063  0.560930  0.751384  1
  V  V8  1  0.569326  0.996349  0.751795  1
  V  V9  1  0.436794  0.008587  0.255343  1
  V  V10  1  0.000848  0.563406  0.255320  1
  V  V11  1  0.996726  0.440080  0.740980  1
  P  P12  1  0.916619  0.770731  0.839986  1
  P  P13  1  0.781872  0.916614  0.338174  1
  P  P14  1  0.917714  0.299248  0.340527  1
  P  P15  1  0.665109  0.672113  0.131811  1
  P  P16  1  0.659380  0.670983  0.632472  1
  P  P17  1  0.777352  0.312203  0.840294  1
  P  P18  1  0.687290  0.224196  0.658740  1
  P  P19  1  0.319501  0.910647  0.846044  1
  P  P20  1  0.688670  0.082234  0.151841  1
  P  P21  1  0.318895  0.771931  0.340480  1
  P  P22  1  0.225437  0.681819  0.162975  1
  P  P23  1  0.336830  0.336751  0.369953  1
  P  P24  1  0.329227  0.332412  0.866568  1
  P  P25  1  0.084951  0.698476  0.655750  1
  P  P26  1  0.224076  0.082247  0.662578  1
  P  P27  1  0.087789  0.229948  0.157798  1
  O  O28  1  0.012788  0.793738  0.569779  1
  O  O29  1  0.913944  0.740591  0.335498  1
  O  O30  1  0.758607  0.006125  0.062883  1
  O  O31  1  0.744640  0.911322  0.834107  1
  O  O32  1  0.910159  0.616810  0.818613  1
  O  O33  1  0.814906  0.659289  0.181514  1
  O  O34  1  0.925360  0.455565  0.332843  1
  O  O35  1  0.013309  0.237938  0.065534  1
  O  O36  1  0.920126  0.341041  0.834859  1
  O  O37  1  0.668357  0.812450  0.677776  1
  O  O38  1  0.619739  0.921211  0.330314  1
  O  O39  1  0.808319  0.517616  0.674239  1
  O  O40  1  0.664296  0.663753  0.027957  1
  O  O41  1  0.647736  0.673642  0.528518  1
  O  O42  1  0.657819  0.524077  0.177381  1
  O  O43  1  0.478973  0.900987  0.825495  1
  O  O44  1  0.516515  0.821562  0.170986  1
  O  O45  1  0.740743  0.341916  0.334543  1
  O  O46  1  0.799503  0.210448  0.744702  1
  O  O47  1  0.758318  0.221239  0.566292  1
  O  O48  1  0.765218  0.236093  0.926314  1
  O  O49  1  0.621337  0.475183  0.818444  1
  O  O50  1  0.506496  0.676379  0.675241  1
  O  O51  1  0.656054  0.256204  0.167018  1
  O  O52  1  0.471494  0.612946  0.326898  1
  O  O53  1  0.354114  0.909963  0.328210  1
  O  O54  1  0.801481  0.991021  0.241802  1
  O  O55  1  0.794522  0.006144  0.419301  1
  O  O56  1  0.205732  0.993362  0.583115  1
  O  O57  1  0.656337  0.084148  0.671734  1
  O  O58  1  0.527856  0.381804  0.675977  1
  O  O59  1  0.338762  0.742218  0.842929  1
  O  O60  1  0.490557  0.327578  0.330132  1
  O  O61  1  0.379075  0.519853  0.178863  1
  O  O62  1  0.239016  0.759303  0.074778  1
  O  O63  1  0.233649  0.789635  0.430124  1
  O  O64  1  0.206061  0.792867  0.251384  1
  O  O65  1  0.261243  0.656572  0.665640  1
  O  O66  1  0.472915  0.183039  0.821492  1
  O  O67  1  0.528328  0.090838  0.177743  1
  O  O68  1  0.333038  0.482688  0.825004  1
  O  O69  1  0.326348  0.335478  0.970710  1
  O  O70  1  0.341212  0.328193  0.474086  1
  O  O71  1  0.188967  0.485809  0.326269  1
  O  O72  1  0.384992  0.075349  0.671060  1
  O  O73  1  0.331190  0.189964  0.323544  1
  O  O74  1  0.082444  0.656904  0.166861  1
  O  O75  1  0.001856  0.796265  0.749512  1
  O  O76  1  0.006361  0.759849  0.926144  1
  O  O77  1  0.079340  0.540235  0.667678  1
  O  O78  1  0.180026  0.336302  0.822125  1
  O  O79  1  0.094439  0.382395  0.181487  1
  O  O80  1  0.257760  0.084269  0.165461  1
  O  O81  1  0.246431  0.995361  0.935932  1
  O  O82  1  0.202569  0.008406  0.760714  1
  O  O83  1  0.088860  0.258054  0.665945  1
  O  O84  1  0.995304  0.193585  0.422302  1
  O  O85  1  0.991665  0.208413  0.242389  1
