# generated using pymatgen
data_Li4Cr3Ni2Sb3O16
_symmetry_space_group_name_H-M   'P 1'
_cell_length_a   6.08258066
_cell_length_b   6.10587453
_cell_length_c   9.79254720
_cell_angle_alpha   89.99950812
_cell_angle_beta   89.38438926
_cell_angle_gamma   120.12627536
_symmetry_Int_Tables_number   1
_chemical_formula_structural   Li4Cr3Ni2Sb3O16
_chemical_formula_sum   'Li4 Cr3 Ni2 Sb3 O16'
_cell_volume   314.53899961
_cell_formula_units_Z   1
loop_
 _symmetry_equiv_pos_site_id
 _symmetry_equiv_pos_as_xyz
  1  'x, y, z'
loop_
 _atom_site_type_symbol
 _atom_site_label
 _atom_site_symmetry_multiplicity
 _atom_site_fract_x
 _atom_site_fract_y
 _atom_site_fract_z
 _atom_site_occupancy
  Li  Li0  1  0.341054  0.670540  0.901644  1
  Li  Li1  1  0.021558  0.010782  0.006591  1
  Li  Li2  1  0.026284  0.013152  0.490461  1
  Li  Li3  1  0.670772  0.335398  0.370490  1
  Cr  Cr4  1  0.166734  0.829856  0.215024  1
  Cr  Cr5  1  0.166733  0.336896  0.215025  1
  Cr  Cr6  1  0.336369  0.168188  0.716550  1
  Ni  Ni7  1  0.310556  0.655309  0.473175  1
  Ni  Ni8  1  0.655300  0.327604  0.010870  1
  Sb  Sb9  1  0.658517  0.829258  0.214679  1
  Sb  Sb10  1  0.830100  0.662053  0.715785  1
  Sb  Sb11  1  0.830109  0.168086  0.715779  1
  O  O12  1  0.150572  0.838584  0.606227  1
  O  O13  1  0.031935  0.515980  0.332290  1
  O  O14  1  0.335472  0.667751  0.104680  1
  O  O15  1  0.994361  0.997196  0.311720  1
  O  O16  1  0.998584  0.999307  0.820334  1
  O  O17  1  0.150561  0.312014  0.606213  1
  O  O18  1  0.482838  0.963437  0.336555  1
  O  O19  1  0.482825  0.519414  0.336556  1
  O  O20  1  0.319806  0.159916  0.105822  1
  O  O21  1  0.689233  0.844642  0.603181  1
  O  O22  1  0.519379  0.486528  0.830088  1
  O  O23  1  0.519390  0.032898  0.830102  1
  O  O24  1  0.667210  0.333629  0.602854  1
  O  O25  1  0.836132  0.683543  0.101271  1
  O  O26  1  0.971491  0.485752  0.832605  1
  O  O27  1  0.836128  0.152584  0.101268  1
