# generated using pymatgen
data_Sr2CaI6
_symmetry_space_group_name_H-M   'P 1'
_cell_length_a   7.65183654
_cell_length_b   13.26549464
_cell_length_c   8.77113877
_cell_angle_alpha   100.90729401
_cell_angle_beta   90.06139497
_cell_angle_gamma   73.25110991
_symmetry_Int_Tables_number   1
_chemical_formula_structural   Sr2CaI6
_chemical_formula_sum   'Sr4 Ca2 I12'
_cell_volume   835.79228888
_cell_formula_units_Z   2
loop_
 _symmetry_equiv_pos_site_id
 _symmetry_equiv_pos_as_xyz
  1  'x, y, z'
loop_
 _atom_site_type_symbol
 _atom_site_label
 _atom_site_symmetry_multiplicity
 _atom_site_fract_x
 _atom_site_fract_y
 _atom_site_fract_z
 _atom_site_occupancy
  Sr  Sr0  1  0.388650  0.665630  0.862232  1
  Sr  Sr1  1  0.942571  0.666718  0.362326  1
  Sr  Sr2  1  0.054782  0.333921  0.636952  1
  Sr  Sr3  1  0.611557  0.333577  0.137047  1
  Ca  Ca4  1  0.670122  0.999423  0.751990  1
  Ca  Ca5  1  0.326679  0.999788  0.251103  1
  I  I6  1  0.597420  0.847134  0.969249  1
  I  I7  1  0.551326  0.846522  0.468718  1
  I  I8  1  0.062135  0.817569  0.669957  1
  I  I9  1  0.118163  0.816319  0.168735  1
  I  I10  1  0.730302  0.547126  0.594241  1
  I  I11  1  0.717834  0.547818  0.095339  1
  I  I12  1  0.278520  0.452612  0.905377  1
  I  I13  1  0.263394  0.450642  0.401607  1
  I  I14  1  0.882071  0.182290  0.830754  1
  I  I15  1  0.934238  0.181835  0.330982  1
  I  I16  1  0.445399  0.152521  0.534822  1
  I  I17  1  0.400477  0.152973  0.034428  1
