# generated using pymatgen
data_Li2SbPCO7
_symmetry_space_group_name_H-M   'P 1'
_cell_length_a   8.84518325
_cell_length_b   5.14644211
_cell_length_c   6.98902934
_cell_angle_alpha   90.00000000
_cell_angle_beta   90.00000000
_cell_angle_gamma   83.14201349
_symmetry_Int_Tables_number   1
_chemical_formula_structural   Li2SbPCO7
_chemical_formula_sum   'Li4 Sb2 P2 C2 O14'
_cell_volume   315.87286309
_cell_formula_units_Z   2
loop_
 _symmetry_equiv_pos_site_id
 _symmetry_equiv_pos_as_xyz
  1  'x, y, z'
loop_
 _atom_site_type_symbol
 _atom_site_label
 _atom_site_symmetry_multiplicity
 _atom_site_fract_x
 _atom_site_fract_y
 _atom_site_fract_z
 _atom_site_occupancy
  Li  Li0  1  0.096520  0.769198  0.251286  1
  Li  Li1  1  0.276582  0.245845  0.066226  1
  Li  Li2  1  0.723418  0.754155  0.566226  1
  Li  Li3  1  0.903480  0.230802  0.751286  1
  Sb  Sb4  1  0.326243  0.790151  0.733133  1
  Sb  Sb5  1  0.673757  0.209849  0.233133  1
  P  P6  1  0.405282  0.716218  0.248713  1
  P  P7  1  0.594718  0.283782  0.748713  1
  C  C8  1  0.031415  0.684777  0.744166  1
  C  C9  1  0.968585  0.315223  0.244166  1
  O  O10  1  0.058175  0.930540  0.736324  1
  O  O11  1  0.098902  0.387209  0.211951  1
  O  O12  1  0.149113  0.510343  0.782495  1
  O  O13  1  0.311079  0.859816  0.084464  1
  O  O14  1  0.295084  0.761198  0.426206  1
  O  O15  1  0.437781  0.191617  0.785651  1
  O  O16  1  0.431839  0.416576  0.201371  1
  O  O17  1  0.568161  0.583424  0.701371  1
  O  O18  1  0.562219  0.808383  0.285651  1
  O  O19  1  0.704916  0.238802  0.926206  1
  O  O20  1  0.688921  0.140184  0.584464  1
  O  O21  1  0.850887  0.489657  0.282495  1
  O  O22  1  0.901098  0.612791  0.711951  1
  O  O23  1  0.941825  0.069460  0.236324  1
