# generated using pymatgen
data_Na2LiMnPCO7
_symmetry_space_group_name_H-M   'P 1'
_cell_length_a   8.86920465
_cell_length_b   6.77743446
_cell_length_c   10.23184952
_cell_angle_alpha   90.04826086
_cell_angle_beta   89.12510483
_cell_angle_gamma   90.09284419
_symmetry_Int_Tables_number   1
_chemical_formula_structural   Na2LiMnPCO7
_chemical_formula_sum   'Na8 Li4 Mn4 P4 C4 O28'
_cell_volume   614.96839757
_cell_formula_units_Z   4
loop_
 _symmetry_equiv_pos_site_id
 _symmetry_equiv_pos_as_xyz
  1  'x, y, z'
loop_
 _atom_site_type_symbol
 _atom_site_label
 _atom_site_symmetry_multiplicity
 _atom_site_fract_x
 _atom_site_fract_y
 _atom_site_fract_z
 _atom_site_occupancy
  Na  Na0  1  0.084059  0.249421  0.879450  1
  Na  Na1  1  0.082257  0.255994  0.378345  1
  Na  Na2  1  0.256527  0.999421  0.623457  1
  Na  Na3  1  0.256029  0.500667  0.623617  1
  Na  Na4  1  0.255147  0.000136  0.125948  1
  Na  Na5  1  0.745141  0.501812  0.874831  1
  Na  Na6  1  0.744245  0.501724  0.377130  1
  Na  Na7  1  0.744693  0.999260  0.376623  1
  Li  Li8  1  0.273643  0.476807  0.116058  1
  Li  Li9  1  0.728776  0.979415  0.884111  1
  Li  Li10  1  0.909638  0.757618  0.627049  1
  Li  Li11  1  0.911811  0.745734  0.124641  1
  Mn  Mn12  1  0.359616  0.745550  0.889732  1
  Mn  Mn13  1  0.362148  0.749078  0.387226  1
  Mn  Mn14  1  0.641895  0.248711  0.612794  1
  Mn  Mn15  1  0.643567  0.245900  0.110137  1
  P  P16  1  0.413662  0.243107  0.854260  1
  P  P17  1  0.408673  0.254558  0.350300  1
  P  P18  1  0.597405  0.754345  0.650384  1
  P  P19  1  0.592264  0.744217  0.145981  1
  C  C20  1  0.044556  0.758930  0.868151  1
  C  C21  1  0.052008  0.749003  0.363951  1
  C  C22  1  0.941670  0.248947  0.634096  1
  C  C23  1  0.947220  0.258657  0.131117  1
  O  O24  1  0.086327  0.248760  0.644809  1
  O  O25  1  0.092505  0.276504  0.140175  1
  O  O26  1  0.085898  0.752706  0.989069  1
  O  O27  1  0.089425  0.750395  0.486879  1
  O  O28  1  0.145915  0.743959  0.773990  1
  O  O29  1  0.155668  0.746692  0.272217  1
  O  O30  1  0.316785  0.061157  0.895352  1
  O  O31  1  0.326609  0.428541  0.905335  1
  O  O32  1  0.316483  0.066660  0.387796  1
  O  O33  1  0.316564  0.434752  0.400230  1
  O  O34  1  0.425757  0.251522  0.701869  1
  O  O35  1  0.437690  0.750552  0.589622  1
  O  O36  1  0.423694  0.266762  0.197433  1
  O  O37  1  0.429979  0.732580  0.090023  1
  O  O38  1  0.576417  0.231920  0.907896  1
  O  O39  1  0.577386  0.766995  0.802564  1
  O  O40  1  0.569155  0.250584  0.408413  1
  O  O41  1  0.575855  0.752232  0.297936  1
  O  O42  1  0.692410  0.568213  0.614623  1
  O  O43  1  0.693559  0.932249  0.601994  1
  O  O44  1  0.691968  0.564221  0.106571  1
  O  O45  1  0.682033  0.928354  0.096393  1
  O  O46  1  0.854531  0.246956  0.737922  1
  O  O47  1  0.862342  0.246430  0.236687  1
  O  O48  1  0.880080  0.251405  0.519225  1
  O  O49  1  0.882940  0.251369  0.018455  1
  O  O50  1  0.903644  0.778589  0.836997  1
  O  O51  1  0.911733  0.749929  0.330133  1
