# generated using pymatgen
data_Li2Ti7Nb6O30
_symmetry_space_group_name_H-M   'P 1'
_cell_length_a   5.20405859
_cell_length_b   5.20399344
_cell_length_c   24.02098796
_cell_angle_alpha   90.00034711
_cell_angle_beta   90.00025533
_cell_angle_gamma   119.99992773
_symmetry_Int_Tables_number   1
_chemical_formula_structural   Li2Ti7Nb6O30
_chemical_formula_sum   'Li2 Ti7 Nb6 O30'
_cell_volume   563.37909931
_cell_formula_units_Z   1
loop_
 _symmetry_equiv_pos_site_id
 _symmetry_equiv_pos_as_xyz
  1  'x, y, z'
loop_
 _atom_site_type_symbol
 _atom_site_label
 _atom_site_symmetry_multiplicity
 _atom_site_fract_x
 _atom_site_fract_y
 _atom_site_fract_z
 _atom_site_occupancy
  Li  Li0  1  0.666662  0.333321  0.207713  1
  Li  Li1  1  0.666651  0.333311  0.474860  1
  Ti  Ti2  1  0.333333  0.666665  0.286018  1
  Ti  Ti3  1  0.333341  0.666691  0.884460  1
  Ti  Ti4  1  0.333302  0.666636  0.005538  1
  Ti  Ti5  1  0.333329  0.666649  0.696957  1
  Ti  Ti6  1  0.666676  0.333335  0.978295  1
  Ti  Ti7  1  0.666663  0.333338  0.718435  1
  Ti  Ti8  1  0.666676  0.333331  0.314567  1
  Nb  Nb9  1  0.333325  0.666640  0.412982  1
  Nb  Nb10  1  0.999979  0.999983  0.197843  1
  Nb  Nb11  1  0.999991  0.999969  0.505369  1
  Nb  Nb12  1  -0.000000  0.000015  0.804005  1
  Nb  Nb13  1  0.666618  0.333319  0.099425  1
  Nb  Nb14  1  0.666637  0.333311  0.597865  1
  O  O15  1  0.924861  0.662345  0.153479  1
  O  O16  1  0.020764  0.598394  0.346879  1
  O  O17  1  0.003714  0.670356  0.746527  1
  O  O18  1  0.300927  0.970574  0.450866  1
  O  O19  1  0.984131  0.394614  0.045928  1
  O  O20  1  0.410423  0.015827  0.045934  1
  O  O21  1  0.029394  0.330351  0.450868  1
  O  O22  1  0.329634  0.333384  0.746525  1
  O  O23  1  0.577666  0.979270  0.346880  1
  O  O24  1  0.337674  0.262533  0.153480  1
  O  O25  1  0.666614  0.996272  0.746527  1
  O  O26  1  0.401627  0.422350  0.346881  1
  O  O27  1  0.340402  0.278032  0.548070  1
  O  O28  1  0.737487  0.075147  0.153478  1
  O  O29  1  0.394344  0.418448  0.947832  1
  O  O30  1  0.605372  0.589562  0.045939  1
  O  O31  1  0.277905  0.943708  0.845552  1
  O  O32  1  0.669630  0.699051  0.450869  1
  O  O33  1  0.587691  0.574883  0.655051  1
  O  O34  1  0.339638  0.005986  0.252983  1
  O  O35  1  0.665801  0.722098  0.845552  1
  O  O36  1  0.425132  0.012821  0.655051  1
  O  O37  1  0.666362  0.660361  0.252983  1
  O  O38  1  0.937618  0.659601  0.548073  1
  O  O39  1  0.581537  0.975903  0.947826  1
  O  O40  1  0.024094  0.605644  0.947826  1
  O  O41  1  0.721978  0.062371  0.548070  1
  O  O42  1  0.994006  0.333653  0.252985  1
  O  O43  1  0.987199  0.412340  0.655051  1
  O  O44  1  0.056293  0.334207  0.845554  1
