# generated using pymatgen
data_LiInSiO4
_symmetry_space_group_name_H-M   'P 1'
_cell_length_a   4.91256945
_cell_length_b   6.15251891
_cell_length_c   10.64097129
_cell_angle_alpha   90.00000000
_cell_angle_beta   90.00000000
_cell_angle_gamma   90.00000000
_symmetry_Int_Tables_number   1
_chemical_formula_structural   LiInSiO4
_chemical_formula_sum   'Li4 In4 Si4 O16'
_cell_volume   321.61991422
_cell_formula_units_Z   4
loop_
 _symmetry_equiv_pos_site_id
 _symmetry_equiv_pos_as_xyz
  1  'x, y, z'
loop_
 _atom_site_type_symbol
 _atom_site_label
 _atom_site_symmetry_multiplicity
 _atom_site_fract_x
 _atom_site_fract_y
 _atom_site_fract_z
 _atom_site_occupancy
  Li  Li0  1  0.000000  0.000000  0.000000  1
  Li  Li1  1  0.500000  0.000000  0.500000  1
  Li  Li2  1  0.000000  0.500000  0.000000  1
  Li  Li3  1  0.500000  0.500000  0.500000  1
  O  O4  1  0.771721  0.542082  0.337165  1
  O  O5  1  0.228279  0.457918  0.662835  1
  O  O6  1  0.728279  0.542082  0.837165  1
  O  O7  1  0.771721  0.957918  0.337165  1
  O  O8  1  0.271721  0.042082  0.162835  1
  O  O9  1  0.754388  0.250000  0.097643  1
  O  O10  1  0.271721  0.457918  0.162835  1
  O  O11  1  0.228279  0.042082  0.662835  1
  O  O12  1  0.245612  0.750000  0.902357  1
  O  O13  1  0.745612  0.250000  0.597643  1
  O  O14  1  0.705270  0.750000  0.053198  1
  O  O15  1  0.254388  0.750000  0.402357  1
  O  O16  1  0.794730  0.750000  0.553198  1
  O  O17  1  0.205270  0.250000  0.446802  1
  O  O18  1  0.294730  0.250000  0.946802  1
  O  O19  1  0.728279  0.957918  0.837165  1
  Si  Si20  1  0.575750  0.750000  0.911215  1
  Si  Si21  1  0.924250  0.750000  0.411215  1
  Si  Si22  1  0.424250  0.250000  0.088785  1
  Si  Si23  1  0.075750  0.250000  0.588785  1
  In  In24  1  0.021235  0.750000  0.724286  1
  In  In25  1  0.478765  0.750000  0.224286  1
  In  In26  1  0.978765  0.250000  0.275714  1
  In  In27  1  0.521235  0.250000  0.775714  1
