# generated using pymatgen
data_BaLaCl5
_symmetry_space_group_name_H-M   'P 1'
_cell_length_a   10.02385400
_cell_length_b   15.77385479
_cell_length_c   10.53784348
_cell_angle_alpha   90.00000000
_cell_angle_beta   102.87294817
_cell_angle_gamma   90.00000000
_symmetry_Int_Tables_number   1
_chemical_formula_structural   BaLaCl5
_chemical_formula_sum   'Ba8 La8 Cl40'
_cell_volume   1624.31201809
_cell_formula_units_Z   8
loop_
 _symmetry_equiv_pos_site_id
 _symmetry_equiv_pos_as_xyz
  1  'x, y, z'
loop_
 _atom_site_type_symbol
 _atom_site_label
 _atom_site_symmetry_multiplicity
 _atom_site_fract_x
 _atom_site_fract_y
 _atom_site_fract_z
 _atom_site_occupancy
  Ba  Ba0  1  0.215959  0.029672  0.701264  1
  Ba  Ba1  1  0.284894  0.482819  0.674703  1
  Ba  Ba2  1  0.215959  0.470328  0.201264  1
  Ba  Ba3  1  0.284894  0.017181  0.174703  1
  Ba  Ba4  1  0.715106  0.982819  0.825297  1
  Ba  Ba5  1  0.784041  0.529672  0.798736  1
  Ba  Ba6  1  0.715106  0.517181  0.325297  1
  Ba  Ba7  1  0.784041  0.970328  0.298736  1
  La  La8  1  0.014504  0.765262  0.610928  1
  La  La9  1  0.014504  0.734738  0.110928  1
  La  La10  1  0.438094  0.742634  0.962144  1
  La  La11  1  0.438094  0.757366  0.462144  1
  La  La12  1  0.561906  0.242634  0.537856  1
  La  La13  1  0.561906  0.257366  0.037856  1
  La  La14  1  0.985496  0.265262  0.889072  1
  La  La15  1  0.985496  0.234738  0.389072  1
  Cl  Cl16  1  0.058053  0.084115  0.929393  1
  Cl  Cl17  1  0.084489  0.438319  0.877021  1
  Cl  Cl18  1  0.058053  0.415885  0.429393  1
  Cl  Cl19  1  0.077115  0.210708  0.666050  1
  Cl  Cl20  1  0.084489  0.061681  0.377021  1
  Cl  Cl21  1  0.195589  0.852995  0.854700  1
  Cl  Cl22  1  0.077115  0.289292  0.166050  1
  Cl  Cl23  1  0.275690  0.257063  0.966816  1
  Cl  Cl24  1  0.195589  0.647005  0.354700  1
  Cl  Cl25  1  0.219568  0.865664  0.518049  1
  Cl  Cl26  1  0.268645  0.678936  0.696044  1
  Cl  Cl27  1  0.275690  0.242937  0.466816  1
  Cl  Cl28  1  0.219568  0.634336  0.018049  1
  Cl  Cl29  1  0.268645  0.821064  0.196044  1
  Cl  Cl30  1  0.477098  0.327638  0.760527  1
  Cl  Cl31  1  0.470856  0.091849  0.935078  1
  Cl  Cl32  1  0.521765  0.576546  0.895841  1
  Cl  Cl33  1  0.478235  0.076546  0.604159  1
  Cl  Cl34  1  0.529144  0.591849  0.564922  1
  Cl  Cl35  1  0.522902  0.827638  0.739473  1
  Cl  Cl36  1  0.477098  0.172362  0.260527  1
  Cl  Cl37  1  0.470856  0.408151  0.435078  1
  Cl  Cl38  1  0.521765  0.923454  0.395841  1
  Cl  Cl39  1  0.478235  0.423454  0.104159  1
  Cl  Cl40  1  0.529144  0.908151  0.064922  1
  Cl  Cl41  1  0.522902  0.672362  0.239473  1
  Cl  Cl42  1  0.731355  0.178936  0.803956  1
  Cl  Cl43  1  0.780432  0.365664  0.981951  1
  Cl  Cl44  1  0.724310  0.757063  0.533184  1
  Cl  Cl45  1  0.731355  0.321064  0.303956  1
  Cl  Cl46  1  0.780432  0.134336  0.481951  1
  Cl  Cl47  1  0.804411  0.352995  0.645300  1
  Cl  Cl48  1  0.724310  0.742937  0.033184  1
  Cl  Cl49  1  0.922885  0.710708  0.833950  1
  Cl  Cl50  1  0.804411  0.147005  0.145300  1
  Cl  Cl51  1  0.915511  0.938319  0.622979  1
  Cl  Cl52  1  0.922885  0.789292  0.333950  1
  Cl  Cl53  1  0.941947  0.584115  0.570607  1
  Cl  Cl54  1  0.915511  0.561681  0.122979  1
  Cl  Cl55  1  0.941947  0.915885  0.070607  1
