# generated using pymatgen
data_LiCuF4
_symmetry_space_group_name_H-M   'P 1'
_cell_length_a   3.76505876
_cell_length_b   7.69383388
_cell_length_c   5.12850738
_cell_angle_alpha   89.98764483
_cell_angle_beta   90.02828711
_cell_angle_gamma   75.83342799
_symmetry_Int_Tables_number   1
_chemical_formula_structural   LiCuF4
_chemical_formula_sum   'Li2 Cu2 F8'
_cell_volume   144.04322540
_cell_formula_units_Z   2
loop_
 _symmetry_equiv_pos_site_id
 _symmetry_equiv_pos_as_xyz
  1  'x, y, z'
loop_
 _atom_site_type_symbol
 _atom_site_label
 _atom_site_symmetry_multiplicity
 _atom_site_fract_x
 _atom_site_fract_y
 _atom_site_fract_z
 _atom_site_occupancy
  Li  Li0  1  0.188746  0.621358  0.539434  1
  Li  Li1  1  0.810660  0.378665  0.039593  1
  Cu  Cu2  1  0.409522  0.180811  0.529746  1
  Cu  Cu3  1  0.590422  0.819361  0.030184  1
  F  F4  1  0.341979  0.315413  0.218947  1
  F  F5  1  0.477660  0.044616  0.843527  1
  F  F6  1  0.093131  0.813834  0.031351  1
  F  F7  1  0.302074  0.396286  0.729678  1
  F  F8  1  0.522491  0.955316  0.343545  1
  F  F9  1  0.906992  0.186115  0.531135  1
  F  F10  1  0.698564  0.603718  0.230071  1
  F  F11  1  0.657759  0.684508  0.718987  1
