# generated using pymatgen
data_CsUCuSe3
_symmetry_space_group_name_H-M   'P 1'
_cell_length_a   4.14654443
_cell_length_b   8.34407790
_cell_length_c   10.72699609
_cell_angle_alpha   90.00000000
_cell_angle_beta   90.00000000
_cell_angle_gamma   104.38712906
_symmetry_Int_Tables_number   1
_chemical_formula_structural   CsUCuSe3
_chemical_formula_sum   'Cs2 U2 Cu2 Se6'
_cell_volume   359.50484471
_cell_formula_units_Z   2
loop_
 _symmetry_equiv_pos_site_id
 _symmetry_equiv_pos_as_xyz
  1  'x, y, z'
loop_
 _atom_site_type_symbol
 _atom_site_label
 _atom_site_symmetry_multiplicity
 _atom_site_fract_x
 _atom_site_fract_y
 _atom_site_fract_z
 _atom_site_occupancy
  Cu  Cu0  1  0.468813  0.937625  0.750000  1
  Cu  Cu1  1  0.531187  0.062375  0.250000  1
  Se  Se2  1  0.385400  0.770801  0.559372  1
  Se  Se3  1  0.614600  0.229199  0.440628  1
  Se  Se4  1  0.943045  0.886090  0.250000  1
  Se  Se5  1  0.056955  0.113910  0.750000  1
  Se  Se6  1  0.385400  0.770801  0.940628  1
  Se  Se7  1  0.614600  0.229199  0.059372  1
  Cs  Cs8  1  0.743148  0.486296  0.750000  1
  Cs  Cs9  1  0.256852  0.513704  0.250000  1
  U  U10  1  0.000000  0.000000  0.000000  1
  U  U11  1  0.000000  0.000000  0.500000  1
