# generated using pymatgen
data_Li5Mn6(BO3)6
_symmetry_space_group_name_H-M   'P 1'
_cell_length_a   9.03378717
_cell_length_b   7.92961648
_cell_length_c   6.21152059
_cell_angle_alpha   79.85399137
_cell_angle_beta   76.81713418
_cell_angle_gamma   113.63604743
_symmetry_Int_Tables_number   1
_chemical_formula_structural   Li5Mn6(BO3)6
_chemical_formula_sum   'Li5 Mn6 B6 O18'
_cell_volume   378.60813446
_cell_formula_units_Z   1
loop_
 _symmetry_equiv_pos_site_id
 _symmetry_equiv_pos_as_xyz
  1  'x, y, z'
loop_
 _atom_site_type_symbol
 _atom_site_label
 _atom_site_symmetry_multiplicity
 _atom_site_fract_x
 _atom_site_fract_y
 _atom_site_fract_z
 _atom_site_occupancy
  Li  Li0  1  0.060359  0.178213  0.495176  1
  Li  Li1  1  0.715045  0.498946  0.161554  1
  Li  Li2  1  0.277745  0.485661  0.833768  1
  Li  Li3  1  0.943686  0.818719  0.500948  1
  Li  Li4  1  0.389003  0.845803  0.832854  1
  Mn  Mn5  1  0.283130  0.134195  0.105252  1
  Mn  Mn6  1  0.403476  0.199003  0.548651  1
  Mn  Mn7  1  0.062252  0.533672  0.225247  1
  Mn  Mn8  1  0.923421  0.447521  0.789287  1
  Mn  Mn9  1  0.600472  0.812852  0.430043  1
  Mn  Mn10  1  0.731917  0.873741  0.883999  1
  B  B11  1  0.942959  0.133932  0.124838  1
  B  B12  1  0.732310  0.201637  0.540743  1
  B  B13  1  0.398871  0.532680  0.208301  1
  B  B14  1  0.600918  0.475481  0.779874  1
  B  B15  1  0.259179  0.798495  0.471941  1
  B  B16  1  0.065316  0.863098  0.874662  1
  O  O17  1  0.017647  0.050715  0.248245  1
  O  O18  1  0.775536  0.025506  0.130387  1
  O  O19  1  0.637148  0.001380  0.658730  1
  O  O20  1  0.309309  0.338262  0.335027  1
  O  O21  1  0.664285  0.302578  0.436684  1
  O  O22  1  0.327059  0.619967  0.083366  1
  O  O23  1  0.903914  0.293566  0.531539  1
  O  O24  1  0.570042  0.639004  0.197510  1
  O  O25  1  0.972433  0.668338  0.003617  1
  O  O26  1  0.030197  0.330758  0.999692  1
  O  O27  1  0.430155  0.366178  0.790635  1
  O  O28  1  0.090957  0.688141  0.478522  1
  O  O29  1  0.671835  0.390873  0.905588  1
  O  O30  1  0.337258  0.711529  0.586463  1
  O  O31  1  0.687858  0.672766  0.657467  1
  O  O32  1  0.341311  0.993924  0.360606  1
  O  O33  1  0.236509  0.966745  0.863070  1
  O  O34  1  0.994841  0.951557  0.748792  1
