# generated using pymatgen
data_Li4Nb5V3O16
_symmetry_space_group_name_H-M   'P 1'
_cell_length_a   6.08497623
_cell_length_b   6.05149486
_cell_length_c   10.06849006
_cell_angle_alpha   90.03295438
_cell_angle_beta   90.12205122
_cell_angle_gamma   119.80303488
_symmetry_Int_Tables_number   1
_chemical_formula_structural   Li4Nb5V3O16
_chemical_formula_sum   'Li4 Nb5 V3 O16'
_cell_volume   321.71649356
_cell_formula_units_Z   1
loop_
 _symmetry_equiv_pos_site_id
 _symmetry_equiv_pos_as_xyz
  1  'x, y, z'
loop_
 _atom_site_type_symbol
 _atom_site_label
 _atom_site_symmetry_multiplicity
 _atom_site_fract_x
 _atom_site_fract_y
 _atom_site_fract_z
 _atom_site_occupancy
  Li  Li0  1  0.336825  0.668397  0.907244  1
  Li  Li1  1  0.002153  0.001642  0.987173  1
  Li  Li2  1  0.009876  0.003263  0.491405  1
  Li  Li3  1  0.668673  0.334547  0.391720  1
  Nb  Nb4  1  0.313675  0.655520  0.493792  1
  Nb  Nb5  1  0.648056  0.825331  0.223149  1
  Nb  Nb6  1  0.655384  0.328238  0.997734  1
  Nb  Nb7  1  0.817806  0.628284  0.714137  1
  Nb  Nb8  1  0.817477  0.188188  0.714247  1
  V  V9  1  0.171817  0.831408  0.211925  1
  V  V10  1  0.172591  0.342240  0.211988  1
  V  V11  1  0.348748  0.173760  0.713796  1
  O  O12  1  0.167395  0.830612  0.594808  1
  O  O13  1  0.052128  0.526864  0.353276  1
  O  O14  1  0.353720  0.677617  0.099060  1
  O  O15  1  0.989428  0.995773  0.308563  1
  O  O16  1  0.002937  0.001071  0.803927  1
  O  O17  1  0.166937  0.334606  0.594355  1
  O  O18  1  0.491310  0.966778  0.345313  1
  O  O19  1  0.491968  0.525896  0.345381  1
  O  O20  1  0.337709  0.169327  0.089305  1
  O  O21  1  0.661353  0.830207  0.591629  1
  O  O22  1  0.528864  0.488501  0.846460  1
  O  O23  1  0.528953  0.039965  0.846634  1
  O  O24  1  0.647906  0.323405  0.579459  1
  O  O25  1  0.820451  0.662420  0.096825  1
  O  O26  1  0.974916  0.487081  0.857589  1
  O  O27  1  0.820946  0.159359  0.096949  1
