# generated using pymatgen
data_Na7(WO3)13
_symmetry_space_group_name_H-M   'P 1'
_cell_length_a   16.10792860
_cell_length_b   9.56716850
_cell_length_c   5.52550886
_cell_angle_alpha   106.78946951
_cell_angle_beta   80.11812917
_cell_angle_gamma   78.57848930
_symmetry_Int_Tables_number   1
_chemical_formula_structural   Na7(WO3)13
_chemical_formula_sum   'Na7 W13 O39'
_cell_volume   774.96016882
_cell_formula_units_Z   1
loop_
 _symmetry_equiv_pos_site_id
 _symmetry_equiv_pos_as_xyz
  1  'x, y, z'
loop_
 _atom_site_type_symbol
 _atom_site_label
 _atom_site_symmetry_multiplicity
 _atom_site_fract_x
 _atom_site_fract_y
 _atom_site_fract_z
 _atom_site_occupancy
  Na  Na0  1  0.462681  0.155347  0.840751  1
  Na  Na1  1  0.921845  0.310987  0.698047  1
  Na  Na2  1  0.613931  0.538756  0.467624  1
  Na  Na3  1  0.157474  0.383125  0.610862  1
  Na  Na4  1  0.307783  0.767738  0.234363  1
  Na  Na5  1  0.767044  0.921284  0.076758  1
  Na  Na6  1  0.077568  0.690488  0.307602  1
  W  W7  1  0.576901  0.192193  0.307682  1
  W  W8  1  0.730440  0.576977  0.925250  1
  W  W9  1  0.346537  0.113525  0.382835  1
  W  W10  1  0.115451  0.038393  0.460617  1
  W  W11  1  0.960262  0.656141  0.848311  1
  W  W12  1  0.807130  0.269611  0.232926  1
  W  W13  1  0.192950  0.732841  0.768982  1
  W  W14  1  0.271007  0.420191  0.073981  1
  W  W15  1  0.423579  0.807392  0.691966  1
  W  W16  1  0.653940  0.884505  0.615256  1
  W  W17  1  0.038191  0.343530  0.152754  1
  W  W18  1  0.884381  0.962800  0.540149  1
  W  W19  1  0.500528  0.499885  0.000098  1
  O  O20  1  0.845991  0.116280  0.885566  1
  O  O21  1  0.615364  0.039293  0.960451  1
  O  O22  1  0.845970  0.115127  0.384962  1
  O  O23  1  0.616309  0.037290  0.458241  1
  O  O24  1  0.692112  0.231849  0.270666  1
  O  O25  1  0.461545  0.153481  0.347564  1
  O  O26  1  0.230487  0.077795  0.421598  1
  O  O27  1  0.307093  0.268681  0.729937  1
  O  O28  1  0.000224  0.999958  0.502228  1
  O  O29  1  0.770475  0.422432  0.580249  1
  O  O30  1  0.923282  0.307459  0.191574  1
  O  O31  1  0.845890  0.617093  0.889876  1
  O  O32  1  0.539127  0.344961  0.655003  1
  O  O33  1  0.076975  0.194993  0.804604  1
  O  O34  1  0.615488  0.538310  0.962439  1
  O  O35  1  0.229131  0.577421  0.925954  1
  O  O36  1  0.691771  0.730176  0.769310  1
  O  O37  1  0.075645  0.194790  0.313878  1
  O  O38  1  0.462371  0.653298  0.845018  1
  O  O39  1  0.538405  0.346864  0.156052  1
  O  O40  1  0.308648  0.268355  0.228612  1
  O  O41  1  0.922233  0.807705  0.693630  1
  O  O42  1  0.768954  0.424641  0.081578  1
  O  O43  1  0.385137  0.459708  0.034814  1
  O  O44  1  0.307881  0.768495  0.730762  1
  O  O45  1  0.538073  0.847453  0.653382  1
  O  O46  1  0.769581  0.921976  0.575888  1
  O  O47  1  0.153169  0.387695  0.120780  1
  O  O48  1  0.230354  0.577310  0.420515  1
  O  O49  1  0.000636  0.498673  0.501630  1
  O  O50  1  0.077878  0.689537  0.801821  1
  O  O51  1  0.691626  0.730867  0.270069  1
  O  O52  1  0.924350  0.807863  0.192753  1
  O  O53  1  0.460998  0.653686  0.345641  1
  O  O54  1  0.384148  0.961177  0.538704  1
  O  O55  1  0.002479  0.498618  0.994972  1
  O  O56  1  0.155941  0.880394  0.604545  1
  O  O57  1  0.384452  0.960607  0.038276  1
  O  O58  1  0.154653  0.881992  0.116042  1
