# generated using pymatgen
data_Sb4H8C2S7N
_symmetry_space_group_name_H-M   'P 1'
_cell_length_a   7.78900812
_cell_length_b   7.78900812
_cell_length_c   26.34878256
_cell_angle_alpha   90.00000000
_cell_angle_beta   90.00000000
_cell_angle_gamma   80.94142851
_symmetry_Int_Tables_number   1
_chemical_formula_structural   Sb4H8C2S7N
_chemical_formula_sum   'Sb16 H32 C8 S28 N4'
_cell_volume   1578.60779894
_cell_formula_units_Z   4
loop_
 _symmetry_equiv_pos_site_id
 _symmetry_equiv_pos_as_xyz
  1  'x, y, z'
loop_
 _atom_site_type_symbol
 _atom_site_label
 _atom_site_symmetry_multiplicity
 _atom_site_fract_x
 _atom_site_fract_y
 _atom_site_fract_z
 _atom_site_occupancy
  Sb  Sb0  1  0.096956  0.704131  0.819904  1
  Sb  Sb1  1  0.295869  0.903044  0.180096  1
  Sb  Sb2  1  0.795869  0.403044  0.319904  1
  Sb  Sb3  1  0.596956  0.204131  0.680096  1
  Sb  Sb4  1  0.903044  0.295869  0.180096  1
  Sb  Sb5  1  0.704131  0.096956  0.819904  1
  Sb  Sb6  1  0.204131  0.596956  0.680096  1
  Sb  Sb7  1  0.403044  0.795869  0.319904  1
  Sb  Sb8  1  0.534293  0.534293  0.888736  1
  Sb  Sb9  1  0.465707  0.465707  0.111264  1
  Sb  Sb10  1  0.965707  0.965707  0.388736  1
  Sb  Sb11  1  0.034293  0.034293  0.611264  1
  Sb  Sb12  1  0.136170  0.136170  0.756116  1
  Sb  Sb13  1  0.863830  0.863830  0.243884  1
  Sb  Sb14  1  0.363830  0.363830  0.256116  1
  Sb  Sb15  1  0.636170  0.636170  0.743884  1
  H  H16  1  0.247845  0.247845  0.923683  1
  H  H17  1  0.752155  0.752155  0.076317  1
  H  H18  1  0.252155  0.252155  0.423683  1
  H  H19  1  0.747845  0.747845  0.576317  1
  H  H20  1  0.119785  0.119785  0.899079  1
  H  H21  1  0.880215  0.880215  0.100921  1
  H  H22  1  0.380215  0.380215  0.399079  1
  H  H23  1  0.619785  0.619785  0.600921  1
  H  H24  1  0.391212  0.981897  0.946020  1
  H  H25  1  0.018103  0.608788  0.053980  1
  H  H26  1  0.518103  0.108788  0.446020  1
  H  H27  1  0.891212  0.481897  0.553980  1
  H  H28  1  0.608788  0.018103  0.053980  1
  H  H29  1  0.981897  0.391212  0.946020  1
  H  H30  1  0.481897  0.891212  0.553980  1
  H  H31  1  0.108788  0.518103  0.446020  1
  H  H32  1  0.193061  0.898556  0.956835  1
  H  H33  1  0.101444  0.806939  0.043165  1
  H  H34  1  0.601444  0.306939  0.456835  1
  H  H35  1  0.693061  0.398556  0.543165  1
  H  H36  1  0.806939  0.101444  0.043165  1
  H  H37  1  0.898556  0.193061  0.956835  1
  H  H38  1  0.398556  0.693061  0.543165  1
  H  H39  1  0.306939  0.601444  0.456835  1
  H  H40  1  0.266230  0.046207  0.001811  1
  H  H41  1  0.953793  0.733770  0.998189  1
  H  H42  1  0.453793  0.233770  0.501811  1
  H  H43  1  0.766230  0.546207  0.498189  1
  H  H44  1  0.733770  0.953793  0.998189  1
  H  H45  1  0.046207  0.266230  0.001811  1
  H  H46  1  0.546207  0.766230  0.498189  1
  H  H47  1  0.233770  0.453793  0.501811  1
  C  C48  1  0.259848  0.011246  0.961608  1
  C  C49  1  0.988754  0.740152  0.038392  1
  C  C50  1  0.488754  0.240152  0.461608  1
  C  C51  1  0.759848  0.511246  0.538392  1
  C  C52  1  0.740152  0.988754  0.038392  1
  C  C53  1  0.011246  0.259848  0.961608  1
  C  C54  1  0.511246  0.759848  0.538392  1
  C  C55  1  0.240152  0.488754  0.461608  1
  S  S56  1  0.579598  0.579598  0.982974  1
  S  S57  1  0.420402  0.420402  0.017026  1
  S  S58  1  0.920402  0.920402  0.482974  1
  S  S59  1  0.079598  0.079598  0.517026  1
  S  S60  1  0.863488  0.863488  0.875746  1
  S  S61  1  0.136512  0.136512  0.124254  1
  S  S62  1  0.636512  0.636512  0.375746  1
  S  S63  1  0.363488  0.363488  0.624254  1
  S  S64  1  0.217143  0.579838  0.902518  1
  S  S65  1  0.420162  0.782857  0.097482  1
  S  S66  1  0.920162  0.282857  0.402518  1
  S  S67  1  0.717143  0.079838  0.597482  1
  S  S68  1  0.782857  0.420162  0.097482  1
  S  S69  1  0.579838  0.217143  0.902518  1
  S  S70  1  0.079838  0.717143  0.597482  1
  S  S71  1  0.282857  0.920162  0.402518  1
  S  S72  1  0.942762  0.942762  0.725480  1
  S  S73  1  0.057238  0.057238  0.274520  1
  S  S74  1  0.557238  0.557238  0.225480  1
  S  S75  1  0.442762  0.442762  0.774520  1
  S  S76  1  0.295374  0.929458  0.819900  1
  S  S77  1  0.070542  0.704626  0.180100  1
  S  S78  1  0.570542  0.204626  0.319900  1
  S  S79  1  0.795374  0.429458  0.680100  1
  S  S80  1  0.704626  0.070542  0.180100  1
  S  S81  1  0.929458  0.295374  0.819900  1
  S  S82  1  0.429458  0.795374  0.680100  1
  S  S83  1  0.204626  0.570542  0.319900  1
  N  N84  1  0.162549  0.162549  0.933486  1
  N  N85  1  0.837451  0.837451  0.066514  1
  N  N86  1  0.337451  0.337451  0.433486  1
  N  N87  1  0.662549  0.662549  0.566514  1
