# generated using pymatgen
data_Li5Fe5(CuO6)2
_symmetry_space_group_name_H-M   'P 1'
_cell_length_a   5.14537613
_cell_length_b   5.14537571
_cell_length_c   9.79151462
_cell_angle_alpha   86.78226535
_cell_angle_beta   93.21773312
_cell_angle_gamma   63.17088029
_symmetry_Int_Tables_number   1
_chemical_formula_structural   Li5Fe5(CuO6)2
_chemical_formula_sum   'Li5 Fe5 Cu2 O12'
_cell_volume   229.99278901
_cell_formula_units_Z   1
loop_
 _symmetry_equiv_pos_site_id
 _symmetry_equiv_pos_as_xyz
  1  'x, y, z'
loop_
 _atom_site_type_symbol
 _atom_site_label
 _atom_site_symmetry_multiplicity
 _atom_site_fract_x
 _atom_site_fract_y
 _atom_site_fract_z
 _atom_site_occupancy
  Li  Li0  1  0.164373  0.651351  0.513950  1
  Li  Li1  1  0.321113  0.858444  0.987288  1
  Li  Li2  1  0.651351  0.164373  0.986050  1
  Li  Li3  1  0.858444  0.321113  0.512712  1
  Li  Li4  1  0.918766  0.918766  0.750000  1
  Fe  Fe5  1  0.083388  0.083388  0.250000  1
  Fe  Fe6  1  0.999221  0.507339  0.989866  1
  Fe  Fe7  1  0.507339  0.999221  0.510134  1
  Fe  Fe8  1  0.416523  0.416523  0.250000  1
  Fe  Fe9  1  0.584484  0.584484  0.750000  1
  Cu  Cu10  1  0.250450  0.250450  0.750000  1
  Cu  Cu11  1  0.749140  0.749140  0.250000  1
  O  O12  1  0.949026  0.233031  0.867487  1
  O  O13  1  0.233031  0.949026  0.632513  1
  O  O14  1  0.166707  0.332695  0.380624  1
  O  O15  1  0.332695  0.166707  0.119376  1
  O  O16  1  0.297297  0.531674  0.871790  1
  O  O17  1  0.531674  0.297297  0.628210  1
  O  O18  1  0.437536  0.733351  0.360583  1
  O  O19  1  0.733351  0.437536  0.139417  1
  O  O20  1  0.657339  0.829106  0.886526  1
  O  O21  1  0.829106  0.657339  0.613474  1
  O  O22  1  0.769668  0.057976  0.363419  1
  O  O23  1  0.057976  0.769668  0.136581  1
