# generated using pymatgen
data_Fe(Si2O3)2
_symmetry_space_group_name_H-M   'P 1'
_cell_length_a   6.26771385
_cell_length_b   2.87844883
_cell_length_c   14.34178866
_cell_angle_alpha   122.97156263
_cell_angle_beta   119.64027436
_cell_angle_gamma   79.78341530
_symmetry_Int_Tables_number   1
_chemical_formula_structural   Fe(Si2O3)2
_chemical_formula_sum   'Fe1 Si4 O6'
_cell_volume   187.16649799
_cell_formula_units_Z   1
loop_
 _symmetry_equiv_pos_site_id
 _symmetry_equiv_pos_as_xyz
  1  'x, y, z'
loop_
 _atom_site_type_symbol
 _atom_site_label
 _atom_site_symmetry_multiplicity
 _atom_site_fract_x
 _atom_site_fract_y
 _atom_site_fract_z
 _atom_site_occupancy
  Fe  Fe0  1  0.302651  0.229228  0.154826  1
  Si  Si1  1  0.631370  0.869457  0.748301  1
  Si  Si2  1  0.919208  0.202492  0.730870  1
  Si  Si3  1  0.733996  0.403622  0.964465  1
  Si  Si4  1  0.059592  0.551575  0.526604  1
  O  O5  1  0.034608  0.551359  0.058279  1
  O  O6  1  0.620938  0.014676  0.989472  1
  O  O7  1  0.500772  0.874087  0.235605  1
  O  O8  1  0.329405  0.778665  0.656196  1
  O  O9  1  0.859273  0.792604  0.579266  1
  O  O10  1  0.039187  0.860235  0.453116  1
