# generated using pymatgen
data_Fe3O4
_symmetry_space_group_name_H-M   'P 1'
_cell_length_a   16.13268427
_cell_length_b   5.92397202
_cell_length_c   6.61708034
_cell_angle_alpha   90.00000000
_cell_angle_beta   90.00000000
_cell_angle_gamma   90.00000000
_symmetry_Int_Tables_number   1
_chemical_formula_structural   Fe3O4
_chemical_formula_sum   'Fe24 O32'
_cell_volume   632.39152422
_cell_formula_units_Z   8
loop_
 _symmetry_equiv_pos_site_id
 _symmetry_equiv_pos_as_xyz
  1  'x, y, z'
loop_
 _atom_site_type_symbol
 _atom_site_label
 _atom_site_symmetry_multiplicity
 _atom_site_fract_x
 _atom_site_fract_y
 _atom_site_fract_z
 _atom_site_occupancy
  Fe  Fe0  1  0.402247  0.767468  0.250000  1
  Fe  Fe1  1  0.844992  0.736465  0.250000  1
  Fe  Fe2  1  0.852823  0.510465  0.750000  1
  Fe  Fe3  1  0.155008  0.263535  0.750000  1
  Fe  Fe4  1  0.398634  0.980848  0.750000  1
  Fe  Fe5  1  0.655008  0.736465  0.750000  1
  Fe  Fe6  1  0.750000  0.064565  0.500000  1
  Fe  Fe7  1  0.097753  0.767468  0.750000  1
  Fe  Fe8  1  0.352823  0.489535  0.750000  1
  Fe  Fe9  1  0.647177  0.510465  0.250000  1
  Fe  Fe10  1  0.500000  0.500000  0.500000  1
  Fe  Fe11  1  0.250000  0.935435  0.500000  1
  Fe  Fe12  1  0.500000  0.500000  0.000000  1
  Fe  Fe13  1  0.597753  0.232532  0.750000  1
  Fe  Fe14  1  0.902247  0.232532  0.250000  1
  Fe  Fe15  1  0.250000  0.935435  0.000000  1
  Fe  Fe16  1  0.898634  0.019152  0.750000  1
  Fe  Fe17  1  0.750000  0.064565  0.000000  1
  Fe  Fe18  1  0.000000  0.500000  0.000000  1
  Fe  Fe19  1  0.101366  0.980848  0.250000  1
  Fe  Fe20  1  0.344992  0.263535  0.250000  1
  Fe  Fe21  1  0.601366  0.019152  0.250000  1
  Fe  Fe22  1  0.147177  0.489535  0.250000  1
  Fe  Fe23  1  0.000000  0.500000  0.500000  1
  O  O24  1  0.624940  0.991439  0.551772  1
  O  O25  1  0.034357  0.704684  0.250000  1
  O  O26  1  0.788156  0.241380  0.750000  1
  O  O27  1  0.127453  0.506172  0.554643  1
  O  O28  1  0.875060  0.991439  0.448228  1
  O  O29  1  0.965643  0.295316  0.750000  1
  O  O30  1  0.624940  0.991439  0.948228  1
  O  O31  1  0.723815  0.779176  0.250000  1
  O  O32  1  0.288156  0.758620  0.750000  1
  O  O33  1  0.211844  0.758620  0.250000  1
  O  O34  1  0.525978  0.748976  0.250000  1
  O  O35  1  0.627453  0.493828  0.554643  1
  O  O36  1  0.372547  0.506172  0.054643  1
  O  O37  1  0.124940  0.008561  0.551772  1
  O  O38  1  0.276185  0.220824  0.750000  1
  O  O39  1  0.534357  0.295316  0.250000  1
  O  O40  1  0.025978  0.251024  0.250000  1
  O  O41  1  0.465643  0.704684  0.750000  1
  O  O42  1  0.627453  0.493828  0.945357  1
  O  O43  1  0.124940  0.008561  0.948228  1
  O  O44  1  0.375060  0.008561  0.448228  1
  O  O45  1  0.375060  0.008561  0.051772  1
  O  O46  1  0.974022  0.748976  0.750000  1
  O  O47  1  0.127453  0.506172  0.945357  1
  O  O48  1  0.872547  0.493828  0.054643  1
  O  O49  1  0.474022  0.251024  0.750000  1
  O  O50  1  0.223815  0.220824  0.250000  1
  O  O51  1  0.372547  0.506172  0.445357  1
  O  O52  1  0.875060  0.991439  0.051772  1
  O  O53  1  0.776185  0.779176  0.750000  1
  O  O54  1  0.711844  0.241380  0.250000  1
  O  O55  1  0.872547  0.493828  0.445357  1
