# generated using pymatgen
data_U(WO4)2
_symmetry_space_group_name_H-M   'P 1'
_cell_length_a   9.73690339
_cell_length_b   10.33973375
_cell_length_c   14.57120629
_cell_angle_alpha   90.00000000
_cell_angle_beta   90.00000000
_cell_angle_gamma   90.00000000
_symmetry_Int_Tables_number   1
_chemical_formula_structural   U(WO4)2
_chemical_formula_sum   'U8 W16 O64'
_cell_volume   1466.98516958
_cell_formula_units_Z   8
loop_
 _symmetry_equiv_pos_site_id
 _symmetry_equiv_pos_as_xyz
  1  'x, y, z'
loop_
 _atom_site_type_symbol
 _atom_site_label
 _atom_site_symmetry_multiplicity
 _atom_site_fract_x
 _atom_site_fract_y
 _atom_site_fract_z
 _atom_site_occupancy
  U  U0  1  0.725578  0.034087  0.612272  1
  U  U1  1  0.274422  0.465913  0.112272  1
  U  U2  1  0.225578  0.965913  0.887728  1
  U  U3  1  0.774422  0.534087  0.387728  1
  U  U4  1  0.274422  0.965913  0.387728  1
  U  U5  1  0.725578  0.534087  0.887728  1
  U  U6  1  0.774422  0.034087  0.112272  1
  U  U7  1  0.225578  0.465913  0.612272  1
  W  W8  1  0.684788  0.396749  0.147857  1
  W  W9  1  0.494360  0.726362  0.558610  1
  W  W10  1  0.494360  0.226362  0.941390  1
  W  W11  1  0.184788  0.103251  0.147857  1
  W  W12  1  0.815212  0.396749  0.647857  1
  W  W13  1  0.505640  0.273638  0.441390  1
  W  W14  1  0.005640  0.726362  0.058610  1
  W  W15  1  0.994360  0.273638  0.941390  1
  W  W16  1  0.815212  0.896749  0.852143  1
  W  W17  1  0.005640  0.226362  0.441390  1
  W  W18  1  0.994360  0.773638  0.558610  1
  W  W19  1  0.684788  0.896749  0.352143  1
  W  W20  1  0.315212  0.103251  0.647857  1
  W  W21  1  0.184788  0.603251  0.352143  1
  W  W22  1  0.315212  0.603251  0.852143  1
  W  W23  1  0.505640  0.773638  0.058610  1
  O  O24  1  0.251534  0.572200  0.966937  1
  O  O25  1  0.735879  0.233946  0.178414  1
  O  O26  1  0.235879  0.766054  0.321586  1
  O  O27  1  0.262944  0.992278  0.229174  1
  O  O28  1  0.586682  0.645713  0.467664  1
  O  O29  1  0.000914  0.416498  0.648864  1
  O  O30  1  0.127634  0.836641  0.007534  1
  O  O31  1  0.092473  0.606840  0.132614  1
  O  O32  1  0.111278  0.171516  0.876669  1
  O  O33  1  0.086682  0.354287  0.032336  1
  O  O34  1  0.251534  0.072200  0.533063  1
  O  O35  1  0.999086  0.583502  0.351136  1
  O  O36  1  0.888722  0.828484  0.123331  1
  O  O37  1  0.762944  0.007722  0.270826  1
  O  O38  1  0.500914  0.583502  0.851136  1
  O  O39  1  0.586682  0.145713  0.032336  1
  O  O40  1  0.264121  0.266054  0.678414  1
  O  O41  1  0.372366  0.836641  0.507534  1
  O  O42  1  0.913318  0.145713  0.532336  1
  O  O43  1  0.407527  0.106840  0.867386  1
  O  O44  1  0.413318  0.854287  0.967664  1
  O  O45  1  0.999086  0.083502  0.148864  1
  O  O46  1  0.388722  0.671516  0.123331  1
  O  O47  1  0.627634  0.663359  0.007534  1
  O  O48  1  0.762944  0.507722  0.229174  1
  O  O49  1  0.872366  0.663359  0.507534  1
  O  O50  1  0.248466  0.072200  0.033063  1
  O  O51  1  0.751534  0.427800  0.533063  1
  O  O52  1  0.248466  0.572200  0.466937  1
  O  O53  1  0.611278  0.328484  0.876669  1
  O  O54  1  0.262944  0.492278  0.270826  1
  O  O55  1  0.372366  0.336641  0.992466  1
  O  O56  1  0.388722  0.171516  0.376669  1
  O  O57  1  0.235879  0.266054  0.178414  1
  O  O58  1  0.735879  0.733946  0.321586  1
  O  O59  1  0.111278  0.671516  0.623331  1
  O  O60  1  0.592473  0.393160  0.367386  1
  O  O61  1  0.086682  0.854287  0.467664  1
  O  O62  1  0.500914  0.083502  0.648864  1
  O  O63  1  0.499086  0.416498  0.148864  1
  O  O64  1  0.237056  0.492278  0.770826  1
  O  O65  1  0.737056  0.507722  0.729174  1
  O  O66  1  0.627634  0.163359  0.492466  1
  O  O67  1  0.907527  0.893160  0.632614  1
  O  O68  1  0.907527  0.393160  0.867386  1
  O  O69  1  0.611278  0.828484  0.623331  1
  O  O70  1  0.000914  0.916498  0.851136  1
  O  O71  1  0.127634  0.336641  0.492466  1
  O  O72  1  0.913318  0.645713  0.967664  1
  O  O73  1  0.592473  0.893160  0.132614  1
  O  O74  1  0.764121  0.733946  0.821586  1
  O  O75  1  0.407527  0.606840  0.632614  1
  O  O76  1  0.237056  0.992278  0.729174  1
  O  O77  1  0.092473  0.106840  0.367386  1
  O  O78  1  0.764121  0.233946  0.678414  1
  O  O79  1  0.748466  0.427800  0.033063  1
  O  O80  1  0.872366  0.163359  0.992466  1
  O  O81  1  0.751534  0.927800  0.966937  1
  O  O82  1  0.748466  0.927800  0.466937  1
  O  O83  1  0.888722  0.328484  0.376669  1
  O  O84  1  0.413318  0.354287  0.532336  1
  O  O85  1  0.737056  0.007722  0.770826  1
  O  O86  1  0.499086  0.916498  0.351136  1
  O  O87  1  0.264121  0.766054  0.821586  1
