# generated using pymatgen
data_MnPH2CO6
_symmetry_space_group_name_H-M   'P 1'
_cell_length_a   6.11097429
_cell_length_b   8.29930102
_cell_length_c   5.46854182
_cell_angle_alpha   82.38549376
_cell_angle_beta   111.09504283
_cell_angle_gamma   111.60230310
_symmetry_Int_Tables_number   1
_chemical_formula_structural   MnPH2CO6
_chemical_formula_sum   'Mn2 P2 H4 C2 O12'
_cell_volume   240.58562183
_cell_formula_units_Z   2
loop_
 _symmetry_equiv_pos_site_id
 _symmetry_equiv_pos_as_xyz
  1  'x, y, z'
loop_
 _atom_site_type_symbol
 _atom_site_label
 _atom_site_symmetry_multiplicity
 _atom_site_fract_x
 _atom_site_fract_y
 _atom_site_fract_z
 _atom_site_occupancy
  Mn  Mn0  1  0.189580  0.379161  0.500000  1
  Mn  Mn1  1  0.810420  0.620839  0.500000  1
  P  P2  1  0.329240  0.658479  0.000000  1
  P  P3  1  0.670760  0.341521  0.000000  1
  H  H4  1  0.175945  0.812025  0.166099  1
  H  H5  1  0.636080  0.812025  0.833901  1
  H  H6  1  0.363920  0.187975  0.166099  1
  H  H7  1  0.824056  0.187975  0.833901  1
  C  C8  1  0.098844  1.000000  0.441865  1
  C  C9  1  0.901156  0.000000  0.558135  1
  O  O10  1  0.098464  0.853692  0.399502  1
  O  O11  1  0.175475  0.555066  0.744959  1
  O  O12  1  0.179325  0.778510  0.997061  1
  O  O13  1  0.599185  0.778510  0.002939  1
  O  O14  1  0.379592  0.555066  0.255041  1
  O  O15  1  0.244772  0.146308  0.399502  1
  O  O16  1  0.755228  0.853692  0.600498  1
  O  O17  1  0.620408  0.444934  0.744959  1
  O  O18  1  0.400815  0.221490  0.997061  1
  O  O19  1  0.820675  0.221490  0.002939  1
  O  O20  1  0.824525  0.444934  0.255041  1
  O  O21  1  0.901536  0.146308  0.600498  1
