# generated using pymatgen
data_AlH6N2Cl3
_symmetry_space_group_name_H-M   'P 1'
_cell_length_a   11.50503593
_cell_length_b   18.32680304
_cell_length_c   6.58683849
_cell_angle_alpha   90.00000000
_cell_angle_beta   90.00000000
_cell_angle_gamma   90.00000000
_symmetry_Int_Tables_number   1
_chemical_formula_structural   AlH6N2Cl3
_chemical_formula_sum   'Al8 H48 N16 Cl24'
_cell_volume   1388.83836989
_cell_formula_units_Z   8
loop_
 _symmetry_equiv_pos_site_id
 _symmetry_equiv_pos_as_xyz
  1  'x, y, z'
loop_
 _atom_site_type_symbol
 _atom_site_label
 _atom_site_symmetry_multiplicity
 _atom_site_fract_x
 _atom_site_fract_y
 _atom_site_fract_z
 _atom_site_occupancy
  Al  Al0  1  0.500000  0.500000  0.000000  1
  Al  Al1  1  0.000000  0.000000  0.500000  1
  Al  Al2  1  0.500000  0.000000  0.000000  1
  Al  Al3  1  0.000000  0.500000  0.500000  1
  Al  Al4  1  0.760174  0.250000  0.054905  1
  Al  Al5  1  0.260174  0.250000  0.445095  1
  Al  Al6  1  0.239826  0.750000  0.945095  1
  Al  Al7  1  0.739826  0.750000  0.554905  1
  H  H8  1  0.581768  0.387560  0.794977  1
  H  H9  1  0.081768  0.112440  0.705023  1
  H  H10  1  0.418232  0.887560  0.205023  1
  H  H11  1  0.918232  0.612440  0.294977  1
  H  H12  1  0.418232  0.612440  0.205023  1
  H  H13  1  0.918232  0.887560  0.294977  1
  H  H14  1  0.581768  0.112440  0.794977  1
  H  H15  1  0.081768  0.387560  0.705023  1
  H  H16  1  0.688309  0.445088  0.827902  1
  H  H17  1  0.188309  0.054912  0.672098  1
  H  H18  1  0.311691  0.945088  0.172098  1
  H  H19  1  0.811691  0.554912  0.327902  1
  H  H20  1  0.311691  0.554912  0.172098  1
  H  H21  1  0.811691  0.945088  0.327902  1
  H  H22  1  0.688309  0.054912  0.827902  1
  H  H23  1  0.188309  0.445088  0.672098  1
  H  H24  1  0.590615  0.459993  0.649124  1
  H  H25  1  0.090615  0.040007  0.850876  1
  H  H26  1  0.409386  0.959993  0.350876  1
  H  H27  1  0.909385  0.540007  0.149124  1
  H  H28  1  0.409386  0.540007  0.350876  1
  H  H29  1  0.909385  0.959993  0.149124  1
  H  H30  1  0.590615  0.040007  0.649124  1
  H  H31  1  0.090615  0.459993  0.850876  1
  H  H32  1  0.545984  0.626425  0.854391  1
  H  H33  1  0.045984  0.873575  0.645609  1
  H  H34  1  0.454016  0.126425  0.145609  1
  H  H35  1  0.954016  0.373575  0.354391  1
  H  H36  1  0.454016  0.373575  0.145609  1
  H  H37  1  0.954016  0.126425  0.354391  1
  H  H38  1  0.545984  0.873575  0.854391  1
  H  H39  1  0.045984  0.626425  0.645609  1
  H  H40  1  0.670339  0.582863  0.869312  1
  H  H41  1  0.170339  0.917137  0.630688  1
  H  H42  1  0.329661  0.082863  0.130688  1
  H  H43  1  0.829661  0.417137  0.369312  1
  H  H44  1  0.329661  0.417137  0.130688  1
  H  H45  1  0.829661  0.082863  0.369312  1
  H  H46  1  0.670339  0.917137  0.869312  1
  H  H47  1  0.170339  0.582863  0.630688  1
  H  H48  1  0.614201  0.620168  0.072964  1
  H  H49  1  0.114201  0.879832  0.427036  1
  H  H50  1  0.385799  0.120168  0.927036  1
  H  H51  1  0.885799  0.379832  0.572964  1
  H  H52  1  0.385799  0.379832  0.927036  1
  H  H53  1  0.885799  0.120168  0.572964  1
  H  H54  1  0.614201  0.879832  0.072964  1
  H  H55  1  0.114201  0.620168  0.427036  1
  N  N56  1  0.899135  0.557438  0.297043  1
  N  N57  1  0.399135  0.942562  0.202957  1
  N  N58  1  0.100865  0.057438  0.702957  1
  N  N59  1  0.600865  0.442562  0.797043  1
  N  N60  1  0.100865  0.442562  0.702957  1
  N  N61  1  0.600865  0.057438  0.797043  1
  N  N62  1  0.899135  0.942562  0.297043  1
  N  N63  1  0.399135  0.557438  0.202957  1
  N  N64  1  0.593023  0.591484  0.943506  1
  N  N65  1  0.093023  0.908516  0.556494  1
  N  N66  1  0.406977  0.091484  0.056494  1
  N  N67  1  0.906977  0.408516  0.443506  1
  N  N68  1  0.406977  0.408516  0.056494  1
  N  N69  1  0.906977  0.091484  0.443506  1
  N  N70  1  0.593023  0.908516  0.943506  1
  N  N71  1  0.093023  0.591484  0.556494  1
  Cl  Cl72  1  0.626227  0.468205  0.266035  1
  Cl  Cl73  1  0.126227  0.031795  0.233965  1
  Cl  Cl74  1  0.373773  0.968205  0.733965  1
  Cl  Cl75  1  0.873773  0.531795  0.766035  1
  Cl  Cl76  1  0.373773  0.531795  0.733965  1
  Cl  Cl77  1  0.873773  0.968205  0.766035  1
  Cl  Cl78  1  0.626227  0.031795  0.266035  1
  Cl  Cl79  1  0.126227  0.468205  0.233965  1
  Cl  Cl80  1  0.854677  0.345426  0.951734  1
  Cl  Cl81  1  0.354677  0.154574  0.548266  1
  Cl  Cl82  1  0.145323  0.845426  0.048266  1
  Cl  Cl83  1  0.645323  0.654574  0.451734  1
  Cl  Cl84  1  0.145323  0.654574  0.048266  1
  Cl  Cl85  1  0.645323  0.845426  0.451734  1
  Cl  Cl86  1  0.854677  0.154574  0.951734  1
  Cl  Cl87  1  0.354677  0.345426  0.548266  1
  Cl  Cl88  1  0.587545  0.250000  0.921528  1
  Cl  Cl89  1  0.087545  0.250000  0.578472  1
  Cl  Cl90  1  0.412455  0.750000  0.078472  1
  Cl  Cl91  1  0.912455  0.750000  0.421528  1
  Cl  Cl92  1  0.246080  0.250000  0.120305  1
  Cl  Cl93  1  0.746080  0.250000  0.379695  1
  Cl  Cl94  1  0.753920  0.750000  0.879695  1
  Cl  Cl95  1  0.253920  0.750000  0.620305  1
