# generated using pymatgen
data_MnFe(PO4)2
_symmetry_space_group_name_H-M   'P 1'
_cell_length_a   8.59346222
_cell_length_b   8.62883695
_cell_length_c   8.62883665
_cell_angle_alpha   59.99999715
_cell_angle_beta   59.86373008
_cell_angle_gamma   59.86373910
_symmetry_Int_Tables_number   1
_chemical_formula_structural   MnFe(PO4)2
_chemical_formula_sum   'Mn3 Fe3 P6 O24'
_cell_volume   451.50244143
_cell_formula_units_Z   3
loop_
 _symmetry_equiv_pos_site_id
 _symmetry_equiv_pos_as_xyz
  1  'x, y, z'
loop_
 _atom_site_type_symbol
 _atom_site_label
 _atom_site_symmetry_multiplicity
 _atom_site_fract_x
 _atom_site_fract_y
 _atom_site_fract_z
 _atom_site_occupancy
  Mn  Mn0  1  0.006315  0.997895  0.997895  1
  Mn  Mn1  1  0.569245  0.143585  0.143585  1
  Mn  Mn2  1  0.500098  0.499967  0.499967  1
  Fe  Fe3  1  0.061849  0.646050  0.646050  1
  Fe  Fe4  1  0.435179  0.854940  0.854940  1
  Fe  Fe5  1  0.934973  0.355009  0.355009  1
  P  P6  1  0.252499  0.251109  0.539108  1
  P  P7  1  0.252499  0.957284  0.251109  1
  P  P8  1  0.252499  0.539108  0.957284  1
  P  P9  1  0.744978  0.455702  0.046621  1
  P  P10  1  0.744978  0.046621  0.752699  1
  P  P11  1  0.744978  0.752699  0.455702  1
  O  O12  1  0.070082  0.110985  0.318434  1
  O  O13  1  0.070082  0.500498  0.110985  1
  O  O14  1  0.070082  0.318434  0.500498  1
  O  O15  1  0.234358  0.088476  0.734101  1
  O  O16  1  0.436048  0.189436  0.379006  1
  O  O17  1  0.273385  0.412350  0.554006  1
  O  O18  1  0.234358  0.943065  0.088476  1
  O  O19  1  0.273385  0.760259  0.412350  1
  O  O20  1  0.565079  0.612355  0.007866  1
  O  O21  1  0.273385  0.554006  0.760259  1
  O  O22  1  0.763408  0.257933  0.060133  1
  O  O23  1  0.565079  0.007866  0.814700  1
  O  O24  1  0.436048  0.995510  0.189436  1
  O  O25  1  0.234358  0.734101  0.943065  1
  O  O26  1  0.728581  0.435606  0.243416  1
  O  O27  1  0.436048  0.379006  0.995510  1
  O  O28  1  0.728581  0.243416  0.592396  1
  O  O29  1  0.763408  0.060133  0.918525  1
  O  O30  1  0.728581  0.592396  0.435606  1
  O  O31  1  0.565079  0.814700  0.612355  1
  O  O32  1  0.763408  0.918525  0.257933  1
  O  O33  1  0.929028  0.693583  0.489056  1
  O  O34  1  0.929028  0.489056  0.888333  1
  O  O35  1  0.929028  0.888333  0.693583  1
