# generated using pymatgen
data_Zr2N2O
_symmetry_space_group_name_H-M   'P 1'
_cell_length_a   8.88389939
_cell_length_b   8.87997991
_cell_length_c   8.86938379
_cell_angle_alpha   109.41136259
_cell_angle_beta   109.40446881
_cell_angle_gamma   109.62147641
_symmetry_Int_Tables_number   1
_chemical_formula_structural   Zr2N2O
_chemical_formula_sum   'Zr16 N16 O8'
_cell_volume   538.46671169
_cell_formula_units_Z   8
loop_
 _symmetry_equiv_pos_site_id
 _symmetry_equiv_pos_as_xyz
  1  'x, y, z'
loop_
 _atom_site_type_symbol
 _atom_site_label
 _atom_site_symmetry_multiplicity
 _atom_site_fract_x
 _atom_site_fract_y
 _atom_site_fract_z
 _atom_site_occupancy
  Zr  Zr0  1  0.499744  0.998749  0.987499  1
  Zr  Zr1  1  0.749572  0.284930  0.543522  1
  Zr  Zr2  1  0.214714  0.965275  0.251505  1
  Zr  Zr3  1  0.719026  0.467894  0.243017  1
  Zr  Zr4  1  0.246384  0.211275  0.951396  1
  Zr  Zr5  1  0.999362  0.510094  0.998155  1
  Zr  Zr6  1  -0.000011  0.999476  0.498525  1
  Zr  Zr7  1  0.492946  0.497623  0.509960  1
  Zr  Zr8  1  0.531291  0.745625  0.290796  1
  Zr  Zr9  1  0.964147  0.250263  0.216004  1
  Zr  Zr10  1  0.471041  0.258340  0.718008  1
  Zr  Zr11  1  0.035476  0.749597  0.782783  1
  Zr  Zr12  1  0.759138  0.790140  0.041568  1
  Zr  Zr13  1  0.780940  0.029535  0.753484  1
  Zr  Zr14  1  0.282666  0.534790  0.746803  1
  Zr  Zr15  1  0.249717  0.707214  0.461749  1
  N  N16  1  0.727899  0.993613  0.959280  1
  N  N17  1  0.511764  0.239150  0.971804  1
  N  N18  1  0.767834  0.727330  0.262941  1
  N  N19  1  0.728665  0.255819  0.772032  1
  N  N20  1  0.465849  0.227484  0.452994  1
  N  N21  1  0.014882  0.048315  0.277810  1
  N  N22  1  0.538486  0.770909  0.542081  1
  N  N23  1  0.229214  0.456005  0.467693  1
  N  N24  1  0.955859  0.728846  0.987206  1
  N  N25  1  0.987479  0.954915  0.727888  1
  N  N26  1  0.226428  0.270972  0.738741  1
  N  N27  1  0.963881  0.506606  0.237136  1
  N  N28  1  0.546518  0.535579  0.773919  1
  N  N29  1  0.274538  0.740157  0.226571  1
  N  N30  1  0.030243  0.487775  0.757007  1
  N  N31  1  0.266280  0.780350  0.730421  1
  O  O32  1  0.760767  0.035339  0.482544  1
  O  O33  1  0.272304  0.007800  0.044322  1
  O  O34  1  0.738740  0.224217  0.276878  1
  O  O35  1  0.771414  0.540971  0.526889  1
  O  O36  1  0.448401  0.463470  0.224695  1
  O  O37  1  0.489492  0.765894  0.037010  1
  O  O38  1  0.233489  0.963138  0.508423  1
  O  O39  1  0.053424  0.274522  0.018941  1
