# generated using pymatgen
data_LiMnP2HO7
_symmetry_space_group_name_H-M   'P 1'
_cell_length_a   9.94216501
_cell_length_b   8.73044336
_cell_length_c   6.45219894
_cell_angle_alpha   77.89547540
_cell_angle_beta   107.86096203
_cell_angle_gamma   88.47698269
_symmetry_Int_Tables_number   1
_chemical_formula_structural   LiMnP2HO7
_chemical_formula_sum   'Li4 Mn4 P8 H4 O28'
_cell_volume   518.71197135
_cell_formula_units_Z   4
loop_
 _symmetry_equiv_pos_site_id
 _symmetry_equiv_pos_as_xyz
  1  'x, y, z'
loop_
 _atom_site_type_symbol
 _atom_site_label
 _atom_site_symmetry_multiplicity
 _atom_site_fract_x
 _atom_site_fract_y
 _atom_site_fract_z
 _atom_site_occupancy
  Li  Li0  1  0.124511  0.229758  0.275267  1
  Li  Li1  1  0.375489  0.270242  0.724733  1
  Li  Li2  1  0.634104  0.743397  0.314178  1
  Li  Li3  1  0.865896  0.756603  0.685822  1
  Mn  Mn4  1  0.059159  0.827109  0.207293  1
  Mn  Mn5  1  0.534721  0.281490  0.358548  1
  Mn  Mn6  1  0.440841  0.672891  0.792707  1
  Mn  Mn7  1  0.965279  0.218510  0.641451  1
  P  P8  1  0.384478  0.002998  0.195206  1
  P  P9  1  0.115522  0.497002  0.804794  1
  P  P10  1  0.311774  0.538490  0.240411  1
  P  P11  1  0.815371  0.026510  0.253663  1
  P  P12  1  0.188226  0.961510  0.759589  1
  P  P13  1  0.684629  0.473490  0.746337  1
  P  P14  1  0.877420  0.506882  0.182991  1
  P  P15  1  0.622580  0.993118  0.817009  1
  H  H16  1  0.238321  0.543804  0.566229  1
  H  H17  1  0.753536  0.030053  0.591228  1
  H  H18  1  0.261679  0.956196  0.433771  1
  H  H19  1  0.746464  0.469947  0.408772  1
  O  O20  1  0.247991  0.023145  0.275422  1
  O  O21  1  0.179494  0.133899  0.635010  1
  O  O22  1  0.076765  0.333441  0.894323  1
  O  O23  1  0.003172  0.613489  0.634180  1
  O  O24  1  0.423235  0.166559  0.105677  1
  O  O25  1  0.512305  0.118124  0.643441  1
  O  O26  1  0.320506  0.366101  0.364990  1
  O  O27  1  0.252009  0.476855  0.724578  1
  O  O28  1  0.178816  0.575503  0.013728  1
  O  O29  1  0.053467  0.935459  0.827334  1
  O  O30  1  0.266602  0.653904  0.365594  1
  O  O31  1  0.689477  0.081632  0.016177  1
  O  O32  1  0.540943  0.453482  0.787559  1
  O  O33  1  0.783637  0.142134  0.392998  1
  O  O34  1  0.233398  0.846096  0.634406  1
  O  O35  1  0.446533  0.564541  0.172666  1
  O  O36  1  0.321184  0.924497  0.986272  1
  O  O37  1  0.716363  0.357866  0.607002  1
  O  O38  1  0.959057  0.046518  0.212441  1
  O  O39  1  0.810523  0.418368  0.983823  1
  O  O40  1  0.748641  0.544479  0.264596  1
  O  O41  1  0.696709  0.642189  0.644295  1
  O  O42  1  0.496828  0.886511  0.365820  1
  O  O43  1  0.570406  0.840914  0.909603  1
  O  O44  1  0.987695  0.381876  0.356559  1
  O  O45  1  0.929594  0.659086  0.090397  1
  O  O46  1  0.803291  0.857811  0.355705  1
  O  O47  1  0.751359  0.955521  0.735404  1
