# generated using pymatgen
data_V4FeCoO12
_symmetry_space_group_name_H-M   'P 1'
_cell_length_a   6.83549849
_cell_length_b   6.83549768
_cell_length_c   5.90004472
_cell_angle_alpha   74.71103698
_cell_angle_beta   105.28896708
_cell_angle_gamma   95.98533950
_symmetry_Int_Tables_number   1
_chemical_formula_structural   V4FeCoO12
_chemical_formula_sum   'V4 Fe1 Co1 O12'
_cell_volume   256.32714005
_cell_formula_units_Z   1
loop_
 _symmetry_equiv_pos_site_id
 _symmetry_equiv_pos_as_xyz
  1  'x, y, z'
loop_
 _atom_site_type_symbol
 _atom_site_label
 _atom_site_symmetry_multiplicity
 _atom_site_fract_x
 _atom_site_fract_y
 _atom_site_fract_z
 _atom_site_occupancy
  V  V0  1  0.205763  0.610663  0.760582  1
  V  V1  1  0.387973  0.792994  0.260419  1
  V  V2  1  0.610663  0.205763  0.739418  1
  V  V3  1  0.792994  0.387973  0.239581  1
  Fe  Fe4  1  0.915077  0.915077  0.250000  1
  Co  Co5  1  0.087444  0.087444  0.750000  1
  O  O6  1  0.038344  0.803615  0.646538  1
  O  O7  1  0.090519  0.378698  0.781027  1
  O  O8  1  0.197488  0.963744  0.139705  1
  O  O9  1  0.367323  0.646301  0.555446  1
  O  O10  1  0.378698  0.090519  0.718973  1
  O  O11  1  0.353032  0.632484  0.054666  1
  O  O12  1  0.646301  0.367323  0.944554  1
  O  O13  1  0.617718  0.910821  0.282462  1
  O  O14  1  0.632484  0.353032  0.445334  1
  O  O15  1  0.803615  0.038344  0.853462  1
  O  O16  1  0.910821  0.617718  0.217538  1
  O  O17  1  0.963744  0.197488  0.360295  1
