# generated using pymatgen
data_Li2VGaO4
_symmetry_space_group_name_H-M   'P 1'
_cell_length_a   5.16681001
_cell_length_b   6.00158199
_cell_length_c   7.84495084
_cell_angle_alpha   79.18154304
_cell_angle_beta   71.53771886
_cell_angle_gamma   89.94363713
_symmetry_Int_Tables_number   1
_chemical_formula_structural   Li2VGaO4
_chemical_formula_sum   'Li6 V3 Ga3 O12'
_cell_volume   226.19648913
_cell_formula_units_Z   3
loop_
 _symmetry_equiv_pos_site_id
 _symmetry_equiv_pos_as_xyz
  1  'x, y, z'
loop_
 _atom_site_type_symbol
 _atom_site_label
 _atom_site_symmetry_multiplicity
 _atom_site_fract_x
 _atom_site_fract_y
 _atom_site_fract_z
 _atom_site_occupancy
  Li  Li0  1  0.000768  0.502768  0.999765  1
  Li  Li1  1  0.001545  0.336765  0.663947  1
  Li  Li2  1  0.000609  0.993303  0.998795  1
  Li  Li3  1  0.999053  0.663984  0.333535  1
  Li  Li4  1  0.999648  0.173285  0.334616  1
  Li  Li5  1  0.998419  0.829808  0.669399  1
  V  V6  1  0.500413  0.246630  0.000470  1
  V  V7  1  0.499596  0.920110  0.332748  1
  V  V8  1  0.499902  0.083357  0.666529  1
  Ga  Ga9  1  0.499547  0.743916  0.999696  1
  Ga  Ga10  1  0.500433  0.422817  0.333712  1
  Ga  Ga11  1  0.500050  0.583240  0.666756  1
  O  O12  1  0.272671  0.957059  0.160144  1
  O  O13  1  0.275322  0.461254  0.163017  1
  O  O14  1  0.273093  0.136700  0.493890  1
  O  O15  1  0.274898  0.629759  0.495027  1
  O  O16  1  0.274997  0.291530  0.825952  1
  O  O17  1  0.274407  0.782693  0.829877  1
  O  O18  1  0.724829  0.704818  0.169986  1
  O  O19  1  0.727127  0.208917  0.173653  1
  O  O20  1  0.725694  0.384026  0.503380  1
  O  O21  1  0.725186  0.875261  0.507330  1
  O  O22  1  0.725475  0.537343  0.838027  1
  O  O23  1  0.726317  0.030655  0.839747  1
