# generated using pymatgen
data_LiVSiO4
_symmetry_space_group_name_H-M   'P 1'
_cell_length_a   9.36837324
_cell_length_b   5.57673504
_cell_length_c   6.39358353
_cell_angle_alpha   105.91800449
_cell_angle_beta   103.90915874
_cell_angle_gamma   79.88332881
_symmetry_Int_Tables_number   1
_chemical_formula_structural   LiVSiO4
_chemical_formula_sum   'Li4 V4 Si4 O16'
_cell_volume   309.64338618
_cell_formula_units_Z   4
loop_
 _symmetry_equiv_pos_site_id
 _symmetry_equiv_pos_as_xyz
  1  'x, y, z'
loop_
 _atom_site_type_symbol
 _atom_site_label
 _atom_site_symmetry_multiplicity
 _atom_site_fract_x
 _atom_site_fract_y
 _atom_site_fract_z
 _atom_site_occupancy
  Li  Li0  1  0.116760  0.301692  0.379030  1
  Li  Li1  1  0.230319  0.794693  0.435090  1
  Li  Li2  1  0.769681  0.205307  0.564910  1
  Li  Li3  1  0.883240  0.698308  0.620970  1
  V  V4  1  0.208274  0.725150  0.930806  1
  V  V5  1  0.423327  0.222132  0.166996  1
  V  V6  1  0.576673  0.777868  0.833004  1
  V  V7  1  0.791726  0.274850  0.069194  1
  Si  Si8  1  0.090865  0.182723  0.825947  1
  Si  Si9  1  0.460622  0.315093  0.707352  1
  Si  Si10  1  0.539378  0.684907  0.292648  1
  Si  Si11  1  0.909135  0.817277  0.174053  1
  O  O12  1  0.127977  0.392519  0.718755  1
  O  O13  1  0.109258  0.883482  0.678344  1
  O  O14  1  0.080234  0.758101  0.141305  1
  O  O15  1  0.207832  0.147567  0.061257  1
  O  O16  1  0.441884  0.117058  0.842421  1
  O  O17  1  0.389294  0.613910  0.790955  1
  O  O18  1  0.382800  0.217934  0.451263  1
  O  O19  1  0.362966  0.628252  0.227114  1
  O  O20  1  0.637034  0.371748  0.772886  1
  O  O21  1  0.617200  0.782066  0.548737  1
  O  O22  1  0.610706  0.386090  0.209045  1
  O  O23  1  0.558116  0.882942  0.157579  1
  O  O24  1  0.792168  0.852433  0.938743  1
  O  O25  1  0.919766  0.241899  0.858695  1
  O  O26  1  0.890742  0.116518  0.321656  1
  O  O27  1  0.872023  0.607481  0.281245  1
