# generated using pymatgen
data_Li3Mn4(BO3)4
_symmetry_space_group_name_H-M   'P 1'
_cell_length_a   9.34097069
_cell_length_b   6.17320905
_cell_length_c   9.05168698
_cell_angle_alpha   103.00487107
_cell_angle_beta   97.84195238
_cell_angle_gamma   83.38174436
_symmetry_Int_Tables_number   1
_chemical_formula_structural   Li3Mn4(BO3)4
_chemical_formula_sum   'Li6 Mn8 B8 O24'
_cell_volume   501.87414802
_cell_formula_units_Z   2
loop_
 _symmetry_equiv_pos_site_id
 _symmetry_equiv_pos_as_xyz
  1  'x, y, z'
loop_
 _atom_site_type_symbol
 _atom_site_label
 _atom_site_symmetry_multiplicity
 _atom_site_fract_x
 _atom_site_fract_y
 _atom_site_fract_z
 _atom_site_occupancy
  Li  Li0  1  0.872489  0.791354  0.532643  1
  Li  Li1  1  0.877511  0.458646  0.967357  1
  Li  Li2  1  0.637329  0.044437  0.029692  1
  Li  Li3  1  0.366949  0.949152  0.968015  1
  Li  Li4  1  0.383051  0.300848  0.531985  1
  Li  Li5  1  0.112671  0.205563  0.470308  1
  Mn  Mn6  1  0.908840  0.851518  0.199021  1
  Mn  Mn7  1  0.841160  0.398482  0.300979  1
  Mn  Mn8  1  0.604762  0.644156  0.786955  1
  Mn  Mn9  1  0.357368  0.890000  0.304672  1
  Mn  Mn10  1  0.646943  0.104516  0.692244  1
  Mn  Mn11  1  0.392632  0.360000  0.195328  1
  Mn  Mn12  1  0.145238  0.605844  0.713045  1
  Mn  Mn13  1  0.103057  0.145484  0.807756  1
  B  B14  1  0.896444  0.855202  0.865243  1
  B  B15  1  0.853556  0.394798  0.634757  1
  B  B16  1  0.601573  0.654744  0.122833  1
  B  B17  1  0.350930  0.923508  0.639297  1
  B  B18  1  0.649065  0.091615  0.363832  1
  B  B19  1  0.399070  0.326492  0.860703  1
  B  B20  1  0.148427  0.595256  0.377167  1
  B  B21  1  0.100935  0.158385  0.136168  1
  O  O22  1  0.977264  0.874060  0.747202  1
  O  O23  1  0.958168  0.745643  0.975623  1
  O  O24  1  0.722066  0.015511  0.485875  1
  O  O25  1  0.000265  0.319236  0.645805  1
  O  O26  1  0.748493  0.577803  0.135271  1
  O  O27  1  0.749735  0.930764  0.854195  1
  O  O28  1  0.791832  0.504357  0.524377  1
  O  O29  1  0.541046  0.761121  0.007593  1
  O  O30  1  0.772736  0.375940  0.752798  1
  O  O31  1  0.514347  0.633187  0.231806  1
  O  O32  1  0.499581  0.866409  0.656095  1
  O  O33  1  0.724238  0.101518  0.241782  1
  O  O34  1  0.271977  0.895149  0.754299  1
  O  O35  1  0.499091  0.158803  0.355231  1
  O  O36  1  0.478023  0.354851  0.745701  1
  O  O37  1  0.235653  0.616813  0.268194  1
  O  O38  1  0.465405  0.233875  0.980004  1
  O  O39  1  0.208954  0.488879  0.492407  1
  O  O40  1  0.250909  0.091197  0.144769  1
  O  O41  1  0.250419  0.383591  0.843905  1
  O  O42  1  0.001507  0.672197  0.364729  1
  O  O43  1  0.284595  0.016125  0.519996  1
  O  O44  1  0.027934  0.234489  0.014125  1
  O  O45  1  0.025762  0.148482  0.258218  1
