# generated using pymatgen
data_La2Nb2N2O5
_symmetry_space_group_name_H-M   'P 1'
_cell_length_a   7.62723364
_cell_length_b   7.61987199
_cell_length_c   7.62723364
_cell_angle_alpha   120.07830312
_cell_angle_beta   89.98986255
_cell_angle_gamma   60.02606835
_symmetry_Int_Tables_number   1
_chemical_formula_structural   La2Nb2N2O5
_chemical_formula_sum   'La4 Nb4 N4 O10'
_cell_volume   313.17321469
_cell_formula_units_Z   2
loop_
 _symmetry_equiv_pos_site_id
 _symmetry_equiv_pos_as_xyz
  1  'x, y, z'
loop_
 _atom_site_type_symbol
 _atom_site_label
 _atom_site_symmetry_multiplicity
 _atom_site_fract_x
 _atom_site_fract_y
 _atom_site_fract_z
 _atom_site_occupancy
  La  La0  1  0.119767  0.250704  0.625142  1
  La  La1  1  0.629487  0.249852  0.623089  1
  La  La2  1  0.626763  0.750148  0.120660  1
  La  La3  1  0.625561  0.749296  0.629529  1
  Nb  Nb4  1  0.108976  0.258741  0.127487  1
  Nb  Nb5  1  0.623807  0.257734  0.120515  1
  Nb  Nb6  1  0.137219  0.742266  0.118459  1
  Nb  Nb7  1  0.131256  0.741259  0.632283  1
  N  N8  1  0.809506  0.385451  0.195019  1
  N  N9  1  0.443128  0.500000  0.056872  1
  N  N10  1  0.751313  0.500000  0.748687  1
  N  N11  1  0.190432  0.614549  0.805044  1
  O  O12  1  0.197899  0.003904  0.199871  1
  O  O13  1  0.198550  0.000000  0.801450  1
  O  O14  1  0.797061  0.000000  0.202939  1
  O  O15  1  0.804033  0.996096  0.798197  1
  O  O16  1  0.498298  0.000000  0.501702  1
  O  O17  1  0.450995  0.098889  0.049053  1
  O  O18  1  0.054270  0.498234  0.052754  1
  O  O19  1  0.056365  0.500000  0.443635  1
  O  O20  1  0.445479  0.501766  0.447496  1
  O  O21  1  0.049836  0.901111  0.450116  1
