# generated using pymatgen
data_BaYb2O4
_symmetry_space_group_name_H-M   'P 1'
_cell_length_a   10.37406556
_cell_length_b   12.11522311
_cell_length_c   3.54447877
_cell_angle_alpha   89.99997783
_cell_angle_beta   89.99999691
_cell_angle_gamma   90.02003227
_symmetry_Int_Tables_number   1
_chemical_formula_structural   BaYb2O4
_chemical_formula_sum   'Ba4 Yb8 O16'
_cell_volume   445.48466377
_cell_formula_units_Z   4
loop_
 _symmetry_equiv_pos_site_id
 _symmetry_equiv_pos_as_xyz
  1  'x, y, z'
loop_
 _atom_site_type_symbol
 _atom_site_label
 _atom_site_symmetry_multiplicity
 _atom_site_fract_x
 _atom_site_fract_y
 _atom_site_fract_z
 _atom_site_occupancy
  Yb  Yb0  1  0.077920  0.608760  0.750001  1
  Yb  Yb1  1  0.078919  0.107590  0.749999  1
  Yb  Yb2  1  0.421053  0.607645  0.250000  1
  Yb  Yb3  1  0.422107  0.108831  0.250000  1
  Yb  Yb4  1  0.577962  0.891200  0.750001  1
  Yb  Yb5  1  0.579020  0.392458  0.750000  1
  Yb  Yb6  1  0.920997  0.892612  0.250000  1
  Yb  Yb7  1  0.922143  0.390967  0.250000  1
  Ba  Ba8  1  0.248402  0.345859  0.750000  1
  Ba  Ba9  1  0.251509  0.845846  0.249999  1
  Ba  Ba10  1  0.748659  0.154065  0.750000  1
  Ba  Ba11  1  0.751444  0.654152  0.250000  1
  O  O12  1  0.016162  0.721994  0.250000  1
  O  O13  1  0.069878  0.919602  0.750000  1
  O  O14  1  0.118424  0.482398  0.250000  1
  O  O15  1  0.213287  0.166648  0.249999  1
  O  O16  1  0.286645  0.666473  0.750001  1
  O  O17  1  0.381483  0.982272  0.749999  1
  O  O18  1  0.430157  0.419624  0.250001  1
  O  O19  1  0.483811  0.222099  0.750001  1
  O  O20  1  0.516130  0.777841  0.249999  1
  O  O21  1  0.569890  0.580453  0.750000  1
  O  O22  1  0.618391  0.017676  0.250000  1
  O  O23  1  0.713368  0.333461  0.249999  1
  O  O24  1  0.786763  0.833417  0.750000  1
  O  O25  1  0.881528  0.517733  0.750000  1
  O  O26  1  0.930169  0.080249  0.250000  1
  O  O27  1  0.983777  0.278073  0.749999  1
