# generated using pymatgen
data_Li2TiNb3O8
_symmetry_space_group_name_H-M   'P 1'
_cell_length_a   8.66583223
_cell_length_b   8.65624921
_cell_length_c   8.66262368
_cell_angle_alpha   89.89781458
_cell_angle_beta   89.62290401
_cell_angle_gamma   89.14720254
_symmetry_Int_Tables_number   1
_chemical_formula_structural   Li2TiNb3O8
_chemical_formula_sum   'Li8 Ti4 Nb12 O32'
_cell_volume   649.72764375
_cell_formula_units_Z   4
loop_
 _symmetry_equiv_pos_site_id
 _symmetry_equiv_pos_as_xyz
  1  'x, y, z'
loop_
 _atom_site_type_symbol
 _atom_site_label
 _atom_site_symmetry_multiplicity
 _atom_site_fract_x
 _atom_site_fract_y
 _atom_site_fract_z
 _atom_site_occupancy
  Li  Li0  1  0.015269  0.006183  0.010100  1
  Li  Li1  1  0.236568  0.235756  0.238240  1
  Li  Li2  1  0.252230  0.758568  0.752144  1
  Li  Li3  1  0.479695  0.991558  0.507129  1
  Li  Li4  1  0.499103  0.488268  0.986782  1
  Li  Li5  1  0.749807  0.252113  0.760997  1
  Li  Li6  1  0.761601  0.753002  0.251022  1
  Li  Li7  1  0.000627  0.507379  0.487897  1
  Ti  Ti8  1  0.114027  0.883571  0.383551  1
  Ti  Ti9  1  0.389551  0.124437  0.879498  1
  Ti  Ti10  1  0.624416  0.623427  0.618474  1
  Ti  Ti11  1  0.868896  0.375001  0.135310  1
  Nb  Nb12  1  0.114750  0.134033  0.635021  1
  Nb  Nb13  1  0.116977  0.366307  0.865310  1
  Nb  Nb14  1  0.130963  0.628265  0.121635  1
  Nb  Nb15  1  0.386806  0.384627  0.599900  1
  Nb  Nb16  1  0.389561  0.600996  0.380109  1
  Nb  Nb17  1  0.375650  0.866533  0.129481  1
  Nb  Nb18  1  0.620302  0.373968  0.373259  1
  Nb  Nb19  1  0.636506  0.129735  0.144864  1
  Nb  Nb20  1  0.644131  0.865192  0.868082  1
  Nb  Nb21  1  0.850435  0.138177  0.364852  1
  Nb  Nb22  1  0.864009  0.864750  0.645724  1
  Nb  Nb23  1  0.867430  0.645398  0.862764  1
  O  O24  1  0.108779  0.108853  0.387179  1
  O  O25  1  0.114050  0.886763  0.613394  1
  O  O26  1  0.118826  0.619460  0.884357  1
  O  O27  1  0.147679  0.127120  0.874952  1
  O  O28  1  0.107760  0.385762  0.111928  1
  O  O29  1  0.139147  0.377328  0.625070  1
  O  O30  1  0.139024  0.641553  0.358241  1
  O  O31  1  0.131584  0.869344  0.148770  1
  O  O32  1  0.353298  0.135110  0.641758  1
  O  O33  1  0.358480  0.353290  0.861326  1
  O  O34  1  0.374357  0.622596  0.130212  1
  O  O35  1  0.387631  0.622002  0.625981  1
  O  O36  1  0.354265  0.861536  0.362748  1
  O  O37  1  0.368594  0.361155  0.359628  1
  O  O38  1  0.386975  0.111741  0.107856  1
  O  O39  1  0.383626  0.892018  0.891818  1
  O  O40  1  0.623905  0.386074  0.622695  1
  O  O41  1  0.626745  0.624754  0.385827  1
  O  O42  1  0.618873  0.883969  0.118098  1
  O  O43  1  0.638904  0.371477  0.120448  1
  O  O44  1  0.609983  0.114699  0.886465  1
  O  O45  1  0.612311  0.121883  0.390568  1
  O  O46  1  0.621823  0.858445  0.628075  1
  O  O47  1  0.627863  0.624958  0.859807  1
  O  O48  1  0.873961  0.378715  0.361553  1
  O  O49  1  0.876499  0.141980  0.119794  1
  O  O50  1  0.883972  0.888243  0.889330  1
  O  O51  1  0.891844  0.891219  0.386537  1
  O  O52  1  0.862852  0.625495  0.622385  1
  O  O53  1  0.885236  0.119120  0.621311  1
  O  O54  1  0.891236  0.385755  0.888174  1
  O  O55  1  0.890611  0.610476  0.111712  1
