# generated using pymatgen
data_Li5MnOF5
_symmetry_space_group_name_H-M   'P 1'
_cell_length_a   3.29727269
_cell_length_b   3.29885809
_cell_length_c   14.92510462
_cell_angle_alpha   89.99999852
_cell_angle_beta   90.01296327
_cell_angle_gamma   120.01589734
_symmetry_Int_Tables_number   1
_chemical_formula_structural   Li5MnOF5
_chemical_formula_sum   'Li5 Mn1 O1 F5'
_cell_volume   140.57137968
_cell_formula_units_Z   1
loop_
 _symmetry_equiv_pos_site_id
 _symmetry_equiv_pos_as_xyz
  1  'x, y, z'
loop_
 _atom_site_type_symbol
 _atom_site_label
 _atom_site_symmetry_multiplicity
 _atom_site_fract_x
 _atom_site_fract_y
 _atom_site_fract_z
 _atom_site_occupancy
  Li  Li0  1  0.333603  0.666851  0.337426  1
  Li  Li1  1  0.333609  0.666854  0.659967  1
  Li  Li2  1  0.666605  0.333352  0.177455  1
  Li  Li3  1  0.666679  0.333390  0.498851  1
  Li  Li4  1  0.666580  0.333340  0.820790  1
  Mn  Mn5  1  0.333086  0.666592  0.991326  1
  O  O6  1  0.666060  0.333080  0.953905  1
  F  F7  1  0.333448  0.666775  0.464712  1
  F  F8  1  0.333410  0.666756  0.144682  1
  F  F9  1  0.333404  0.666752  0.786507  1
  F  F10  1  0.666738  0.333419  0.304064  1
  F  F11  1  0.666779  0.333440  0.626316  1
