# generated using pymatgen
data_Li2MnF5
_symmetry_space_group_name_H-M   'P 1'
_cell_length_a   13.99243714
_cell_length_b   14.39201063
_cell_length_c   5.41666416
_cell_angle_alpha   90.00000000
_cell_angle_beta   90.00000000
_cell_angle_gamma   87.25997521
_symmetry_Int_Tables_number   1
_chemical_formula_structural   Li2MnF5
_chemical_formula_sum   'Li24 Mn12 F60'
_cell_volume   1089.55696865
_cell_formula_units_Z   12
loop_
 _symmetry_equiv_pos_site_id
 _symmetry_equiv_pos_as_xyz
  1  'x, y, z'
loop_
 _atom_site_type_symbol
 _atom_site_label
 _atom_site_symmetry_multiplicity
 _atom_site_fract_x
 _atom_site_fract_y
 _atom_site_fract_z
 _atom_site_occupancy
  Li  Li0  1  0.030048  0.586407  0.728561  1
  Li  Li1  1  0.030048  0.086407  0.771439  1
  Li  Li2  1  0.084840  0.715113  0.343350  1
  Li  Li3  1  0.084840  0.215113  0.156650  1
  Li  Li4  1  0.237524  0.616720  0.744766  1
  Li  Li5  1  0.237524  0.116720  0.755234  1
  Li  Li6  1  0.302704  0.747408  0.212489  1
  Li  Li7  1  0.302704  0.247408  0.287511  1
  Li  Li8  1  0.360259  0.928411  0.716097  1
  Li  Li9  1  0.360259  0.428411  0.783903  1
  Li  Li10  1  0.433777  0.547995  0.302595  1
  Li  Li11  1  0.433777  0.047995  0.197405  1
  Li  Li12  1  0.566223  0.952005  0.802595  1
  Li  Li13  1  0.566223  0.452005  0.697405  1
  Li  Li14  1  0.639741  0.571589  0.216097  1
  Li  Li15  1  0.639741  0.071589  0.283903  1
  Li  Li16  1  0.697296  0.752592  0.712489  1
  Li  Li17  1  0.697296  0.252592  0.787511  1
  Li  Li18  1  0.762476  0.883280  0.244766  1
  Li  Li19  1  0.762476  0.383280  0.255234  1
  Li  Li20  1  0.915160  0.784887  0.843350  1
  Li  Li21  1  0.915160  0.284887  0.656650  1
  Li  Li22  1  0.969952  0.913593  0.228561  1
  Li  Li23  1  0.969952  0.413593  0.271439  1
  Mn  Mn24  1  0.136554  0.834864  0.754003  1
  Mn  Mn25  1  0.136554  0.334864  0.745997  1
  Mn  Mn26  1  0.204957  0.009538  0.259026  1
  Mn  Mn27  1  0.204957  0.509538  0.240974  1
  Mn  Mn28  1  0.461658  0.665104  0.753160  1
  Mn  Mn29  1  0.461658  0.165104  0.746840  1
  Mn  Mn30  1  0.538342  0.834896  0.253160  1
  Mn  Mn31  1  0.538342  0.334896  0.246840  1
  Mn  Mn32  1  0.795043  0.490462  0.759026  1
  Mn  Mn33  1  0.795043  0.990462  0.740974  1
  Mn  Mn34  1  0.863446  0.665136  0.254003  1
  Mn  Mn35  1  0.863446  0.165136  0.245997  1
  F  F36  1  0.045634  0.848088  0.493312  1
  F  F37  1  0.033687  0.828044  0.977134  1
  F  F38  1  0.045634  0.348088  0.006688  1
  F  F39  1  0.033687  0.328044  0.522866  1
  F  F40  1  0.128369  0.691900  0.697654  1
  F  F41  1  0.128369  0.191900  0.802346  1
  F  F42  1  0.085804  0.503143  0.396286  1
  F  F43  1  0.085804  0.003143  0.103714  1
  F  F44  1  0.143453  0.518409  0.927203  1
  F  F45  1  0.143453  0.018409  0.572797  1
  F  F46  1  0.219108  0.834036  0.019803  1
  F  F47  1  0.219108  0.334036  0.480197  1
  F  F48  1  0.237820  0.845405  0.532568  1
  F  F49  1  0.237820  0.345405  0.967432  1
  F  F50  1  0.201810  0.653970  0.251009  1
  F  F51  1  0.201810  0.153970  0.248991  1
  F  F52  1  0.267610  0.508058  0.549969  1
  F  F53  1  0.328008  0.499904  0.097329  1
  F  F54  1  0.267610  0.008058  0.950031  1
  F  F55  1  0.328008  0.999904  0.402671  1
  F  F56  1  0.340812  0.676038  0.903916  1
  F  F57  1  0.397657  0.687042  0.449353  1
  F  F58  1  0.340812  0.176038  0.596084  1
  F  F59  1  0.397657  0.187042  0.050647  1
  F  F60  1  0.447488  0.525046  0.680473  1
  F  F61  1  0.421583  0.832057  0.088618  1
  F  F62  1  0.447488  0.025046  0.819527  1
  F  F63  1  0.421583  0.332057  0.411382  1
  F  F64  1  0.480382  0.863310  0.561567  1
  F  F65  1  0.480382  0.363310  0.938433  1
  F  F66  1  0.519618  0.636690  0.061567  1
  F  F67  1  0.519618  0.136690  0.438433  1
  F  F68  1  0.578417  0.667943  0.588618  1
  F  F69  1  0.552512  0.974954  0.180473  1
  F  F70  1  0.578417  0.167943  0.911382  1
  F  F71  1  0.552512  0.474954  0.319527  1
  F  F72  1  0.602343  0.812958  0.949353  1
  F  F73  1  0.659188  0.823962  0.403916  1
  F  F74  1  0.602343  0.312958  0.550647  1
  F  F75  1  0.659188  0.323962  0.096084  1
  F  F76  1  0.671992  0.000096  0.597329  1
  F  F77  1  0.732390  0.991942  0.049969  1
  F  F78  1  0.671992  0.500096  0.902671  1
  F  F79  1  0.732390  0.491942  0.450031  1
  F  F80  1  0.798190  0.846030  0.751009  1
  F  F81  1  0.798190  0.346030  0.748991  1
  F  F82  1  0.762180  0.654595  0.032568  1
  F  F83  1  0.762180  0.154595  0.467432  1
  F  F84  1  0.780892  0.665964  0.519803  1
  F  F85  1  0.780892  0.165964  0.980197  1
  F  F86  1  0.856547  0.981591  0.427203  1
  F  F87  1  0.856547  0.481591  0.072797  1
  F  F88  1  0.914196  0.996857  0.896286  1
  F  F89  1  0.914196  0.496857  0.603714  1
  F  F90  1  0.871631  0.808100  0.197654  1
  F  F91  1  0.871631  0.308100  0.302346  1
  F  F92  1  0.966313  0.671956  0.477134  1
  F  F93  1  0.954366  0.651912  0.993312  1
  F  F94  1  0.966313  0.171956  0.022866  1
  F  F95  1  0.954366  0.151912  0.506688  1
