# generated using pymatgen
data_Li3TiV3O8
_symmetry_space_group_name_H-M   'P 1'
_cell_length_a   4.08440320
_cell_length_b   6.49243958
_cell_length_c   6.65762971
_cell_angle_alpha   73.46205880
_cell_angle_beta   89.98272910
_cell_angle_gamma   71.70436369
_symmetry_Int_Tables_number   1
_chemical_formula_structural   Li3TiV3O8
_chemical_formula_sum   'Li3 Ti1 V3 O8'
_cell_volume   159.91556500
_cell_formula_units_Z   1
loop_
 _symmetry_equiv_pos_site_id
 _symmetry_equiv_pos_as_xyz
  1  'x, y, z'
loop_
 _atom_site_type_symbol
 _atom_site_label
 _atom_site_symmetry_multiplicity
 _atom_site_fract_x
 _atom_site_fract_y
 _atom_site_fract_z
 _atom_site_occupancy
  Li  Li0  1  0.937350  0.117629  0.638838  1
  Li  Li1  1  0.176479  0.647275  0.004017  1
  Li  Li2  1  0.060430  0.876780  0.357141  1
  Ti  Ti3  1  0.295655  0.402551  0.714924  1
  V  V4  1  0.390408  0.214115  0.310310  1
  V  V5  1  0.711266  0.575521  0.299444  1
  V  V6  1  0.610875  0.776299  0.698010  1
  O  O7  1  0.338450  0.317941  0.987951  1
  O  O8  1  0.433670  0.126286  0.647111  1
  O  O9  1  0.881766  0.231923  0.328618  1
  O  O10  1  0.225460  0.545878  0.326412  1
  O  O11  1  0.773755  0.448624  0.651814  1
  O  O12  1  0.122384  0.753336  0.683180  1
  O  O13  1  0.559538  0.877585  0.370239  1
  O  O14  1  0.650820  0.697453  0.000191  1
