# generated using pymatgen
data_Li2AlFeO4
_symmetry_space_group_name_H-M   'P 1'
_cell_length_a   6.43936536
_cell_length_b   10.91757820
_cell_length_c   5.15811666
_cell_angle_alpha   90.00000000
_cell_angle_beta   89.89390483
_cell_angle_gamma   90.00000000
_symmetry_Int_Tables_number   1
_chemical_formula_structural   Li2AlFeO4
_chemical_formula_sum   'Li8 Al4 Fe4 O16'
_cell_volume   362.62671383
_cell_formula_units_Z   4
loop_
 _symmetry_equiv_pos_site_id
 _symmetry_equiv_pos_as_xyz
  1  'x, y, z'
loop_
 _atom_site_type_symbol
 _atom_site_label
 _atom_site_symmetry_multiplicity
 _atom_site_fract_x
 _atom_site_fract_y
 _atom_site_fract_z
 _atom_site_occupancy
  Li  Li0  1  0.007329  0.835284  0.689154  1
  Li  Li1  1  0.239905  0.078944  0.704499  1
  Li  Li2  1  0.260095  0.578944  0.795501  1
  Li  Li3  1  0.492671  0.335284  0.810846  1
  Li  Li4  1  0.507329  0.664716  0.189154  1
  Li  Li5  1  0.739905  0.421056  0.204499  1
  Li  Li6  1  0.760095  0.921056  0.295501  1
  Li  Li7  1  0.992671  0.164716  0.310846  1
  Al  Al8  1  0.244788  0.413211  0.315100  1
  Al  Al9  1  0.255212  0.913211  0.184900  1
  Al  Al10  1  0.744788  0.086789  0.815100  1
  Al  Al11  1  0.755212  0.586789  0.684900  1
  Fe  Fe12  1  0.003234  0.665516  0.182341  1
  Fe  Fe13  1  0.496766  0.165516  0.317659  1
  Fe  Fe14  1  0.503234  0.834484  0.682341  1
  Fe  Fe15  1  0.996766  0.334484  0.817659  1
  O  O16  1  0.021448  0.336922  0.188699  1
  O  O17  1  0.029963  0.831876  0.291159  1
  O  O18  1  0.251481  0.068426  0.289238  1
  O  O19  1  0.233638  0.409044  0.661809  1
  O  O20  1  0.266362  0.909044  0.838191  1
  O  O21  1  0.248519  0.568426  0.210762  1
  O  O22  1  0.470037  0.331876  0.208841  1
  O  O23  1  0.478552  0.836922  0.311301  1
  O  O24  1  0.521448  0.163078  0.688699  1
  O  O25  1  0.529963  0.668124  0.791159  1
  O  O26  1  0.751481  0.431574  0.789238  1
  O  O27  1  0.733638  0.090956  0.161809  1
  O  O28  1  0.766362  0.590956  0.338191  1
  O  O29  1  0.748519  0.931574  0.710762  1
  O  O30  1  0.970037  0.168124  0.708841  1
  O  O31  1  0.978552  0.663078  0.811301  1
