# generated using pymatgen
data_Na2FePCO7
_symmetry_space_group_name_H-M   'P 1'
_cell_length_a   10.35270028
_cell_length_b   8.35632019
_cell_length_c   8.34284841
_cell_angle_alpha   77.49138191
_cell_angle_beta   71.91837617
_cell_angle_gamma   108.05068163
_symmetry_Int_Tables_number   1
_chemical_formula_structural   Na2FePCO7
_chemical_formula_sum   'Na8 Fe4 P4 C4 O28'
_cell_volume   612.03236165
_cell_formula_units_Z   4
loop_
 _symmetry_equiv_pos_site_id
 _symmetry_equiv_pos_as_xyz
  1  'x, y, z'
loop_
 _atom_site_type_symbol
 _atom_site_label
 _atom_site_symmetry_multiplicity
 _atom_site_fract_x
 _atom_site_fract_y
 _atom_site_fract_z
 _atom_site_occupancy
  Na  Na0  1  0.927641  0.705879  0.539308  1
  Na  Na1  1  0.913230  0.199801  0.054231  1
  Na  Na2  1  0.731877  0.747599  0.272416  1
  Na  Na3  1  0.732751  0.481763  0.000490  1
  Na  Na4  1  0.267249  0.518237  0.999510  1
  Na  Na5  1  0.268123  0.252401  0.727584  1
  Na  Na6  1  0.072359  0.294121  0.460692  1
  Na  Na7  1  0.086770  0.800199  0.945769  1
  Fe  Fe8  1  0.656917  0.299517  0.450579  1
  Fe  Fe9  1  0.653800  0.821610  0.928863  1
  Fe  Fe10  1  0.346200  0.178390  0.071137  1
  Fe  Fe11  1  0.343083  0.700483  0.549421  1
  P  P12  1  0.573723  0.557031  0.691742  1
  P  P13  1  0.577994  0.060714  0.190943  1
  P  P14  1  0.426277  0.442969  0.308258  1
  P  P15  1  0.422006  0.939286  0.809057  1
  C  C16  1  0.935985  0.481817  0.263795  1
  C  C17  1  0.934591  0.975275  0.779028  1
  C  C18  1  0.065409  0.024725  0.220972  1
  C  C19  1  0.064015  0.518183  0.736205  1
  O  O20  1  0.925581  0.937409  0.297700  1
  O  O21  1  0.923462  0.441226  0.823941  1
  O  O22  1  0.873562  0.340372  0.410309  1
  O  O23  1  0.870253  0.827491  0.921906  1
  O  O24  1  0.844238  0.537444  0.214433  1
  O  O25  1  0.843196  0.024498  0.723497  1
  O  O26  1  0.675692  0.978292  0.084669  1
  O  O27  1  0.671273  0.663527  0.774252  1
  O  O28  1  0.676089  0.490748  0.569263  1
  O  O29  1  0.679497  0.183364  0.257629  1
  O  O30  1  0.570274  0.598316  0.156785  1
  O  O31  1  0.566325  0.086134  0.657625  1
  O  O32  1  0.536936  0.183606  0.063738  1
  O  O33  1  0.526166  0.678036  0.573211  1
  O  O34  1  0.463064  0.816394  0.936262  1
  O  O35  1  0.473834  0.321964  0.426789  1
  O  O36  1  0.433675  0.913866  0.342375  1
  O  O37  1  0.429726  0.401684  0.843215  1
  O  O38  1  0.320503  0.816636  0.742371  1
  O  O39  1  0.323911  0.509252  0.430737  1
  O  O40  1  0.328727  0.336473  0.225748  1
  O  O41  1  0.324308  0.021708  0.915331  1
  O  O42  1  0.156804  0.975502  0.276503  1
  O  O43  1  0.155762  0.462556  0.785567  1
  O  O44  1  0.129747  0.172509  0.078094  1
  O  O45  1  0.126438  0.659628  0.589691  1
  O  O46  1  0.076538  0.558774  0.176059  1
  O  O47  1  0.074419  0.062591  0.702300  1
