# generated using pymatgen
data_Li10Mn2Fe3Co3O16
_symmetry_space_group_name_H-M   'P 1'
_cell_length_a   6.03510502
_cell_length_b   6.05396225
_cell_length_c   9.86041643
_cell_angle_alpha   90.05499602
_cell_angle_beta   90.26569742
_cell_angle_gamma   58.17046490
_symmetry_Int_Tables_number   1
_chemical_formula_structural   Li10Mn2Fe3Co3O16
_chemical_formula_sum   'Li10 Mn2 Fe3 Co3 O16'
_cell_volume   306.08332622
_cell_formula_units_Z   1
loop_
 _symmetry_equiv_pos_site_id
 _symmetry_equiv_pos_as_xyz
  1  'x, y, z'
loop_
 _atom_site_type_symbol
 _atom_site_label
 _atom_site_symmetry_multiplicity
 _atom_site_fract_x
 _atom_site_fract_y
 _atom_site_fract_z
 _atom_site_occupancy
  Li  Li0  1  0.987223  0.982483  0.975133  1
  Li  Li1  1  0.012551  0.005974  0.485247  1
  Li  Li2  1  0.198991  0.208315  0.534354  1
  Li  Li3  1  0.605914  0.188389  0.554284  1
  Li  Li4  1  0.310383  0.311329  0.767488  1
  Li  Li5  1  0.815698  0.378785  0.051630  1
  Li  Li6  1  0.170527  0.617711  0.555984  1
  Li  Li7  1  0.379517  0.824255  0.048775  1
  Li  Li8  1  0.788181  0.797310  0.040123  1
  Li  Li9  1  0.674412  0.674391  0.269090  1
  Mn  Mn10  1  0.334161  0.324942  0.021342  1
  Mn  Mn11  1  0.650450  0.653542  0.526569  1
  Fe  Fe12  1  0.669747  0.175704  0.279266  1
  Fe  Fe13  1  0.176080  0.670177  0.277899  1
  Fe  Fe14  1  0.812480  0.811062  0.777971  1
  Co  Co15  1  0.175257  0.173950  0.279679  1
  Co  Co16  1  0.817079  0.316864  0.780163  1
  Co  Co17  1  0.321497  0.809139  0.781598  1
  O  O18  1  0.004589  0.005934  0.165459  1
  O  O19  1  0.993442  0.961946  0.673459  1
  O  O20  1  0.157748  0.128271  0.895661  1
  O  O21  1  0.500962  0.027545  0.153313  1
  O  O22  1  0.029473  0.498949  0.147407  1
  O  O23  1  0.341467  0.344167  0.398576  1
  O  O24  1  0.648162  0.139588  0.904061  1
  O  O25  1  0.501644  0.502604  0.162450  1
  O  O26  1  0.832428  0.340610  0.407017  1
  O  O27  1  0.154993  0.648245  0.895619  1
  O  O28  1  0.480565  0.498965  0.666911  1
  O  O29  1  0.960983  0.502510  0.648863  1
  O  O30  1  0.343910  0.833818  0.403771  1
  O  O31  1  0.644879  0.662375  0.894596  1
  O  O32  1  0.486134  0.960399  0.657126  1
  O  O33  1  0.850741  0.851046  0.395964  1
