# generated using pymatgen
data_LiCu2PO4
_symmetry_space_group_name_H-M   'P 1'
_cell_length_a   6.26505065
_cell_length_b   5.42203672
_cell_length_c   5.18388297
_cell_angle_alpha   90.00000000
_cell_angle_beta   90.00000000
_cell_angle_gamma   88.85648212
_symmetry_Int_Tables_number   1
_chemical_formula_structural   LiCu2PO4
_chemical_formula_sum   'Li2 Cu4 P2 O8'
_cell_volume   176.05798543
_cell_formula_units_Z   2
loop_
 _symmetry_equiv_pos_site_id
 _symmetry_equiv_pos_as_xyz
  1  'x, y, z'
loop_
 _atom_site_type_symbol
 _atom_site_label
 _atom_site_symmetry_multiplicity
 _atom_site_fract_x
 _atom_site_fract_y
 _atom_site_fract_z
 _atom_site_occupancy
  Li  Li0  1  0.249213  0.327953  0.999807  1
  Li  Li1  1  0.250787  0.672047  0.499807  1
  Cu  Cu2  1  0.995207  0.196352  0.495884  1
  Cu  Cu3  1  0.504793  0.803648  0.995884  1
  Cu  Cu4  1  0.748254  0.665824  0.489660  1
  Cu  Cu5  1  0.751746  0.334176  0.989660  1
  P  P6  1  0.012468  0.826506  -0.000658  1
  P  P7  1  0.487532  0.173494  0.499342  1
  O  O8  1  0.017580  0.098718  0.905516  1
  O  O9  1  0.012878  0.813462  0.298992  1
  O  O10  1  0.208690  0.680286  0.888224  1
  O  O11  1  0.291310  0.319714  0.388224  1
  O  O12  1  0.487122  0.186537  0.798992  1
  O  O13  1  0.482420  0.901282  0.405516  1
  O  O14  1  0.694597  0.297805  0.393872  1
  O  O15  1  0.805403  0.702195  0.893872  1
