# generated using pymatgen
data_Li4Cr2Co3Sb3O16
_symmetry_space_group_name_H-M   'P 1'
_cell_length_a   6.12044860
_cell_length_b   6.05598681
_cell_length_c   9.65953430
_cell_angle_alpha   89.58171871
_cell_angle_beta   92.00883797
_cell_angle_gamma   119.67138993
_symmetry_Int_Tables_number   1
_chemical_formula_structural   Li4Cr2Co3Sb3O16
_chemical_formula_sum   'Li4 Cr2 Co3 Sb3 O16'
_cell_volume   310.87620573
_cell_formula_units_Z   1
loop_
 _symmetry_equiv_pos_site_id
 _symmetry_equiv_pos_as_xyz
  1  'x, y, z'
loop_
 _atom_site_type_symbol
 _atom_site_label
 _atom_site_symmetry_multiplicity
 _atom_site_fract_x
 _atom_site_fract_y
 _atom_site_fract_z
 _atom_site_occupancy
  Li  Li0  1  0.328324  0.668898  0.880391  1
  Li  Li1  1  0.950370  0.974572  0.982224  1
  Li  Li2  1  0.980986  0.988863  0.505591  1
  Li  Li3  1  0.657934  0.329448  0.402880  1
  Cr  Cr4  1  0.350440  0.668342  0.495164  1
  Cr  Cr5  1  0.688109  0.347774  0.975753  1
  Co  Co6  1  0.664007  0.832229  0.215399  1
  Co  Co7  1  0.829862  0.661663  0.709951  1
  Co  Co8  1  0.841129  0.178081  0.712775  1
  Sb  Sb9  1  0.170370  0.833079  0.214768  1
  Sb  Sb10  1  0.170018  0.337453  0.213665  1
  Sb  Sb11  1  0.345530  0.168591  0.714226  1
  O  O12  1  0.186673  0.846528  0.595781  1
  O  O13  1  0.035827  0.516617  0.339400  1
  O  O14  1  0.314750  0.658978  0.099944  1
  O  O15  1  0.016967  0.008211  0.318883  1
  O  O16  1  0.010547  0.990002  0.802168  1
  O  O17  1  0.178792  0.331895  0.598357  1
  O  O18  1  0.474188  0.961106  0.340219  1
  O  O19  1  0.471873  0.508999  0.339922  1
  O  O20  1  0.316316  0.158800  0.101476  1
  O  O21  1  0.675621  0.824896  0.600210  1
  O  O22  1  0.505416  0.469864  0.848713  1
  O  O23  1  0.520796  0.042548  0.848500  1
  O  O24  1  0.661001  0.343299  0.606685  1
  O  O25  1  0.847814  0.679483  0.102859  1
  O  O26  1  0.956150  0.498194  0.841730  1
  O  O27  1  0.850190  0.171890  0.100206  1
