# generated using pymatgen
data_Ba2La6Mg4Ti3WO24
_symmetry_space_group_name_H-M   'P 1'
_cell_length_a   5.91351627
_cell_length_b   5.91351528
_cell_length_c   41.22094905
_cell_angle_alpha   108.90686681
_cell_angle_beta   108.90687171
_cell_angle_gamma   56.61351562
_symmetry_Int_Tables_number   1
_chemical_formula_structural   Ba2La6Mg4Ti3WO24
_chemical_formula_sum   'Ba4 La12 Mg8 Ti6 W2 O48'
_cell_volume   1119.12464482
_cell_formula_units_Z   2
loop_
 _symmetry_equiv_pos_site_id
 _symmetry_equiv_pos_as_xyz
  1  'x, y, z'
loop_
 _atom_site_type_symbol
 _atom_site_label
 _atom_site_symmetry_multiplicity
 _atom_site_fract_x
 _atom_site_fract_y
 _atom_site_fract_z
 _atom_site_occupancy
  Ba  Ba0  1  0.311242  0.311242  0.031554  1
  Ba  Ba1  1  0.083831  0.083831  0.155828  1
  Ba  Ba2  1  0.688758  0.688758  0.093446  1
  Ba  Ba3  1  0.916169  0.916169  0.969172  1
  La  La4  1  0.350012  0.350012  0.280056  1
  La  La5  1  0.274264  0.274264  0.410902  1
  La  La6  1  0.762398  0.762398  0.203511  1
  La  La7  1  0.235484  0.235484  0.524486  1
  La  La8  1  0.798461  0.798461  0.354925  1
  La  La9  1  0.238163  0.238163  0.648410  1
  La  La10  1  0.761837  0.761837  0.476590  1
  La  La11  1  0.201539  0.201539  0.770075  1
  La  La12  1  0.764516  0.764516  0.600514  1
  La  La13  1  0.237602  0.237602  0.921489  1
  La  La14  1  0.725736  0.725736  0.714098  1
  La  La15  1  0.649988  0.649988  0.844944  1
  Mg  Mg16  1  0.075350  0.075350  0.322814  1
  Mg  Mg17  1  0.053890  0.053890  0.249679  1
  Mg  Mg18  1  0.000000  0.000000  0.062500  1
  Mg  Mg19  1  0.990007  0.990007  0.440002  1
  Mg  Mg20  1  0.924650  0.924650  0.802186  1
  Mg  Mg21  1  0.000000  0.000000  0.562500  1
  Mg  Mg22  1  0.946110  0.946110  0.875321  1
  Mg  Mg23  1  0.009993  0.009993  0.684998  1
  Ti  Ti24  1  0.598034  0.598034  0.257802  1
  Ti  Ti25  1  0.516833  0.516833  0.376295  1
  Ti  Ti26  1  0.506744  0.506744  0.504248  1
  Ti  Ti27  1  0.493256  0.493256  0.620752  1
  Ti  Ti28  1  0.483167  0.483167  0.748705  1
  Ti  Ti29  1  0.401966  0.401966  0.867198  1
  W  W30  1  0.614585  0.614585  -0.000147  1
  W  W31  1  0.385415  0.385415  0.125147  1
  O  O32  1  0.315472  0.796661  0.028075  1
  O  O33  1  0.198668  0.198668  0.093057  1
  O  O34  1  0.796661  0.315472  0.028075  1
  O  O35  1  0.203339  0.684528  0.096924  1
  O  O36  1  0.103392  0.596323  0.152432  1
  O  O37  1  0.801332  0.801332  0.031943  1
  O  O38  1  0.398088  0.398088  0.228593  1
  O  O39  1  0.684528  0.203339  0.096924  1
  O  O40  1  0.596323  0.103392  0.152432  1
  O  O41  1  0.396731  0.897390  0.230764  1
  O  O42  1  0.273395  0.796153  0.283003  1
  O  O43  1  0.589250  0.589250  0.156709  1
  O  O44  1  0.347313  0.347313  0.339067  1
  O  O45  1  0.897390  0.396731  0.230764  1
  O  O46  1  0.796153  0.273395  0.283003  1
  O  O47  1  0.373040  0.865345  0.359630  1
  O  O48  1  0.220250  0.706276  0.401515  1
  O  O49  1  0.779980  0.779980  0.294787  1
  O  O50  1  0.293929  0.293929  0.466480  1
  O  O51  1  0.865345  0.373040  0.359630  1
  O  O52  1  0.706276  0.220250  0.401515  1
  O  O53  1  0.317784  0.809795  0.478410  1
  O  O54  1  0.172665  0.673859  0.524961  1
  O  O55  1  0.773134  0.773134  0.423064  1
  O  O56  1  0.310270  0.310270  0.586172  1
  O  O57  1  0.809795  0.317784  0.478410  1
  O  O58  1  0.673859  0.172665  0.524961  1
  O  O59  1  0.326141  0.827335  0.600039  1
  O  O60  1  0.190205  0.682216  0.646589  1
  O  O61  1  0.689730  0.689730  0.538828  1
  O  O62  1  0.226866  0.226866  0.701936  1
  O  O63  1  0.827335  0.326141  0.600039  1
  O  O64  1  0.682216  0.190205  0.646589  1
  O  O65  1  0.293724  0.779750  0.723486  1
  O  O66  1  0.134655  0.626960  0.765369  1
  O  O67  1  0.706071  0.706071  0.658520  1
  O  O68  1  0.220020  0.220020  0.830213  1
  O  O69  1  0.779750  0.293724  0.723486  1
  O  O70  1  0.626960  0.134655  0.765369  1
  O  O71  1  0.203847  0.726605  0.841998  1
  O  O72  1  0.102610  0.603269  0.894236  1
  O  O73  1  0.652687  0.652687  0.785933  1
  O  O74  1  0.410750  0.410750  0.968290  1
  O  O75  1  0.726605  0.203847  0.841998  1
  O  O76  1  0.603269  0.102610  0.894236  1
  O  O77  1  0.403677  0.896608  0.972568  1
  O  O78  1  0.601912  0.601912  0.896408  1
  O  O79  1  0.896608  0.403677  0.972568  1
