# generated using pymatgen
data_Li4Mn3(CoO4)3
_symmetry_space_group_name_H-M   'P 1'
_cell_length_a   6.66126677
_cell_length_b   5.85458465
_cell_length_c   5.66705576
_cell_angle_alpha   91.32682027
_cell_angle_beta   102.57016763
_cell_angle_gamma   74.96147061
_symmetry_Int_Tables_number   1
_chemical_formula_structural   Li4Mn3(CoO4)3
_chemical_formula_sum   'Li4 Mn3 Co3 O12'
_cell_volume   208.19374257
_cell_formula_units_Z   1
loop_
 _symmetry_equiv_pos_site_id
 _symmetry_equiv_pos_as_xyz
  1  'x, y, z'
loop_
 _atom_site_type_symbol
 _atom_site_label
 _atom_site_symmetry_multiplicity
 _atom_site_fract_x
 _atom_site_fract_y
 _atom_site_fract_z
 _atom_site_occupancy
  Li  Li0  1  0.016006  0.981460  0.490624  1
  Li  Li1  1  0.666667  0.333333  0.166667  1
  Li  Li2  1  0.666667  0.333333  0.666667  1
  Li  Li3  1  0.317327  0.685207  0.842709  1
  Mn  Mn4  1  0.006705  0.504674  0.001893  1
  Mn  Mn5  1  0.326628  0.161993  0.331441  1
  Mn  Mn6  1  0.666667  0.833333  0.666667  1
  Co  Co7  1  0.005851  0.501373  0.501071  1
  Co  Co8  1  0.327483  0.165294  0.832263  1
  Co  Co9  1  0.666667  0.833333  0.166667  1
  O  O10  1  0.017319  0.271828  0.250954  1
  O  O11  1  0.017298  0.276402  0.748516  1
  O  O12  1  0.316014  0.394839  0.082379  1
  O  O13  1  0.642026  0.075205  0.409996  1
  O  O14  1  0.316036  0.390265  0.584818  1
  O  O15  1  0.633848  0.068099  0.911406  1
  O  O16  1  0.359046  0.935310  0.084088  1
  O  O17  1  0.699485  0.598568  0.421928  1
  O  O18  1  0.326611  0.945437  0.578712  1
  O  O19  1  0.691307  0.591462  0.923337  1
  O  O20  1  0.974287  0.731357  0.249245  1
  O  O21  1  0.006722  0.721230  0.754621  1
