# generated using pymatgen
data_Nb3Tl3O10
_symmetry_space_group_name_H-M   'P 1'
_cell_length_a   7.59314010
_cell_length_b   7.59231625
_cell_length_c   17.14503170
_cell_angle_alpha   102.79870061
_cell_angle_beta   102.77580432
_cell_angle_gamma   89.96214751
_symmetry_Int_Tables_number   1
_chemical_formula_structural   Nb3Tl3O10
_chemical_formula_sum   'Nb12 Tl12 O40'
_cell_volume   938.76884970
_cell_formula_units_Z   4
loop_
 _symmetry_equiv_pos_site_id
 _symmetry_equiv_pos_as_xyz
  1  'x, y, z'
loop_
 _atom_site_type_symbol
 _atom_site_label
 _atom_site_symmetry_multiplicity
 _atom_site_fract_x
 _atom_site_fract_y
 _atom_site_fract_z
 _atom_site_occupancy
  Nb  Nb0  1  0.498810  0.999110  0.999647  1
  Nb  Nb1  1  0.002451  0.997843  0.000060  1
  Nb  Nb2  1  0.829957  0.332332  0.164880  1
  Nb  Nb3  1  0.834095  0.834971  0.166939  1
  Nb  Nb4  1  0.170047  0.662531  0.331386  1
  Nb  Nb5  1  0.669763  0.665605  0.332877  1
  Nb  Nb6  1  0.500945  0.501927  0.500855  1
  Nb  Nb7  1  0.498847  0.997184  0.499480  1
  Nb  Nb8  1  0.833021  0.331982  0.666024  1
  Nb  Nb9  1  0.334128  0.331685  0.666653  1
  Nb  Nb10  1  0.166875  0.668074  0.831693  1
  Nb  Nb11  1  0.164951  0.167096  0.832990  1
  Tl  Tl12  1  0.514384  0.498783  0.995804  1
  Tl  Tl13  1  0.984790  0.497728  0.998647  1
  Tl  Tl14  1  0.334013  0.832881  0.166969  1
  Tl  Tl15  1  0.329947  0.333047  0.166211  1
  Tl  Tl16  1  0.682585  0.169861  0.336905  1
  Tl  Tl17  1  0.154861  0.165702  0.336716  1
  Tl  Tl18  1  0.001861  0.485548  0.497502  1
  Tl  Tl19  1  0.998073  0.016825  0.498324  1
  Tl  Tl20  1  0.335323  0.830402  0.666106  1
  Tl  Tl21  1  0.834016  0.834393  0.666372  1
  Tl  Tl22  1  0.665617  0.184700  0.835312  1
  Tl  Tl23  1  0.671433  0.654812  0.835614  1
  O  O24  1  0.272415  0.027016  0.046723  1
  O  O25  1  0.303074  0.550393  0.100879  1
  O  O26  1  0.982646  0.231881  0.084463  1
  O  O27  1  0.988220  0.853101  0.085500  1
  O  O28  1  0.597415  0.232082  0.085893  1
  O  O29  1  0.600482  0.855435  0.085429  1
  O  O30  1  0.811285  0.564152  0.128341  1
  O  O31  1  0.851639  0.102817  0.205121  1
  O  O32  1  0.068839  0.435203  0.247606  1
  O  O33  1  0.684320  0.435935  0.249414  1
  O  O34  1  0.685249  0.813486  0.249396  1
  O  O35  1  0.067756  0.813432  0.248180  1
  O  O36  1  0.368882  0.116268  0.231887  1
  O  O37  1  0.394081  0.644664  0.285224  1
  O  O38  1  0.935716  0.684152  0.368484  1
  O  O39  1  0.637761  0.888220  0.417271  1
  O  O40  1  0.277855  0.887495  0.417196  1
  O  O41  1  0.637009  0.527442  0.416506  1
  O  O42  1  0.277425  0.527291  0.416578  1
  O  O43  1  0.482086  0.233394  0.466214  1
  O  O44  1  0.522724  0.774013  0.547999  1
  O  O45  1  0.352874  0.488684  0.586108  1
  O  O46  1  0.352803  0.100624  0.585339  1
  O  O47  1  0.731148  0.486576  0.585714  1
  O  O48  1  0.051236  0.798843  0.601471  1
  O  O49  1  0.731179  0.099286  0.585679  1
  O  O50  1  0.063560  0.314822  0.628046  1
  O  O51  1  0.602180  0.353398  0.704930  1
  O  O52  1  0.936784  0.564361  0.749196  1
  O  O53  1  0.313459  0.566964  0.748743  1
  O  O54  1  0.618292  0.866977  0.732236  1
  O  O55  1  0.935522  0.178912  0.747647  1
  O  O56  1  0.312355  0.181811  0.748206  1
  O  O57  1  0.145208  0.891809  0.786541  1
  O  O58  1  0.183036  0.432869  0.868391  1
  O  O59  1  0.027297  0.776766  0.916811  1
  O  O60  1  0.388170  0.776709  0.918075  1
  O  O61  1  0.026170  0.136077  0.915546  1
  O  O62  1  0.388535  0.138253  0.916287  1
  O  O63  1  0.732250  0.983308  0.965441  1
