# generated using pymatgen
data_V6O5F19
_symmetry_space_group_name_H-M   'P 1'
_cell_length_a   5.48393897
_cell_length_b   5.33866975
_cell_length_c   14.82566227
_cell_angle_alpha   89.65141749
_cell_angle_beta   100.72379266
_cell_angle_gamma   90.87187995
_symmetry_Int_Tables_number   1
_chemical_formula_structural   V6O5F19
_chemical_formula_sum   'V6 O5 F19'
_cell_volume   426.41788057
_cell_formula_units_Z   1
loop_
 _symmetry_equiv_pos_site_id
 _symmetry_equiv_pos_as_xyz
  1  'x, y, z'
loop_
 _atom_site_type_symbol
 _atom_site_label
 _atom_site_symmetry_multiplicity
 _atom_site_fract_x
 _atom_site_fract_y
 _atom_site_fract_z
 _atom_site_occupancy
  V  V0  1  0.040107  0.965883  0.003295  1
  V  V1  1  0.143554  0.558046  0.339250  1
  V  V2  1  0.317015  0.991133  0.667333  1
  V  V3  1  0.530288  0.460193  0.996659  1
  V  V4  1  0.683931  0.054383  0.327631  1
  V  V5  1  0.788940  0.474375  0.663883  1
  O  O6  1  0.538587  0.294541  0.643686  1
  O  O7  1  0.706765  0.231049  0.981568  1
  O  O8  1  0.279652  0.788482  0.018415  1
  O  O9  1  0.875822  0.285953  0.312073  1
  O  O10  1  0.960282  0.785614  0.358036  1
  F  F11  1  0.019101  0.202697  0.641360  1
  F  F12  1  0.213960  0.272928  0.971275  1
  F  F13  1  0.140578  0.705833  0.690437  1
  F  F14  1  0.051941  0.092386  0.114594  1
  F  F15  1  0.219128  0.402078  0.446833  1
  F  F16  1  0.376596  0.095412  0.782386  1
  F  F17  1  0.113095  0.563061  0.218337  1
  F  F18  1  0.299917  0.927523  0.549499  1
  F  F19  1  0.457557  0.596728  0.885571  1
  F  F20  1  0.387838  0.207776  0.306813  1
  F  F21  1  0.447021  0.711445  0.355804  1
  F  F22  1  0.632385  0.779280  0.692030  1
  F  F23  1  0.521599  0.437053  0.115500  1
  F  F24  1  0.711705  0.056638  0.448467  1
  F  F25  1  0.898699  0.420706  0.782059  1
  F  F26  1  0.625694  0.901178  0.219763  1
  F  F27  1  0.806461  0.592327  0.553363  1
  F  F28  1  0.915073  0.929639  0.884751  1
  F  F29  1  0.796707  0.715656  0.029331  1
