# generated using pymatgen
data_V2Si2O7
_symmetry_space_group_name_H-M   'P 1'
_cell_length_a   6.53534286
_cell_length_b   6.53533840
_cell_length_c   6.53534420
_cell_angle_alpha   59.99968718
_cell_angle_beta   59.99971313
_cell_angle_gamma   59.99968901
_symmetry_Int_Tables_number   1
_chemical_formula_structural   V2Si2O7
_chemical_formula_sum   'V4 Si4 O14'
_cell_volume   197.37263348
_cell_formula_units_Z   2
loop_
 _symmetry_equiv_pos_site_id
 _symmetry_equiv_pos_as_xyz
  1  'x, y, z'
loop_
 _atom_site_type_symbol
 _atom_site_label
 _atom_site_symmetry_multiplicity
 _atom_site_fract_x
 _atom_site_fract_y
 _atom_site_fract_z
 _atom_site_occupancy
  V  V0  1  0.000003  1.000000  1.000000  1
  V  V1  1  0.499995  0.000005  0.999999  1
  V  V2  1  0.000001  0.499997  -0.000001  1
  V  V3  1  0.000001  0.000002  0.500000  1
  Si  Si4  1  0.499999  0.500001  -0.000000  1
  Si  Si5  1  0.500000  1.000000  0.500001  1
  Si  Si6  1  0.000000  0.500000  0.500000  1
  Si  Si7  1  0.500000  0.499999  0.500000  1
  O  O8  1  0.125000  0.124998  0.125000  1
  O  O9  1  0.577026  0.172975  0.172975  1
  O  O10  1  0.577025  0.172975  0.577025  1
  O  O11  1  0.172975  0.577025  0.172976  1
  O  O12  1  0.577026  0.577025  0.172975  1
  O  O13  1  0.172975  0.172975  0.577026  1
  O  O14  1  0.827025  0.422975  0.422975  1
  O  O15  1  0.172975  0.577026  0.577025  1
  O  O16  1  0.827025  0.827024  0.422975  1
  O  O17  1  0.422975  0.827025  0.422975  1
  O  O18  1  0.422975  0.422974  0.827025  1
  O  O19  1  0.827025  0.422974  0.827025  1
  O  O20  1  0.422974  0.827024  0.827025  1
  O  O21  1  0.875000  0.875000  0.875000  1
