# generated using pymatgen
data_Y6O5F8
_symmetry_space_group_name_H-M   'P 1'
_cell_length_a   5.48738429
_cell_length_b   33.53700598
_cell_length_c   5.61380144
_cell_angle_alpha   90.00000000
_cell_angle_beta   90.00000000
_cell_angle_gamma   89.89461085
_symmetry_Int_Tables_number   1
_chemical_formula_structural   Y6O5F8
_chemical_formula_sum   'Y24 O20 F32'
_cell_volume   1033.10859960
_cell_formula_units_Z   4
loop_
 _symmetry_equiv_pos_site_id
 _symmetry_equiv_pos_as_xyz
  1  'x, y, z'
loop_
 _atom_site_type_symbol
 _atom_site_label
 _atom_site_symmetry_multiplicity
 _atom_site_fract_x
 _atom_site_fract_y
 _atom_site_fract_z
 _atom_site_occupancy
  Y  Y0  1  0.289632  0.000042  0.748207  1
  Y  Y1  1  0.289632  0.500042  0.751793  1
  Y  Y2  1  0.277428  0.250710  0.286505  1
  Y  Y3  1  0.277428  0.750710  0.213495  1
  Y  Y4  1  0.292328  0.664234  0.786810  1
  Y  Y5  1  0.288611  0.335874  0.738753  1
  Y  Y6  1  0.288611  0.835874  0.761247  1
  Y  Y7  1  0.292328  0.164234  0.713190  1
  Y  Y8  1  0.296798  0.082102  0.272062  1
  Y  Y9  1  0.297720  0.417628  0.277413  1
  Y  Y10  1  0.296798  0.582102  0.227938  1
  Y  Y11  1  0.297720  0.917628  0.222587  1
  Y  Y12  1  0.702280  0.082372  0.777413  1
  Y  Y13  1  0.703202  0.917898  0.727938  1
  Y  Y14  1  0.703202  0.417898  0.772062  1
  Y  Y15  1  0.702280  0.582372  0.722587  1
  Y  Y16  1  0.711389  0.164126  0.238753  1
  Y  Y17  1  0.707672  0.835766  0.286810  1
  Y  Y18  1  0.711389  0.664126  0.261247  1
  Y  Y19  1  0.707672  0.335766  0.213190  1
  Y  Y20  1  0.722572  0.749290  0.713495  1
  Y  Y21  1  0.722572  0.249290  0.786505  1
  Y  Y22  1  0.710368  0.499958  0.248207  1
  Y  Y23  1  0.710368  0.999958  0.251793  1
  O  O24  1  0.463762  0.289517  0.007771  1
  O  O25  1  0.463762  0.789517  0.492229  1
  O  O26  1  0.468930  0.874821  0.506789  1
  O  O27  1  0.469932  0.627459  0.506883  1
  O  O28  1  0.468930  0.374821  0.993211  1
  O  O29  1  0.469932  0.127459  0.993117  1
  O  O30  1  0.484555  0.541859  0.476554  1
  O  O31  1  0.484158  0.958216  0.475717  1
  O  O32  1  0.484555  0.041859  0.023446  1
  O  O33  1  0.484158  0.458216  0.024283  1
  O  O34  1  0.515842  0.541784  0.975717  1
  O  O35  1  0.515842  0.041784  0.524283  1
  O  O36  1  0.515445  0.458141  0.523446  1
  O  O37  1  0.515445  0.958141  0.976554  1
  O  O38  1  0.530068  0.872541  0.006883  1
  O  O39  1  0.531070  0.625179  0.006789  1
  O  O40  1  0.530068  0.372541  0.493117  1
  O  O41  1  0.531070  0.125179  0.493211  1
  O  O42  1  0.536238  0.210483  0.507771  1
  O  O43  1  0.536238  0.710483  0.992229  1
  F  F44  1  0.026720  0.036489  0.418167  1
  F  F45  1  0.025155  0.463390  0.418082  1
  F  F46  1  0.026720  0.536489  0.081833  1
  F  F47  1  0.025155  0.963390  0.081918  1
  F  F48  1  0.053775  0.111327  0.613532  1
  F  F49  1  0.056783  0.389428  0.618785  1
  F  F50  1  0.053775  0.611327  0.886468  1
  F  F51  1  0.056783  0.889428  0.881215  1
  F  F52  1  0.091643  0.183726  0.357890  1
  F  F53  1  0.091557  0.315081  0.367851  1
  F  F54  1  0.091557  0.815081  0.132149  1
  F  F55  1  0.091643  0.683726  0.142110  1
  F  F56  1  0.106031  0.251231  0.654024  1
  F  F57  1  0.106031  0.751231  0.845976  1
  F  F58  1  0.452203  0.708282  0.491851  1
  F  F59  1  0.452203  0.208282  0.008149  1
  F  F60  1  0.547797  0.291718  0.508149  1
  F  F61  1  0.547797  0.791718  0.991851  1
  F  F62  1  0.893969  0.748769  0.345976  1
  F  F63  1  0.893969  0.248769  0.154024  1
  F  F64  1  0.908443  0.184919  0.867851  1
  F  F65  1  0.908357  0.816274  0.642110  1
  F  F66  1  0.908357  0.316274  0.857890  1
  F  F67  1  0.908443  0.684919  0.632149  1
  F  F68  1  0.943217  0.610572  0.381215  1
  F  F69  1  0.943217  0.110572  0.118785  1
  F  F70  1  0.946225  0.888673  0.386468  1
  F  F71  1  0.946225  0.388673  0.113532  1
  F  F72  1  0.974845  0.036610  0.918082  1
  F  F73  1  0.973280  0.463511  0.918167  1
  F  F74  1  0.974845  0.536610  0.581918  1
  F  F75  1  0.973280  0.963511  0.581833  1
