# generated using pymatgen
data_B5H12NO12
_symmetry_space_group_name_H-M   'P 1'
_cell_length_a   11.46068584
_cell_length_b   7.25637791
_cell_length_c   7.25637791
_cell_angle_alpha   99.95821743
_cell_angle_beta   90.00000000
_cell_angle_gamma   90.00000000
_symmetry_Int_Tables_number   1
_chemical_formula_structural   B5H12NO12
_chemical_formula_sum   'B10 H24 N2 O24'
_cell_volume   594.37095301
_cell_formula_units_Z   2
loop_
 _symmetry_equiv_pos_site_id
 _symmetry_equiv_pos_as_xyz
  1  'x, y, z'
loop_
 _atom_site_type_symbol
 _atom_site_label
 _atom_site_symmetry_multiplicity
 _atom_site_fract_x
 _atom_site_fract_y
 _atom_site_fract_z
 _atom_site_occupancy
  B  B0  1  0.500000  0.104286  0.104286  1
  B  B1  1  0.000000  0.604286  0.604286  1
  B  B2  1  0.319033  0.296784  0.101838  1
  B  B3  1  0.680967  0.101838  0.296784  1
  B  B4  1  0.180967  0.796784  0.601838  1
  B  B5  1  0.819033  0.601838  0.796784  1
  B  B6  1  0.300220  0.963524  0.071521  1
  B  B7  1  0.699780  0.071521  0.963524  1
  B  B8  1  0.199780  0.463524  0.571521  1
  B  B9  1  0.800220  0.571521  0.463524  1
  H  H10  1  0.178351  0.455003  0.104602  1
  H  H11  1  0.821649  0.104602  0.455003  1
  H  H12  1  0.321649  0.955003  0.604602  1
  H  H13  1  0.678351  0.604602  0.955003  1
  H  H14  1  0.258707  0.692682  0.053651  1
  H  H15  1  0.741293  0.053651  0.692682  1
  H  H16  1  0.241293  0.192682  0.553651  1
  H  H17  1  0.758707  0.553651  0.192682  1
  H  H18  1  0.500531  0.996343  0.480630  1
  H  H19  1  0.499469  0.480630  0.996343  1
  H  H20  1  0.999469  0.496343  0.980630  1
  H  H21  1  0.000531  0.980630  0.496343  1
  H  H22  1  0.509282  0.994981  0.699861  1
  H  H23  1  0.490718  0.699861  0.994981  1
  H  H24  1  0.990718  0.494981  0.199861  1
  H  H25  1  0.009282  0.199861  0.494981  1
  H  H26  1  0.041046  0.146237  0.025023  1
  H  H27  1  0.958954  0.025023  0.146237  1
  H  H28  1  0.458954  0.646237  0.525023  1
  H  H29  1  0.541046  0.525023  0.646237  1
  H  H30  1  0.938292  0.000716  0.913232  1
  H  H31  1  0.061708  0.913232  0.000716  1
  H  H32  1  0.561708  0.500716  0.413232  1
  H  H33  1  0.438292  0.413232  0.500716  1
  N  N34  1  0.000000  0.018625  0.018625  1
  N  N35  1  0.500000  0.518625  0.518625  1
  O  O36  1  0.437578  0.285147  0.110454  1
  O  O37  1  0.562422  0.110454  0.285147  1
  O  O38  1  0.062422  0.785147  0.610454  1
  O  O39  1  0.937578  0.610454  0.785147  1
  O  O40  1  0.418396  0.942874  0.080428  1
  O  O41  1  0.581604  0.080428  0.942874  1
  O  O42  1  0.081604  0.442874  0.580428  1
  O  O43  1  0.918396  0.580428  0.442874  1
  O  O44  1  0.248647  0.138747  0.083323  1
  O  O45  1  0.751353  0.083323  0.138747  1
  O  O46  1  0.251353  0.638747  0.583323  1
  O  O47  1  0.748647  0.583323  0.638747  1
  O  O48  1  0.265672  0.467498  0.109624  1
  O  O49  1  0.734328  0.109624  0.467498  1
  O  O50  1  0.234328  0.967498  0.609624  1
  O  O51  1  0.765672  0.609624  0.967498  1
  O  O52  1  0.223501  0.816530  0.048669  1
  O  O53  1  0.776499  0.048669  0.816530  1
  O  O54  1  0.276499  0.316530  0.548669  1
  O  O55  1  0.723501  0.548669  0.316530  1
  O  O56  1  0.469769  0.936194  0.583075  1
  O  O57  1  0.530231  0.583075  0.936194  1
  O  O58  1  0.030231  0.436194  0.083075  1
  O  O59  1  0.969769  0.083075  0.436194  1
