# generated using pymatgen
data_LiFePH2O5
_symmetry_space_group_name_H-M   'P 1'
_cell_length_a   11.15119250
_cell_length_b   8.16108591
_cell_length_c   5.11479920
_cell_angle_alpha   90.00000000
_cell_angle_beta   90.00000000
_cell_angle_gamma   90.00000000
_symmetry_Int_Tables_number   1
_chemical_formula_structural   LiFePH2O5
_chemical_formula_sum   'Li4 Fe4 P4 H8 O20'
_cell_volume   465.47659758
_cell_formula_units_Z   4
loop_
 _symmetry_equiv_pos_site_id
 _symmetry_equiv_pos_as_xyz
  1  'x, y, z'
loop_
 _atom_site_type_symbol
 _atom_site_label
 _atom_site_symmetry_multiplicity
 _atom_site_fract_x
 _atom_site_fract_y
 _atom_site_fract_z
 _atom_site_occupancy
  Li  Li0  1  0.187592  0.317347  0.697080  1
  Li  Li1  1  0.312408  0.817347  0.197080  1
  Li  Li2  1  0.687592  0.182653  0.697080  1
  Li  Li3  1  0.812408  0.682653  0.197080  1
  Fe  Fe4  1  0.122580  0.128342  0.187536  1
  Fe  Fe5  1  0.377420  0.628342  0.687536  1
  Fe  Fe6  1  0.622580  0.371658  0.187536  1
  Fe  Fe7  1  0.877420  0.871658  0.687536  1
  P  P8  1  0.169662  0.916057  0.695414  1
  P  P9  1  0.330338  0.416057  0.195414  1
  P  P10  1  0.669662  0.583943  0.695414  1
  P  P11  1  0.830338  0.083943  0.195414  1
  H  H12  1  0.002438  0.556135  0.364075  1
  H  H13  1  0.040512  0.682340  0.150227  1
  H  H14  1  0.459488  0.182340  0.650227  1
  H  H15  1  0.497562  0.056135  0.864075  1
  H  H16  1  0.502438  0.943865  0.364075  1
  H  H17  1  0.540512  0.817660  0.150227  1
  H  H18  1  0.959488  0.317660  0.650227  1
  H  H19  1  0.997562  0.443865  0.864075  1
  O  O20  1  0.017526  0.404936  0.686988  1
  O  O21  1  0.049543  0.826564  0.647282  1
  O  O22  1  0.166423  0.091093  0.573597  1
  O  O23  1  0.193372  0.932489  0.995255  1
  O  O24  1  0.226943  0.316557  0.068817  1
  O  O25  1  0.273057  0.816557  0.568817  1
  O  O26  1  0.306628  0.432488  0.495255  1
  O  O27  1  0.333577  0.591093  0.073597  1
  O  O28  1  0.450457  0.326564  0.147282  1
  O  O29  1  0.482474  0.904936  0.186988  1
  O  O30  1  0.517526  0.095064  0.686988  1
  O  O31  1  0.549543  0.673436  0.647282  1
  O  O32  1  0.666423  0.408907  0.573597  1
  O  O33  1  0.693372  0.567511  0.995255  1
  O  O34  1  0.726943  0.183443  0.068817  1
  O  O35  1  0.773057  0.683443  0.568817  1
  O  O36  1  0.806628  0.067512  0.495255  1
  O  O37  1  0.833577  0.908907  0.073597  1
  O  O38  1  0.950457  0.173436  0.147282  1
  O  O39  1  0.982474  0.595064  0.186988  1
