# generated using pymatgen
data_Li2CrCo3O8
_symmetry_space_group_name_H-M   'P 1'
_cell_length_a   8.12753775
_cell_length_b   8.12585499
_cell_length_c   8.14302730
_cell_angle_alpha   90.05495860
_cell_angle_beta   90.10024017
_cell_angle_gamma   89.86013069
_symmetry_Int_Tables_number   1
_chemical_formula_structural   Li2CrCo3O8
_chemical_formula_sum   'Li8 Cr4 Co12 O32'
_cell_volume   537.78885448
_cell_formula_units_Z   4
loop_
 _symmetry_equiv_pos_site_id
 _symmetry_equiv_pos_as_xyz
  1  'x, y, z'
loop_
 _atom_site_type_symbol
 _atom_site_label
 _atom_site_symmetry_multiplicity
 _atom_site_fract_x
 _atom_site_fract_y
 _atom_site_fract_z
 _atom_site_occupancy
  Li  Li0  1  0.996682  0.000075  -0.000405  1
  Li  Li1  1  0.252037  0.252410  0.252153  1
  Li  Li2  1  0.249115  0.748237  0.749228  1
  Li  Li3  1  0.500954  0.001195  0.499846  1
  Li  Li4  1  0.499600  0.499323  0.002242  1
  Li  Li5  1  0.752739  0.249484  0.748981  1
  Li  Li6  1  0.750131  0.749507  0.249825  1
  Li  Li7  1  0.999792  0.498020  0.501422  1
  Cr  Cr8  1  0.123814  0.874107  0.377595  1
  Cr  Cr9  1  0.374195  0.127058  0.871666  1
  Cr  Cr10  1  0.627083  0.620637  0.623080  1
  Cr  Cr11  1  0.872642  0.375157  0.124689  1
  Co  Co12  1  0.122443  0.125571  0.626331  1
  Co  Co13  1  0.124340  0.377789  0.872026  1
  Co  Co14  1  0.125321  0.625379  0.121859  1
  Co  Co15  1  0.374644  0.376464  0.623581  1
  Co  Co16  1  0.375250  0.623075  0.374055  1
  Co  Co17  1  0.376207  0.872876  0.124082  1
  Co  Co18  1  0.622232  0.372414  0.374082  1
  Co  Co19  1  0.624843  0.123178  0.127342  1
  Co  Co20  1  0.628086  0.873878  0.877054  1
  Co  Co21  1  0.870858  0.126192  0.377695  1
  Co  Co22  1  0.874333  0.876735  0.627124  1
  Co  Co23  1  0.877541  0.628131  0.874197  1
  O  O24  1  0.108853  0.111788  0.390265  1
  O  O25  1  0.110792  0.889373  0.615694  1
  O  O26  1  0.112279  0.612179  0.888694  1
  O  O27  1  0.135520  0.141610  0.863380  1
  O  O28  1  0.123065  0.394413  0.104438  1
  O  O29  1  0.138204  0.361154  0.641516  1
  O  O30  1  0.135396  0.638476  0.356754  1
  O  O31  1  0.142117  0.858458  0.132271  1
  O  O32  1  0.360988  0.138310  0.639983  1
  O  O33  1  0.357779  0.363839  0.863742  1
  O  O34  1  0.359082  0.639638  0.136396  1
  O  O35  1  0.388789  0.614322  0.608205  1
  O  O36  1  0.362703  0.865358  0.355748  1
  O  O37  1  0.387984  0.389706  0.390452  1
  O  O38  1  0.388248  0.106252  0.110786  1
  O  O39  1  0.390850  0.883884  0.891911  1
  O  O40  1  0.612702  0.388769  0.611529  1
  O  O41  1  0.609856  0.609244  0.383349  1
  O  O42  1  0.608685  0.886352  0.110410  1
  O  O43  1  0.631184  0.357603  0.139430  1
  O  O44  1  0.614559  0.107906  0.887555  1
  O  O45  1  0.639694  0.134977  0.361778  1
  O  O46  1  0.636732  0.863543  0.644714  1
  O  O47  1  0.640757  0.643004  0.868981  1
  O  O48  1  0.860707  0.355487  0.369004  1
  O  O49  1  0.858909  0.131101  0.144536  1
  O  O50  1  0.859720  0.863141  0.860541  1
  O  O51  1  0.888191  0.888734  0.390714  1
  O  O52  1  0.860576  0.638387  0.639461  1
  O  O53  1  0.888571  0.111189  0.609933  1
  O  O54  1  0.895423  0.392270  0.879138  1
  O  O55  1  0.896199  0.622775  0.109081  1
