# generated using pymatgen
data_Li4V3Co3(SnO8)2
_symmetry_space_group_name_H-M   'P 1'
_cell_length_a   5.98207195
_cell_length_b   5.96987832
_cell_length_c   9.72144463
_cell_angle_alpha   89.13666573
_cell_angle_beta   90.07932998
_cell_angle_gamma   120.17327695
_symmetry_Int_Tables_number   1
_chemical_formula_structural   Li4V3Co3(SnO8)2
_chemical_formula_sum   'Li4 V3 Co3 Sn2 O16'
_cell_volume   300.09389668
_cell_formula_units_Z   1
loop_
 _symmetry_equiv_pos_site_id
 _symmetry_equiv_pos_as_xyz
  1  'x, y, z'
loop_
 _atom_site_type_symbol
 _atom_site_label
 _atom_site_symmetry_multiplicity
 _atom_site_fract_x
 _atom_site_fract_y
 _atom_site_fract_z
 _atom_site_occupancy
  Li  Li0  1  0.336827  0.665928  0.897357  1
  Li  Li1  1  0.995366  0.997675  0.995548  1
  Li  Li2  1  0.996983  0.994958  0.492967  1
  Li  Li3  1  0.677571  0.345053  0.392316  1
  V  V4  1  0.827079  0.651175  0.720298  1
  V  V5  1  0.657316  0.823563  0.218305  1
  V  V6  1  0.818168  0.158522  0.712682  1
  Co  Co7  1  0.172871  0.829005  0.214880  1
  Co  Co8  1  0.177108  0.341980  0.210270  1
  Co  Co9  1  0.339418  0.170141  0.710389  1
  Sn  Sn10  1  0.319565  0.666678  0.493017  1
  Sn  Sn11  1  0.660350  0.326501  0.995299  1
  O  O12  1  0.155796  0.839192  0.598857  1
  O  O13  1  0.041422  0.532472  0.334173  1
  O  O14  1  0.380746  0.688536  0.099918  1
  O  O15  1  0.970027  0.989163  0.305941  1
  O  O16  1  0.975882  0.975376  0.806813  1
  O  O17  1  0.137793  0.318085  0.601524  1
  O  O18  1  0.483053  0.967794  0.331287  1
  O  O19  1  0.504887  0.544001  0.344527  1
  O  O20  1  0.312634  0.145602  0.098559  1
  O  O21  1  0.668782  0.839432  0.601502  1
  O  O22  1  0.524466  0.485961  0.842755  1
  O  O23  1  0.539494  0.033381  0.833749  1
  O  O24  1  0.697694  0.364197  0.602839  1
  O  O25  1  0.838144  0.675803  0.108659  1
  O  O26  1  0.966971  0.482860  0.840667  1
  O  O27  1  0.823585  0.147263  0.102740  1
