# generated using pymatgen
data_MgZr3Tl10(MoO4)12
_symmetry_space_group_name_H-M   'P 1'
_cell_length_a   14.40761616
_cell_length_b   14.40761613
_cell_length_c   14.40761608
_cell_angle_alpha   44.30919871
_cell_angle_beta   44.30919885
_cell_angle_gamma   44.30919784
_symmetry_Int_Tables_number   1
_chemical_formula_structural   MgZr3Tl10(MoO4)12
_chemical_formula_sum   'Mg1 Zr3 Tl10 Mo12 O48'
_cell_volume   1326.30217566
_cell_formula_units_Z   1
loop_
 _symmetry_equiv_pos_site_id
 _symmetry_equiv_pos_as_xyz
  1  'x, y, z'
loop_
 _atom_site_type_symbol
 _atom_site_label
 _atom_site_symmetry_multiplicity
 _atom_site_fract_x
 _atom_site_fract_y
 _atom_site_fract_z
 _atom_site_occupancy
  Mg  Mg0  1  0.499445  0.499445  0.499445  1
  Zr  Zr1  1  0.999496  0.999496  0.999496  1
  Zr  Zr2  1  0.247587  0.247587  0.247587  1
  Zr  Zr3  1  0.751763  0.751763  0.751763  1
  Tl  Tl4  1  0.105435  0.105435  0.105435  1
  Tl  Tl5  1  0.396898  0.396898  0.396898  1
  Tl  Tl6  1  0.119602  0.496714  0.882830  1
  Tl  Tl7  1  0.496714  0.882830  0.119602  1
  Tl  Tl8  1  0.882830  0.119602  0.496714  1
  Tl  Tl9  1  0.601308  0.601308  0.601308  1
  Tl  Tl10  1  0.389719  0.996809  0.612938  1
  Tl  Tl11  1  0.612938  0.389719  0.996809  1
  Tl  Tl12  1  0.996809  0.612938  0.389719  1
  Tl  Tl13  1  0.892982  0.892982  0.892982  1
  Mo  Mo14  1  0.011176  0.367791  0.769981  1
  Mo  Mo15  1  0.367791  0.769981  0.011176  1
  Mo  Mo16  1  0.136816  0.722273  0.489041  1
  Mo  Mo17  1  0.769981  0.011176  0.367791  1
  Mo  Mo18  1  0.489041  0.136816  0.722273  1
  Mo  Mo19  1  0.722273  0.489041  0.136816  1
  Mo  Mo20  1  0.271936  0.862904  0.513641  1
  Mo  Mo21  1  0.513641  0.271936  0.862904  1
  Mo  Mo22  1  0.224081  0.631814  0.991674  1
  Mo  Mo23  1  0.862904  0.513641  0.271936  1
  Mo  Mo24  1  0.631814  0.991674  0.224081  1
  Mo  Mo25  1  0.991674  0.224081  0.631814  1
  O  O26  1  0.046296  0.355013  0.250132  1
  O  O27  1  0.250132  0.046296  0.355013  1
  O  O28  1  0.355013  0.250132  0.046296  1
  O  O29  1  0.145151  0.250945  0.451076  1
  O  O30  1  0.051103  0.070461  0.784134  1
  O  O31  1  0.070461  0.784134  0.051103  1
  O  O32  1  0.250945  0.451076  0.145151  1
  O  O33  1  0.451076  0.145151  0.250945  1
  O  O34  1  0.132873  0.345137  0.605745  1
  O  O35  1  0.784134  0.051103  0.070461  1
  O  O36  1  0.345137  0.605745  0.132873  1
  O  O37  1  0.137646  0.677062  0.402388  1
  O  O38  1  0.101657  0.362350  0.813433  1
  O  O39  1  0.605745  0.132873  0.345137  1
  O  O40  1  0.402388  0.137646  0.677062  1
  O  O41  1  0.362350  0.813433  0.101657  1
  O  O42  1  0.159637  0.887789  0.363709  1
  O  O43  1  0.677062  0.402388  0.137646  1
  O  O44  1  0.282494  0.572508  0.548843  1
  O  O45  1  0.363709  0.159637  0.887789  1
  O  O46  1  0.813433  0.101657  0.362350  1
  O  O47  1  0.548843  0.282494  0.572508  1
  O  O48  1  0.105704  0.841590  0.636193  1
  O  O49  1  0.572508  0.548843  0.282494  1
  O  O50  1  0.421414  0.715998  0.455863  1
  O  O51  1  0.887789  0.363709  0.159637  1
  O  O52  1  0.455863  0.421414  0.715998  1
  O  O53  1  0.180147  0.635187  0.903120  1
  O  O54  1  0.636193  0.105704  0.841590  1
  O  O55  1  0.715998  0.455863  0.421414  1
  O  O56  1  0.316314  0.860077  0.602451  1
  O  O57  1  0.841590  0.636193  0.105704  1
  O  O58  1  0.635187  0.903120  0.180147  1
  O  O59  1  0.602451  0.316314  0.860077  1
  O  O60  1  0.387477  0.656156  0.867376  1
  O  O61  1  0.903120  0.180147  0.635187  1
  O  O62  1  0.860077  0.602451  0.316314  1
  O  O63  1  0.656156  0.867376  0.387477  1
  O  O64  1  0.214381  0.923395  0.953727  1
  O  O65  1  0.867376  0.387477  0.656156  1
  O  O66  1  0.548222  0.746358  0.856439  1
  O  O67  1  0.746358  0.856439  0.548222  1
  O  O68  1  0.923395  0.953727  0.214381  1
  O  O69  1  0.953727  0.214381  0.923395  1
  O  O70  1  0.856439  0.548222  0.746358  1
  O  O71  1  0.646404  0.953158  0.747215  1
  O  O72  1  0.747215  0.646404  0.953158  1
  O  O73  1  0.953158  0.747215  0.646404  1
