# generated using pymatgen
data_Na6Ti2O7
_symmetry_space_group_name_H-M   'P 1'
_cell_length_a   5.97287046
_cell_length_b   5.97287046
_cell_length_c   12.96293449
_cell_angle_alpha   75.38293784
_cell_angle_beta   104.61706216
_cell_angle_gamma   85.61320199
_symmetry_Int_Tables_number   1
_chemical_formula_structural   Na6Ti2O7
_chemical_formula_sum   'Na12 Ti4 O14'
_cell_volume   428.12408651
_cell_formula_units_Z   2
loop_
 _symmetry_equiv_pos_site_id
 _symmetry_equiv_pos_as_xyz
  1  'x, y, z'
loop_
 _atom_site_type_symbol
 _atom_site_label
 _atom_site_symmetry_multiplicity
 _atom_site_fract_x
 _atom_site_fract_y
 _atom_site_fract_z
 _atom_site_occupancy
  Na  Na0  1  0.340477  0.869252  0.581259  1
  Na  Na1  1  0.354775  0.585587  0.865657  1
  Na  Na2  1  0.000000  0.500000  0.500000  1
  Na  Na3  1  0.185539  0.185539  0.750000  1
  Na  Na4  1  0.130748  0.659523  0.081259  1
  Na  Na5  1  0.414413  0.645225  0.365657  1
  Na  Na6  1  0.585587  0.354775  0.634343  1
  Na  Na7  1  0.869252  0.340477  0.918741  1
  Na  Na8  1  0.814461  0.814461  0.250000  1
  Na  Na9  1  0.645225  0.414413  0.134343  1
  Na  Na10  1  0.659523  0.130748  0.418741  1
  Na  Na11  1  0.500000  0.000000  0.000000  1
  Ti  Ti12  1  0.787486  0.874984  0.860443  1
  Ti  Ti13  1  0.874984  0.787486  0.639557  1
  Ti  Ti14  1  0.125016  0.212514  0.360443  1
  Ti  Ti15  1  0.212514  0.125016  0.139557  1
  O  O16  1  0.094025  0.911357  0.892532  1
  O  O17  1  0.088643  0.905975  0.392532  1
  O  O18  1  0.151235  0.592966  0.677088  1
  O  O19  1  0.727193  0.674174  0.978550  1
  O  O20  1  0.712493  0.712493  0.750000  1
  O  O21  1  0.674174  0.727193  0.521450  1
  O  O22  1  0.407034  0.848765  0.177088  1
  O  O23  1  0.592966  0.151235  0.822912  1
  O  O24  1  0.325826  0.272807  0.478550  1
  O  O25  1  0.287507  0.287507  0.250000  1
  O  O26  1  0.272807  0.325826  0.021450  1
  O  O27  1  0.848765  0.407034  0.322912  1
  O  O28  1  0.911357  0.094025  0.607468  1
  O  O29  1  0.905975  0.088643  0.107468  1
