# generated using pymatgen
data_Ho2TeO6
_symmetry_space_group_name_H-M   'P 1'
_cell_length_a   4.97803095
_cell_length_b   4.97786397
_cell_length_c   10.05393844
_cell_angle_alpha   90.00000000
_cell_angle_beta   90.00000000
_cell_angle_gamma   89.99986522
_symmetry_Int_Tables_number   1
_chemical_formula_structural   Ho2TeO6
_chemical_formula_sum   'Ho4 Te2 O12'
_cell_volume   249.13620151
_cell_formula_units_Z   2
loop_
 _symmetry_equiv_pos_site_id
 _symmetry_equiv_pos_as_xyz
  1  'x, y, z'
loop_
 _atom_site_type_symbol
 _atom_site_label
 _atom_site_symmetry_multiplicity
 _atom_site_fract_x
 _atom_site_fract_y
 _atom_site_fract_z
 _atom_site_occupancy
  Ho  Ho0  1  0.000023  0.000003  0.334511  1
  Ho  Ho1  1  0.000023  0.000003  0.665489  1
  Ho  Ho2  1  0.500006  0.500025  0.165488  1
  Ho  Ho3  1  0.500006  0.500025  0.834512  1
  Te  Te4  1  0.000012  0.000030  0.000000  1
  Te  Te5  1  0.500012  0.499989  0.500000  1
  O  O6  1  0.183537  0.183542  0.146511  1
  O  O7  1  0.183537  0.183542  0.853489  1
  O  O8  1  0.221414  0.221230  0.500000  1
  O  O9  1  0.278762  0.721421  0.000000  1
  O  O10  1  0.316440  0.683469  0.353493  1
  O  O11  1  0.316440  0.683469  0.646507  1
  O  O12  1  0.683605  0.316548  0.353486  1
  O  O13  1  0.683605  0.316548  0.646514  1
  O  O14  1  0.721405  0.278784  0.000000  1
  O  O15  1  0.778581  0.778768  0.500000  1
  O  O16  1  0.816495  0.816502  0.146514  1
  O  O17  1  0.816495  0.816502  0.853486  1
