# generated using pymatgen
data_Li34Sb8S7
_symmetry_space_group_name_H-M   'P 1'
_cell_length_a   9.69206740
_cell_length_b   11.79454616
_cell_length_c   9.67785776
_cell_angle_alpha   65.76099823
_cell_angle_beta   89.92296587
_cell_angle_gamma   114.18535978
_symmetry_Int_Tables_number   1
_chemical_formula_structural   Li34Sb8S7
_chemical_formula_sum   'Li34 Sb8 S7'
_cell_volume   900.91544559
_cell_formula_units_Z   1
loop_
 _symmetry_equiv_pos_site_id
 _symmetry_equiv_pos_as_xyz
  1  'x, y, z'
loop_
 _atom_site_type_symbol
 _atom_site_label
 _atom_site_symmetry_multiplicity
 _atom_site_fract_x
 _atom_site_fract_y
 _atom_site_fract_z
 _atom_site_occupancy
  Li  Li0  1  0.270139  0.143247  0.009864  1
  Li  Li1  1  0.993155  0.145462  0.125821  1
  Li  Li2  1  0.641465  0.000485  0.222108  1
  Li  Li3  1  0.552010  0.250188  0.150809  1
  Li  Li4  1  0.846504  0.516815  0.044725  1
  Li  Li5  1  0.220210  0.998296  0.360233  1
  Li  Li6  1  0.565090  0.517346  0.153195  1
  Li  Li7  1  0.851145  0.252973  0.297268  1
  Li  Li8  1  0.430161  0.860647  0.069452  1
  Li  Li9  1  0.071481  0.141423  0.429453  1
  Li  Li10  1  0.250812  0.500663  0.251237  1
  Li  Li11  1  0.403172  0.250148  0.447823  1
  Li  Li12  1  0.127720  0.855442  0.153723  1
  Li  Li13  1  0.952194  0.517610  0.329583  1
  Li  Li14  1  0.778195  0.000945  0.640215  1
  Li  Li15  1  0.671136  0.516720  0.438082  1
  Li  Li16  1  0.845096  0.856027  0.270333  1
  Li  Li17  1  0.697540  0.249688  0.597174  1
  Li  Li18  1  0.358631  0.998074  0.777258  1
  Li  Li19  1  0.297495  0.747430  0.401817  1
  Li  Li20  1  0.155149  0.144866  0.728560  1
  Li  Li21  1  0.327050  0.482346  0.562950  1
  Li  Li22  1  0.047289  0.483369  0.669605  1
  Li  Li23  1  0.872229  0.142372  0.847419  1
  Li  Li24  1  0.597275  0.748605  0.549549  1
  Li  Li25  1  0.570020  0.141197  0.930448  1
  Li  Li26  1  0.749188  0.497691  0.750878  1
  Li  Li27  1  0.929342  0.861255  0.568228  1
  Li  Li28  1  0.146287  0.746028  0.702514  1
  Li  Li29  1  0.435719  0.485472  0.844579  1
  Li  Li30  1  0.153209  0.482632  0.955200  1
  Li  Li31  1  0.447166  0.749287  0.847700  1
  Li  Li32  1  0.009859  0.855552  0.872220  1
  Li  Li33  1  0.729789  0.854062  0.991318  1
  Sb  Sb34  1  0.282374  0.312775  0.155515  1
  Sb  Sb35  1  0.156092  0.688060  0.032193  1
  Sb  Sb36  1  0.532064  0.688024  0.280402  1
  Sb  Sb37  1  0.030127  0.311579  0.532165  1
  Sb  Sb38  1  0.967440  0.688548  0.468034  1
  Sb  Sb39  1  0.466968  0.312323  0.719677  1
  Sb  Sb40  1  0.844716  0.311177  0.968141  1
  Sb  Sb41  1  0.719484  0.688468  0.841728  1
  S  S42  1  0.000433  0.999319  0.000234  1
  S  S43  1  0.393487  0.999751  0.184071  1
  S  S44  1  0.818940  0.001692  0.391932  1
  S  S45  1  0.683084  0.365573  0.316399  1
  S  S46  1  0.182417  -0.000079  0.606385  1
  S  S47  1  0.606213  0.000061  0.817230  1
  S  S48  1  0.316144  0.635009  0.681611  1
