# generated using pymatgen
data_Li5Nb2Fe5O12
_symmetry_space_group_name_H-M   'P 1'
_cell_length_a   5.28992633
_cell_length_b   5.31227641
_cell_length_c   10.26072003
_cell_angle_alpha   84.14930921
_cell_angle_beta   95.24798984
_cell_angle_gamma   59.49203139
_symmetry_Int_Tables_number   1
_chemical_formula_structural   Li5Nb2Fe5O12
_chemical_formula_sum   'Li5 Nb2 Fe5 O12'
_cell_volume   243.65497706
_cell_formula_units_Z   1
loop_
 _symmetry_equiv_pos_site_id
 _symmetry_equiv_pos_as_xyz
  1  'x, y, z'
loop_
 _atom_site_type_symbol
 _atom_site_label
 _atom_site_symmetry_multiplicity
 _atom_site_fract_x
 _atom_site_fract_y
 _atom_site_fract_z
 _atom_site_occupancy
  Li  Li0  1  0.163435  0.678516  0.505393  1
  Li  Li1  1  0.322219  0.825550  0.991239  1
  Li  Li2  1  0.678423  0.164497  0.995121  1
  Li  Li3  1  0.825413  0.322749  0.509643  1
  Li  Li4  1  0.919689  0.920588  0.749920  1
  Nb  Nb5  1  0.254111  0.238123  0.750118  1
  Nb  Nb6  1  0.740256  0.741225  0.250156  1
  Fe  Fe7  1  0.085559  0.085842  0.249804  1
  Fe  Fe8  1  0.007008  0.504477  0.995192  1
  Fe  Fe9  1  0.504699  0.003944  0.503593  1
  Fe  Fe10  1  0.421856  0.420656  0.249948  1
  Fe  Fe11  1  0.575674  0.585889  0.749394  1
  O  O12  1  0.980086  0.206561  0.869073  1
  O  O13  1  0.200926  0.981209  0.629477  1
  O  O14  1  0.114509  0.380863  0.369105  1
  O  O15  1  0.383008  0.116555  0.130177  1
  O  O16  1  0.292888  0.525206  0.866625  1
  O  O17  1  0.522593  0.285103  0.628765  1
  O  O18  1  0.481680  0.708302  0.379868  1
  O  O19  1  0.709032  0.483269  0.120929  1
  O  O20  1  0.610863  0.893010  0.869177  1
  O  O21  1  0.884653  0.606789  0.637305  1
  O  O22  1  0.785916  0.034417  0.365481  1
  O  O23  1  0.035505  0.786662  0.134498  1
