# generated using pymatgen
data_SiSnO3
_symmetry_space_group_name_H-M   'P 1'
_cell_length_a   11.39476287
_cell_length_b   7.04916913
_cell_length_c   12.34524951
_cell_angle_alpha   90.00000000
_cell_angle_beta   113.16627289
_cell_angle_gamma   90.00000000
_symmetry_Int_Tables_number   1
_chemical_formula_structural   SiSnO3
_chemical_formula_sum   'Si12 Sn12 O36'
_cell_volume   911.65819471
_cell_formula_units_Z   12
loop_
 _symmetry_equiv_pos_site_id
 _symmetry_equiv_pos_as_xyz
  1  'x, y, z'
loop_
 _atom_site_type_symbol
 _atom_site_label
 _atom_site_symmetry_multiplicity
 _atom_site_fract_x
 _atom_site_fract_y
 _atom_site_fract_z
 _atom_site_occupancy
  Si  Si0  1  0.031367  0.594291  0.892865  1
  Si  Si1  1  0.116996  0.875381  0.654962  1
  Si  Si2  1  0.208569  0.814767  0.459955  1
  Si  Si3  1  0.383004  0.875381  0.845038  1
  Si  Si4  1  0.468633  0.594291  0.607135  1
  Si  Si5  1  0.291431  0.814767  0.040045  1
  Si  Si6  1  0.708569  0.185233  0.959955  1
  Si  Si7  1  0.531367  0.405708  0.392865  1
  Si  Si8  1  0.616996  0.124619  0.154962  1
  Si  Si9  1  0.791431  0.185233  0.540045  1
  Si  Si10  1  0.883004  0.124619  0.345038  1
  Si  Si11  1  0.968633  0.405708  0.107135  1
  Sn  Sn12  1  0.089053  0.386765  0.663258  1
  Sn  Sn13  1  0.046445  0.948017  0.180234  1
  Sn  Sn14  1  0.187424  0.309266  0.397376  1
  Sn  Sn15  1  0.410947  0.386765  0.836742  1
  Sn  Sn16  1  0.546445  0.051983  0.680234  1
  Sn  Sn17  1  0.312576  0.309266  0.102624  1
  Sn  Sn18  1  0.687424  0.690734  0.897376  1
  Sn  Sn19  1  0.453555  0.948017  0.319766  1
  Sn  Sn20  1  0.589053  0.613235  0.163258  1
  Sn  Sn21  1  0.812576  0.690734  0.602624  1
  Sn  Sn22  1  0.953555  0.051983  0.819766  1
  Sn  Sn23  1  0.910947  0.613235  0.336742  1
  O  O24  1  0.072607  0.425104  0.826516  1
  O  O25  1  0.143321  0.756242  0.956391  1
  O  O26  1  0.009722  0.705741  0.616354  1
  O  O27  1  0.071281  0.057154  0.710730  1
  O  O28  1  0.151790  0.940222  0.542114  1
  O  O29  1  0.250000  0.777442  0.750000  1
  O  O30  1  0.348210  0.940222  0.957886  1
  O  O31  1  0.122472  0.623480  0.408274  1
  O  O32  1  0.000000  0.500000  0.000000  1
  O  O33  1  0.089505  0.277533  0.198969  1
  O  O34  1  0.206315  0.953121  0.352343  1
  O  O35  1  0.428719  0.057154  0.789270  1
  O  O36  1  0.490278  0.705741  0.883646  1
  O  O37  1  0.356679  0.756242  0.543609  1
  O  O38  1  0.427393  0.425104  0.673484  1
  O  O39  1  0.293685  0.953121  0.147657  1
  O  O40  1  0.622472  0.376520  0.908274  1
  O  O41  1  0.410495  0.277533  0.301031  1
  O  O42  1  0.500000  0.500000  0.500000  1
  O  O43  1  0.589505  0.722467  0.698969  1
  O  O44  1  0.377528  0.623480  0.091726  1
  O  O45  1  0.706315  0.046879  0.852343  1
  O  O46  1  0.572607  0.574896  0.326516  1
  O  O47  1  0.643321  0.243758  0.456391  1
  O  O48  1  0.509722  0.294259  0.116354  1
  O  O49  1  0.571281  0.942847  0.210730  1
  O  O50  1  0.793685  0.046879  0.647657  1
  O  O51  1  0.910495  0.722467  0.801031  1
  O  O52  1  0.877528  0.376520  0.591726  1
  O  O53  1  0.651790  0.059778  0.042114  1
  O  O54  1  0.750000  0.222558  0.250000  1
  O  O55  1  0.848210  0.059778  0.457886  1
  O  O56  1  0.928719  0.942847  0.289270  1
  O  O57  1  0.990278  0.294259  0.383646  1
  O  O58  1  0.856679  0.243758  0.043609  1
  O  O59  1  0.927393  0.574896  0.173484  1
