# generated using pymatgen
data_Ba10Li2Bi4O21
_symmetry_space_group_name_H-M   'P 1'
_cell_length_a   14.74169938
_cell_length_b   6.09874753
_cell_length_c   14.85599815
_cell_angle_alpha   90.00000000
_cell_angle_beta   90.00000000
_cell_angle_gamma   90.00000000
_symmetry_Int_Tables_number   1
_chemical_formula_structural   Ba10Li2Bi4O21
_chemical_formula_sum   'Ba20 Li4 Bi8 O42'
_cell_volume   1335.64192391
_cell_formula_units_Z   2
loop_
 _symmetry_equiv_pos_site_id
 _symmetry_equiv_pos_as_xyz
  1  'x, y, z'
loop_
 _atom_site_type_symbol
 _atom_site_label
 _atom_site_symmetry_multiplicity
 _atom_site_fract_x
 _atom_site_fract_y
 _atom_site_fract_z
 _atom_site_occupancy
  Ba  Ba0  1  0.001852  0.750000  0.340109  1
  Ba  Ba1  1  0.078108  0.750000  0.824008  1
  Ba  Ba2  1  0.165120  0.250000  0.463824  1
  Ba  Ba3  1  0.173987  0.250000  0.046507  1
  Ba  Ba4  1  0.248222  0.250000  0.746105  1
  Ba  Ba5  1  0.248907  0.750000  0.247015  1
  Ba  Ba6  1  0.323566  0.750000  0.548405  1
  Ba  Ba7  1  0.343000  0.750000  0.959024  1
  Ba  Ba8  1  0.406911  0.250000  0.332841  1
  Ba  Ba9  1  0.494975  0.250000  0.836549  1
  Ba  Ba10  1  0.501852  0.750000  0.159891  1
  Ba  Ba11  1  0.578108  0.750000  0.675992  1
  Ba  Ba12  1  0.665120  0.250000  0.036176  1
  Ba  Ba13  1  0.673987  0.250000  0.453493  1
  Ba  Ba14  1  0.748222  0.250000  0.753895  1
  Ba  Ba15  1  0.748907  0.750000  0.252985  1
  Ba  Ba16  1  0.823566  0.750000  0.951595  1
  Ba  Ba17  1  0.843000  0.750000  0.540976  1
  Ba  Ba18  1  0.906911  0.250000  0.167159  1
  Ba  Ba19  1  0.994975  0.250000  0.663451  1
  Li  Li20  1  0.121349  0.250000  0.255842  1
  Li  Li21  1  0.371763  0.750000  0.755472  1
  Li  Li22  1  0.621349  0.250000  0.244158  1
  Li  Li23  1  0.871763  0.750000  0.744528  1
  Bi  Bi24  1  0.035516  0.750000  0.098935  1
  Bi  Bi25  1  0.085774  0.750000  0.567212  1
  Bi  Bi26  1  0.411327  0.250000  0.067446  1
  Bi  Bi27  1  0.455938  0.250000  0.595376  1
  Bi  Bi28  1  0.535516  0.750000  0.401065  1
  Bi  Bi29  1  0.585774  0.750000  0.932788  1
  Bi  Bi30  1  0.911327  0.250000  0.432554  1
  Bi  Bi31  1  0.955938  0.250000  0.904624  1
  O  O32  1  0.023377  0.990660  0.992950  1
  O  O33  1  0.023377  0.509340  0.992950  1
  O  O34  1  0.000065  0.000416  0.498436  1
  O  O35  1  0.000065  0.499584  0.498436  1
  O  O36  1  0.007441  0.250000  0.327269  1
  O  O37  1  0.083964  0.250000  0.836090  1
  O  O38  1  0.104675  0.512566  0.176841  1
  O  O39  1  0.104675  0.987434  0.176841  1
  O  O40  1  0.160066  0.005013  0.625595  1
  O  O41  1  0.160066  0.494987  0.625595  1
  O  O42  1  0.165725  0.750000  0.445110  1
  O  O43  1  0.239656  0.250000  0.308510  1
  O  O44  1  0.253383  0.750000  0.816879  1
  O  O45  1  0.344808  0.250000  0.506051  1
  O  O46  1  0.333673  0.250000  0.944236  1
  O  O47  1  0.334228  0.511089  0.119461  1
  O  O48  1  0.334228  0.988911  0.119461  1
  O  O49  1  0.400709  0.006214  0.680091  1
  O  O50  1  0.400709  0.493786  0.680091  1
  O  O51  1  0.408370  0.750000  0.339486  1
  O  O52  1  0.483520  0.750000  0.833854  1
  O  O53  1  0.523377  0.990660  0.507050  1
  O  O54  1  0.523377  0.509340  0.507050  1
  O  O55  1  0.500065  0.000416  0.001564  1
  O  O56  1  0.500065  0.499584  0.001564  1
  O  O57  1  0.507441  0.250000  0.172731  1
  O  O58  1  0.583964  0.250000  0.663910  1
  O  O59  1  0.604675  0.512566  0.323159  1
  O  O60  1  0.604675  0.987434  0.323159  1
  O  O61  1  0.660066  0.005013  0.874405  1
  O  O62  1  0.660066  0.494987  0.874405  1
  O  O63  1  0.665725  0.750000  0.054890  1
  O  O64  1  0.739656  0.250000  0.191490  1
  O  O65  1  0.753383  0.750000  0.683121  1
  O  O66  1  0.844808  0.250000  0.993949  1
  O  O67  1  0.833673  0.250000  0.555764  1
  O  O68  1  0.834228  0.511089  0.380539  1
  O  O69  1  0.834228  0.988911  0.380539  1
  O  O70  1  0.900709  0.006214  0.819909  1
  O  O71  1  0.900709  0.493786  0.819909  1
  O  O72  1  0.908370  0.750000  0.160514  1
  O  O73  1  0.983520  0.750000  0.666146  1
