# generated using pymatgen
data_Li3Mn2F7
_symmetry_space_group_name_H-M   'P 1'
_cell_length_a   7.59856064
_cell_length_b   10.87448271
_cell_length_c   8.00691624
_cell_angle_alpha   90.00000000
_cell_angle_beta   71.55537996
_cell_angle_gamma   90.00000000
_symmetry_Int_Tables_number   1
_chemical_formula_structural   Li3Mn2F7
_chemical_formula_sum   'Li12 Mn8 F28'
_cell_volume   627.62760704
_cell_formula_units_Z   4
loop_
 _symmetry_equiv_pos_site_id
 _symmetry_equiv_pos_as_xyz
  1  'x, y, z'
loop_
 _atom_site_type_symbol
 _atom_site_label
 _atom_site_symmetry_multiplicity
 _atom_site_fract_x
 _atom_site_fract_y
 _atom_site_fract_z
 _atom_site_occupancy
  Li  Li0  1  0.041665  0.915493  0.209625  1
  Li  Li1  1  0.117670  0.293236  0.528254  1
  Li  Li2  1  0.194633  0.596230  0.695215  1
  Li  Li3  1  0.458335  0.415493  0.290375  1
  Li  Li4  1  0.617670  0.206764  0.028254  1
  Li  Li5  1  0.305367  0.096230  0.804785  1
  Li  Li6  1  0.694633  0.903770  0.195215  1
  Li  Li7  1  0.382330  0.793236  0.971746  1
  Li  Li8  1  0.541665  0.584507  0.709625  1
  Li  Li9  1  0.805367  0.403770  0.304785  1
  Li  Li10  1  0.882330  0.706764  0.471746  1
  Li  Li11  1  0.958335  0.084507  0.790375  1
  Mn  Mn12  1  0.147348  0.221276  0.144897  1
  Mn  Mn13  1  0.116343  0.583596  0.115531  1
  Mn  Mn14  1  0.383657  0.083596  0.384469  1
  Mn  Mn15  1  0.352652  0.721276  0.355103  1
  Mn  Mn16  1  0.647348  0.278724  0.644897  1
  Mn  Mn17  1  0.616343  0.916404  0.615531  1
  Mn  Mn18  1  0.883657  0.416404  0.884469  1
  Mn  Mn19  1  0.852652  0.778724  0.855103  1
  F  F20  1  0.184001  0.045383  0.254688  1
  F  F21  1  0.184894  0.136016  0.617102  1
  F  F22  1  0.184191  0.770039  0.198698  1
  F  F23  1  0.076271  0.719157  0.585033  1
  F  F24  1  0.942837  0.606248  0.928459  1
  F  F25  1  0.120310  0.428650  0.671427  1
  F  F26  1  0.058900  0.125931  0.969827  1
  F  F27  1  0.315809  0.270039  0.301302  1
  F  F28  1  0.315999  0.545383  0.245312  1
  F  F29  1  0.684894  0.363984  0.117102  1
  F  F30  1  0.441100  0.625931  0.530173  1
  F  F31  1  0.576271  0.780843  0.085033  1
  F  F32  1  0.379690  0.928650  0.828573  1
  F  F33  1  0.442837  0.893752  0.428459  1
  F  F34  1  0.557163  0.106248  0.571541  1
  F  F35  1  0.620310  0.071350  0.171427  1
  F  F36  1  0.423729  0.219157  0.914967  1
  F  F37  1  0.558900  0.374069  0.469827  1
  F  F38  1  0.315106  0.636015  0.882898  1
  F  F39  1  0.684001  0.454617  0.754688  1
  F  F40  1  0.684191  0.729961  0.698698  1
  F  F41  1  0.941100  0.874069  0.030173  1
  F  F42  1  0.879690  0.571350  0.328573  1
  F  F43  1  0.057163  0.393752  0.071541  1
  F  F44  1  0.923729  0.280843  0.414967  1
  F  F45  1  0.815809  0.229961  0.801302  1
  F  F46  1  0.815106  0.863985  0.382898  1
  F  F47  1  0.815999  0.954617  0.745312  1
