# generated using pymatgen
data_Co(Bi5O8)5
_symmetry_space_group_name_H-M   'P 1'
_cell_length_a   8.97603890
_cell_length_b   8.97603853
_cell_length_c   53.84457858
_cell_angle_alpha   109.48157051
_cell_angle_beta   109.46903305
_cell_angle_gamma   109.47182109
_symmetry_Int_Tables_number   1
_chemical_formula_structural   Co(Bi5O8)5
_chemical_formula_sum   'Co3 Bi75 O120'
_cell_volume   3339.20088091
_cell_formula_units_Z   3
loop_
 _symmetry_equiv_pos_site_id
 _symmetry_equiv_pos_as_xyz
  1  'x, y, z'
loop_
 _atom_site_type_symbol
 _atom_site_label
 _atom_site_symmetry_multiplicity
 _atom_site_fract_x
 _atom_site_fract_y
 _atom_site_fract_z
 _atom_site_occupancy
  Co  Co0  1  0.999766  0.999773  0.333327  1
  Co  Co1  1  -0.000113  -0.000113  0.166667  1
  Co  Co2  1  -0.000194  -0.000201  0.000006  1
  Bi  Bi3  1  0.166229  0.865305  0.945506  1
  Bi  Bi4  1  0.138304  0.304410  0.968181  1
  Bi  Bi5  1  0.194871  0.503352  0.889680  1
  Bi  Bi6  1  0.309751  0.807869  0.857326  1
  Bi  Bi7  1  0.165972  0.858723  0.777687  1
  Bi  Bi8  1  0.504196  0.698005  0.972982  1
  Bi  Bi9  1  0.000493  0.000466  0.833437  1
  Bi  Bi10  1  0.336430  0.196249  0.917578  1
  Bi  Bi11  1  0.141728  0.307505  0.801321  1
  Bi  Bi12  1  0.192561  0.500442  0.722382  1
  Bi  Bi13  1  0.699201  0.837029  0.918093  1
  Bi  Bi14  1  0.307854  0.807430  0.690308  1
  Bi  Bi15  1  0.501744  0.335890  0.866025  1
  Bi  Bi16  1  0.166154  0.858273  0.610952  1
  Bi  Bi17  1  0.670326  0.165418  0.977574  1
  Bi  Bi18  1  0.499663  0.691842  0.805606  1
  Bi  Bi19  1  0.000062  0.000062  0.666667  1
  Bi  Bi20  1  0.334380  0.192555  0.750087  1
  Bi  Bi21  1  0.141740  0.307916  0.634535  1
  Bi  Bi22  1  0.836441  0.505595  0.949893  1
  Bi  Bi23  1  0.861427  0.668061  0.861648  1
  Bi  Bi24  1  0.692203  0.833853  0.749931  1
  Bi  Bi25  1  0.192600  0.499849  0.555646  1
  Bi  Bi26  1  0.165272  0.856791  0.443653  1
  Bi  Bi27  1  0.500704  0.334528  0.698798  1
  Bi  Bi28  1  0.306534  0.805997  0.523327  1
  Bi  Bi29  1  0.807099  0.141488  0.884998  1
  Bi  Bi30  1  0.499550  0.692229  0.638997  1
  Bi  Bi31  1  0.666037  0.166574  0.810007  1
  Bi  Bi32  1  0.999840  0.999867  0.499896  1
  Bi  Bi33  1  0.334266  0.192615  0.583402  1
  Bi  Bi34  1  0.139741  0.305594  0.467309  1
  Bi  Bi35  1  0.834280  0.499856  0.782235  1
  Bi  Bi36  1  0.858247  0.665569  0.694337  1
  Bi  Bi37  1  0.192271  0.493195  0.387827  1
  Bi  Bi38  1  0.692032  0.833857  0.583247  1
  Bi  Bi39  1  0.299969  0.804877  0.355759  1
  Bi  Bi40  1  0.499578  0.333801  0.532012  1
  Bi  Bi41  1  0.165957  0.863048  0.278106  1
  Bi  Bi42  1  0.807526  0.141845  0.717990  1
  Bi  Bi43  1  0.665579  0.166004  0.643025  1
  Bi  Bi44  1  0.498170  0.691536  0.471685  1
  Bi  Bi45  1  0.328469  0.190641  0.415240  1
  Bi  Bi46  1  0.136658  0.303053  0.300885  1
  Bi  Bi47  1  0.833901  0.499582  0.615343  1
  Bi  Bi48  1  0.858202  0.666023  0.527727  1
  Bi  Bi49  1  0.194872  0.497434  0.221921  1
  Bi  Bi50  1  0.690779  0.830960  0.415755  1
  Bi  Bi51  1  0.495325  0.329219  0.365153  1
  Bi  Bi52  1  0.302743  0.805457  0.189464  1
  Bi  Bi53  1  0.165910  0.863348  0.111413  1
  Bi  Bi54  1  0.806451  0.140875  0.551099  1
  Bi  Bi55  1  0.663910  0.165793  0.476007  1
  Bi  Bi56  1  0.503051  0.698395  0.305859  1
  Bi  Bi57  1  0.331231  0.194621  0.249507  1
  Bi  Bi58  1  0.831497  0.497108  0.448335  1
  Bi  Bi59  1  0.136941  0.302806  0.134287  1
  Bi  Bi60  1  0.194410  0.497319  0.055227  1
  Bi  Bi61  1  0.860112  0.666303  0.360351  1
  Bi  Bi62  1  0.697692  0.834347  0.250546  1
  Bi  Bi63  1  0.497079  0.331215  0.199046  1
  Bi  Bi64  1  0.303598  0.806809  0.023093  1
  Bi  Bi65  1  0.806234  0.137080  0.383440  1
  Bi  Bi66  1  0.668255  0.165044  0.310241  1
  Bi  Bi67  1  0.502936  0.697259  0.139059  1
  Bi  Bi68  1  0.331069  0.194414  0.082787  1
  Bi  Bi69  1  0.833679  0.502546  0.282673  1
  Bi  Bi70  1  0.862906  0.668583  0.194275  1
  Bi  Bi71  1  0.697580  0.834191  0.083827  1
  Bi  Bi72  1  0.497744  0.331349  0.032448  1
  Bi  Bi73  1  0.805566  0.136732  0.217129  1
  Bi  Bi74  1  0.668671  0.165957  0.143869  1
  Bi  Bi75  1  0.833954  0.502788  0.116204  1
  Bi  Bi76  1  0.863239  0.667895  0.027474  1
  Bi  Bi77  1  0.806509  0.137641  0.050661  1
  O  O78  1  0.258124  0.646251  0.979464  1
  O  O79  1  0.123779  0.762980  0.897498  1
  O  O80  1  0.000687  0.626101  0.833901  1
  O  O81  1  0.002831  0.003072  0.935574  1
  O  O82  1  0.239766  0.362269  0.937271  1
  O  O83  1  0.000180  0.240629  0.833490  1
  O  O84  1  0.001514  0.000315  0.873530  1
  O  O85  1  0.394050  0.748357  0.937339  1
  O  O86  1  0.256032  0.640703  0.813216  1
  O  O87  1  0.384355  0.126958  0.962000  1
  O  O88  1  0.123284  0.763066  0.729732  1
  O  O89  1  0.361034  0.615970  0.873284  1
  O  O90  1  0.376854  0.376878  0.896648  1
  O  O91  1  0.000117  0.000207  0.770778  1
  O  O92  1  -0.000011  0.625081  0.666643  1
  O  O93  1  0.241285  0.001992  0.833486  1
  O  O94  1  0.623007  0.393923  0.958365  1
  O  O95  1  0.237443  0.360604  0.769295  1
  O  O96  1  0.798674  0.797299  0.966339  1
  O  O97  1  0.999859  0.239387  0.666678  1
  O  O98  1  0.999909  0.999980  0.706531  1
  O  O99  1  0.385740  0.745434  0.770538  1
  O  O100  1  0.641008  0.879020  0.877125  1
  O  O101  1  0.254895  0.640037  0.646157  1
  O  O102  1  0.616317  0.238128  0.893783  1
  O  O103  1  0.377942  0.123177  0.793877  1
  O  O104  1  0.748716  0.622880  0.899167  1
  O  O105  1  0.122207  0.762513  0.562795  1
  O  O106  1  0.360084  0.615004  0.706196  1
  O  O107  1  0.374858  0.374851  0.729174  1
  O  O108  1  -0.000193  0.999813  0.604159  1
  O  O109  1  0.997228  0.622750  0.499482  1
  O  O110  1  0.239324  0.999795  0.666656  1
  O  O111  1  0.622443  0.385069  0.790946  1
  O  O112  1  0.236977  0.359687  0.602413  1
  O  O113  1  0.876314  0.258698  0.941031  1
  O  O114  1  0.760208  0.760135  0.793405  1
  O  O115  1  0.001074  0.240367  0.499847  1
  O  O116  1  0.999704  0.999778  0.539928  1
  O  O117  1  0.625857  0.000335  0.833851  1
  O  O118  1  0.384676  0.744894  0.603601  1
  O  O119  1  0.762642  0.378968  0.854139  1
  O  O120  1  0.639950  0.877109  0.709180  1
  O  O121  1  0.254138  0.637812  0.479195  1
  O  O122  1  0.615682  0.237893  0.726823  1
  O  O123  1  0.377829  0.122909  0.627138  1
  O  O124  1  0.745206  0.622496  0.730920  1
  O  O125  1  0.124325  0.770018  0.395995  1
  O  O126  1  0.359915  0.614679  0.539456  1
  O  O127  1  0.375541  0.375451  0.562556  1
  O  O128  1  0.996993  0.996969  0.436685  1
  O  O129  1  0.999085  0.606891  0.332769  1
  O  O130  1  0.239685  0.999236  0.499843  1
  O  O131  1  0.622030  0.384871  0.624154  1
  O  O132  1  0.227879  0.353716  0.434167  1
  O  O133  1  0.877553  0.255219  0.773478  1
  O  O134  1  0.760796  0.760725  0.626803  1
  O  O135  1  0.000201  0.202568  0.333277  1
  O  O136  1  0.999266  0.000642  0.366994  1
  O  O137  1  0.625227  0.000134  0.666691  1
  O  O138  1  0.377997  0.738796  0.435836  1
  O  O139  1  0.763092  0.377950  0.687176  1
  O  O140  1  0.639391  0.876764  0.542387  1
  O  O141  1  0.256247  0.643309  0.312116  1
  O  O142  1  0.376264  0.121328  0.460049  1
  O  O143  1  0.614352  0.236686  0.559855  1
  O  O144  1  0.744833  0.621671  0.564038  1
  O  O145  1  0.354956  0.612353  0.371333  1
  O  O146  1  0.124840  0.768928  0.230352  1
  O  O147  1  0.389629  0.389387  0.397759  1
  O  O148  1  -0.000116  -0.000227  0.268152  1
  O  O149  1  0.000223  0.609291  0.166702  1
  O  O150  1  0.202013  0.998372  0.333353  1
  O  O151  1  0.616266  0.378254  0.456208  1
  O  O152  1  0.230596  0.355563  0.268791  1
  O  O153  1  0.876957  0.254746  0.606510  1
  O  O154  1  0.759136  0.760335  0.459803  1
  O  O155  1  0.999908  0.201500  0.166619  1
  O  O156  1  -0.000025  0.000091  0.200254  1
  O  O157  1  0.622694  0.997280  0.499432  1
  O  O158  1  0.385488  0.742125  0.269365  1
  O  O159  1  0.761407  0.376736  0.520117  1
  O  O160  1  0.643732  0.872816  0.374968  1
  O  O161  1  0.257810  0.644115  0.145842  1
  O  O162  1  0.382391  0.125005  0.294740  1
  O  O163  1  0.612513  0.230129  0.392303  1
  O  O164  1  0.738644  0.616141  0.396063  1
  O  O165  1  0.125936  0.769299  0.063968  1
  O  O166  1  0.355980  0.613782  0.205118  1
  O  O167  1  0.390806  0.390884  0.231766  1
  O  O168  1  0.002842  0.610230  0.000490  1
  O  O169  1  0.000285  0.000207  0.101567  1
  O  O170  1  0.201786  0.000194  0.166715  1
  O  O171  1  0.616844  0.385898  0.290280  1
  O  O172  1  0.231234  0.356539  0.102395  1
  O  O173  1  0.875430  0.253619  0.439551  1
  O  O174  1  0.796928  0.797028  0.299477  1
  O  O175  1  0.998253  0.201894  0.999980  1
  O  O176  1  0.000166  0.000066  0.033856  1
  O  O177  1  0.607291  -0.000098  0.332843  1
  O  O178  1  0.386814  0.742726  0.102981  1
  O  O179  1  0.769471  0.381343  0.353870  1
  O  O180  1  0.643940  0.875025  0.209540  1
  O  O181  1  0.383074  0.125272  0.128216  1
  O  O182  1  0.613352  0.230453  0.225900  1
  O  O183  1  0.742165  0.616859  0.230938  1
  O  O184  1  0.356560  0.613947  0.038593  1
  O  O185  1  0.390861  0.390973  0.065182  1
  O  O186  1  0.202906  0.000539  0.000056  1
  O  O187  1  0.617787  0.386702  0.123794  1
  O  O188  1  0.874260  0.256933  0.273756  1
  O  O189  1  0.798569  0.798453  0.133080  1
  O  O190  1  0.609078  0.000011  0.166632  1
  O  O191  1  0.769061  0.382756  0.187491  1
  O  O192  1  0.644215  0.875160  0.043053  1
  O  O193  1  0.614399  0.231726  0.059577  1
  O  O194  1  0.742814  0.617847  0.064542  1
  O  O195  1  0.875056  0.257955  0.107433  1
  O  O196  1  0.610275  0.002469  0.000564  1
  O  O197  1  0.770614  0.383551  0.021217  1
