# generated using pymatgen
data_NaV2O5
_symmetry_space_group_name_H-M   'P 1'
_cell_length_a   9.94142391
_cell_length_b   3.67515809
_cell_length_c   12.22197705
_cell_angle_alpha   90.00002432
_cell_angle_beta   90.01266638
_cell_angle_gamma   90.00004412
_symmetry_Int_Tables_number   1
_chemical_formula_structural   NaV2O5
_chemical_formula_sum   'Na4 V8 O20'
_cell_volume   446.54586413
_cell_formula_units_Z   4
loop_
 _symmetry_equiv_pos_site_id
 _symmetry_equiv_pos_as_xyz
  1  'x, y, z'
loop_
 _atom_site_type_symbol
 _atom_site_label
 _atom_site_symmetry_multiplicity
 _atom_site_fract_x
 _atom_site_fract_y
 _atom_site_fract_z
 _atom_site_occupancy
  Na  Na0  1  0.158118  0.250008  0.230311  1
  Na  Na1  1  0.341963  0.749997  0.730320  1
  Na  Na2  1  0.658033  0.249999  0.269669  1
  Na  Na3  1  0.841891  0.750001  0.769686  1
  V  V4  1  0.067460  0.250000  0.587833  1
  V  V5  1  0.122419  0.750001  0.996424  1
  V  V6  1  0.377487  0.249999  0.496325  1
  V  V7  1  0.432595  0.750000  0.087843  1
  V  V8  1  0.567421  0.249999  0.912113  1
  V  V9  1  0.622500  0.750000  0.503661  1
  V  V10  1  0.877556  0.250000  0.003618  1
  V  V11  1  0.932548  0.750000  0.412168  1
  O  O12  1  0.014323  0.750001  0.294674  1
  O  O13  1  0.056391  0.750000  0.541456  1
  O  O14  1  0.071822  0.250001  0.040717  1
  O  O15  1  0.212879  0.750000  0.883210  1
  O  O16  1  0.239434  0.249999  0.617771  1
  O  O17  1  0.260552  0.750001  0.117738  1
  O  O18  1  0.287151  0.249999  0.383272  1
  O  O19  1  0.428228  0.749999  0.540758  1
  O  O20  1  0.443621  0.250000  0.041414  1
  O  O21  1  0.485707  0.249998  0.794668  1
  O  O22  1  0.514334  0.750000  0.205366  1
  O  O23  1  0.556389  0.750000  0.958548  1
  O  O24  1  0.571783  0.249999  0.459256  1
  O  O25  1  0.712859  0.750000  0.616733  1
  O  O26  1  0.739366  0.249999  0.882236  1
  O  O27  1  0.760549  0.749999  0.382247  1
  O  O28  1  0.787132  0.250000  0.116797  1
  O  O29  1  0.928206  0.750000  0.959267  1
  O  O30  1  0.943608  0.250000  0.458559  1
  O  O31  1  0.985674  0.250000  0.705341  1
