# generated using pymatgen
data_LiFe2(BO3)2
_symmetry_space_group_name_H-M   'P 1'
_cell_length_a   5.30424659
_cell_length_b   9.06492026
_cell_length_c   10.18466962
_cell_angle_alpha   90.79180042
_cell_angle_beta   91.32867705
_cell_angle_gamma   89.47927534
_symmetry_Int_Tables_number   1
_chemical_formula_structural   LiFe2(BO3)2
_chemical_formula_sum   'Li4 Fe8 B8 O24'
_cell_volume   489.50786821
_cell_formula_units_Z   4
loop_
 _symmetry_equiv_pos_site_id
 _symmetry_equiv_pos_as_xyz
  1  'x, y, z'
loop_
 _atom_site_type_symbol
 _atom_site_label
 _atom_site_symmetry_multiplicity
 _atom_site_fract_x
 _atom_site_fract_y
 _atom_site_fract_z
 _atom_site_occupancy
  Li  Li0  1  0.338482  0.012587  0.850780  1
  Li  Li1  1  0.653192  0.998612  0.129673  1
  Li  Li2  1  0.146715  0.498775  0.589311  1
  Li  Li3  1  0.839744  0.505798  0.851777  1
  Fe  Fe4  1  0.157129  0.165510  0.120195  1
  Fe  Fe5  1  0.842281  0.171123  0.364383  1
  Fe  Fe6  1  0.337683  0.344861  0.877776  1
  Fe  Fe7  1  0.651923  0.324507  0.619921  1
  Fe  Fe8  1  0.341038  0.662401  0.362849  1
  Fe  Fe9  1  0.156685  0.835337  0.620367  1
  Fe  Fe10  1  0.668242  0.660396  0.124286  1
  Fe  Fe11  1  0.839583  0.842406  0.872277  1
  B  B12  1  0.159371  0.170714  0.623709  1
  B  B13  1  0.322436  0.331070  0.382224  1
  B  B14  1  0.833124  0.168206  0.868998  1
  B  B15  1  0.654946  0.333095  0.121130  1
  B  B16  1  0.337155  0.672157  0.866070  1
  B  B17  1  0.663956  0.663216  0.628217  1
  B  B18  1  0.174396  0.829704  0.114403  1
  B  B19  1  0.842054  0.834915  0.364464  1
  O  O20  1  0.259880  0.035103  0.650543  1
  O  O21  1  0.086859  0.172891  0.901598  1
  O  O22  1  0.692949  0.044220  0.887198  1
  O  O23  1  0.193278  0.209945  0.331901  1
  O  O24  1  0.291245  0.300598  0.653850  1
  O  O25  1  0.777975  0.205106  0.169051  1
  O  O26  1  0.917770  0.185891  0.567870  1
  O  O27  1  0.411489  0.320251  0.075212  1
  O  O28  1  0.213852  0.465020  0.401266  1
  O  O29  1  0.576557  0.307796  0.423859  1
  O  O30  1  0.714587  0.297388  0.818041  1
  O  O31  1  0.196110  0.547246  0.854917  1
  O  O32  1  0.782339  0.463851  0.115915  1
  O  O33  1  0.307198  0.703255  0.152280  1
  O  O34  1  0.411759  0.677833  0.589813  1
  O  O35  1  0.775174  0.524098  0.637659  1
  O  O36  1  0.590184  0.668647  0.912094  1
  O  O37  1  0.074443  0.816667  0.430267  1
  O  O38  1  0.228055  0.807511  0.826473  1
  O  O39  1  0.711072  0.710385  0.319881  1
  O  O40  1  0.808741  0.784921  0.663033  1
  O  O41  1  0.293327  0.961245  0.103327  1
  O  O42  1  0.912593  0.818864  0.083902  1
  O  O43  1  0.745282  0.972190  0.338753  1
