# generated using pymatgen
data_Li2Mn2F7
_symmetry_space_group_name_H-M   'P 1'
_cell_length_a   8.79919995
_cell_length_b   6.58220344
_cell_length_c   5.58032592
_cell_angle_alpha   92.01739013
_cell_angle_beta   77.76900532
_cell_angle_gamma   108.77783622
_symmetry_Int_Tables_number   1
_chemical_formula_structural   Li2Mn2F7
_chemical_formula_sum   'Li4 Mn4 F14'
_cell_volume   298.86329734
_cell_formula_units_Z   2
loop_
 _symmetry_equiv_pos_site_id
 _symmetry_equiv_pos_as_xyz
  1  'x, y, z'
loop_
 _atom_site_type_symbol
 _atom_site_label
 _atom_site_symmetry_multiplicity
 _atom_site_fract_x
 _atom_site_fract_y
 _atom_site_fract_z
 _atom_site_occupancy
  Li  Li0  1  0.258439  0.592500  0.105405  1
  Li  Li1  1  0.347321  0.765194  0.557178  1
  Li  Li2  1  0.652679  0.234806  0.442822  1
  Li  Li3  1  0.741561  0.407500  0.894595  1
  Mn  Mn4  1  0.164946  0.986033  0.300028  1
  Mn  Mn5  1  0.308822  0.225637  0.777573  1
  Mn  Mn6  1  0.691178  0.774363  0.222427  1
  Mn  Mn7  1  0.835054  0.013967  0.699972  1
  F  F8  1  0.150270  0.697921  0.394908  1
  F  F9  1  0.266140  0.928939  0.931361  1
  F  F10  1  0.086655  0.104169  0.692868  1
  F  F11  1  0.205710  0.275222  0.157949  1
  F  F12  1  0.300757  0.516585  0.761708  1
  F  F13  1  0.461473  0.686694  0.228898  1
  F  F14  1  0.377500  0.083447  0.442577  1
  F  F15  1  0.622500  0.916553  0.557423  1
  F  F16  1  0.538527  0.313306  0.771102  1
  F  F17  1  0.699243  0.483415  0.238292  1
  F  F18  1  0.794290  0.724778  0.842051  1
  F  F19  1  0.913345  0.895831  0.307132  1
  F  F20  1  0.733860  0.071061  0.068639  1
  F  F21  1  0.849730  0.302079  0.605092  1
