# generated using pymatgen
data_Ba(HO)2
_symmetry_space_group_name_H-M   'P 1'
_cell_length_a   11.38269610
_cell_length_b   16.71623909
_cell_length_c   7.30199502
_cell_angle_alpha   90.00000000
_cell_angle_beta   90.00000000
_cell_angle_gamma   90.00000000
_symmetry_Int_Tables_number   1
_chemical_formula_structural   Ba(HO)2
_chemical_formula_sum   'Ba20 H40 O40'
_cell_volume   1389.39345149
_cell_formula_units_Z   20
loop_
 _symmetry_equiv_pos_site_id
 _symmetry_equiv_pos_as_xyz
  1  'x, y, z'
loop_
 _atom_site_type_symbol
 _atom_site_label
 _atom_site_symmetry_multiplicity
 _atom_site_fract_x
 _atom_site_fract_y
 _atom_site_fract_z
 _atom_site_occupancy
  Ba  Ba0  1  0.813278  0.250000  0.041591  1
  Ba  Ba1  1  0.313278  0.250000  0.458409  1
  Ba  Ba2  1  0.186722  0.750000  0.958409  1
  Ba  Ba3  1  0.686722  0.750000  0.541591  1
  Ba  Ba4  1  0.977873  0.375458  0.581994  1
  Ba  Ba5  1  0.477873  0.124542  0.918006  1
  Ba  Ba6  1  0.022127  0.875458  0.418006  1
  Ba  Ba7  1  0.522127  0.624542  0.081994  1
  Ba  Ba8  1  0.022127  0.624542  0.418006  1
  Ba  Ba9  1  0.522127  0.875458  0.081994  1
  Ba  Ba10  1  0.977873  0.124542  0.581994  1
  Ba  Ba11  1  0.477873  0.375458  0.918006  1
  Ba  Ba12  1  0.834436  0.487727  0.073980  1
  Ba  Ba13  1  0.334436  0.012273  0.426020  1
  Ba  Ba14  1  0.165564  0.987727  0.926020  1
  Ba  Ba15  1  0.665564  0.512273  0.573980  1
  Ba  Ba16  1  0.165564  0.512273  0.926020  1
  Ba  Ba17  1  0.665564  0.987727  0.573980  1
  Ba  Ba18  1  0.834436  0.012273  0.073980  1
  Ba  Ba19  1  0.334436  0.487727  0.426020  1
  H  H20  1  0.561057  0.250000  0.249518  1
  H  H21  1  0.061057  0.250000  0.250482  1
  H  H22  1  0.438943  0.750000  0.750482  1
  H  H23  1  0.938943  0.750000  0.749518  1
  H  H24  1  0.751122  0.250000  0.594598  1
  H  H25  1  0.251122  0.250000  0.905402  1
  H  H26  1  0.248878  0.750000  0.405402  1
  H  H27  1  0.748878  0.750000  0.094598  1
  H  H28  1  0.048226  0.338832  0.039497  1
  H  H29  1  0.548226  0.161168  0.460503  1
  H  H30  1  0.951774  0.838832  0.960503  1
  H  H31  1  0.451774  0.661168  0.539497  1
  H  H32  1  0.951774  0.661168  0.960503  1
  H  H33  1  0.451774  0.838832  0.539497  1
  H  H34  1  0.048226  0.161168  0.039497  1
  H  H35  1  0.548226  0.338832  0.460503  1
  H  H36  1  0.723072  0.349363  0.372581  1
  H  H37  1  0.223072  0.150637  0.127419  1
  H  H38  1  0.276928  0.849363  0.627419  1
  H  H39  1  0.776928  0.650637  0.872581  1
  H  H40  1  0.276928  0.650637  0.627419  1
  H  H41  1  0.776928  0.849363  0.872581  1
  H  H42  1  0.723072  0.150637  0.372581  1
  H  H43  1  0.223072  0.349363  0.127419  1
  H  H44  1  0.740949  0.354213  0.759646  1
  H  H45  1  0.240949  0.145787  0.740354  1
  H  H46  1  0.259051  0.854213  0.240354  1
  H  H47  1  0.759051  0.645787  0.259646  1
  H  H48  1  0.259051  0.645787  0.240354  1
  H  H49  1  0.759051  0.854213  0.259646  1
  H  H50  1  0.740949  0.145787  0.759646  1
  H  H51  1  0.240949  0.354213  0.740354  1
  H  H52  1  0.585115  0.428432  0.250054  1
  H  H53  1  0.085115  0.071568  0.249946  1
  H  H54  1  0.414885  0.928432  0.749946  1
  H  H55  1  0.914885  0.571568  0.750054  1
  H  H56  1  0.414885  0.571568  0.749946  1
  H  H57  1  0.914885  0.928432  0.750054  1
  H  H58  1  0.585115  0.071568  0.250054  1
  H  H59  1  0.085115  0.428432  0.249946  1
  O  O60  1  0.578870  0.250000  0.119600  1
  O  O61  1  0.078870  0.250000  0.380400  1
  O  O62  1  0.421130  0.750000  0.880400  1
  O  O63  1  0.921130  0.750000  0.619600  1
  O  O64  1  0.816106  0.250000  0.681061  1
  O  O65  1  0.316106  0.250000  0.818939  1
  O  O66  1  0.183894  0.750000  0.318939  1
  O  O67  1  0.683894  0.750000  0.181061  1
  O  O68  1  0.987897  0.364488  0.966986  1
  O  O69  1  0.487897  0.135512  0.533014  1
  O  O70  1  0.012103  0.864488  0.033014  1
  O  O71  1  0.512103  0.635512  0.466986  1
  O  O72  1  0.012103  0.635512  0.033014  1
  O  O73  1  0.512103  0.864488  0.466986  1
  O  O74  1  0.987897  0.135512  0.966986  1
  O  O75  1  0.487897  0.364488  0.533014  1
  O  O76  1  0.789260  0.382975  0.339094  1
  O  O77  1  0.289260  0.117025  0.160906  1
  O  O78  1  0.210740  0.882975  0.660906  1
  O  O79  1  0.710740  0.617025  0.839094  1
  O  O80  1  0.210740  0.617025  0.660906  1
  O  O81  1  0.710740  0.882975  0.839094  1
  O  O82  1  0.789260  0.117025  0.339094  1
  O  O83  1  0.289260  0.382975  0.160906  1
  O  O84  1  0.713948  0.397243  0.841503  1
  O  O85  1  0.213948  0.102757  0.658497  1
  O  O86  1  0.286052  0.897243  0.158497  1
  O  O87  1  0.786052  0.602757  0.341503  1
  O  O88  1  0.286052  0.602757  0.158497  1
  O  O89  1  0.786052  0.897243  0.341503  1
  O  O90  1  0.713948  0.102757  0.841503  1
  O  O91  1  0.213948  0.397243  0.658497  1
  O  O92  1  0.556256  0.479173  0.202473  1
  O  O93  1  0.056256  0.020827  0.297527  1
  O  O94  1  0.443744  0.979173  0.797527  1
  O  O95  1  0.943744  0.520827  0.702473  1
  O  O96  1  0.443744  0.520827  0.797527  1
  O  O97  1  0.943744  0.979173  0.702473  1
  O  O98  1  0.556256  0.020827  0.202473  1
  O  O99  1  0.056256  0.479173  0.297527  1
