# generated using pymatgen
data_Na4Mn2C4SO16
_symmetry_space_group_name_H-M   'P 1'
_cell_length_a   9.84091818
_cell_length_b   9.87035370
_cell_length_c   9.84091767
_cell_angle_alpha   61.51711130
_cell_angle_beta   92.48481044
_cell_angle_gamma   61.51711163
_symmetry_Int_Tables_number   1
_chemical_formula_structural   Na4Mn2C4SO16
_chemical_formula_sum   'Na8 Mn4 C8 S2 O32'
_cell_volume   691.63804765
_cell_formula_units_Z   2
loop_
 _symmetry_equiv_pos_site_id
 _symmetry_equiv_pos_as_xyz
  1  'x, y, z'
loop_
 _atom_site_type_symbol
 _atom_site_label
 _atom_site_symmetry_multiplicity
 _atom_site_fract_x
 _atom_site_fract_y
 _atom_site_fract_z
 _atom_site_occupancy
  Na  Na0  1  0.829087  0.841827  0.079087  1
  Na  Na1  1  0.834833  0.250000  0.084833  1
  Na  Na2  1  0.584833  0.750000  0.334833  1
  Na  Na3  1  0.579087  0.341827  0.329087  1
  Na  Na4  1  0.420913  0.658173  0.670913  1
  Na  Na5  1  0.415167  0.250000  0.665167  1
  Na  Na6  1  0.165167  0.750000  0.915167  1
  Na  Na7  1  0.170913  0.158173  0.920913  1
  Mn  Mn8  1  0.500000  0.000000  0.500000  1
  Mn  Mn9  1  0.000000  0.500000  0.000000  1
  Mn  Mn10  1  0.000000  0.500000  0.500000  1
  Mn  Mn11  1  0.000000  0.000000  0.500000  1
  C  C12  1  0.773168  0.938824  0.356074  1
  C  C13  1  0.788008  0.938824  0.705102  1
  C  C14  1  0.856074  0.438824  0.273168  1
  C  C15  1  0.794898  0.561176  0.711992  1
  C  C16  1  0.205102  0.438824  0.288008  1
  C  C17  1  0.143926  0.561176  0.726832  1
  C  C18  1  0.211992  0.061176  0.294898  1
  C  C19  1  0.226832  0.061176  0.643926  1
  S  S20  1  0.375000  0.750000  0.125000  1
  S  S21  1  0.625000  0.250000  0.875000  1
  O  O22  1  0.888190  0.971130  0.351370  1
  O  O23  1  0.898286  0.807144  0.848546  1
  O  O24  1  0.794570  0.807144  0.344310  1
  O  O25  1  0.866159  0.547973  0.137443  1
  O  O26  1  0.914133  0.452027  0.685417  1
  O  O27  1  0.640679  0.971130  0.677500  1
  O  O28  1  0.851370  0.471130  0.388190  1
  O  O29  1  0.822500  0.528870  0.859321  1
  O  O30  1  0.844310  0.307144  0.294570  1
  O  O31  1  0.651454  0.692856  0.601714  1
  O  O32  1  0.437306  0.872305  0.068599  1
  O  O33  1  0.809611  0.127695  0.940904  1
  O  O34  1  0.814583  0.047973  0.585867  1
  O  O35  1  0.362557  0.952027  0.633841  1
  O  O36  1  0.440904  0.627695  0.309611  1
  O  O37  1  0.431401  0.627695  0.062694  1
  O  O38  1  0.568599  0.372305  0.937306  1
  O  O39  1  0.559096  0.372305  0.690389  1
  O  O40  1  0.637443  0.047973  0.366159  1
  O  O41  1  0.185417  0.952027  0.414133  1
  O  O42  1  0.190389  0.872305  0.059096  1
  O  O43  1  0.562694  0.127695  0.931401  1
  O  O44  1  0.348546  0.307144  0.398286  1
  O  O45  1  0.155690  0.692856  0.705430  1
  O  O46  1  0.177500  0.471130  0.140679  1
  O  O47  1  0.148630  0.528870  0.611810  1
  O  O48  1  0.359321  0.028870  0.322500  1
  O  O49  1  0.085867  0.547973  0.314583  1
  O  O50  1  0.133841  0.452027  0.862557  1
  O  O51  1  0.205430  0.192856  0.655690  1
  O  O52  1  0.101714  0.192856  0.151454  1
  O  O53  1  0.111810  0.028870  0.648630  1
