# generated using pymatgen
data_Li2CuPO4
_symmetry_space_group_name_H-M   'P 1'
_cell_length_a   6.24296221
_cell_length_b   5.38333684
_cell_length_c   5.06660955
_cell_angle_alpha   89.68933693
_cell_angle_beta   90.00471681
_cell_angle_gamma   89.74712928
_symmetry_Int_Tables_number   1
_chemical_formula_structural   Li2CuPO4
_chemical_formula_sum   'Li4 Cu2 P2 O8'
_cell_volume   170.27429149
_cell_formula_units_Z   2
loop_
 _symmetry_equiv_pos_site_id
 _symmetry_equiv_pos_as_xyz
  1  'x, y, z'
loop_
 _atom_site_type_symbol
 _atom_site_label
 _atom_site_symmetry_multiplicity
 _atom_site_fract_x
 _atom_site_fract_y
 _atom_site_fract_z
 _atom_site_occupancy
  Li  Li0  1  0.245774  0.327065  0.995164  1
  Li  Li1  1  0.250207  0.672494  0.493910  1
  Li  Li2  1  0.500540  0.845209  0.993853  1
  Li  Li3  1  0.749660  0.675318  0.493463  1
  Cu  Cu4  1  0.998361  0.180287  0.488964  1
  Cu  Cu5  1  0.761383  0.335415  0.993052  1
  P  P6  1  0.004934  0.816506  0.997910  1
  P  P7  1  0.494231  0.168758  0.499916  1
  O  O8  1  0.014776  0.094443  0.907920  1
  O  O9  1  0.000430  0.800347  0.304842  1
  O  O10  1  0.206841  0.680128  0.890390  1
  O  O11  1  0.296046  0.315360  0.388131  1
  O  O12  1  0.487296  0.169769  0.807685  1
  O  O13  1  0.498656  0.899705  0.394672  1
  O  O14  1  0.698034  0.316862  0.407649  1
  O  O15  1  0.792831  0.702333  0.885072  1
