# generated using pymatgen
data_NaFe2H3(SO4)2
_symmetry_space_group_name_H-M   'P 1'
_cell_length_a   9.02765792
_cell_length_b   7.98847693
_cell_length_c   6.46511240
_cell_angle_alpha   112.31312148
_cell_angle_beta   110.28396559
_cell_angle_gamma   99.00922676
_symmetry_Int_Tables_number   1
_chemical_formula_structural   NaFe2H3(SO4)2
_chemical_formula_sum   'Na2 Fe4 H6 S4 O16'
_cell_volume   381.61789104
_cell_formula_units_Z   2
loop_
 _symmetry_equiv_pos_site_id
 _symmetry_equiv_pos_as_xyz
  1  'x, y, z'
loop_
 _atom_site_type_symbol
 _atom_site_label
 _atom_site_symmetry_multiplicity
 _atom_site_fract_x
 _atom_site_fract_y
 _atom_site_fract_z
 _atom_site_occupancy
  Na  Na0  1  0.092014  0.826864  0.438433  1
  Na  Na1  1  0.907986  0.173136  0.561567  1
  Fe  Fe2  1  0.500000  0.000000  0.000000  1
  Fe  Fe3  1  0.500000  0.000000  0.500000  1
  Fe  Fe4  1  0.809781  0.828023  0.813027  1
  Fe  Fe5  1  0.190219  0.171977  0.186973  1
  H  H6  1  0.496626  0.717985  0.605793  1
  H  H7  1  0.503374  0.282015  0.394207  1
  H  H8  1  0.729892  0.446533  0.700114  1
  H  H9  1  0.270108  0.553467  0.299886  1
  H  H10  1  0.728248  0.440406  0.447863  1
  H  H11  1  0.271752  0.559594  0.552137  1
  S  S12  1  0.157374  0.698794  0.938020  1
  S  S13  1  0.842626  0.301206  0.061980  1
  S  S14  1  0.295540  0.249004  0.751576  1
  S  S15  1  0.704460  0.750996  0.248424  1
  O  O16  1  0.272288  0.741016  0.820559  1
  O  O17  1  0.727712  0.258984  0.179441  1
  O  O18  1  0.728108  0.247673  0.787012  1
  O  O19  1  0.271892  0.752327  0.212988  1
  O  O20  1  0.071862  0.855638  0.963762  1
  O  O21  1  0.928138  0.144362  0.036238  1
  O  O22  1  0.370362  0.077993  0.727257  1
  O  O23  1  0.629638  0.922007  0.272743  1
  O  O24  1  0.850907  0.838476  0.513429  1
  O  O25  1  0.149093  0.161524  0.486571  1
  O  O26  1  0.797446  0.755241  0.093646  1
  O  O27  1  0.202554  0.244759  0.906354  1
  O  O28  1  0.570884  0.851932  0.704847  1
  O  O29  1  0.429116  0.148068  0.295153  1
  O  O30  1  0.707491  0.510480  0.593184  1
  O  O31  1  0.292509  0.489520  0.406816  1
