# generated using pymatgen
data_Li4V3Sn3(TeO8)2
_symmetry_space_group_name_H-M   'P 1'
_cell_length_a   6.28544839
_cell_length_b   6.23973599
_cell_length_c   10.14692799
_cell_angle_alpha   89.99810737
_cell_angle_beta   89.89233223
_cell_angle_gamma   119.77067478
_symmetry_Int_Tables_number   1
_chemical_formula_structural   Li4V3Sn3(TeO8)2
_chemical_formula_sum   'Li4 V3 Sn3 Te2 O16'
_cell_volume   345.43441552
_cell_formula_units_Z   1
loop_
 _symmetry_equiv_pos_site_id
 _symmetry_equiv_pos_as_xyz
  1  'x, y, z'
loop_
 _atom_site_type_symbol
 _atom_site_label
 _atom_site_symmetry_multiplicity
 _atom_site_fract_x
 _atom_site_fract_y
 _atom_site_fract_z
 _atom_site_occupancy
  Li  Li0  1  0.337074  0.668624  0.900971  1
  Li  Li1  1  0.987086  0.993535  0.987223  1
  Li  Li2  1  0.990440  0.995144  0.499069  1
  Li  Li3  1  0.665992  0.333016  0.397753  1
  V  V4  1  0.664839  0.832548  0.212932  1
  V  V5  1  0.834829  0.651791  0.713505  1
  V  V6  1  0.834810  0.182947  0.713427  1
  Sn  Sn7  1  0.166265  0.831239  0.214641  1
  Sn  Sn8  1  0.166357  0.335094  0.214583  1
  Sn  Sn9  1  0.333568  0.166692  0.714781  1
  Te  Te10  1  0.356197  0.677821  0.499205  1
  Te  Te11  1  0.676042  0.338049  0.980485  1
  O  O12  1  0.166988  0.841294  0.599048  1
  O  O13  1  0.022800  0.511314  0.332141  1
  O  O14  1  0.330193  0.665155  0.104297  1
  O  O15  1  0.000034  0.000040  0.318292  1
  O  O16  1  0.996523  0.998008  0.804942  1
  O  O17  1  0.167292  0.325800  0.598906  1
  O  O18  1  0.489964  0.969117  0.330105  1
  O  O19  1  0.489817  0.520941  0.330321  1
  O  O20  1  0.298235  0.149188  0.097366  1
  O  O21  1  0.678570  0.838947  0.599447  1
  O  O22  1  0.520244  0.479051  0.843908  1
  O  O23  1  0.520159  0.041239  0.843947  1
  O  O24  1  0.654379  0.327617  0.605165  1
  O  O25  1  0.843484  0.698016  0.101877  1
  O  O26  1  0.964212  0.482513  0.847750  1
  O  O27  1  0.843605  0.145562  0.101750  1
