# generated using pymatgen
data_Li3MnV(PO4)3
_symmetry_space_group_name_H-M   'P 1'
_cell_length_a   9.14166359
_cell_length_b   8.56493543
_cell_length_c   8.59430414
_cell_angle_alpha   59.76410516
_cell_angle_beta   62.89989006
_cell_angle_gamma   89.89071172
_symmetry_Int_Tables_number   1
_chemical_formula_structural   Li3MnV(PO4)3
_chemical_formula_sum   'Li6 Mn2 V2 P6 O24'
_cell_volume   494.38620042
_cell_formula_units_Z   2
loop_
 _symmetry_equiv_pos_site_id
 _symmetry_equiv_pos_as_xyz
  1  'x, y, z'
loop_
 _atom_site_type_symbol
 _atom_site_label
 _atom_site_symmetry_multiplicity
 _atom_site_fract_x
 _atom_site_fract_y
 _atom_site_fract_z
 _atom_site_occupancy
  Li  Li0  1  0.142037  0.742305  0.187845  1
  Li  Li1  1  0.129473  0.067211  0.609282  1
  Li  Li2  1  0.150996  0.337423  0.923579  1
  Li  Li3  1  0.849004  0.662577  0.076421  1
  Li  Li4  1  0.870526  0.932789  0.390718  1
  Li  Li5  1  0.857963  0.257695  0.812155  1
  Mn  Mn6  1  0.560382  0.855578  0.295355  1
  Mn  Mn7  1  0.439618  0.144422  0.704645  1
  V  V8  1  0.039850  0.347924  0.306258  1
  V  V9  1  0.960150  0.652076  0.693742  1
  P  P10  1  0.249380  0.048000  0.212620  1
  P  P11  1  0.249252  0.459667  0.494724  1
  P  P12  1  0.247575  0.744131  0.799126  1
  P  P13  1  0.752425  0.255869  0.200874  1
  P  P14  1  0.750748  0.540333  0.505276  1
  P  P15  1  0.750620  0.952000  0.787380  1
  O  O16  1  0.106014  0.844172  0.368648  1
  O  O17  1  0.256148  0.136789  0.001672  1
  O  O18  1  0.177226  0.164381  0.313470  1
  O  O19  1  0.176912  0.487351  0.349350  1
  O  O20  1  0.104401  0.469453  0.685605  1
  O  O21  1  0.100082  0.785097  0.742405  1
  O  O22  1  0.416979  0.026072  0.198884  1
  O  O23  1  0.258293  0.255249  0.606726  1
  O  O24  1  0.414216  0.613186  0.367663  1
  O  O25  1  0.180198  0.527763  0.989376  1
  O  O26  1  0.250519  0.868626  0.880461  1
  O  O27  1  0.413173  0.782661  0.610582  1
  O  O28  1  0.586827  0.217339  0.389418  1
  O  O29  1  0.749481  0.131374  0.119539  1
  O  O30  1  0.819802  0.472237  0.010624  1
  O  O31  1  0.585784  0.386814  0.632337  1
  O  O32  1  0.741707  0.744751  0.393274  1
  O  O33  1  0.583021  0.973928  0.801116  1
  O  O34  1  0.899918  0.214903  0.257595  1
  O  O35  1  0.895599  0.530547  0.314395  1
  O  O36  1  0.823088  0.512649  0.650650  1
  O  O37  1  0.822774  0.835619  0.686530  1
  O  O38  1  0.743852  0.863211  0.998328  1
  O  O39  1  0.893986  0.155828  0.631352  1
