# generated using pymatgen
data_CdH8(NO5)2
_symmetry_space_group_name_H-M   'P 1'
_cell_length_a   13.29029272
_cell_length_b   14.10877211
_cell_length_c   6.32945954
_cell_angle_alpha   69.52889859
_cell_angle_beta   84.08127348
_cell_angle_gamma   26.46463283
_symmetry_Int_Tables_number   1
_chemical_formula_structural   CdH8(NO5)2
_chemical_formula_sum   'Cd2 H16 N4 O20'
_cell_volume   428.28369424
_cell_formula_units_Z   2
loop_
 _symmetry_equiv_pos_site_id
 _symmetry_equiv_pos_as_xyz
  1  'x, y, z'
loop_
 _atom_site_type_symbol
 _atom_site_label
 _atom_site_symmetry_multiplicity
 _atom_site_fract_x
 _atom_site_fract_y
 _atom_site_fract_z
 _atom_site_occupancy
  Cd  Cd0  1  0.257789  0.241705  0.246085  1
  Cd  Cd1  1  0.007581  0.993006  0.999104  1
  H  H2  1  0.487042  0.627119  0.989715  1
  H  H3  1  0.886359  0.999668  0.622942  1
  H  H4  1  0.247848  0.367322  0.756357  1
  H  H5  1  0.628784  0.757068  0.357398  1
  H  H6  1  0.490873  0.504994  0.057798  1
  H  H7  1  0.946458  0.057878  0.503572  1
  H  H8  1  0.196617  0.300366  0.756845  1
  H  H9  1  0.748663  0.755574  0.300345  1
  H  H10  1  0.148313  0.182227  0.631160  1
  H  H11  1  0.035534  0.632760  0.180710  1
  H  H12  1  0.619574  0.211803  0.106866  1
  H  H13  1  0.070883  0.099481  0.219186  1
  H  H14  1  0.431765  0.964503  0.769255  1
  H  H15  1  0.832868  0.767282  0.967434  1
  H  H16  1  0.482813  0.413649  0.823328  1
  H  H17  1  0.284317  0.818132  0.419145  1
  N  N18  1  0.832327  0.487883  0.019053  1
  N  N19  1  0.663092  0.015311  0.491902  1
  N  N20  1  0.232940  0.587685  0.419816  1
  N  N21  1  0.761319  0.418026  0.591043  1
  O  O22  1  0.785469  0.618010  0.007169  1
  O  O23  1  0.591457  0.003577  0.621920  1
  O  O24  1  0.243920  0.661085  0.461852  1
  O  O25  1  0.629840  0.466699  0.661216  1
  O  O26  1  0.069699  0.239694  0.151081  1
  O  O27  1  0.546467  0.141941  0.245299  1
  O  O28  1  0.106826  0.702257  0.183855  1
  O  O29  1  0.009030  0.179840  0.710676  1
  O  O30  1  0.649484  0.602686  0.901344  1
  O  O31  1  0.845468  0.901954  0.607137  1
  O  O32  1  0.346172  0.406494  0.606637  1
  O  O33  1  0.648655  0.599820  0.407791  1
  O  O34  1  0.434277  0.612303  0.080879  1
  O  O35  1  0.877706  0.077406  0.616508  1
  O  O36  1  0.172879  0.372558  0.819060  1
  O  O37  1  0.638202  0.816185  0.371559  1
  O  O38  1  0.247919  0.154751  0.635962  1
  O  O39  1  0.962141  0.633482  0.156939  1
  O  O40  1  0.615176  0.288234  0.006381  1
  O  O41  1  0.094280  0.003200  0.292539  1
