# generated using pymatgen
data_Hf2N2O
_symmetry_space_group_name_H-M   'P 1'
_cell_length_a   8.72776855
_cell_length_b   8.73052231
_cell_length_c   8.71805919
_cell_angle_alpha   109.28114233
_cell_angle_beta   109.41870694
_cell_angle_gamma   109.54469444
_symmetry_Int_Tables_number   1
_chemical_formula_structural   Hf2N2O
_chemical_formula_sum   'Hf16 N16 O8'
_cell_volume   512.43971462
_cell_formula_units_Z   8
loop_
 _symmetry_equiv_pos_site_id
 _symmetry_equiv_pos_as_xyz
  1  'x, y, z'
loop_
 _atom_site_type_symbol
 _atom_site_label
 _atom_site_symmetry_multiplicity
 _atom_site_fract_x
 _atom_site_fract_y
 _atom_site_fract_z
 _atom_site_occupancy
  Hf  Hf0  1  0.497624  0.989223  0.986996  1
  Hf  Hf1  1  0.749407  0.292017  0.535222  1
  Hf  Hf2  1  0.217094  0.963054  0.250277  1
  Hf  Hf3  1  0.720170  0.471673  0.247244  1
  Hf  Hf4  1  0.251914  0.214039  0.955863  1
  Hf  Hf5  1  0.462985  0.256376  0.719170  1
  Hf  Hf6  1  0.967889  0.259161  0.216138  1
  Hf  Hf7  1  0.502162  0.499592  0.510474  1
  Hf  Hf8  1  0.008664  0.520122  0.006203  1
  Hf  Hf9  1  0.534160  0.749226  0.283999  1
  Hf  Hf10  1  0.997862  0.997003  0.506886  1
  Hf  Hf11  1  0.026793  0.740771  0.775334  1
  Hf  Hf12  1  0.744996  0.782200  0.034056  1
  Hf  Hf13  1  0.780124  0.024284  0.751665  1
  Hf  Hf14  1  0.283266  0.536900  0.751508  1
  Hf  Hf15  1  0.251010  0.704814  0.464600  1
  N  N16  1  0.733792  0.995261  0.961848  1
  N  N17  1  0.512875  0.239865  0.969399  1
  N  N18  1  0.770108  0.541225  0.525597  1
  N  N19  1  0.772805  0.730809  0.266450  1
  N  N20  1  0.465620  0.223877  0.455752  1
  N  N21  1  0.486280  0.763540  0.034924  1
  N  N22  1  0.961925  0.503489  0.232892  1
  N  N23  1  0.227254  0.450936  0.463074  1
  N  N24  1  0.549610  0.533407  0.775444  1
  N  N25  1  0.958194  0.732912  0.990999  1
  N  N26  1  0.537946  0.772869  0.544240  1
  N  N27  1  0.988411  0.958614  0.730875  1
  N  N28  1  0.226061  0.268020  0.734898  1
  N  N29  1  0.272707  0.742854  0.229324  1
  N  N30  1  0.262236  0.779150  0.726326  1
  N  N31  1  0.030000  0.483830  0.760291  1
  O  O32  1  0.742782  0.221785  0.278147  1
  O  O33  1  0.763854  0.038005  0.486158  1
  O  O34  1  0.275837  0.014853  0.049379  1
  O  O35  1  0.727278  0.252377  0.769281  1
  O  O36  1  0.052468  0.276951  0.016343  1
  O  O37  1  0.013815  0.047998  0.278434  1
  O  O38  1  0.444369  0.465406  0.219831  1
  O  O39  1  0.227657  0.961511  0.504455  1
