# generated using pymatgen
data_Li4Ti2Ni3Sn3O16
_symmetry_space_group_name_H-M   'P 1'
_cell_length_a   6.01572369
_cell_length_b   6.10006917
_cell_length_c   9.63158846
_cell_angle_alpha   90.00391131
_cell_angle_beta   88.16206283
_cell_angle_gamma   120.46387876
_symmetry_Int_Tables_number   1
_chemical_formula_structural   Li4Ti2Ni3Sn3O16
_chemical_formula_sum   'Li4 Ti2 Ni3 Sn3 O16'
_cell_volume   304.44013038
_cell_formula_units_Z   1
loop_
 _symmetry_equiv_pos_site_id
 _symmetry_equiv_pos_as_xyz
  1  'x, y, z'
loop_
 _atom_site_type_symbol
 _atom_site_label
 _atom_site_symmetry_multiplicity
 _atom_site_fract_x
 _atom_site_fract_y
 _atom_site_fract_z
 _atom_site_occupancy
  Li  Li0  1  0.354551  0.677366  0.890746  1
  Li  Li1  1  0.959209  0.979693  0.989415  1
  Li  Li2  1  0.975174  0.987557  0.500564  1
  Li  Li3  1  0.666302  0.333063  0.402680  1
  Ti  Ti4  1  0.353076  0.676451  0.494177  1
  Ti  Ti5  1  0.716287  0.358204  0.986084  1
  Ni  Ni6  1  0.658323  0.829175  0.216597  1
  Ni  Ni7  1  0.835628  0.659474  0.714352  1
  Ni  Ni8  1  0.835668  0.176237  0.714348  1
  Sn  Sn9  1  0.171843  0.832419  0.213665  1
  Sn  Sn10  1  0.171859  0.339449  0.213640  1
  Sn  Sn11  1  0.339563  0.169780  0.714847  1
  O  O12  1  0.153581  0.829369  0.597439  1
  O  O13  1  0.024553  0.512276  0.342539  1
  O  O14  1  0.347043  0.673540  0.098222  1
  O  O15  1  0.987828  0.993943  0.313425  1
  O  O16  1  0.971232  0.985729  0.802010  1
  O  O17  1  0.153561  0.324175  0.597411  1
  O  O18  1  0.471015  0.958791  0.353089  1
  O  O19  1  0.471026  0.512129  0.353066  1
  O  O20  1  0.327917  0.163959  0.086362  1
  O  O21  1  0.638647  0.819160  0.591337  1
  O  O22  1  0.537408  0.490737  0.839134  1
  O  O23  1  0.537475  0.046782  0.839132  1
  O  O24  1  0.696458  0.348167  0.611488  1
  O  O25  1  0.835148  0.658776  0.091233  1
  O  O26  1  0.974459  0.487355  0.849607  1
  O  O27  1  0.835164  0.176548  0.091232  1
