# generated using pymatgen
data_Na5LaO4
_symmetry_space_group_name_H-M   'P 1'
_cell_length_a   11.14442704
_cell_length_b   11.11910101
_cell_length_c   11.13595761
_cell_angle_alpha   90.00000000
_cell_angle_beta   90.00000000
_cell_angle_gamma   90.00000000
_symmetry_Int_Tables_number   1
_chemical_formula_structural   Na5LaO4
_chemical_formula_sum   'Na40 La8 O32'
_cell_volume   1379.92343407
_cell_formula_units_Z   8
loop_
 _symmetry_equiv_pos_site_id
 _symmetry_equiv_pos_as_xyz
  1  'x, y, z'
loop_
 _atom_site_type_symbol
 _atom_site_label
 _atom_site_symmetry_multiplicity
 _atom_site_fract_x
 _atom_site_fract_y
 _atom_site_fract_z
 _atom_site_occupancy
  Na  Na0  1  0.106944  0.829879  0.122159  1
  Na  Na1  1  0.106944  0.670121  0.622159  1
  Na  Na2  1  0.107091  0.140377  0.398030  1
  Na  Na3  1  0.107091  0.359623  0.898030  1
  Na  Na4  1  0.116028  0.398655  0.159624  1
  Na  Na5  1  0.116028  0.101345  0.659624  1
  Na  Na6  1  0.131999  0.605726  0.355311  1
  Na  Na7  1  0.131999  0.894274  0.855311  1
  Na  Na8  1  0.145286  0.874387  0.379819  1
  Na  Na9  1  0.145286  0.625613  0.879819  1
  Na  Na10  1  0.354714  0.125613  0.879819  1
  Na  Na11  1  0.354714  0.374387  0.379819  1
  Na  Na12  1  0.368001  0.105726  0.355311  1
  Na  Na13  1  0.368001  0.394274  0.855311  1
  Na  Na14  1  0.383972  0.601345  0.659624  1
  Na  Na15  1  0.383972  0.898655  0.159624  1
  Na  Na16  1  0.392909  0.640377  0.398030  1
  Na  Na17  1  0.392909  0.859623  0.898030  1
  Na  Na18  1  0.393056  0.170121  0.622159  1
  Na  Na19  1  0.393056  0.329879  0.122159  1
  Na  Na20  1  0.606944  0.829879  0.377841  1
  Na  Na21  1  0.606944  0.670121  0.877841  1
  Na  Na22  1  0.607091  0.140377  0.101970  1
  Na  Na23  1  0.607091  0.359623  0.601970  1
  Na  Na24  1  0.616028  0.398655  0.340376  1
  Na  Na25  1  0.616028  0.101345  0.840376  1
  Na  Na26  1  0.631999  0.605726  0.144689  1
  Na  Na27  1  0.631999  0.894274  0.644689  1
  Na  Na28  1  0.645286  0.625613  0.620181  1
  Na  Na29  1  0.645286  0.874387  0.120181  1
  Na  Na30  1  0.854714  0.125613  0.620181  1
  Na  Na31  1  0.854714  0.374387  0.120181  1
  Na  Na32  1  0.868001  0.105726  0.144689  1
  Na  Na33  1  0.868001  0.394274  0.644689  1
  Na  Na34  1  0.883972  0.601345  0.840376  1
  Na  Na35  1  0.883972  0.898655  0.340376  1
  Na  Na36  1  0.892909  0.640377  0.101970  1
  Na  Na37  1  0.892909  0.859623  0.601970  1
  Na  Na38  1  0.893056  0.170121  0.877841  1
  Na  Na39  1  0.893056  0.329879  0.377841  1
  La  La40  1  0.148359  0.117562  0.114286  1
  La  La41  1  0.148359  0.382438  0.614286  1
  La  La42  1  0.351641  0.882438  0.614286  1
  La  La43  1  0.351641  0.617562  0.114286  1
  La  La44  1  0.648359  0.117562  0.385714  1
  La  La45  1  0.648359  0.382438  0.885714  1
  La  La46  1  0.851641  0.617562  0.385714  1
  La  La47  1  0.851641  0.882438  0.885714  1
  O  O48  1  0.004065  0.244369  0.037497  1
  O  O49  1  0.004065  0.255631  0.537497  1
  O  O50  1  0.036419  0.001232  0.240254  1
  O  O51  1  0.036419  0.498768  0.740254  1
  O  O52  1  0.254338  0.977236  0.006143  1
  O  O53  1  0.254338  0.522764  0.506143  1
  O  O54  1  0.246669  0.239487  0.248417  1
  O  O55  1  0.246669  0.260513  0.748417  1
  O  O56  1  0.253331  0.739487  0.248417  1
  O  O57  1  0.253331  0.760513  0.748417  1
  O  O58  1  0.245662  0.022764  0.506143  1
  O  O59  1  0.245662  0.477236  0.006143  1
  O  O60  1  0.463581  0.501232  0.240254  1
  O  O61  1  0.463581  0.998768  0.740254  1
  O  O62  1  0.495935  0.755631  0.537497  1
  O  O63  1  0.495935  0.744369  0.037497  1
  O  O64  1  0.504065  0.255631  0.962503  1
  O  O65  1  0.504065  0.244369  0.462503  1
  O  O66  1  0.536419  0.001232  0.259746  1
  O  O67  1  0.536419  0.498768  0.759746  1
  O  O68  1  0.754338  0.522764  0.993857  1
  O  O69  1  0.754338  0.977236  0.493857  1
  O  O70  1  0.746669  0.239487  0.251583  1
  O  O71  1  0.746669  0.260513  0.751583  1
  O  O72  1  0.753331  0.739487  0.251583  1
  O  O73  1  0.753331  0.760513  0.751583  1
  O  O74  1  0.745662  0.022764  0.993857  1
  O  O75  1  0.745662  0.477236  0.493857  1
  O  O76  1  0.963581  0.998768  0.759746  1
  O  O77  1  0.963581  0.501232  0.259746  1
  O  O78  1  0.995935  0.755631  0.962503  1
  O  O79  1  0.995935  0.744369  0.462503  1
