# generated using pymatgen
data_LiVSiO4
_symmetry_space_group_name_H-M   'P 1'
_cell_length_a   10.49927645
_cell_length_b   6.86748140
_cell_length_c   5.07263605
_cell_angle_alpha   90.00000000
_cell_angle_beta   90.00000000
_cell_angle_gamma   90.00000000
_symmetry_Int_Tables_number   1
_chemical_formula_structural   LiVSiO4
_chemical_formula_sum   'Li4 V4 Si4 O16'
_cell_volume   365.75524833
_cell_formula_units_Z   4
loop_
 _symmetry_equiv_pos_site_id
 _symmetry_equiv_pos_as_xyz
  1  'x, y, z'
loop_
 _atom_site_type_symbol
 _atom_site_label
 _atom_site_symmetry_multiplicity
 _atom_site_fract_x
 _atom_site_fract_y
 _atom_site_fract_z
 _atom_site_occupancy
  Li  Li0  1  0.149740  0.503984  0.243992  1
  Li  Li1  1  0.350260  0.003984  0.743992  1
  Li  Li2  1  0.649740  0.996016  0.243992  1
  Li  Li3  1  0.850260  0.496016  0.743992  1
  V  V4  1  0.166920  0.010528  0.245105  1
  V  V5  1  0.333080  0.510528  0.745105  1
  V  V6  1  0.666920  0.489472  0.245105  1
  V  V7  1  0.833080  0.989472  0.745105  1
  Si  Si8  1  0.095183  0.760674  0.749842  1
  Si  Si9  1  0.404817  0.260674  0.249841  1
  Si  Si10  1  0.595183  0.739326  0.749842  1
  Si  Si11  1  0.904817  0.239326  0.249841  1
  O  O12  1  0.058636  0.235839  0.189149  1
  O  O13  1  0.124045  0.766909  0.069612  1
  O  O14  1  0.159327  0.560559  0.629345  1
  O  O15  1  0.168777  0.949995  0.618806  1
  O  O16  1  0.331223  0.449995  0.118806  1
  O  O17  1  0.340673  0.060559  0.129345  1
  O  O18  1  0.375955  0.266909  0.569612  1
  O  O19  1  0.441364  0.735839  0.689149  1
  O  O20  1  0.558636  0.264161  0.189149  1
  O  O21  1  0.624045  0.733091  0.069612  1
  O  O22  1  0.659327  0.939441  0.629345  1
  O  O23  1  0.668777  0.550005  0.618806  1
  O  O24  1  0.831223  0.050005  0.118806  1
  O  O25  1  0.840673  0.439441  0.129345  1
  O  O26  1  0.875955  0.233091  0.569612  1
  O  O27  1  0.941364  0.764161  0.689149  1
