# generated using pymatgen
data_Sr5Nb4O15
_symmetry_space_group_name_H-M   'P 1'
_cell_length_a   5.73789581
_cell_length_b   5.73788260
_cell_length_c   23.29696990
_cell_angle_alpha   89.99978526
_cell_angle_beta   90.00005900
_cell_angle_gamma   120.00022431
_symmetry_Int_Tables_number   1
_chemical_formula_structural   Sr5Nb4O15
_chemical_formula_sum   'Sr10 Nb8 O30'
_cell_volume   664.25281625
_cell_formula_units_Z   2
loop_
 _symmetry_equiv_pos_site_id
 _symmetry_equiv_pos_as_xyz
  1  'x, y, z'
loop_
 _atom_site_type_symbol
 _atom_site_label
 _atom_site_symmetry_multiplicity
 _atom_site_fract_x
 _atom_site_fract_y
 _atom_site_fract_z
 _atom_site_occupancy
  Sr  Sr0  1  0.333320  0.666668  0.140197  1
  Sr  Sr1  1  0.333313  0.666659  0.470882  1
  Sr  Sr2  1  0.999986  0.999992  0.250000  1
  Sr  Sr3  1  0.000003  0.000005  0.750000  1
  Sr  Sr4  1  0.333328  0.666660  0.640197  1
  Sr  Sr5  1  0.333326  0.666666  0.970883  1
  Sr  Sr6  1  0.666662  0.333329  0.029116  1
  Sr  Sr7  1  0.666661  0.333334  0.359804  1
  Sr  Sr8  1  0.666661  0.333346  0.529116  1
  Sr  Sr9  1  0.666673  0.333335  0.859803  1
  Nb  Nb10  1  0.333317  0.666661  0.302627  1
  Nb  Nb11  1  0.999989  0.000005  0.090787  1
  Nb  Nb12  1  0.999986  1.000000  0.409212  1
  Nb  Nb13  1  0.000003  0.000005  0.590787  1
  Nb  Nb14  1  0.999994  0.999996  0.909213  1
  Nb  Nb15  1  0.333332  0.666664  0.802626  1
  Nb  Nb16  1  0.666659  0.333338  0.197374  1
  Nb  Nb17  1  0.666664  0.333332  0.697372  1
  O  O18  1  0.100949  0.768108  0.555108  1
  O  O19  1  0.118321  0.787127  0.346288  1
  O  O20  1  0.000002  0.544004  0.750000  1
  O  O21  1  0.999995  0.455999  0.249999  1
  O  O22  1  0.212866  0.881670  0.846287  1
  O  O23  1  0.231885  0.899048  0.055109  1
  O  O24  1  0.100944  0.332841  0.055108  1
  O  O25  1  0.118330  0.331202  0.846287  1
  O  O26  1  0.212861  0.331203  0.346287  1
  O  O27  1  0.231888  0.332846  0.555110  1
  O  O28  1  0.332840  0.231891  0.944890  1
  O  O29  1  0.667149  0.899046  0.555108  1
  O  O30  1  0.668790  0.881671  0.346288  1
  O  O31  1  0.331192  0.212873  0.153712  1
  O  O32  1  0.455997  0.455997  0.750001  1
  O  O33  1  0.543997  0.544001  0.250001  1
  O  O34  1  0.668797  0.787132  0.846287  1
  O  O35  1  0.331203  0.118331  0.653712  1
  O  O36  1  0.332834  0.100953  0.444890  1
  O  O37  1  0.667143  0.768107  0.055109  1
  O  O38  1  0.768093  0.667156  0.444891  1
  O  O39  1  0.787127  0.668799  0.653713  1
  O  O40  1  0.455991  0.000003  0.250000  1
  O  O41  1  0.544001  -0.000003  0.750000  1
  O  O42  1  0.881660  0.668800  0.153713  1
  O  O43  1  0.899045  0.667158  0.944891  1
  O  O44  1  0.768101  0.100952  0.944891  1
  O  O45  1  0.787124  0.118334  0.153713  1
  O  O46  1  0.881668  0.212869  0.653713  1
  O  O47  1  0.899031  0.231890  0.444892  1
