# generated using pymatgen
data_Li3Mn2(PO4)3
_symmetry_space_group_name_H-M   'P 1'
_cell_length_a   9.82764427
_cell_length_b   9.82764427
_cell_length_c   9.75425324
_cell_angle_alpha   86.56673365
_cell_angle_beta   93.43326635
_cell_angle_gamma   95.21888111
_symmetry_Int_Tables_number   1
_chemical_formula_structural   Li3Mn2(PO4)3
_chemical_formula_sum   'Li12 Mn8 P12 O48'
_cell_volume   935.09640649
_cell_formula_units_Z   4
loop_
 _symmetry_equiv_pos_site_id
 _symmetry_equiv_pos_as_xyz
  1  'x, y, z'
loop_
 _atom_site_type_symbol
 _atom_site_label
 _atom_site_symmetry_multiplicity
 _atom_site_fract_x
 _atom_site_fract_y
 _atom_site_fract_z
 _atom_site_occupancy
  Li  Li0  1  0.013653  0.505879  0.230226  1
  Li  Li1  1  0.380449  0.750375  0.797571  1
  Li  Li2  1  0.213641  0.562168  0.463483  1
  Li  Li3  1  0.234895  0.731151  0.178873  1
  Li  Li4  1  0.701158  0.926430  0.984305  1
  Li  Li5  1  0.990809  0.256761  0.380721  1
  Li  Li6  1  0.256761  0.990809  0.619279  1
  Li  Li7  1  0.926430  0.701158  0.015695  1
  Li  Li8  1  0.731151  0.234895  0.821127  1
  Li  Li9  1  0.562168  0.213641  0.536517  1
  Li  Li10  1  0.750375  0.380449  0.202429  1
  Li  Li11  1  0.505879  0.013653  0.769774  1
  Mn  Mn12  1  0.027500  0.269070  0.778915  1
  Mn  Mn13  1  0.765477  0.968387  0.283175  1
  Mn  Mn14  1  0.527180  0.527180  0.500000  1
  Mn  Mn15  1  0.743324  0.743324  0.500000  1
  Mn  Mn16  1  0.244732  0.244732  0.000000  1
  Mn  Mn17  1  0.468998  0.468998  0.000000  1
  Mn  Mn18  1  0.968387  0.765477  0.716825  1
  Mn  Mn19  1  0.269070  0.027500  0.221085  1
  P  P20  1  0.178731  0.944569  0.913414  1
  P  P21  1  0.052907  0.827115  0.398442  1
  P  P22  1  0.149656  0.561230  0.914350  1
  P  P23  1  0.445956  0.827719  0.441332  1
  P  P24  1  0.655348  0.676429  0.807575  1
  P  P25  1  0.341899  0.313448  0.703940  1
  P  P26  1  0.313448  0.341899  0.296060  1
  P  P27  1  0.676429  0.655348  0.192425  1
  P  P28  1  0.827719  0.445956  0.558668  1
  P  P29  1  0.561230  0.149656  0.085650  1
  P  P30  1  0.827115  0.052907  0.601558  1
  P  P31  1  0.944569  0.178731  0.086586  1
  O  O32  1  0.034307  0.875090  0.881963  1
  O  O33  1  0.119813  0.963833  0.336655  1
  O  O34  1  0.083832  0.829606  0.557006  1
  O  O35  1  0.212092  0.906123  0.069060  1
  O  O36  1  0.286426  0.908099  0.818306  1
  O  O37  1  0.099970  0.699000  0.339104  1
  O  O38  1  0.084042  0.624959  0.778933  1
  O  O39  1  0.403553  0.894971  0.565613  1
  O  O40  1  0.380024  0.871300  0.300892  1
  O  O41  1  0.092319  0.604761  0.046822  1
  O  O42  1  0.116367  0.400790  0.906958  1
  O  O43  1  0.306195  0.595594  0.914312  1
  O  O44  1  0.585211  0.798321  0.851929  1
  O  O45  1  0.405245  0.667079  0.453000  1
  O  O46  1  0.607541  0.861177  0.432837  1
  O  O47  1  0.187345  0.406409  0.339478  1
  O  O48  1  0.185101  0.302322  0.669885  1
  O  O49  1  0.692560  0.812524  0.159567  1
  O  O50  1  0.394765  0.451247  0.637397  1
  O  O51  1  0.621678  0.664002  0.648132  1
  O  O52  1  0.832727  0.891957  0.634125  1
  O  O53  1  0.172850  0.104249  0.884076  1
  O  O54  1  0.535412  0.601215  0.127099  1
  O  O55  1  0.376928  0.324826  0.867354  1
  O  O56  1  0.324826  0.376928  0.132646  1
  O  O57  1  0.601215  0.535412  0.872901  1
  O  O58  1  0.104249  0.172850  0.115924  1
  O  O59  1  0.891957  0.832727  0.365875  1
  O  O60  1  0.664002  0.621678  0.351868  1
  O  O61  1  0.451247  0.394765  0.362603  1
  O  O62  1  0.812524  0.692560  0.840433  1
  O  O63  1  0.302322  0.185101  0.330115  1
  O  O64  1  0.406409  0.187345  0.660522  1
  O  O65  1  0.861177  0.607541  0.567163  1
  O  O66  1  0.667079  0.405245  0.547000  1
  O  O67  1  0.798321  0.585211  0.148071  1
  O  O68  1  0.595594  0.306195  0.085688  1
  O  O69  1  0.400790  0.116367  0.093042  1
  O  O70  1  0.604761  0.092319  0.953178  1
  O  O71  1  0.871300  0.380024  0.699108  1
  O  O72  1  0.894971  0.403553  0.434387  1
  O  O73  1  0.624959  0.084042  0.221067  1
  O  O74  1  0.699000  0.099970  0.660896  1
  O  O75  1  0.908099  0.286426  0.181694  1
  O  O76  1  0.906123  0.212092  0.930940  1
  O  O77  1  0.829606  0.083832  0.442994  1
  O  O78  1  0.963833  0.119813  0.663345  1
  O  O79  1  0.875090  0.034307  0.118037  1
