# generated using pymatgen
data_Lu(HO)3
_symmetry_space_group_name_H-M   'P 1'
_cell_length_a   10.41873201
_cell_length_b   6.07258234
_cell_length_c   10.56146233
_cell_angle_alpha   90.00000000
_cell_angle_beta   93.06958227
_cell_angle_gamma   90.00000000
_symmetry_Int_Tables_number   1
_chemical_formula_structural   Lu(HO)3
_chemical_formula_sum   'Lu8 H24 O24'
_cell_volume   667.25030045
_cell_formula_units_Z   8
loop_
 _symmetry_equiv_pos_site_id
 _symmetry_equiv_pos_as_xyz
  1  'x, y, z'
loop_
 _atom_site_type_symbol
 _atom_site_label
 _atom_site_symmetry_multiplicity
 _atom_site_fract_x
 _atom_site_fract_y
 _atom_site_fract_z
 _atom_site_occupancy
  Lu  Lu0  1  0.167729  0.534093  0.997997  1
  Lu  Lu1  1  0.166060  0.525488  0.502165  1
  Lu  Lu2  1  0.333940  0.025488  0.997835  1
  Lu  Lu3  1  0.332271  0.034093  0.502003  1
  Lu  Lu4  1  0.667728  0.965907  0.497997  1
  Lu  Lu5  1  0.666060  0.974512  0.002165  1
  Lu  Lu6  1  0.833940  0.474512  0.497835  1
  Lu  Lu7  1  0.832272  0.465907  0.002003  1
  H  H8  1  0.000745  0.370099  0.298732  1
  H  H9  1  0.034303  0.207003  0.113335  1
  H  H10  1  0.098799  0.148751  0.868857  1
  H  H11  1  0.092500  0.927739  0.393686  1
  H  H12  1  0.202890  0.224691  0.707893  1
  H  H13  1  0.186461  0.846020  0.199594  1
  H  H14  1  0.297110  0.724691  0.792107  1
  H  H15  1  0.313539  0.346020  0.300406  1
  H  H16  1  0.401201  0.648751  0.631143  1
  H  H17  1  0.407500  0.427739  0.106314  1
  H  H18  1  0.500745  0.129901  0.798732  1
  H  H19  1  0.465697  0.707003  0.386665  1
  H  H20  1  0.534303  0.292997  0.613335  1
  H  H21  1  0.499255  0.870099  0.201268  1
  H  H22  1  0.592500  0.572261  0.893686  1
  H  H23  1  0.598799  0.351249  0.368857  1
  H  H24  1  0.686461  0.653980  0.699594  1
  H  H25  1  0.702890  0.275309  0.207893  1
  H  H26  1  0.813539  0.153980  0.800406  1
  H  H27  1  0.797110  0.775309  0.292107  1
  H  H28  1  0.907500  0.072261  0.606314  1
  H  H29  1  0.901201  0.851249  0.131143  1
  H  H30  1  0.965697  0.792997  0.886665  1
  H  H31  1  0.999255  0.629901  0.701268  1
  O  O32  1  0.999461  0.614518  0.608912  1
  O  O33  1  0.016074  0.363176  0.106508  1
  O  O34  1  0.180872  0.221266  0.885868  1
  O  O35  1  0.173850  0.848869  0.397025  1
  O  O36  1  0.211016  0.230832  0.615615  1
  O  O37  1  0.187686  0.844561  0.106760  1
  O  O38  1  0.288984  0.730832  0.884385  1
  O  O39  1  0.319128  0.721266  0.614132  1
  O  O40  1  0.312314  0.344561  0.393240  1
  O  O41  1  0.326150  0.348869  0.102975  1
  O  O42  1  0.500539  0.114518  0.891088  1
  O  O43  1  0.483926  0.863176  0.393492  1
  O  O44  1  0.516074  0.136824  0.606508  1
  O  O45  1  0.499461  0.885482  0.108912  1
  O  O46  1  0.673850  0.651131  0.897025  1
  O  O47  1  0.687686  0.655439  0.606760  1
  O  O48  1  0.680872  0.278734  0.385868  1
  O  O49  1  0.711016  0.269168  0.115615  1
  O  O50  1  0.812314  0.155439  0.893240  1
  O  O51  1  0.788984  0.769168  0.384385  1
  O  O52  1  0.826150  0.151131  0.602975  1
  O  O53  1  0.819128  0.778734  0.114132  1
  O  O54  1  0.983926  0.636824  0.893492  1
  O  O55  1  0.000539  0.385482  0.391088  1
