# generated using pymatgen
data_Li5V3P8O29
_symmetry_space_group_name_H-M   'P 1'
_cell_length_a   9.79806291
_cell_length_b   9.80275812
_cell_length_c   13.90047273
_cell_angle_alpha   89.88382763
_cell_angle_beta   89.89658312
_cell_angle_gamma   60.26161835
_symmetry_Int_Tables_number   1
_chemical_formula_structural   Li5V3P8O29
_chemical_formula_sum   'Li10 V6 P16 O58'
_cell_volume   1159.27511590
_cell_formula_units_Z   2
loop_
 _symmetry_equiv_pos_site_id
 _symmetry_equiv_pos_as_xyz
  1  'x, y, z'
loop_
 _atom_site_type_symbol
 _atom_site_label
 _atom_site_symmetry_multiplicity
 _atom_site_fract_x
 _atom_site_fract_y
 _atom_site_fract_z
 _atom_site_occupancy
  Li  Li0  1  0.911783  0.775692  0.059500  1
  Li  Li1  1  0.769473  0.904319  0.560586  1
  Li  Li2  1  0.910791  0.317446  0.558933  1
  Li  Li3  1  0.665813  0.665654  0.883702  1
  Li  Li4  1  0.773710  0.312686  0.060652  1
  Li  Li5  1  0.319141  0.906887  0.060524  1
  Li  Li6  1  0.677279  0.228834  0.438989  1
  Li  Li7  1  0.323127  0.773071  0.558687  1
  Li  Li8  1  0.094875  0.679677  0.439499  1
  Li  Li9  1  0.095930  0.226514  0.940209  1
  V  V10  1  0.566657  0.433189  0.245915  1
  V  V11  1  0.431579  0.566029  0.753941  1
  V  V12  1  0.565515  0.006623  0.753492  1
  V  V13  1  0.429005  0.005099  0.254312  1
  V  V14  1  0.000561  0.567196  0.250726  1
  V  V15  1  0.999791  0.431316  0.746110  1
  P  P16  1  0.909183  0.769648  0.842702  1
  P  P17  1  0.767539  0.914127  0.342735  1
  P  P18  1  0.911167  0.318818  0.342367  1
  P  P19  1  0.665322  0.670732  0.126490  1
  P  P20  1  0.665041  0.668769  0.626785  1
  P  P21  1  0.770954  0.318910  0.843356  1
  P  P22  1  0.680453  0.233115  0.658705  1
  P  P23  1  0.317145  0.912259  0.843327  1
  P  P24  1  0.682998  0.084507  0.156768  1
  P  P25  1  0.321062  0.766549  0.341901  1
  P  P26  1  0.230417  0.683893  0.157528  1
  P  P27  1  0.335236  0.334161  0.374179  1
  P  P28  1  0.330276  0.333504  0.874663  1
  P  P29  1  0.086759  0.683842  0.658255  1
  P  P30  1  0.232226  0.083450  0.656938  1
  P  P31  1  0.088906  0.231185  0.158973  1
  O  O32  1  0.995990  0.758178  0.567743  1
  O  O33  1  0.914805  0.749065  0.342424  1
  O  O34  1  0.765926  0.990473  0.070807  1
  O  O35  1  0.741321  0.916853  0.833032  1
  O  O36  1  0.887786  0.624905  0.825306  1
  O  O37  1  0.812618  0.675719  0.164701  1
  O  O38  1  0.903102  0.478835  0.321421  1
  O  O39  1  0.002655  0.237466  0.068060  1
  O  O40  1  0.921457  0.336004  0.838585  1
  O  O41  1  0.669402  0.816493  0.669280  1
  O  O42  1  0.616865  0.903551  0.323794  1
  O  O43  1  0.813318  0.513081  0.665682  1
  O  O44  1  0.661906  0.671673  0.017849  1
  O  O45  1  0.665994  0.670721  0.519455  1
  O  O46  1  0.673018  0.514541  0.163558  1
  O  O47  1  0.483718  0.895828  0.825461  1
  O  O48  1  0.512319  0.817535  0.166636  1
  O  O49  1  0.743331  0.339613  0.336932  1
  O  O50  1  0.789974  0.211484  0.750894  1
  O  O51  1  0.761453  0.237969  0.567916  1
  O  O52  1  0.761973  0.244950  0.934510  1
  O  O53  1  0.627849  0.486195  0.826059  1
  O  O54  1  0.514662  0.669293  0.669334  1
  O  O55  1  0.662212  0.251718  0.157168  1
  O  O56  1  0.479393  0.618816  0.324407  1
  O  O57  1  0.341525  0.913449  0.334186  1
  O  O58  1  0.788859  0.005257  0.253499  1
  O  O59  1  0.752745  0.001916  0.434389  1
  O  O60  1  0.244029  0.989545  0.571083  1
  O  O61  1  0.663723  0.082863  0.660913  1
  O  O62  1  0.521635  0.381246  0.673961  1
  O  O63  1  0.340814  0.746595  0.841658  1
  O  O64  1  0.488224  0.325305  0.333226  1
  O  O65  1  0.380922  0.522800  0.175666  1
  O  O66  1  0.239335  0.768063  0.071351  1
  O  O67  1  0.241886  0.761035  0.433349  1
  O  O68  1  0.205915  0.787133  0.253850  1
  O  O69  1  0.251265  0.665432  0.657613  1
  O  O70  1  0.479687  0.183535  0.826120  1
  O  O71  1  0.523272  0.093098  0.177593  1
  O  O72  1  0.337261  0.477310  0.828739  1
  O  O73  1  0.340100  0.323641  0.980734  1
  O  O74  1  0.335391  0.326723  0.480989  1
  O  O75  1  0.186572  0.486235  0.334833  1
  O  O76  1  0.383609  0.091553  0.678564  1
  O  O77  1  0.332798  0.185265  0.326152  1
  O  O78  1  0.084405  0.661026  0.160226  1
  O  O79  1  0.999379  0.790142  0.750802  1
  O  O80  1  0.989880  0.765370  0.933466  1
  O  O81  1  0.094541  0.523925  0.677679  1
  O  O82  1  0.184043  0.329556  0.834246  1
  O  O83  1  0.102079  0.378038  0.175858  1
  O  O84  1  0.254737  0.081862  0.161303  1
  O  O85  1  0.245841  0.003430  0.933664  1
  O  O86  1  0.206110  0.005523  0.753981  1
  O  O87  1  0.086377  0.250858  0.656931  1
  O  O88  1  0.991769  0.246794  0.434072  1
  O  O89  1  0.999375  0.209042  0.250363  1
