# generated using pymatgen
data_NbOF3
_symmetry_space_group_name_H-M   'P 1'
_cell_length_a   9.35754294
_cell_length_b   9.35743958
_cell_length_c   3.86005484
_cell_angle_alpha   89.99995115
_cell_angle_beta   89.99998721
_cell_angle_gamma   90.00023953
_symmetry_Int_Tables_number   1
_chemical_formula_structural   NbOF3
_chemical_formula_sum   'Nb4 O4 F12'
_cell_volume   337.99660267
_cell_formula_units_Z   4
loop_
 _symmetry_equiv_pos_site_id
 _symmetry_equiv_pos_as_xyz
  1  'x, y, z'
loop_
 _atom_site_type_symbol
 _atom_site_label
 _atom_site_symmetry_multiplicity
 _atom_site_fract_x
 _atom_site_fract_y
 _atom_site_fract_z
 _atom_site_occupancy
  Nb  Nb0  1  0.131264  0.368739  0.251433  1
  Nb  Nb1  1  0.368737  0.868739  0.748568  1
  Nb  Nb2  1  0.631266  0.131263  0.748587  1
  Nb  Nb3  1  0.868736  0.631261  0.251430  1
  O  O4  1  0.115083  0.384920  0.757889  1
  O  O5  1  0.384918  0.884918  0.242105  1
  O  O6  1  0.615083  0.115083  0.242112  1
  O  O7  1  0.884915  0.615079  0.757895  1
  F  F8  1  0.094658  0.594666  0.259029  1
  F  F9  1  0.107464  0.169293  0.258255  1
  F  F10  1  0.169297  0.892537  0.741740  1
  F  F11  1  0.330703  0.392540  0.258252  1
  F  F12  1  0.392538  0.669295  0.741740  1
  F  F13  1  0.405340  0.094666  0.740966  1
  F  F14  1  0.594664  0.905340  0.740970  1
  F  F15  1  0.607464  0.330709  0.741746  1
  F  F16  1  0.669297  0.607462  0.258254  1
  F  F17  1  0.830707  0.107463  0.741746  1
  F  F18  1  0.892536  0.830704  0.258250  1
  F  F19  1  0.905340  0.405333  0.259031  1
