# generated using pymatgen
data_Li2Co(CO3)2
_symmetry_space_group_name_H-M   'P 1'
_cell_length_a   8.62444114
_cell_length_b   6.12267903
_cell_length_c   5.34976563
_cell_angle_alpha   64.09494752
_cell_angle_beta   71.93164294
_cell_angle_gamma   82.21250674
_symmetry_Int_Tables_number   1
_chemical_formula_structural   Li2Co(CO3)2
_chemical_formula_sum   'Li4 Co2 C4 O12'
_cell_volume   241.57684642
_cell_formula_units_Z   2
loop_
 _symmetry_equiv_pos_site_id
 _symmetry_equiv_pos_as_xyz
  1  'x, y, z'
loop_
 _atom_site_type_symbol
 _atom_site_label
 _atom_site_symmetry_multiplicity
 _atom_site_fract_x
 _atom_site_fract_y
 _atom_site_fract_z
 _atom_site_occupancy
  Li  Li0  1  0.637057  0.874321  0.580335  1
  Li  Li1  1  0.137057  0.625679  0.704655  1
  Li  Li2  1  0.862943  0.374321  0.467391  1
  Li  Li3  1  0.362943  0.125679  0.091712  1
  Co  Co4  1  0.500000  0.500000  0.254912  1
  Co  Co5  1  0.000000  0.000000  0.004912  1
  C  C6  1  0.709964  0.918231  0.976026  1
  C  C7  1  0.209964  0.581769  0.144256  1
  C  C8  1  0.790036  0.418231  0.935989  1
  C  C9  1  0.290036  0.081769  0.604220  1
  O  O10  1  0.805996  0.977050  0.718646  1
  O  O11  1  0.762847  0.914339  0.181402  1
  O  O12  1  0.557115  0.862004  0.032926  1
  O  O13  1  0.057115  0.637996  0.144930  1
  O  O14  1  0.262847  0.585661  0.345742  1
  O  O15  1  0.305996  0.522950  0.945696  1
  O  O16  1  0.694004  0.477050  0.774642  1
  O  O17  1  0.737153  0.414339  0.194249  1
  O  O18  1  0.942885  0.362004  0.840041  1
  O  O19  1  0.442885  0.137996  0.452045  1
  O  O20  1  0.237153  0.085661  0.858589  1
  O  O21  1  0.194004  0.022950  0.501692  1
