# generated using pymatgen
data_SrCa2I6
_symmetry_space_group_name_H-M   'P 1'
_cell_length_a   7.41976718
_cell_length_b   14.64814160
_cell_length_c   14.52394572
_cell_angle_alpha   90.00000000
_cell_angle_beta   90.00000000
_cell_angle_gamma   90.00000000
_symmetry_Int_Tables_number   1
_chemical_formula_structural   SrCa2I6
_chemical_formula_sum   'Sr4 Ca8 I24'
_cell_volume   1578.54666397
_cell_formula_units_Z   4
loop_
 _symmetry_equiv_pos_site_id
 _symmetry_equiv_pos_as_xyz
  1  'x, y, z'
loop_
 _atom_site_type_symbol
 _atom_site_label
 _atom_site_symmetry_multiplicity
 _atom_site_fract_x
 _atom_site_fract_y
 _atom_site_fract_z
 _atom_site_occupancy
  Sr  Sr0  1  0.020618  0.996172  0.144965  1
  Sr  Sr1  1  0.479382  0.003828  0.644965  1
  Sr  Sr2  1  0.520618  0.503828  0.855035  1
  Sr  Sr3  1  0.979382  0.496172  0.355035  1
  Ca  Ca4  1  0.965250  0.375961  0.046663  1
  Ca  Ca5  1  0.057479  0.312013  0.631595  1
  Ca  Ca6  1  0.442521  0.687987  0.131595  1
  Ca  Ca7  1  0.534750  0.624039  0.546663  1
  Ca  Ca8  1  0.465250  0.124039  0.953337  1
  Ca  Ca9  1  0.557479  0.187987  0.368405  1
  Ca  Ca10  1  0.942521  0.812013  0.868405  1
  Ca  Ca11  1  0.034750  0.875961  0.453337  1
  I  I12  1  0.137046  0.669141  0.478451  1
  I  I13  1  0.212317  0.509695  0.170298  1
  I  I14  1  0.124999  0.872178  0.672718  1
  I  I15  1  0.227914  0.831628  0.254173  1
  I  I16  1  0.258273  0.331948  0.435471  1
  I  I17  1  0.267100  0.055819  0.458395  1
  I  I18  1  0.232900  0.944181  0.958395  1
  I  I19  1  0.241727  0.668052  0.935471  1
  I  I20  1  0.272086  0.168372  0.754173  1
  I  I21  1  0.375001  0.127822  0.172718  1
  I  I22  1  0.287683  0.490305  0.670298  1
  I  I23  1  0.362954  0.330859  0.978451  1
  I  I24  1  0.637046  0.830859  0.521549  1
  I  I25  1  0.712317  0.990305  0.829702  1
  I  I26  1  0.624999  0.627822  0.327282  1
  I  I27  1  0.727914  0.668372  0.745827  1
  I  I28  1  0.758273  0.168052  0.564529  1
  I  I29  1  0.767100  0.444181  0.541605  1
  I  I30  1  0.732900  0.555819  0.041605  1
  I  I31  1  0.741727  0.831948  0.064529  1
  I  I32  1  0.772086  0.331628  0.245827  1
  I  I33  1  0.875001  0.372178  0.827282  1
  I  I34  1  0.787683  0.009695  0.329702  1
  I  I35  1  0.862954  0.169141  0.021549  1
