# generated using pymatgen
data_Li3Fe4(OF3)3
_symmetry_space_group_name_H-M   'P 1'
_cell_length_a   5.95410644
_cell_length_b   6.03792760
_cell_length_c   6.00913070
_cell_angle_alpha   99.87927527
_cell_angle_beta   98.91735059
_cell_angle_gamma   99.27753525
_symmetry_Int_Tables_number   1
_chemical_formula_structural   Li3Fe4(OF3)3
_chemical_formula_sum   'Li3 Fe4 O3 F9'
_cell_volume   206.30326773
_cell_formula_units_Z   1
loop_
 _symmetry_equiv_pos_site_id
 _symmetry_equiv_pos_as_xyz
  1  'x, y, z'
loop_
 _atom_site_type_symbol
 _atom_site_label
 _atom_site_symmetry_multiplicity
 _atom_site_fract_x
 _atom_site_fract_y
 _atom_site_fract_z
 _atom_site_occupancy
  Li  Li0  1  0.148475  0.590692  0.340402  1
  Li  Li1  1  0.305549  0.130896  0.599901  1
  Li  Li2  1  0.879041  0.401080  0.670888  1
  Fe  Fe3  1  0.404801  0.680604  0.873348  1
  Fe  Fe4  1  0.676077  0.848897  0.364504  1
  Fe  Fe5  1  0.001662  0.005976  0.998193  1
  Fe  Fe6  1  0.572081  0.308676  0.117880  1
  O  O7  1  0.682832  0.897715  0.049287  1
  O  O8  1  0.424705  0.581471  0.176905  1
  O  O9  1  0.305740  0.106346  0.946192  1
  F  F10  1  0.077928  0.950689  0.317529  1
  F  F11  1  0.066070  0.691349  0.894368  1
  F  F12  1  0.436608  0.820718  0.591408  1
  F  F13  1  0.206489  0.426089  0.609135  1
  F  F14  1  0.612731  0.434821  0.825479  1
  F  F15  1  0.825149  0.596547  0.433987  1
  F  F16  1  0.577767  0.171248  0.398222  1
  F  F17  1  0.921056  0.313333  0.118283  1
  F  F18  1  0.875242  0.042852  0.674088  1
