# generated using pymatgen
data_Na3FeAsCO7
_symmetry_space_group_name_H-M   'P 1'
_cell_length_a   9.27414904
_cell_length_b   6.85711732
_cell_length_c   5.29792791
_cell_angle_alpha   90.00000000
_cell_angle_beta   88.77983465
_cell_angle_gamma   90.00000000
_symmetry_Int_Tables_number   1
_chemical_formula_structural   Na3FeAsCO7
_chemical_formula_sum   'Na6 Fe2 As2 C2 O14'
_cell_volume   336.83965086
_cell_formula_units_Z   2
loop_
 _symmetry_equiv_pos_site_id
 _symmetry_equiv_pos_as_xyz
  1  'x, y, z'
loop_
 _atom_site_type_symbol
 _atom_site_label
 _atom_site_symmetry_multiplicity
 _atom_site_fract_x
 _atom_site_fract_y
 _atom_site_fract_z
 _atom_site_occupancy
  Na  Na0  1  0.080039  0.250000  0.760258  1
  Na  Na1  1  0.255795  0.001970  0.249133  1
  Na  Na2  1  0.255795  0.498030  0.249133  1
  Na  Na3  1  0.744205  0.501970  0.750867  1
  Na  Na4  1  0.744205  0.998030  0.750867  1
  Na  Na5  1  0.919961  0.750000  0.239742  1
  Fe  Fe6  1  0.345800  0.750000  0.783112  1
  Fe  Fe7  1  0.654200  0.250000  0.216888  1
  As  As8  1  0.415821  0.250000  0.699469  1
  As  As9  1  0.584179  0.750000  0.300531  1
  C  C10  1  0.057936  0.750000  0.728769  1
  C  C11  1  0.942064  0.250000  0.271231  1
  O  O12  1  0.081541  0.250000  0.288652  1
  O  O13  1  0.117396  0.750000  0.949730  1
  O  O14  1  0.140060  0.750000  0.526304  1
  O  O15  1  0.308057  0.052856  0.782346  1
  O  O16  1  0.308057  0.447144  0.782346  1
  O  O17  1  0.440020  0.250000  0.374708  1
  O  O18  1  0.419429  0.750000  0.161704  1
  O  O19  1  0.580571  0.250000  0.838296  1
  O  O20  1  0.559980  0.750000  0.625292  1
  O  O21  1  0.691943  0.552856  0.217654  1
  O  O22  1  0.691943  0.947144  0.217654  1
  O  O23  1  0.859940  0.250000  0.473696  1
  O  O24  1  0.882604  0.250000  0.050270  1
  O  O25  1  0.918459  0.750000  0.711348  1
