# generated using pymatgen
data_Li3V2P4(HO8)2
_symmetry_space_group_name_H-M   'P 1'
_cell_length_a   9.76563113
_cell_length_b   8.07677046
_cell_length_c   7.88549189
_cell_angle_alpha   90.04444916
_cell_angle_beta   68.00524681
_cell_angle_gamma   89.94744628
_symmetry_Int_Tables_number   1
_chemical_formula_structural   Li3V2P4(HO8)2
_chemical_formula_sum   'Li6 V4 P8 H4 O32'
_cell_volume   576.69777139
_cell_formula_units_Z   2
loop_
 _symmetry_equiv_pos_site_id
 _symmetry_equiv_pos_as_xyz
  1  'x, y, z'
loop_
 _atom_site_type_symbol
 _atom_site_label
 _atom_site_symmetry_multiplicity
 _atom_site_fract_x
 _atom_site_fract_y
 _atom_site_fract_z
 _atom_site_occupancy
  Li  Li0  1  0.275270  0.630574  0.346879  1
  Li  Li1  1  0.228440  0.369918  0.653429  1
  Li  Li2  1  0.270930  0.865571  0.851888  1
  Li  Li3  1  0.724335  0.133043  0.155353  1
  Li  Li4  1  0.777042  0.636924  0.354697  1
  Li  Li5  1  0.773030  0.869623  0.844930  1
  V  V6  1  0.247948  0.495288  0.002571  1
  V  V7  1  0.250657  0.001926  0.489947  1
  V  V8  1  0.749117  0.499822  0.997856  1
  V  V9  1  0.749920  0.006329  0.501697  1
  P  P10  1  0.068374  0.851932  0.232582  1
  P  P11  1  0.066997  0.655226  0.732462  1
  P  P12  1  0.433730  0.344999  0.268525  1
  P  P13  1  0.568851  0.847581  0.231422  1
  P  P14  1  0.431298  0.149554  0.760095  1
  P  P15  1  0.567484  0.651056  0.739917  1
  P  P16  1  0.932711  0.353338  0.263626  1
  P  P17  1  0.935944  0.159607  0.765063  1
  H  H18  1  0.993081  0.501158  0.488643  1
  H  H19  1  0.511642  0.505212  0.516795  1
  H  H20  1  0.485463  0.007786  0.982444  1
  H  H21  1  0.996330  0.008923  0.995007  1
  O  O22  1  0.090919  0.942025  0.053343  1
  O  O23  1  0.094939  0.331040  0.140019  1
  O  O24  1  0.149796  0.685034  0.191145  1
  O  O25  1  0.139950  0.952910  0.351808  1
  O  O26  1  0.094382  0.559091  0.553737  1
  O  O27  1  0.102261  0.177141  0.644150  1
  O  O28  1  0.144764  0.826128  0.686148  1
  O  O29  1  0.140150  0.550993  0.840242  1
  O  O30  1  0.357478  0.445966  0.162184  1
  O  O31  1  0.367016  0.169877  0.317941  1
  O  O32  1  0.400707  0.826340  0.350853  1
  O  O33  1  0.406654  0.444047  0.445430  1
  O  O34  1  0.352879  0.043400  0.654108  1
  O  O35  1  0.352842  0.316503  0.807901  1
  O  O36  1  0.597210  0.942330  0.052750  1
  O  O37  1  0.601256  0.327086  0.144819  1
  O  O38  1  0.401126  0.671479  0.851876  1
  O  O39  1  0.402466  0.044406  0.937466  1
  O  O40  1  0.644790  0.675047  0.189982  1
  O  O41  1  0.640738  0.951346  0.341048  1
  O  O42  1  0.595333  0.557232  0.556353  1
  O  O43  1  0.595058  0.168475  0.643388  1
  O  O44  1  0.650248  0.815457  0.689598  1
  O  O45  1  0.637404  0.550129  0.856640  1
  O  O46  1  0.853104  0.459934  0.157383  1
  O  O47  1  0.852309  0.187535  0.310872  1
  O  O48  1  0.902896  0.831360  0.354440  1
  O  O49  1  0.908777  0.459154  0.437814  1
  O  O50  1  0.858392  0.054466  0.665105  1
  O  O51  1  0.864719  0.330609  0.821579  1
  O  O52  1  0.899392  0.676306  0.852245  1
  O  O53  1  0.909616  0.059412  0.945665  1
