# generated using pymatgen
data_Li2NbCr3O8
_symmetry_space_group_name_H-M   'P 1'
_cell_length_a   5.98174716
_cell_length_b   5.98174933
_cell_length_c   9.62227295
_cell_angle_alpha   90.00072673
_cell_angle_beta   89.99963300
_cell_angle_gamma   120.00000933
_symmetry_Int_Tables_number   1
_chemical_formula_structural   Li2NbCr3O8
_chemical_formula_sum   'Li4 Nb2 Cr6 O16'
_cell_volume   298.17039766
_cell_formula_units_Z   2
loop_
 _symmetry_equiv_pos_site_id
 _symmetry_equiv_pos_as_xyz
  1  'x, y, z'
loop_
 _atom_site_type_symbol
 _atom_site_label
 _atom_site_symmetry_multiplicity
 _atom_site_fract_x
 _atom_site_fract_y
 _atom_site_fract_z
 _atom_site_occupancy
  Li  Li0  1  0.333331  0.666681  0.899150  1
  Li  Li1  1  0.000003  0.000009  0.993378  1
  Li  Li2  1  0.999997  0.000006  0.493378  1
  Li  Li3  1  0.666669  0.333350  0.399150  1
  Nb  Nb4  1  0.333341  0.666678  0.493148  1
  Nb  Nb5  1  0.666659  0.333338  0.993148  1
  Cr  Cr6  1  0.170177  0.829864  0.215320  1
  Cr  Cr7  1  0.170132  0.340318  0.215312  1
  Cr  Cr8  1  0.659685  0.829851  0.215309  1
  Cr  Cr9  1  0.340315  0.170165  0.715309  1
  Cr  Cr10  1  0.829823  0.659688  0.715320  1
  Cr  Cr11  1  0.829868  0.170186  0.715312  1
  O  O12  1  0.167159  0.832840  0.594190  1
  O  O13  1  0.039742  0.519883  0.341103  1
  O  O14  1  0.333328  0.666675  0.108544  1
  O  O15  1  0.999997  0.000011  0.307887  1
  O  O16  1  0.000003  0.000014  0.807887  1
  O  O17  1  0.167169  0.334338  0.594186  1
  O  O18  1  0.480137  0.960270  0.341105  1
  O  O19  1  0.480120  0.519879  0.341098  1
  O  O20  1  0.334325  0.167174  0.094190  1
  O  O21  1  0.665675  0.832849  0.594190  1
  O  O22  1  0.519863  0.480133  0.841105  1
  O  O23  1  0.519880  0.039759  0.841098  1
  O  O24  1  0.666672  0.333347  0.608544  1
  O  O25  1  0.832841  0.665682  0.094190  1
  O  O26  1  0.960258  0.480141  0.841103  1
  O  O27  1  0.832831  0.167168  0.094186  1
