# generated using pymatgen
data_Ta7InO19
_symmetry_space_group_name_H-M   'P 1'
_cell_length_a   6.25051371
_cell_length_b   6.25060853
_cell_length_c   20.20885293
_cell_angle_alpha   89.99984405
_cell_angle_beta   89.99972504
_cell_angle_gamma   120.00015915
_symmetry_Int_Tables_number   1
_chemical_formula_structural   Ta7InO19
_chemical_formula_sum   'Ta14 In2 O38'
_cell_volume   683.76932054
_cell_formula_units_Z   2
loop_
 _symmetry_equiv_pos_site_id
 _symmetry_equiv_pos_as_xyz
  1  'x, y, z'
loop_
 _atom_site_type_symbol
 _atom_site_label
 _atom_site_symmetry_multiplicity
 _atom_site_fract_x
 _atom_site_fract_y
 _atom_site_fract_z
 _atom_site_occupancy
  Ta  Ta0  1  0.360302  0.361743  0.155609  1
  Ta  Ta1  1  0.360301  0.361743  0.344398  1
  Ta  Ta2  1  0.638281  0.639718  0.655594  1
  Ta  Ta3  1  0.638263  0.639703  0.844385  1
  Ta  Ta4  1  0.360306  0.998558  0.844364  1
  Ta  Ta5  1  0.360309  0.998567  0.655578  1
  Ta  Ta6  1  0.666636  0.333252  0.499999  1
  Ta  Ta7  1  0.666631  0.333380  0.999997  1
  Ta  Ta8  1  0.638267  0.998558  0.155624  1
  Ta  Ta9  1  0.638273  0.998566  0.344417  1
  Ta  Ta10  1  0.001449  0.639707  0.155629  1
  Ta  Ta11  1  0.001447  0.639717  0.344421  1
  Ta  Ta12  1  0.001452  0.361736  0.844388  1
  Ta  Ta13  1  0.001451  0.361740  0.655601  1
  In  In14  1  0.333268  0.666803  0.000000  1
  In  In15  1  0.333273  0.666473  0.500003  1
  O  O16  1  0.999237  0.752796  0.652915  1
  O  O17  1  0.999232  0.752812  0.847085  1
  O  O18  1  0.038881  0.625199  0.249982  1
  O  O19  1  0.247223  0.000781  0.347081  1
  O  O20  1  0.247207  0.000776  0.152915  1
  O  O21  1  0.038871  0.413671  0.750023  1
  O  O22  1  0.999230  0.246437  0.152911  1
  O  O23  1  0.999234  0.246433  0.347084  1
  O  O24  1  0.374820  0.961130  0.750013  1
  O  O25  1  0.333332  0.666673  0.134873  1
  O  O26  1  0.333339  0.666681  0.865125  1
  O  O27  1  0.333341  0.666656  0.634876  1
  O  O28  1  0.333340  0.666659  0.365122  1
  O  O29  1  0.586353  0.961151  0.249980  1
  O  O30  1  0.247214  0.246430  0.652919  1
  O  O31  1  0.247226  0.246445  0.847085  1
  O  O32  1  0.374815  0.413682  0.249975  1
  O  O33  1  0.427705  0.390871  0.054989  1
  O  O34  1  0.427688  0.390813  0.445006  1
  O  O35  1  0.753570  0.000779  0.847090  1
  O  O36  1  0.753571  0.000785  0.652914  1
  O  O37  1  0.586351  0.625204  0.750021  1
  O  O38  1  0.609138  0.572292  0.945010  1
  O  O39  1  0.609126  0.572240  0.554997  1
  O  O40  1  0.753563  0.752781  0.152913  1
  O  O41  1  0.753576  0.752795  0.347086  1
  O  O42  1  0.427704  0.036834  0.554995  1
  O  O43  1  0.427692  0.036878  0.945013  1
  O  O44  1  0.666675  0.333340  0.335844  1
  O  O45  1  0.666679  0.333339  0.835847  1
  O  O46  1  0.666679  0.333343  0.664155  1
  O  O47  1  0.666669  0.333335  0.164153  1
  O  O48  1  0.609126  0.036890  0.054992  1
  O  O49  1  0.609138  0.036839  0.445004  1
  O  O50  1  0.963132  0.572317  0.054989  1
  O  O51  1  0.963136  0.572244  0.445003  1
  O  O52  1  0.963145  0.390818  0.554995  1
  O  O53  1  0.963131  0.390888  0.945010  1
