# generated using pymatgen
data_Li3Co2(CO3)4
_symmetry_space_group_name_H-M   'P 1'
_cell_length_a   7.03480123
_cell_length_b   9.71895515
_cell_length_c   9.00887902
_cell_angle_alpha   90.00000000
_cell_angle_beta   116.75317904
_cell_angle_gamma   90.00000000
_symmetry_Int_Tables_number   1
_chemical_formula_structural   Li3Co2(CO3)4
_chemical_formula_sum   'Li6 Co4 C8 O24'
_cell_volume   550.01082233
_cell_formula_units_Z   2
loop_
 _symmetry_equiv_pos_site_id
 _symmetry_equiv_pos_as_xyz
  1  'x, y, z'
loop_
 _atom_site_type_symbol
 _atom_site_label
 _atom_site_symmetry_multiplicity
 _atom_site_fract_x
 _atom_site_fract_y
 _atom_site_fract_z
 _atom_site_occupancy
  Li  Li0  1  0.347350  0.604971  0.849484  1
  Li  Li1  1  0.135930  0.180754  0.065980  1
  Li  Li2  1  0.345507  0.884727  0.343244  1
  Li  Li3  1  0.652650  0.104971  0.650516  1
  Li  Li4  1  0.654493  0.384727  0.156756  1
  Li  Li5  1  0.864070  0.680754  0.434020  1
  Co  Co6  1  0.480282  0.139956  0.925112  1
  Co  Co7  1  0.519717  0.639956  0.574888  1
  Co  Co8  1  0.492530  0.368404  0.446147  1
  Co  Co9  1  0.507470  0.868404  0.053853  1
  C  C10  1  0.086649  0.984904  0.852479  1
  C  C11  1  0.094888  0.519808  0.369359  1
  C  C12  1  0.517281  0.384666  0.775918  1
  C  C13  1  0.482719  0.884666  0.724082  1
  C  C14  1  0.516229  0.114215  0.277347  1
  C  C15  1  0.483771  0.614215  0.222653  1
  C  C16  1  0.913351  0.484904  0.647521  1
  C  C17  1  0.905112  0.019808  0.130641  1
  O  O18  1  0.180651  0.105568  0.876168  1
  O  O19  1  0.206632  0.878351  0.933407  1
  O  O20  1  0.108564  0.472082  0.736052  1
  O  O21  1  0.199619  0.411540  0.356798  1
  O  O22  1  0.195611  0.627324  0.452510  1
  O  O23  1  0.108059  0.018442  0.199760  1
  O  O24  1  0.523603  0.344137  0.914962  1
  O  O25  1  0.472845  0.014654  0.746813  1
  O  O26  1  0.498419  0.794272  0.835393  1
  O  O27  1  0.501581  0.294272  0.664607  1
  O  O28  1  0.527155  0.514654  0.753187  1
  O  O29  1  0.476397  0.844137  0.585038  1
  O  O30  1  0.518815  0.164599  0.413184  1
  O  O31  1  0.471092  0.482608  0.234431  1
  O  O32  1  0.509317  0.698854  0.340758  1
  O  O33  1  0.490683  0.198854  0.159242  1
  O  O34  1  0.528908  0.982608  0.265569  1
  O  O35  1  0.481185  0.664599  0.086816  1
  O  O36  1  0.891436  0.972082  0.763948  1
  O  O37  1  0.793368  0.378351  0.566593  1
  O  O38  1  0.819349  0.605568  0.623832  1
  O  O39  1  0.891941  0.518442  0.300240  1
  O  O40  1  0.804389  0.127324  0.047490  1
  O  O41  1  0.800381  0.911540  0.143202  1
