# generated using pymatgen
data_Li2NiO2F
_symmetry_space_group_name_H-M   'P 1'
_cell_length_a   5.02086226
_cell_length_b   9.16389895
_cell_length_c   5.02047785
_cell_angle_alpha   99.99976985
_cell_angle_beta   71.09299540
_cell_angle_gamma   78.72573313
_symmetry_Int_Tables_number   1
_chemical_formula_structural   Li2NiO2F
_chemical_formula_sum   'Li8 Ni4 O8 F4'
_cell_volume   207.20533714
_cell_formula_units_Z   4
loop_
 _symmetry_equiv_pos_site_id
 _symmetry_equiv_pos_as_xyz
  1  'x, y, z'
loop_
 _atom_site_type_symbol
 _atom_site_label
 _atom_site_symmetry_multiplicity
 _atom_site_fract_x
 _atom_site_fract_y
 _atom_site_fract_z
 _atom_site_occupancy
  Li  Li0  1  0.995073  0.994665  0.490980  1
  Li  Li1  1  0.581588  0.832066  0.406514  1
  Li  Li2  1  0.164662  0.669738  0.347687  1
  Li  Li3  1  0.741326  0.495446  0.272208  1
  Li  Li4  1  0.245981  0.494837  0.741731  1
  Li  Li5  1  0.326616  0.332927  0.168983  1
  Li  Li6  1  0.425665  0.171224  0.589526  1
  Li  Li7  1  0.526675  0.995096  0.986980  1
  Ni  Ni8  1  0.094241  0.834318  0.907302  1
  Ni  Ni9  1  0.658726  0.672281  0.825419  1
  Ni  Ni10  1  0.823507  0.334264  0.677816  1
  Ni  Ni11  1  0.903425  0.172197  0.080634  1
  O  O12  1  0.346334  0.824432  0.120280  1
  O  O13  1  0.861217  0.825883  0.681592  1
  O  O14  1  0.399911  0.674492  0.617998  1
  O  O15  1  0.953751  0.500420  0.550145  1
  O  O16  1  0.605364  0.325757  0.436860  1
  O  O17  1  0.045959  0.324722  0.920457  1
  O  O18  1  0.693879  0.174462  0.824384  1
  O  O19  1  0.800539  0.000088  0.203010  1
  F  F20  1  0.894369  0.664921  0.100311  1
  F  F21  1  0.465682  0.501107  0.030690  1
  F  F22  1  0.184837  0.164864  0.308006  1
  F  F23  1  0.280073  0.000953  0.714618  1
