# generated using pymatgen
data_Li6MnFe5(BO3)6
_symmetry_space_group_name_H-M   'P 1'
_cell_length_a   8.24405512
_cell_length_b   14.29396127
_cell_length_c   3.13955914
_cell_angle_alpha   90.00000000
_cell_angle_beta   90.00000000
_cell_angle_gamma   89.89862863
_symmetry_Int_Tables_number   1
_chemical_formula_structural   Li6MnFe5(BO3)6
_chemical_formula_sum   'Li6 Mn1 Fe5 B6 O18'
_cell_volume   369.96571216
_cell_formula_units_Z   1
loop_
 _symmetry_equiv_pos_site_id
 _symmetry_equiv_pos_as_xyz
  1  'x, y, z'
loop_
 _atom_site_type_symbol
 _atom_site_label
 _atom_site_symmetry_multiplicity
 _atom_site_fract_x
 _atom_site_fract_y
 _atom_site_fract_z
 _atom_site_occupancy
  Li  Li0  1  0.292711  0.990945  0.500000  1
  Li  Li1  1  0.340202  0.358348  0.500000  1
  Li  Li2  1  0.364998  0.651236  0.500000  1
  Li  Li3  1  0.793871  0.493105  0.500000  1
  Li  Li4  1  0.840944  0.857340  0.500000  1
  Li  Li5  1  0.866226  0.150332  0.500000  1
  Mn  Mn6  1  0.673984  0.313831  0.000000  1
  Fe  Fe7  1  0.137219  0.504313  0.000000  1
  Fe  Fe8  1  0.175916  0.815656  0.000000  1
  Fe  Fe9  1  0.188131  0.180041  0.000000  1
  Fe  Fe10  1  0.635528  0.003383  0.000000  1
  Fe  Fe11  1  0.687528  0.680109  0.000000  1
  B  B12  1  0.999840  0.666961  0.500000  1
  B  B13  1  0.000169  0.999911  0.000000  1
  B  B14  1  0.002238  0.333436  0.500000  1
  B  B15  1  0.497658  0.165060  0.500000  1
  B  B16  1  0.500979  0.501321  0.000000  1
  B  B17  1  0.499815  0.833306  0.500000  1
  O  O18  1  0.012540  0.430669  0.500000  1
  O  O19  1  0.018164  0.763874  0.500000  1
  O  O20  1  0.136397  0.609148  0.500000  1
  O  O21  1  0.142790  0.279364  0.500000  1
  O  O22  1  0.152014  0.957220  0.000000  1
  O  O23  1  0.343880  0.125194  0.500000  1
  O  O24  1  0.348251  0.790664  0.500000  1
  O  O25  1  0.362133  0.445587  0.000000  1
  O  O26  1  0.485826  0.598379  0.000000  1
  O  O27  1  0.511237  0.930458  0.500000  1
  O  O28  1  0.513182  0.262297  0.500000  1
  O  O29  1  0.636002  0.108771  0.500000  1
  O  O30  1  0.640090  0.779125  0.500000  1
  O  O31  1  0.653960  0.460305  0.000000  1
  O  O32  1  0.845244  0.627759  0.500000  1
  O  O33  1  0.851840  0.290005  0.500000  1
  O  O34  1  0.860415  0.945409  0.000000  1
  O  O35  1  0.988076  0.097138  0.000000  1
