# generated using pymatgen
data_MnF4
_symmetry_space_group_name_H-M   'P 1'
_cell_length_a   10.48636515
_cell_length_b   10.48636531
_cell_length_c   13.16275532
_cell_angle_alpha   33.19446857
_cell_angle_beta   33.19446727
_cell_angle_gamma   56.60592086
_symmetry_Int_Tables_number   1
_chemical_formula_structural   MnF4
_chemical_formula_sum   'Mn6 F24'
_cell_volume   375.72297354
_cell_formula_units_Z   6
loop_
 _symmetry_equiv_pos_site_id
 _symmetry_equiv_pos_as_xyz
  1  'x, y, z'
loop_
 _atom_site_type_symbol
 _atom_site_label
 _atom_site_symmetry_multiplicity
 _atom_site_fract_x
 _atom_site_fract_y
 _atom_site_fract_z
 _atom_site_occupancy
  Mn  Mn0  1  0.000000  0.500000  0.000000  1
  Mn  Mn1  1  0.500000  0.000000  0.000000  1
  Mn  Mn2  1  0.500000  0.500000  0.000000  1
  Mn  Mn3  1  0.500000  0.500000  0.500000  1
  Mn  Mn4  1  0.500000  0.000000  0.500000  1
  Mn  Mn5  1  0.000000  0.500000  0.500000  1
  F  F6  1  0.114398  0.326686  0.115953  1
  F  F7  1  0.326686  0.212289  0.230674  1
  F  F8  1  0.114398  0.787711  0.155251  1
  F  F9  1  0.186674  0.373347  0.376653  1
  F  F10  1  0.624883  0.312441  0.125117  1
  F  F11  1  0.312441  0.687559  0.250000  1
  F  F12  1  0.326686  0.114398  0.615953  1
  F  F13  1  0.212289  0.885602  0.344749  1
  F  F14  1  0.212289  0.326686  0.730674  1
  F  F15  1  0.813326  0.186674  0.250000  1
  F  F16  1  0.626653  0.813326  0.123347  1
  F  F17  1  0.687559  0.375117  0.374883  1
  F  F18  1  0.312441  0.624883  0.625117  1
  F  F19  1  0.373347  0.186674  0.876653  1
  F  F20  1  0.186674  0.813326  0.750000  1
  F  F21  1  0.787711  0.673314  0.269326  1
  F  F22  1  0.787711  0.114398  0.655251  1
  F  F23  1  0.673314  0.885602  0.384047  1
  F  F24  1  0.687559  0.312441  0.750000  1
  F  F25  1  0.375117  0.687559  0.874883  1
  F  F26  1  0.813326  0.626653  0.623347  1
  F  F27  1  0.885602  0.212289  0.844749  1
  F  F28  1  0.673314  0.787711  0.769326  1
  F  F29  1  0.885602  0.673314  0.884047  1
