# generated using pymatgen
data_LiVCrP2(O4F)2
_symmetry_space_group_name_H-M   'P 1'
_cell_length_a   5.16460448
_cell_length_b   19.50791589
_cell_length_c   7.32919286
_cell_angle_alpha   93.70210754
_cell_angle_beta   106.06608970
_cell_angle_gamma   89.55184046
_symmetry_Int_Tables_number   1
_chemical_formula_structural   LiVCrP2(O4F)2
_chemical_formula_sum   'Li4 V4 Cr4 P8 O32 F8'
_cell_volume   708.06107065
_cell_formula_units_Z   4
loop_
 _symmetry_equiv_pos_site_id
 _symmetry_equiv_pos_as_xyz
  1  'x, y, z'
loop_
 _atom_site_type_symbol
 _atom_site_label
 _atom_site_symmetry_multiplicity
 _atom_site_fract_x
 _atom_site_fract_y
 _atom_site_fract_z
 _atom_site_occupancy
  Li  Li0  1  0.033634  0.890837  0.290781  1
  Li  Li1  1  0.283484  0.641448  0.539846  1
  Li  Li2  1  0.532072  0.391754  0.788412  1
  Li  Li3  1  0.968944  0.110298  0.711136  1
  V  V4  1  0.999872  0.000304  0.000209  1
  V  V5  1  0.249650  0.748873  0.244402  1
  V  V6  1  0.499257  0.498954  0.494293  1
  V  V7  1  0.749367  0.250415  0.750128  1
  Cr  Cr8  1  0.129702  0.374714  0.127995  1
  Cr  Cr9  1  0.368761  0.126095  0.371283  1
  Cr  Cr10  1  0.630263  0.874850  0.628049  1
  Cr  Cr11  1  0.878382  0.624780  0.877163  1
  P  P12  1  0.089234  0.471650  0.771560  1
  P  P13  1  0.155332  0.280113  0.480013  1
  P  P14  1  0.409876  0.027775  0.725455  1
  P  P15  1  0.656076  0.779166  0.977098  1
  P  P16  1  0.343714  0.220135  0.019368  1
  P  P17  1  0.589320  0.972473  0.274091  1
  P  P18  1  0.839859  0.721619  0.521649  1
  P  P19  1  0.906157  0.529193  0.227213  1
  O  O20  1  0.054988  0.194962  0.901064  1
  O  O21  1  0.109072  0.546357  0.848006  1
  O  O22  1  0.231943  0.420143  0.917029  1
  O  O23  1  0.011688  0.713477  0.372910  1
  O  O24  1  0.244359  0.034116  0.878745  1
  O  O25  1  0.028065  0.330000  0.330958  1
  O  O26  1  0.148019  0.205119  0.405169  1
  O  O27  1  0.261185  0.463518  0.622830  1
  O  O28  1  0.266256  0.080253  0.584260  1
  O  O29  1  0.195356  0.553449  0.347638  1
  O  O30  1  0.388684  0.954101  0.639583  1
  O  O31  1  0.522943  0.215106  0.875324  1
  O  O32  1  0.527657  0.830707  0.832408  1
  O  O33  1  0.444328  0.304740  0.598639  1
  O  O34  1  0.291932  0.949080  0.176076  1
  O  O35  1  0.646555  0.705535  0.893631  1
  O  O36  1  0.349829  0.294704  0.094167  1
  O  O37  1  0.707561  0.050549  0.823811  1
  O  O38  1  0.542572  0.698363  0.425655  1
  O  O39  1  0.471251  0.169780  0.168720  1
  O  O40  1  0.483175  0.782712  0.126348  1
  O  O41  1  0.609354  0.045824  0.359234  1
  O  O42  1  0.791974  0.448396  0.675619  1
  O  O43  1  0.733218  0.919662  0.415858  1
  O  O44  1  0.733094  0.532788  0.376462  1
  O  O45  1  0.860611  0.796294  0.598761  1
  O  O46  1  0.982217  0.670000  0.666831  1
  O  O47  1  0.755968  0.965386  0.121638  1
  O  O48  1  0.976878  0.284516  0.624684  1
  O  O49  1  0.777338  0.580536  0.082179  1
  O  O50  1  0.897744  0.455455  0.144523  1
  O  O51  1  0.945348  0.803374  0.097718  1
  F  F52  1  0.062501  0.079110  0.180141  1
  F  F53  1  0.314706  0.831152  0.430019  1
  F  F54  1  0.185642  0.669866  0.067325  1
  F  F55  1  0.562723  0.581391  0.680126  1
  F  F56  1  0.436996  0.419725  0.317444  1
  F  F57  1  0.812304  0.332049  0.932269  1
  F  F58  1  0.684828  0.168169  0.567426  1
  F  F59  1  0.935591  0.920826  0.819786  1
