# generated using pymatgen
data_Ti2Cu3Te3O16
_symmetry_space_group_name_H-M   'P 1'
_cell_length_a   6.29053994
_cell_length_b   5.96256290
_cell_length_c   9.27843991
_cell_angle_alpha   90.07141965
_cell_angle_beta   86.82535463
_cell_angle_gamma   118.39796248
_symmetry_Int_Tables_number   1
_chemical_formula_structural   Ti2Cu3Te3O16
_chemical_formula_sum   'Ti2 Cu3 Te3 O16'
_cell_volume   305.54073811
_cell_formula_units_Z   1
loop_
 _symmetry_equiv_pos_site_id
 _symmetry_equiv_pos_as_xyz
  1  'x, y, z'
loop_
 _atom_site_type_symbol
 _atom_site_label
 _atom_site_symmetry_multiplicity
 _atom_site_fract_x
 _atom_site_fract_y
 _atom_site_fract_z
 _atom_site_occupancy
  Ti  Ti0  1  0.287436  0.644729  0.464158  1
  Ti  Ti1  1  0.622769  0.310530  0.009826  1
  Cu  Cu2  1  0.157424  0.828764  0.198234  1
  Cu  Cu3  1  0.157351  0.328705  0.198347  1
  Cu  Cu4  1  0.352296  0.175962  0.712893  1
  Te  Te5  1  0.652551  0.825944  0.218444  1
  Te  Te6  1  0.849482  0.674441  0.713833  1
  Te  Te7  1  0.850038  0.175398  0.713530  1
  O  O8  1  0.166308  0.836356  0.612126  1
  O  O9  1  0.057051  0.530022  0.337492  1
  O  O10  1  0.352906  0.676508  0.112034  1
  O  O11  1  0.972709  0.986289  0.293609  1
  O  O12  1  0.965302  0.983115  0.833100  1
  O  O13  1  0.166676  0.331233  0.611954  1
  O  O14  1  0.504185  0.960942  0.362653  1
  O  O15  1  0.500982  0.541233  0.361404  1
  O  O16  1  0.323093  0.161003  0.089093  1
  O  O17  1  0.715617  0.857230  0.602123  1
  O  O18  1  0.544687  0.489530  0.825888  1
  O  O19  1  0.545244  0.054377  0.825744  1
  O  O20  1  0.747825  0.373632  0.588279  1
  O  O21  1  0.772747  0.633671  0.094666  1
  O  O22  1  0.962008  0.481480  0.841158  1
  O  O23  1  0.773316  0.139108  0.095133  1
