# generated using pymatgen
data_LiCoSiO4
_symmetry_space_group_name_H-M   'P 1'
_cell_length_a   8.68694699
_cell_length_b   8.68396033
_cell_length_c   8.08451703
_cell_angle_alpha   89.99769492
_cell_angle_beta   90.07283292
_cell_angle_gamma   120.00550554
_symmetry_Int_Tables_number   1
_chemical_formula_structural   LiCoSiO4
_chemical_formula_sum   'Li6 Co6 Si6 O24'
_cell_volume   528.13526110
_cell_formula_units_Z   6
loop_
 _symmetry_equiv_pos_site_id
 _symmetry_equiv_pos_as_xyz
  1  'x, y, z'
loop_
 _atom_site_type_symbol
 _atom_site_label
 _atom_site_symmetry_multiplicity
 _atom_site_fract_x
 _atom_site_fract_y
 _atom_site_fract_z
 _atom_site_occupancy
  Li  Li0  1  0.333483  0.666768  0.260805  1
  Li  Li1  1  0.333322  0.666792  0.745892  1
  Li  Li2  1  0.000256  0.000120  0.093606  1
  Li  Li3  1  0.000212  0.000084  0.593470  1
  Li  Li4  1  0.667006  0.333263  0.760868  1
  Li  Li5  1  0.666392  0.333119  0.246103  1
  Co  Co6  1  0.035973  0.691813  0.403606  1
  Co  Co7  1  0.307789  0.344074  0.403708  1
  Co  Co8  1  0.655513  0.963706  0.403977  1
  Co  Co9  1  0.344419  0.036458  0.903831  1
  Co  Co10  1  0.691871  0.655664  0.903732  1
  Co  Co11  1  0.963959  0.307933  0.903885  1
  Si  Si12  1  0.047524  0.689429  0.017791  1
  Si  Si13  1  0.310713  0.358230  0.017757  1
  Si  Si14  1  0.641929  0.952608  0.018003  1
  Si  Si15  1  0.358075  0.047395  0.517925  1
  Si  Si16  1  0.689237  0.641772  0.517915  1
  Si  Si17  1  0.952463  0.310637  0.517835  1
  O  O18  1  0.140776  0.912875  0.508486  1
  O  O19  1  0.149623  0.735751  0.197987  1
  O  O20  1  0.081082  0.525424  0.496208  1
  O  O21  1  0.206070  0.786489  0.877474  1
  O  O22  1  0.213737  0.419823  0.877078  1
  O  O23  1  0.444113  0.918692  0.496125  1
  O  O24  1  0.086862  0.227708  0.508091  1
  O  O25  1  0.264518  0.414168  0.197663  1
  O  O26  1  0.585942  0.850377  0.197889  1
  O  O27  1  0.474590  0.555772  0.495763  1
  O  O28  1  0.227764  0.140843  0.008227  1
  O  O29  1  0.580275  0.794049  0.877359  1
  O  O30  1  0.419403  0.205849  0.377216  1
  O  O31  1  0.772122  0.859165  0.508676  1
  O  O32  1  0.525384  0.444279  0.995928  1
  O  O33  1  0.414310  0.149779  0.697897  1
  O  O34  1  0.735433  0.585659  0.697901  1
  O  O35  1  0.913033  0.772261  0.008377  1
  O  O36  1  0.555968  0.081391  0.996126  1
  O  O37  1  0.786146  0.580212  0.377345  1
  O  O38  1  0.793676  0.213627  0.377244  1
  O  O39  1  0.919022  0.474660  0.995712  1
  O  O40  1  0.850571  0.264242  0.697761  1
  O  O41  1  0.859244  0.087039  0.008758  1
