# generated using pymatgen
data_Mn(H2N)2
_symmetry_space_group_name_H-M   'P 1'
_cell_length_a   14.23802738
_cell_length_b   14.23802738
_cell_length_c   14.23802738
_cell_angle_alpha   135.55641884
_cell_angle_beta   135.55641884
_cell_angle_gamma   64.66686924
_symmetry_Int_Tables_number   1
_chemical_formula_structural   Mn(H2N)2
_chemical_formula_sum   'Mn16 H64 N32'
_cell_volume   1395.29845414
_cell_formula_units_Z   16
loop_
 _symmetry_equiv_pos_site_id
 _symmetry_equiv_pos_as_xyz
  1  'x, y, z'
loop_
 _atom_site_type_symbol
 _atom_site_label
 _atom_site_symmetry_multiplicity
 _atom_site_fract_x
 _atom_site_fract_y
 _atom_site_fract_z
 _atom_site_occupancy
  Mn  Mn0  1  0.395037  0.743145  0.295262  1
  Mn  Mn1  1  0.895037  0.599776  0.651893  1
  Mn  Mn2  1  0.243145  0.895037  0.795262  1
  Mn  Mn3  1  0.743145  0.947883  0.348107  1
  Mn  Mn4  1  0.604963  0.256855  0.704738  1
  Mn  Mn5  1  0.104963  0.400224  0.348107  1
  Mn  Mn6  1  0.756855  0.104963  0.204738  1
  Mn  Mn7  1  0.256855  0.052117  0.651893  1
  Mn  Mn8  1  0.447883  0.243145  0.848107  1
  Mn  Mn9  1  0.947883  0.099776  0.204738  1
  Mn  Mn10  1  0.099776  0.395037  0.151893  1
  Mn  Mn11  1  0.599776  0.447883  0.704738  1
  Mn  Mn12  1  0.552117  0.756855  0.151893  1
  Mn  Mn13  1  0.052117  0.900224  0.795262  1
  Mn  Mn14  1  0.900224  0.604963  0.848107  1
  Mn  Mn15  1  0.400224  0.552117  0.295262  1
  H  H16  1  0.571854  0.214318  0.397993  1
  H  H17  1  0.071854  0.673860  0.357536  1
  H  H18  1  0.714318  0.071854  0.897993  1
  H  H19  1  0.214318  0.316324  0.642464  1
  H  H20  1  0.428146  0.785682  0.602007  1
  H  H21  1  0.928146  0.326140  0.642464  1
  H  H22  1  0.285682  0.928146  0.102007  1
  H  H23  1  0.785682  0.683676  0.357536  1
  H  H24  1  0.816324  0.714318  0.142464  1
  H  H25  1  0.316324  0.173860  0.102007  1
  H  H26  1  0.173860  0.571854  0.857536  1
  H  H27  1  0.673860  0.816324  0.602007  1
  H  H28  1  0.183676  0.285682  0.857536  1
  H  H29  1  0.683676  0.826140  0.897993  1
  H  H30  1  0.826140  0.428146  0.142464  1
  H  H31  1  0.326140  0.183676  0.397993  1
  H  H32  1  0.588401  0.832502  0.394645  1
  H  H33  1  0.088401  0.693755  0.755899  1
  H  H34  1  0.332502  0.088401  0.894645  1
  H  H35  1  0.832502  0.937856  0.244101  1
  H  H36  1  0.411599  0.167498  0.605355  1
  H  H37  1  0.911599  0.306245  0.244101  1
  H  H38  1  0.667498  0.911599  0.105355  1
  H  H39  1  0.167498  0.062144  0.755899  1
  H  H40  1  0.437856  0.332502  0.744101  1
  H  H41  1  0.937856  0.193755  0.105355  1
  H  H42  1  0.193755  0.588401  0.255899  1
  H  H43  1  0.693755  0.437856  0.605355  1
  H  H44  1  0.562144  0.667498  0.255899  1
  H  H45  1  0.062144  0.806245  0.894645  1
  H  H46  1  0.806245  0.411599  0.744101  1
  H  H47  1  0.306245  0.562144  0.394645  1
  H  H48  1  0.577990  0.173324  0.329444  1
  H  H49  1  0.077990  0.748545  0.404666  1
  H  H50  1  0.673324  0.077990  0.829444  1
  H  H51  1  0.173324  0.343880  0.595334  1
  H  H52  1  0.422010  0.826676  0.670556  1
  H  H53  1  0.922010  0.251455  0.595334  1
  H  H54  1  0.326676  0.922010  0.170556  1
  H  H55  1  0.826676  0.656120  0.404666  1
  H  H56  1  0.843880  0.673324  0.095334  1
  H  H57  1  0.343880  0.248545  0.170556  1
  H  H58  1  0.248545  0.577990  0.904666  1
  H  H59  1  0.748545  0.843880  0.670556  1
  H  H60  1  0.156120  0.326676  0.904666  1
  H  H61  1  0.656120  0.751455  0.829444  1
  H  H62  1  0.751455  0.422010  0.095334  1
  H  H63  1  0.251455  0.156120  0.329444  1
  H  H64  1  0.665278  0.300941  0.668729  1
  H  H65  1  0.165278  0.496549  0.364337  1
  H  H66  1  0.800941  0.165278  0.168729  1
  H  H67  1  0.300941  0.132212  0.635663  1
  H  H68  1  0.334722  0.699059  0.331271  1
  H  H69  1  0.834722  0.503451  0.635663  1
  H  H70  1  0.199059  0.834722  0.831271  1
  H  H71  1  0.699059  0.867788  0.364337  1
  H  H72  1  0.632212  0.800941  0.135663  1
  H  H73  1  0.132212  -0.003451  0.831271  1
  H  H74  1  -0.003451  0.665278  0.864337  1
  H  H75  1  0.496549  0.632212  0.331271  1
  H  H76  1  0.367788  0.199059  0.864337  1
  H  H77  1  0.867788  0.003451  0.168729  1
  H  H78  1  0.003451  0.334722  0.135663  1
  H  H79  1  0.503451  0.367788  0.668729  1
  N  N80  1  0.186804  0.936804  0.250000  1
  N  N81  1  0.686804  0.436804  0.250000  1
  N  N82  1  0.436804  0.686804  0.750000  1
  N  N83  1  0.936804  0.186804  0.750000  1
  N  N84  1  0.813196  0.063196  0.750000  1
  N  N85  1  0.313196  0.563196  0.750000  1
  N  N86  1  0.563196  0.313196  0.250000  1
  N  N87  1  0.063196  0.813196  0.250000  1
  N  N88  1  0.516081  0.750000  0.266081  1
  N  N89  1  0.016081  0.750000  0.766081  1
  N  N90  1  0.250000  0.016081  0.766081  1
  N  N91  1  0.750000  0.983919  0.233919  1
  N  N92  1  0.483919  0.250000  0.733919  1
  N  N93  1  0.983919  0.250000  0.233919  1
  N  N94  1  0.250000  0.516081  0.266081  1
  N  N95  1  0.750000  0.483919  0.733919  1
  N  N96  1  0.976844  0.290192  0.891516  1
  N  N97  1  0.476844  0.585328  0.686653  1
  N  N98  1  0.790192  0.476844  0.391516  1
  N  N99  1  0.290192  0.898675  0.313347  1
  N  N100  1  0.023156  0.709808  0.108484  1
  N  N101  1  0.523156  0.414672  0.313347  1
  N  N102  1  0.209808  0.523156  0.608484  1
  N  N103  1  0.709808  0.101325  0.686653  1
  N  N104  1  0.398675  0.790192  0.813347  1
  N  N105  1  0.898675  0.085328  0.608484  1
  N  N106  1  0.085328  0.976844  0.186653  1
  N  N107  1  0.585328  0.398675  0.108484  1
  N  N108  1  0.601325  0.209808  0.186653  1
  N  N109  1  0.101325  0.914672  0.391516  1
  N  N110  1  0.914672  0.023156  0.813347  1
  N  N111  1  0.414672  0.601325  0.891516  1
