# generated using pymatgen
data_Li3Al2FeO6
_symmetry_space_group_name_H-M   'P 1'
_cell_length_a   5.88693868
_cell_length_b   10.21703861
_cell_length_c   8.11068543
_cell_angle_alpha   90.00000000
_cell_angle_beta   89.38331487
_cell_angle_gamma   90.00000000
_symmetry_Int_Tables_number   1
_chemical_formula_structural   Li3Al2FeO6
_chemical_formula_sum   'Li12 Al8 Fe4 O24'
_cell_volume   487.80578733
_cell_formula_units_Z   4
loop_
 _symmetry_equiv_pos_site_id
 _symmetry_equiv_pos_as_xyz
  1  'x, y, z'
loop_
 _atom_site_type_symbol
 _atom_site_label
 _atom_site_symmetry_multiplicity
 _atom_site_fract_x
 _atom_site_fract_y
 _atom_site_fract_z
 _atom_site_occupancy
  Li  Li0  1  0.156453  0.995113  0.639189  1
  Li  Li1  1  0.184447  0.653375  0.623760  1
  Li  Li2  1  0.145446  0.000824  0.114288  1
  Li  Li3  1  0.315553  0.153375  0.876240  1
  Li  Li4  1  0.354554  0.500824  0.385712  1
  Li  Li5  1  0.343547  0.495113  0.860811  1
  Li  Li6  1  0.656453  0.504887  0.139189  1
  Li  Li7  1  0.645446  0.499176  0.614288  1
  Li  Li8  1  0.684447  0.846625  0.123760  1
  Li  Li9  1  0.854554  0.999176  0.885712  1
  Li  Li10  1  0.815553  0.346625  0.376240  1
  Li  Li11  1  0.843547  0.004887  0.360811  1
  Al  Al12  1  0.166386  0.332341  0.620892  1
  Al  Al13  1  0.171658  0.661311  0.126265  1
  Al  Al14  1  0.333614  0.832341  0.879108  1
  Al  Al15  1  0.328342  0.161311  0.373735  1
  Al  Al16  1  0.671658  0.838689  0.626265  1
  Al  Al17  1  0.666386  0.167659  0.120892  1
  Al  Al18  1  0.828342  0.338689  0.873735  1
  Al  Al19  1  0.833614  0.667659  0.379108  1
  Fe  Fe20  1  0.162799  0.335959  0.126335  1
  Fe  Fe21  1  0.337201  0.835959  0.373665  1
  Fe  Fe22  1  0.662799  0.164041  0.626335  1
  Fe  Fe23  1  0.837201  0.664041  0.873665  1
  O  O24  1  0.137496  0.326435  0.873924  1
  O  O25  1  0.145978  0.677420  0.363001  1
  O  O26  1  0.186432  0.980067  0.877523  1
  O  O27  1  0.194563  0.002575  0.371539  1
  O  O28  1  0.157167  0.310122  0.377426  1
  O  O29  1  0.173595  0.676385  0.887148  1
  O  O30  1  0.326405  0.176385  0.612852  1
  O  O31  1  0.342833  0.810122  0.122574  1
  O  O32  1  0.305437  0.502575  0.128461  1
  O  O33  1  0.313568  0.480067  0.622477  1
  O  O34  1  0.362504  0.826435  0.626076  1
  O  O35  1  0.354022  0.177420  0.136999  1
  O  O36  1  0.645978  0.822580  0.863001  1
  O  O37  1  0.637496  0.173565  0.373924  1
  O  O38  1  0.686432  0.519933  0.377523  1
  O  O39  1  0.694563  0.497425  0.871539  1
  O  O40  1  0.657167  0.189878  0.877426  1
  O  O41  1  0.673595  0.823615  0.387148  1
  O  O42  1  0.826405  0.323615  0.112852  1
  O  O43  1  0.842833  0.689878  0.622574  1
  O  O44  1  0.805437  0.997425  0.628461  1
  O  O45  1  0.813568  0.019933  0.122477  1
  O  O46  1  0.854022  0.322580  0.636999  1
  O  O47  1  0.862504  0.673565  0.126076  1
