# generated using pymatgen
data_Li5Mn6(BO3)6
_symmetry_space_group_name_H-M   'P 1'
_cell_length_a   8.34151742
_cell_length_b   8.78478724
_cell_length_c   6.34747471
_cell_angle_alpha   68.98383002
_cell_angle_beta   90.00602139
_cell_angle_gamma   61.81253284
_symmetry_Int_Tables_number   1
_chemical_formula_structural   Li5Mn6(BO3)6
_chemical_formula_sum   'Li5 Mn6 B6 O18'
_cell_volume   374.49019855
_cell_formula_units_Z   1
loop_
 _symmetry_equiv_pos_site_id
 _symmetry_equiv_pos_as_xyz
  1  'x, y, z'
loop_
 _atom_site_type_symbol
 _atom_site_label
 _atom_site_symmetry_multiplicity
 _atom_site_fract_x
 _atom_site_fract_y
 _atom_site_fract_z
 _atom_site_occupancy
  Li  Li0  1  0.988821  0.714822  0.388883  1
  Li  Li1  1  0.982089  0.714088  0.899703  1
  Li  Li2  1  0.715946  0.304739  0.092006  1
  Li  Li3  1  0.713524  0.302578  0.603594  1
  Li  Li4  1  0.293128  0.981917  0.251960  1
  Mn  Mn5  1  0.359186  0.645677  0.683247  1
  Mn  Mn6  1  0.362628  0.637756  0.180349  1
  Mn  Mn7  1  0.605982  0.016270  0.989219  1
  Mn  Mn8  1  0.631122  0.009321  0.497143  1
  Mn  Mn9  1  0.018888  0.346617  0.820222  1
  Mn  Mn10  1  0.024085  0.335042  0.335430  1
  B  B11  1  0.985347  0.002663  0.003753  1
  B  B12  1  0.991428  0.000623  0.495335  1
  B  B13  1  0.682047  0.658951  0.930702  1
  B  B14  1  0.672727  0.665477  0.410197  1
  B  B15  1  0.332545  0.338596  0.586391  1
  B  B16  1  0.335962  0.332002  0.075839  1
  O  O17  1  0.897551  0.895295  0.054395  1
  O  O18  1  0.918303  0.880164  0.562767  1
  O  O19  1  0.862858  0.559238  0.467414  1
  O  O20  1  0.872257  0.541786  0.983258  1
  O  O21  1  0.610262  0.854876  0.839931  1
  O  O22  1  0.582643  0.865327  0.301289  1
  O  O23  1  0.876635  0.199913  0.898262  1
  O  O24  1  0.869274  0.196891  0.401280  1
  O  O25  1  0.563250  0.587839  0.958754  1
  O  O26  1  0.561293  0.586282  0.458809  1
  O  O27  1  0.174848  0.918012  0.059659  1
  O  O28  1  0.179123  0.930309  0.516171  1
  O  O29  1  0.532377  0.213474  0.119694  1
  O  O30  1  0.529061  0.215119  0.659872  1
  O  O31  1  0.263000  0.531353  0.486733  1
  O  O32  1  0.260688  0.525176  0.990789  1
  O  O33  1  0.221660  0.260953  0.618281  1
  O  O34  1  0.229515  0.247182  0.120507  1
