# generated using pymatgen
data_Li2CoSiO4
_symmetry_space_group_name_H-M   'P 1'
_cell_length_a   5.29454123
_cell_length_b   5.29454123
_cell_length_c   6.29873729
_cell_angle_alpha   90.00000000
_cell_angle_beta   90.00000000
_cell_angle_gamma   87.83969989
_symmetry_Int_Tables_number   1
_chemical_formula_structural   Li2CoSiO4
_chemical_formula_sum   'Li4 Co2 Si2 O8'
_cell_volume   176.44176394
_cell_formula_units_Z   2
loop_
 _symmetry_equiv_pos_site_id
 _symmetry_equiv_pos_as_xyz
  1  'x, y, z'
loop_
 _atom_site_type_symbol
 _atom_site_label
 _atom_site_symmetry_multiplicity
 _atom_site_fract_x
 _atom_site_fract_y
 _atom_site_fract_z
 _atom_site_occupancy
  Li  Li0  1  0.317959  0.682041  0.500000  1
  Li  Li1  1  0.187802  0.187802  0.750000  1
  Li  Li2  1  0.812198  0.812198  0.250000  1
  Li  Li3  1  0.682041  0.317959  0.000000  1
  Co  Co4  1  0.178587  0.178587  0.250000  1
  Co  Co5  1  0.821413  0.821413  0.750000  1
  Si  Si6  1  0.324125  0.675875  0.000000  1
  Si  Si7  1  0.675875  0.324125  0.500000  1
  O  O8  1  0.195392  0.801110  0.215982  1
  O  O9  1  0.198890  0.804608  0.784018  1
  O  O10  1  0.292518  0.365857  0.001633  1
  O  O11  1  0.634143  0.707482  0.998367  1
  O  O12  1  0.365857  0.292518  0.498367  1
  O  O13  1  0.707482  0.634143  0.501633  1
  O  O14  1  0.804608  0.198890  0.715982  1
  O  O15  1  0.801110  0.195392  0.284018  1
