# generated using pymatgen
data_Li3Ni2(PO4)3
_symmetry_space_group_name_H-M   'P 1'
_cell_length_a   9.74895058
_cell_length_b   9.77668362
_cell_length_c   9.77668373
_cell_angle_alpha   86.32193215
_cell_angle_beta   86.60846970
_cell_angle_gamma   86.60846939
_symmetry_Int_Tables_number   1
_chemical_formula_structural   Li3Ni2(PO4)3
_chemical_formula_sum   'Li12 Ni8 P12 O48'
_cell_volume   926.85653035
_cell_formula_units_Z   4
loop_
 _symmetry_equiv_pos_site_id
 _symmetry_equiv_pos_as_xyz
  1  'x, y, z'
loop_
 _atom_site_type_symbol
 _atom_site_label
 _atom_site_symmetry_multiplicity
 _atom_site_fract_x
 _atom_site_fract_y
 _atom_site_fract_z
 _atom_site_occupancy
  Li  Li0  1  0.351016  0.772562  0.450059  1
  Li  Li1  1  0.286630  0.816672  0.980857  1
  Li  Li2  1  0.465171  0.346861  0.769565  1
  Li  Li3  1  0.148984  0.049941  0.727438  1
  Li  Li4  1  0.213370  0.519143  0.683328  1
  Li  Li5  1  0.846037  0.965649  0.266280  1
  Li  Li6  1  0.727590  0.163088  0.025136  1
  Li  Li7  1  0.772410  0.474864  0.336912  1
  Li  Li8  1  0.034829  0.730435  0.153139  1
  Li  Li9  1  0.653963  0.233720  0.534351  1
  Li  Li10  1  0.494523  0.513156  0.458875  1
  Li  Li11  1  0.005477  0.041125  0.986844  1
  Ni  Ni12  1  0.036535  0.255043  0.472040  1
  Ni  Ni13  1  0.750000  0.531912  0.968088  1
  Ni  Ni14  1  0.968958  0.751120  0.534668  1
  Ni  Ni15  1  0.463465  0.027960  0.244957  1
  Ni  Ni16  1  0.531042  0.965332  0.748880  1
  Ni  Ni17  1  0.250000  0.248608  0.251392  1
  Ni  Ni18  1  0.750000  0.749265  0.750735  1
  Ni  Ni19  1  0.250000  0.465140  0.034860  1
  P  P20  1  0.049915  0.672353  0.856177  1
  P  P21  1  0.356533  0.170525  0.546557  1
  P  P22  1  0.952854  0.324824  0.154093  1
  P  P23  1  0.174672  0.548546  0.352622  1
  P  P24  1  0.671713  0.855079  0.044775  1
  P  P25  1  0.450085  0.643823  0.827647  1
  P  P26  1  0.852791  0.049147  0.675955  1
  P  P27  1  0.647209  0.824045  0.450853  1
  P  P28  1  0.325328  0.147378  0.951454  1
  P  P29  1  0.828287  0.455225  0.644921  1
  P  P30  1  0.143467  0.953443  0.329475  1
  P  P31  1  0.547146  0.345907  0.175176  1
  O  O32  1  0.122051  0.113934  0.335888  1
  O  O33  1  0.329544  0.122140  0.111949  1
  O  O34  1  0.170456  0.388051  0.377860  1
  O  O35  1  0.615399  0.393323  0.034607  1
  O  O36  1  0.802849  0.806534  0.407360  1
  O  O37  1  0.722703  0.414026  0.547077  1
  O  O38  1  0.601832  0.964738  0.381177  1
  O  O39  1  0.386819  0.376383  0.170889  1
  O  O40  1  0.032493  0.616392  0.396698  1
  O  O41  1  0.381183  0.607390  0.971531  1
  O  O42  1  0.585991  0.188522  0.182991  1
  O  O43  1  0.941868  0.081051  0.791927  1
  O  O44  1  0.113181  0.329111  0.123617  1
  O  O45  1  0.451564  0.278905  0.587997  1
  O  O46  1  0.914009  0.317009  0.311478  1
  O  O47  1  0.377949  0.164112  0.386066  1
  O  O48  1  0.593783  0.415092  0.298490  1
  O  O49  1  0.392640  0.025792  0.613195  1
  O  O50  1  0.888852  0.665004  0.876679  1
  O  O51  1  0.884601  0.465393  0.106677  1
  O  O52  1  0.791991  0.410806  0.796545  1
  O  O53  1  0.188531  0.590162  0.196424  1
  O  O54  1  0.906217  0.201510  0.084908  1
  O  O55  1  0.408153  0.548597  0.720443  1
  O  O56  1  0.875638  0.888041  0.666178  1
  O  O57  1  0.832762  0.616683  0.623245  1
  O  O58  1  0.777297  0.952923  0.085974  1
  O  O59  1  0.611148  0.623321  0.834996  1
  O  O60  1  0.667238  0.876755  0.883317  1
  O  O61  1  0.708009  0.703455  0.089194  1
  O  O62  1  0.975141  0.395146  0.607822  1
  O  O63  1  0.467507  0.103302  0.883608  1
  O  O64  1  0.524859  0.892178  0.104854  1
  O  O65  1  0.407005  0.798306  0.802232  1
  O  O66  1  0.311469  0.303576  0.909838  1
  O  O67  1  0.290337  0.590005  0.438374  1
  O  O68  1  0.297209  0.908194  0.300599  1
  O  O69  1  0.898168  0.118823  0.535262  1
  O  O70  1  0.118817  0.528469  0.892610  1
  O  O71  1  0.697151  0.092640  0.693466  1
  O  O72  1  0.209663  0.061626  0.909995  1
  O  O73  1  0.091847  0.779557  0.951403  1
  O  O74  1  0.092995  0.697768  0.701694  1
  O  O75  1  0.048436  0.912003  0.221095  1
  O  O76  1  0.624362  0.833822  0.611959  1
  O  O77  1  0.107360  0.886805  0.474208  1
  O  O78  1  0.558132  0.708073  0.418949  1
  O  O79  1  0.202791  0.199401  0.591806  1
