# generated using pymatgen
data_Na2NiPCO7
_symmetry_space_group_name_H-M   'P 1'
_cell_length_a   8.86552203
_cell_length_b   10.33643155
_cell_length_c   6.63076446
_cell_angle_alpha   89.68577728
_cell_angle_beta   90.44946116
_cell_angle_gamma   87.78775584
_symmetry_Int_Tables_number   1
_chemical_formula_structural   Na2NiPCO7
_chemical_formula_sum   'Na8 Ni4 P4 C4 O28'
_cell_volume   607.14733976
_cell_formula_units_Z   4
loop_
 _symmetry_equiv_pos_site_id
 _symmetry_equiv_pos_as_xyz
  1  'x, y, z'
loop_
 _atom_site_type_symbol
 _atom_site_label
 _atom_site_symmetry_multiplicity
 _atom_site_fract_x
 _atom_site_fract_y
 _atom_site_fract_z
 _atom_site_occupancy
  Na  Na0  1  0.251466  0.121556  0.008199  1
  Na  Na1  1  0.249301  0.122962  0.490933  1
  Na  Na2  1  0.264674  0.625082  0.016950  1
  Na  Na3  1  0.265220  0.624158  0.482341  1
  Na  Na4  1  0.736815  0.364114  0.514298  1
  Na  Na5  1  0.737570  0.368242  0.989182  1
  Na  Na6  1  0.741965  0.886191  0.972924  1
  Na  Na7  1  0.912716  0.614475  0.736926  1
  Ni  Ni8  1  0.346332  0.390046  0.751337  1
  Ni  Ni9  1  0.350682  0.888717  0.748460  1
  Ni  Ni10  1  0.653771  0.105326  0.256322  1
  Ni  Ni11  1  0.654468  0.611538  0.253894  1
  P  P12  1  0.422614  0.358675  0.250958  1
  P  P13  1  0.425647  0.861629  0.249949  1
  P  P14  1  0.579012  0.142223  0.750557  1
  P  P15  1  0.578878  0.640313  0.751723  1
  C  C16  1  0.069044  0.361342  0.750100  1
  C  C17  1  0.076157  0.855415  0.752367  1
  C  C18  1  0.926436  0.140459  0.248162  1
  C  C19  1  0.927824  0.643037  0.248610  1
  O  O20  1  0.065179  0.157993  0.246307  1
  O  O21  1  0.068221  0.654873  0.247416  1
  O  O22  1  0.132169  0.473738  0.747839  1
  O  O23  1  0.136792  0.967510  0.748052  1
  O  O24  1  0.162060  0.262220  0.749942  1
  O  O25  1  0.174436  0.757774  0.746259  1
  O  O26  1  0.324717  0.394698  0.063829  1
  O  O27  1  0.326991  0.394698  0.437306  1
  O  O28  1  0.325168  0.893826  0.063236  1
  O  O29  1  0.330000  0.896602  0.436139  1
  O  O30  1  0.428132  0.072394  0.748039  1
  O  O31  1  0.428354  0.570715  0.753113  1
  O  O32  1  0.458744  0.209043  0.251231  1
  O  O33  1  0.461456  0.711710  0.250721  1
  O  O34  1  0.541359  0.292477  0.756033  1
  O  O35  1  0.541292  0.788530  0.758307  1
  O  O36  1  0.573516  0.429077  0.250301  1
  O  O37  1  0.575629  0.930708  0.242796  1
  O  O38  1  0.676420  0.116503  0.563927  1
  O  O39  1  0.676156  0.107076  0.938006  1
  O  O40  1  0.675694  0.602548  0.566707  1
  O  O41  1  0.681285  0.604212  0.936025  1
  O  O42  1  0.824922  0.235347  0.250946  1
  O  O43  1  0.829523  0.738347  0.242403  1
  O  O44  1  0.868977  0.028001  0.248069  1
  O  O45  1  0.867252  0.530004  0.258020  1
  O  O46  1  0.926917  0.356607  0.752366  1
  O  O47  1  0.937724  0.839307  0.762630  1
