# generated using pymatgen
data_TiH10N3F5
_symmetry_space_group_name_H-M   'P 1'
_cell_length_a   6.95762142
_cell_length_b   6.95762096
_cell_length_c   12.41346834
_cell_angle_alpha   67.66335208
_cell_angle_beta   67.66335415
_cell_angle_gamma   62.89819283
_symmetry_Int_Tables_number   1
_chemical_formula_structural   TiH10N3F5
_chemical_formula_sum   'Ti2 H20 N6 F10'
_cell_volume   478.92132747
_cell_formula_units_Z   2
loop_
 _symmetry_equiv_pos_site_id
 _symmetry_equiv_pos_as_xyz
  1  'x, y, z'
loop_
 _atom_site_type_symbol
 _atom_site_label
 _atom_site_symmetry_multiplicity
 _atom_site_fract_x
 _atom_site_fract_y
 _atom_site_fract_z
 _atom_site_occupancy
  Ti  Ti0  1  0.103400  0.856608  0.025196  1
  Ti  Ti1  1  0.856608  0.103400  0.525196  1
  H  H2  1  0.291739  0.161649  0.057016  1
  H  H3  1  0.266095  0.082439  0.205249  1
  H  H4  1  0.182328  0.360423  0.133670  1
  H  H5  1  0.458859  0.194713  0.113106  1
  H  H6  1  0.161649  0.291739  0.557016  1
  H  H7  1  0.082439  0.266095  0.705249  1
  H  H8  1  0.194713  0.458859  0.613106  1
  H  H9  1  0.257127  0.827189  0.490638  1
  H  H10  1  0.360423  0.182328  0.633670  1
  H  H11  1  0.612556  0.806323  0.371973  1
  H  H12  1  0.864205  0.736202  0.271281  1
  H  H13  1  0.825079  0.571874  0.407334  1
  H  H14  1  0.841673  0.817011  0.390746  1
  H  H15  1  0.571874  0.825079  0.907334  1
  H  H16  1  0.929146  0.885338  0.458205  1
  H  H17  1  0.827189  0.257127  0.990638  1
  H  H18  1  0.806323  0.612556  0.871973  1
  H  H19  1  0.736202  0.864205  0.771281  1
  H  H20  1  0.817011  0.841673  0.890746  1
  H  H21  1  0.885338  0.929146  0.958205  1
  N  N22  1  0.300324  0.200320  0.127920  1
  N  N23  1  0.196074  0.786800  0.175021  1
  N  N24  1  0.200320  0.300324  0.627920  1
  N  N25  1  0.784817  0.735964  0.359874  1
  N  N26  1  0.786800  0.196074  0.675021  1
  N  N27  1  0.735964  0.784817  0.859874  1
  F  F28  1  0.056227  0.263238  0.458786  1
  F  F29  1  0.348384  0.851366  0.401307  1
  F  F30  1  0.825784  0.112855  0.096960  1
  F  F31  1  0.263238  0.056227  0.958786  1
  F  F32  1  0.112855  0.825784  0.596960  1
  F  F33  1  0.678018  0.318525  0.428328  1
  F  F34  1  0.993822  0.615507  0.129405  1
  F  F35  1  0.318525  0.678018  0.928328  1
  F  F36  1  0.851366  0.348384  0.901307  1
  F  F37  1  0.615507  0.993822  0.629405  1
