# generated using pymatgen
data_K8TeP8(H5O16)2
_symmetry_space_group_name_H-M   'P 1'
_cell_length_a   11.65766136
_cell_length_b   11.47572835
_cell_length_c   8.09732678
_cell_angle_alpha   113.87168878
_cell_angle_beta   94.26797938
_cell_angle_gamma   68.47486539
_symmetry_Int_Tables_number   1
_chemical_formula_structural   K8TeP8(H5O16)2
_chemical_formula_sum   'K8 Te1 P8 H10 O32'
_cell_volume   918.00656043
_cell_formula_units_Z   1
loop_
 _symmetry_equiv_pos_site_id
 _symmetry_equiv_pos_as_xyz
  1  'x, y, z'
loop_
 _atom_site_type_symbol
 _atom_site_label
 _atom_site_symmetry_multiplicity
 _atom_site_fract_x
 _atom_site_fract_y
 _atom_site_fract_z
 _atom_site_occupancy
  K  K0  1  0.485702  0.173856  0.788718  1
  K  K1  1  0.514298  0.826144  0.211282  1
  K  K2  1  0.973787  0.645788  0.951287  1
  K  K3  1  0.026213  0.354212  0.048713  1
  K  K4  1  0.674329  0.415242  0.105557  1
  K  K5  1  0.325671  0.584758  0.894443  1
  K  K6  1  0.117764  0.101071  0.567335  1
  K  K7  1  0.882236  0.898929  0.432665  1
  Te  Te8  1  0.000000  0.000000  0.000000  1
  P  P9  1  0.718741  0.696784  0.572250  1
  P  P10  1  0.281259  0.303216  0.427750  1
  P  P11  1  0.863848  0.405041  0.541056  1
  P  P12  1  0.136152  0.594959  0.458944  1
  P  P13  1  0.644314  0.336395  0.608940  1
  P  P14  1  0.355686  0.663605  0.391060  1
  P  P15  1  0.530875  0.232402  0.272042  1
  P  P16  1  0.469125  0.767598  0.727958  1
  H  H17  1  0.666878  0.130241  0.435010  1
  H  H18  1  0.333122  0.869759  0.564990  1
  H  H19  1  0.383898  0.026020  0.545043  1
  H  H20  1  0.616102  0.973980  0.454957  1
  H  H21  1  0.637421  0.925916  0.502081  1
  H  H22  1  0.362579  0.074084  0.497919  1
  H  H23  1  0.780244  0.602164  0.169540  1
  H  H24  1  0.219756  0.397836  0.830460  1
  H  H25  1  0.279804  0.239061  0.002891  1
  H  H26  1  0.720196  0.760939  0.997109  1
  O  O27  1  0.080501  0.823771  0.723325  1
  O  O28  1  0.919499  0.176229  0.276675  1
  O  O29  1  0.745728  0.780916  0.119916  1
  O  O30  1  0.254272  0.219084  0.880084  1
  O  O31  1  0.010056  0.889484  0.135701  1
  O  O32  1  0.989944  0.110516  0.864299  1
  O  O33  1  0.669208  0.659150  0.390408  1
  O  O34  1  0.330792  0.340850  0.609592  1
  O  O35  1  0.236572  0.188090  0.347772  1
  O  O36  1  0.763428  0.811910  0.652228  1
  O  O37  1  0.165418  0.439990  0.421258  1
  O  O38  1  0.834582  0.560010  0.578742  1
  O  O39  1  0.617974  0.713146  0.719168  1
  O  O40  1  0.382026  0.286854  0.280832  1
  O  O41  1  0.965877  0.352433  0.641043  1
  O  O42  1  0.034123  0.647567  0.358957  1
  O  O43  1  0.880107  0.331351  0.324306  1
  O  O44  1  0.119893  0.668649  0.675694  1
  O  O45  1  0.265650  0.589914  0.396845  1
  O  O46  1  0.734350  0.410086  0.603155  1
  O  O47  1  0.718452  0.179694  0.544546  1
  O  O48  1  0.281548  0.820306  0.455454  1
  O  O49  1  0.426059  0.592758  0.211116  1
  O  O50  1  0.573941  0.407242  0.788884  1
  O  O51  1  0.442262  0.647193  0.550714  1
  O  O52  1  0.557738  0.352807  0.449286  1
  O  O53  1  0.582908  0.106189  0.314230  1
  O  O54  1  0.417092  0.893811  0.685770  1
  O  O55  1  0.424613  0.768799  0.895963  1
  O  O56  1  0.575387  0.231201  0.104037  1
  O  O57  1  0.189722  0.451183  0.957976  1
  O  O58  1  0.810278  0.548817  0.042024  1
