# generated using pymatgen
data_Li3Cr3(PO4)4
_symmetry_space_group_name_H-M   'P 1'
_cell_length_a   13.12398958
_cell_length_b   8.20593742
_cell_length_c   9.08073315
_cell_angle_alpha   89.90591008
_cell_angle_beta   86.26038098
_cell_angle_gamma   89.93810204
_symmetry_Int_Tables_number   1
_chemical_formula_structural   Li3Cr3(PO4)4
_chemical_formula_sum   'Li9 Cr9 P12 O48'
_cell_volume   975.86219642
_cell_formula_units_Z   3
loop_
 _symmetry_equiv_pos_site_id
 _symmetry_equiv_pos_as_xyz
  1  'x, y, z'
loop_
 _atom_site_type_symbol
 _atom_site_label
 _atom_site_symmetry_multiplicity
 _atom_site_fract_x
 _atom_site_fract_y
 _atom_site_fract_z
 _atom_site_occupancy
  Li  Li0  1  0.166591  0.475718  0.340830  1
  Li  Li1  1  0.499827  0.520430  0.989313  1
  Li  Li2  1  0.171206  0.146479  0.438581  1
  Li  Li3  1  0.163410  0.010194  0.817945  1
  Li  Li4  1  0.510559  0.998275  0.515319  1
  Li  Li5  1  0.834560  0.025625  0.177793  1
  Li  Li6  1  0.841293  0.354685  0.275961  1
  Li  Li7  1  0.494488  0.855525  0.892829  1
  Li  Li8  1  0.828665  0.491159  0.648680  1
  Cr  Cr9  1  0.168813  0.854742  0.228137  1
  Cr  Cr10  1  0.500101  0.146051  0.105863  1
  Cr  Cr11  1  0.166907  0.642652  0.725959  1
  Cr  Cr12  1  0.506074  0.646908  0.393901  1
  Cr  Cr13  1  0.833054  0.643123  0.063391  1
  Cr  Cr14  1  0.161078  0.348958  0.941747  1
  Cr  Cr15  1  0.502974  0.353941  0.608094  1
  Cr  Cr16  1  0.831219  0.856134  0.557500  1
  Cr  Cr17  1  0.832046  0.150205  0.773082  1
  P  P18  1  0.052258  0.190774  0.144915  1
  P  P19  1  0.279046  0.699774  0.024750  1
  P  P20  1  0.054971  0.293445  0.636866  1
  P  P21  1  0.388189  0.299347  0.308360  1
  P  P22  1  0.278685  0.792767  0.521479  1
  P  P23  1  0.612591  0.804259  0.189222  1
  P  P24  1  0.389509  0.206476  0.812707  1
  P  P25  1  0.722012  0.206275  0.469430  1
  P  P26  1  0.612003  0.706571  0.696980  1
  P  P27  1  0.943871  0.706512  0.354243  1
  P  P28  1  0.721578  0.303408  0.976767  1
  P  P29  1  0.943571  0.793974  0.858363  1
  O  O30  1  0.221565  0.869328  0.020363  1
  O  O31  1  0.110739  0.362069  0.146093  1
  O  O32  1  0.106007  0.071002  0.246624  1
  O  O33  1  0.058371  0.718958  0.314395  1
  O  O34  1  0.251622  0.649481  0.188720  1
  O  O35  1  0.071560  0.364796  0.484000  1
  O  O36  1  0.415635  0.349478  0.144341  1
  O  O37  1  0.277076  0.297054  0.356009  1
  O  O38  1  0.228741  0.910951  0.415345  1
  O  O39  1  0.607413  0.285164  0.016965  1
  O  O40  1  0.566397  0.929110  0.086554  1
  O  O41  1  0.223088  0.621326  0.522853  1
  O  O42  1  0.107278  0.129621  0.651693  1
  O  O43  1  0.554123  0.635536  0.185742  1
  O  O44  1  0.444302  0.128660  0.311854  1
  O  O45  1  0.106096  0.419635  0.752015  1
  O  O46  1  0.057366  0.784593  0.811615  1
  O  O47  1  0.448019  0.417862  0.412807  1
  O  O48  1  0.393241  0.779759  0.481408  1
  O  O49  1  0.766372  0.428828  0.080580  1
  O  O50  1  0.253386  0.843494  0.685659  1
  O  O51  1  0.726723  0.786043  0.147804  1
  O  O52  1  0.589891  0.845984  0.356548  1
  O  O53  1  0.921335  0.845363  0.021544  1
  O  O54  1  0.079167  0.148245  0.976910  1
  O  O55  1  0.413983  0.154712  0.649144  1
  O  O56  1  0.274594  0.218953  0.851561  1
  O  O57  1  0.735747  0.135092  0.316259  1
  O  O58  1  0.220145  0.579509  0.920633  1
  O  O59  1  0.606376  0.207200  0.524673  1
  O  O60  1  0.561304  0.579208  0.583315  1
  O  O61  1  0.940330  0.205263  0.185958  1
  O  O62  1  0.895159  0.586431  0.247943  1
  O  O63  1  0.558528  0.869090  0.682106  1
  O  O64  1  0.445563  0.376868  0.812074  1
  O  O65  1  0.886001  0.875531  0.352545  1
  O  O66  1  0.773313  0.370402  0.482637  1
  O  O67  1  0.438515  0.088019  0.920305  1
  O  O68  1  0.390079  0.704374  0.977138  1
  O  O69  1  0.774757  0.081518  0.583770  1
  O  O70  1  0.727614  0.710385  0.642538  1
  O  O71  1  0.597442  0.636372  0.850803  1
  O  O72  1  0.920012  0.657458  0.518819  1
  O  O73  1  0.744281  0.345945  0.809713  1
  O  O74  1  0.939616  0.292051  0.691731  1
  O  O75  1  0.891062  0.917266  0.753166  1
  O  O76  1  0.887686  0.625660  0.854428  1
  O  O77  1  0.781232  0.135967  0.981296  1
