# generated using pymatgen
data_As2PHO6
_symmetry_space_group_name_H-M   'P 1'
_cell_length_a   4.92006876
_cell_length_b   11.19227991
_cell_length_c   11.31182291
_cell_angle_alpha   90.00000000
_cell_angle_beta   96.70958965
_cell_angle_gamma   90.00000000
_symmetry_Int_Tables_number   1
_chemical_formula_structural   As2PHO6
_chemical_formula_sum   'As8 P4 H4 O24'
_cell_volume   618.63952513
_cell_formula_units_Z   4
loop_
 _symmetry_equiv_pos_site_id
 _symmetry_equiv_pos_as_xyz
  1  'x, y, z'
loop_
 _atom_site_type_symbol
 _atom_site_label
 _atom_site_symmetry_multiplicity
 _atom_site_fract_x
 _atom_site_fract_y
 _atom_site_fract_z
 _atom_site_occupancy
  As  As0  1  0.752988  0.604424  0.343931  1
  As  As1  1  0.252988  0.895576  0.843931  1
  As  As2  1  0.247012  0.395576  0.656069  1
  As  As3  1  0.747012  0.104424  0.156069  1
  As  As4  1  0.285160  0.638827  0.122088  1
  As  As5  1  0.785160  0.861173  0.622088  1
  As  As6  1  0.714840  0.361173  0.877912  1
  As  As7  1  0.214840  0.138827  0.377912  1
  P  P8  1  0.787056  0.820391  0.148783  1
  P  P9  1  0.287056  0.679609  0.648783  1
  P  P10  1  0.212944  0.179609  0.851217  1
  P  P11  1  0.712944  0.320391  0.351217  1
  H  H12  1  0.840791  0.464120  0.196406  1
  H  H13  1  0.340791  0.035880  0.696406  1
  H  H14  1  0.159209  0.535880  0.803594  1
  H  H15  1  0.659209  0.964120  0.303594  1
  O  O16  1  0.869403  0.553564  0.202135  1
  O  O17  1  0.369403  0.946436  0.702135  1
  O  O18  1  0.130597  0.446436  0.797865  1
  O  O19  1  0.630597  0.053564  0.297865  1
  O  O20  1  0.394715  0.619880  0.280391  1
  O  O21  1  0.894715  0.880120  0.780391  1
  O  O22  1  0.605285  0.380120  0.719609  1
  O  O23  1  0.105285  0.119880  0.219609  1
  O  O24  1  0.080525  0.777700  0.125404  1
  O  O25  1  0.580525  0.722300  0.625404  1
  O  O26  1  0.919475  0.222300  0.874596  1
  O  O27  1  0.419475  0.277700  0.374596  1
  O  O28  1  0.768164  0.946960  0.090793  1
  O  O29  1  0.268164  0.553040  0.590793  1
  O  O30  1  0.231836  0.053040  0.909207  1
  O  O31  1  0.731836  0.446960  0.409207  1
  O  O32  1  0.929262  0.238332  0.424808  1
  O  O33  1  0.429262  0.261668  0.924808  1
  O  O34  1  0.070738  0.761668  0.575192  1
  O  O35  1  0.570738  0.738332  0.075192  1
  O  O36  1  0.753653  0.823240  0.280419  1
  O  O37  1  0.253653  0.676760  0.780419  1
  O  O38  1  0.246347  0.176760  0.719581  1
  O  O39  1  0.746347  0.323240  0.219581  1
