# generated using pymatgen
data_Li2CuSnO4
_symmetry_space_group_name_H-M   'P 1'
_cell_length_a   6.29371354
_cell_length_b   6.29371377
_cell_length_c   5.89929651
_cell_angle_alpha   118.25680013
_cell_angle_beta   118.25679223
_cell_angle_gamma   95.16788123
_symmetry_Int_Tables_number   1
_chemical_formula_structural   Li2CuSnO4
_chemical_formula_sum   'Li4 Cu2 Sn2 O8'
_cell_volume   165.76988628
_cell_formula_units_Z   2
loop_
 _symmetry_equiv_pos_site_id
 _symmetry_equiv_pos_as_xyz
  1  'x, y, z'
loop_
 _atom_site_type_symbol
 _atom_site_label
 _atom_site_symmetry_multiplicity
 _atom_site_fract_x
 _atom_site_fract_y
 _atom_site_fract_z
 _atom_site_occupancy
  Li  Li0  1  0.000000  0.500000  0.500000  1
  Li  Li1  1  0.500000  0.500000  0.500000  1
  Li  Li2  1  0.500000  0.000000  0.000000  1
  Li  Li3  1  0.500000  0.500000  0.000000  1
  Cu  Cu4  1  0.000000  0.000000  0.500000  1
  Cu  Cu5  1  0.000000  0.000000  0.000000  1
  Sn  Sn6  1  0.000000  0.500000  0.000000  1
  Sn  Sn7  1  0.500000  0.000000  0.500000  1
  O  O8  1  0.267373  0.727424  0.003067  1
  O  O9  1  0.248852  0.201253  0.477662  1
  O  O10  1  0.272576  0.732627  0.496933  1
  O  O11  1  0.798747  0.751148  0.022338  1
  O  O12  1  0.201253  0.248852  0.977662  1
  O  O13  1  0.727424  0.267373  0.503067  1
  O  O14  1  0.751148  0.798747  0.522338  1
  O  O15  1  0.732627  0.272576  0.996933  1
