# generated using pymatgen
data_Li11Nb4(Ni3O8)3
_symmetry_space_group_name_H-M   'P 1'
_cell_length_a   5.26148259
_cell_length_b   9.33730714
_cell_length_c   9.86583059
_cell_angle_alpha   106.55834277
_cell_angle_beta   81.85287854
_cell_angle_gamma   100.25352510
_symmetry_Int_Tables_number   1
_chemical_formula_structural   Li11Nb4(Ni3O8)3
_chemical_formula_sum   'Li11 Nb4 Ni9 O24'
_cell_volume   455.03768252
_cell_formula_units_Z   1
loop_
 _symmetry_equiv_pos_site_id
 _symmetry_equiv_pos_as_xyz
  1  'x, y, z'
loop_
 _atom_site_type_symbol
 _atom_site_label
 _atom_site_symmetry_multiplicity
 _atom_site_fract_x
 _atom_site_fract_y
 _atom_site_fract_z
 _atom_site_occupancy
  Li  Li0  1  0.271744  0.586325  0.021482  1
  Li  Li1  1  0.065437  0.755367  0.312197  1
  Li  Li2  1  0.443005  0.250333  0.185759  1
  Li  Li3  1  0.606088  0.917032  0.353713  1
  Li  Li4  1  0.142667  0.072909  0.392855  1
  Li  Li5  1  0.771159  0.585797  0.521528  1
  Li  Li6  1  0.102015  0.915104  0.854248  1
  Li  Li7  1  0.562190  0.755478  0.815364  1
  Li  Li8  1  0.932040  0.249732  0.689218  1
  Li  Li9  1  0.643525  0.073699  0.893781  1
  Li  Li10  1  0.727307  0.409400  0.977261  1
  Nb  Nb11  1  0.811216  0.745663  0.061611  1
  Nb  Nb12  1  0.311045  0.744392  0.560478  1
  Nb  Nb13  1  0.686184  0.253934  0.438668  1
  Nb  Nb14  1  0.187184  0.248824  0.937221  1
  Ni  Ni15  1  0.355982  0.923927  0.106134  1
  Ni  Ni16  1  0.523134  0.577947  0.267445  1
  Ni  Ni17  1  0.986838  0.423843  0.226277  1
  Ni  Ni18  1  0.228787  0.410401  0.478606  1
  Ni  Ni19  1  0.895745  0.083527  0.145289  1
  Ni  Ni20  1  0.855812  0.922691  0.605534  1
  Ni  Ni21  1  0.016011  0.577640  0.770854  1
  Ni  Ni22  1  0.475350  0.423756  0.735961  1
  Ni  Ni23  1  0.396606  0.082648  0.646550  1
  O  O24  1  0.263724  0.088913  0.020137  1
  O  O25  1  0.346107  0.412393  0.100611  1
  O  O26  1  0.463441  0.750709  0.179704  1
  O  O27  1  0.985654  0.911652  0.218274  1
  O  O28  1  0.885377  0.589131  0.147492  1
  O  O29  1  0.038059  0.248639  0.316419  1
  O  O30  1  0.839257  0.250595  0.055122  1
  O  O31  1  0.162587  0.589583  0.391182  1
  O  O32  1  0.217660  0.909978  0.488674  1
  O  O33  1  0.660665  0.748448  0.445438  1
  O  O34  1  0.638916  0.415326  0.346500  1
  O  O35  1  0.531376  0.091502  0.275408  1
  O  O36  1  0.488101  0.909667  0.716222  1
  O  O37  1  0.382224  0.588990  0.653031  1
  O  O38  1  0.335626  0.247486  0.558955  1
  O  O39  1  0.820015  0.414966  0.610287  1
  O  O40  1  0.763331  0.091152  0.520151  1
  O  O41  1  0.160512  0.750398  0.945940  1
  O  O42  1  0.964041  0.748588  0.678280  1
  O  O43  1  0.031510  0.088548  0.774348  1
  O  O44  1  0.110506  0.412063  0.855305  1
  O  O45  1  0.536166  0.250381  0.819861  1
  O  O46  1  0.659052  0.589040  0.896922  1
  O  O47  1  0.719021  0.911481  0.987709  1
