# generated using pymatgen
data_LiVSnO4
_symmetry_space_group_name_H-M   'P 1'
_cell_length_a   6.12065935
_cell_length_b   6.11200867
_cell_length_c   8.67141376
_cell_angle_alpha   90.01318459
_cell_angle_beta   90.00432907
_cell_angle_gamma   89.98432832
_symmetry_Int_Tables_number   1
_chemical_formula_structural   LiVSnO4
_chemical_formula_sum   'Li4 V4 Sn4 O16'
_cell_volume   324.39343097
_cell_formula_units_Z   4
loop_
 _symmetry_equiv_pos_site_id
 _symmetry_equiv_pos_as_xyz
  1  'x, y, z'
loop_
 _atom_site_type_symbol
 _atom_site_label
 _atom_site_symmetry_multiplicity
 _atom_site_fract_x
 _atom_site_fract_y
 _atom_site_fract_z
 _atom_site_occupancy
  Li  Li0  1  0.000545  0.230783  0.999613  1
  Li  Li1  1  0.000484  0.769221  0.500383  1
  Li  Li2  1  0.231598  0.999989  0.250028  1
  Li  Li3  1  0.768573  0.999987  0.749899  1
  V  V4  1  0.240308  0.500056  0.250004  1
  V  V5  1  0.499000  0.238869  0.998868  1
  V  V6  1  0.498904  0.761046  0.501126  1
  V  V7  1  0.759154  0.500039  0.750093  1
  Sn  Sn8  1  0.253171  0.253341  0.626876  1
  Sn  Sn9  1  0.253100  0.746671  0.873272  1
  Sn  Sn10  1  0.746722  0.251679  0.374950  1
  Sn  Sn11  1  0.746751  0.748278  0.124990  1
  O  O12  1  0.018319  0.261088  0.251448  1
  O  O13  1  0.018228  0.738880  0.248687  1
  O  O14  1  0.260580  0.018193  0.998811  1
  O  O15  1  0.260694  0.981839  0.501100  1
  O  O16  1  0.263010  0.481055  0.011244  1
  O  O17  1  0.262876  0.518651  0.488794  1
  O  O18  1  0.481016  0.262828  0.239417  1
  O  O19  1  0.480891  0.737117  0.260412  1
  O  O20  1  0.518179  0.259568  0.760744  1
  O  O21  1  0.518357  0.740388  0.739517  1
  O  O22  1  0.737257  0.518352  0.514821  1
  O  O23  1  0.737406  0.481605  0.985063  1
  O  O24  1  0.739199  0.019382  0.001712  1
  O  O25  1  0.739390  0.981022  0.498412  1
  O  O26  1  0.983111  0.259282  0.747921  1
  O  O27  1  0.983179  0.740790  0.751796  1
