# generated using pymatgen
data_Co3OF5
_symmetry_space_group_name_H-M   'P 1'
_cell_length_a   7.37626796
_cell_length_b   5.68296339
_cell_length_c   5.68296339
_cell_angle_alpha   74.11224056
_cell_angle_beta   73.07463720
_cell_angle_gamma   73.07463720
_symmetry_Int_Tables_number   1
_chemical_formula_structural   Co3OF5
_chemical_formula_sum   'Co6 O2 F10'
_cell_volume   213.33452775
_cell_formula_units_Z   2
loop_
 _symmetry_equiv_pos_site_id
 _symmetry_equiv_pos_as_xyz
  1  'x, y, z'
loop_
 _atom_site_type_symbol
 _atom_site_label
 _atom_site_symmetry_multiplicity
 _atom_site_fract_x
 _atom_site_fract_y
 _atom_site_fract_z
 _atom_site_occupancy
  Co  Co0  1  0.833949  0.669916  0.669916  1
  Co  Co1  1  0.326169  0.642645  0.642645  1
  Co  Co2  1  0.666667  0.333333  0.333333  1
  Co  Co3  1  0.166667  0.333333  0.333333  1
  Co  Co4  1  0.499384  0.996751  0.996751  1
  Co  Co5  1  0.007164  0.024022  0.024022  1
  O  O6  1  0.970622  0.231790  0.231790  1
  O  O7  1  0.362711  0.434877  0.434877  1
  F  F8  1  0.330941  0.360241  0.964772  1
  F  F9  1  0.666667  0.031035  0.635631  1
  F  F10  1  0.625049  0.572145  0.572145  1
  F  F11  1  0.298345  0.888017  0.888017  1
  F  F12  1  0.034989  0.778650  0.778650  1
  F  F13  1  0.708284  0.094522  0.094522  1
  F  F14  1  0.330941  0.964772  0.360241  1
  F  F15  1  0.666667  0.635631  0.031035  1
  F  F16  1  0.002393  0.306426  0.701894  1
  F  F17  1  0.002393  0.701894  0.306426  1
