# generated using pymatgen
data_NiH18(I5N3)2
_symmetry_space_group_name_H-M   'P 1'
_cell_length_a   9.32398735
_cell_length_b   17.02501524
_cell_length_c   9.69122459
_cell_angle_alpha   90.00000000
_cell_angle_beta   111.26709566
_cell_angle_gamma   90.00000000
_symmetry_Int_Tables_number   1
_chemical_formula_structural   NiH18(I5N3)2
_chemical_formula_sum   'Ni2 H36 I20 N12'
_cell_volume   1433.62976223
_cell_formula_units_Z   2
loop_
 _symmetry_equiv_pos_site_id
 _symmetry_equiv_pos_as_xyz
  1  'x, y, z'
loop_
 _atom_site_type_symbol
 _atom_site_label
 _atom_site_symmetry_multiplicity
 _atom_site_fract_x
 _atom_site_fract_y
 _atom_site_fract_z
 _atom_site_occupancy
  Ni  Ni0  1  0.000000  0.000000  0.500000  1
  Ni  Ni1  1  0.500000  0.500000  0.000000  1
  H  H2  1  0.017844  0.914927  0.742155  1
  H  H3  1  0.185909  0.507914  0.902201  1
  H  H4  1  0.018314  0.145674  0.395856  1
  H  H5  1  0.041080  0.859191  0.389771  1
  H  H6  1  0.013998  0.923927  0.259445  1
  H  H7  1  0.231495  0.460500  0.777932  1
  H  H8  1  0.240634  0.556291  0.784986  1
  H  H9  1  0.259366  0.056291  0.715014  1
  H  H10  1  0.268505  0.960500  0.722068  1
  H  H11  1  0.157470  0.094329  0.377420  1
  H  H12  1  0.183177  0.915514  0.390877  1
  H  H13  1  0.314091  0.007914  0.597799  1
  H  H14  1  0.518314  0.354326  0.895856  1
  H  H15  1  0.482156  0.414927  0.757845  1
  H  H16  1  0.541080  0.640809  0.889771  1
  H  H17  1  0.513998  0.576073  0.759445  1
  H  H18  1  0.316823  0.415514  0.109123  1
  H  H19  1  0.342530  0.594329  0.122580  1
  H  H20  1  0.657470  0.405671  0.877420  1
  H  H21  1  0.683177  0.584486  0.890877  1
  H  H22  1  0.486002  0.423927  0.240555  1
  H  H23  1  0.458920  0.359191  0.110229  1
  H  H24  1  0.517844  0.585073  0.242155  1
  H  H25  1  0.481686  0.645674  0.104144  1
  H  H26  1  0.685909  0.992086  0.402201  1
  H  H27  1  0.816823  0.084486  0.609123  1
  H  H28  1  0.842530  0.905671  0.622580  1
  H  H29  1  0.731495  0.039500  0.277932  1
  H  H30  1  0.740634  0.943709  0.284986  1
  H  H31  1  0.759366  0.443709  0.215014  1
  H  H32  1  0.768505  0.539500  0.222068  1
  H  H33  1  0.986002  0.076073  0.740555  1
  H  H34  1  0.958920  0.140809  0.610229  1
  H  H35  1  0.981686  0.854326  0.604144  1
  H  H36  1  0.814091  0.492086  0.097799  1
  H  H37  1  0.982156  0.085073  0.257845  1
  I  I38  1  0.997149  0.642440  0.989515  1
  I  I39  1  0.147332  0.293193  0.649060  1
  I  I40  1  0.081555  0.332527  0.343743  1
  I  I41  1  0.352668  0.793193  0.850940  1
  I  I42  1  0.239922  0.526993  0.430396  1
  I  I43  1  0.137452  0.180547  0.025076  1
  I  I44  1  0.362548  0.680547  0.474924  1
  I  I45  1  0.260078  0.026993  0.069604  1
  I  I46  1  0.581555  0.167473  0.843743  1
  I  I47  1  0.502851  0.142440  0.510485  1
  I  I48  1  0.497149  0.857560  0.489515  1
  I  I49  1  0.418445  0.832527  0.156257  1
  I  I50  1  0.739922  0.973007  0.930396  1
  I  I51  1  0.637452  0.319453  0.525076  1
  I  I52  1  0.862548  0.819453  0.974924  1
  I  I53  1  0.760078  0.473007  0.569604  1
  I  I54  1  0.647332  0.206807  0.149060  1
  I  I55  1  0.918445  0.667473  0.656257  1
  I  I56  1  0.852668  0.706807  0.350940  1
  I  I57  1  0.002851  0.357560  0.010485  1
  N  N58  1  0.044683  0.091070  0.368216  1
  N  N59  1  0.067514  0.915705  0.371100  1
  N  N60  1  0.263265  0.507013  0.849673  1
  N  N61  1  0.236735  0.007013  0.650327  1
  N  N62  1  0.544683  0.408930  0.868216  1
  N  N63  1  0.567514  0.584295  0.871100  1
  N  N64  1  0.432486  0.415705  0.128900  1
  N  N65  1  0.455317  0.591070  0.131784  1
  N  N66  1  0.763265  0.992987  0.349673  1
  N  N67  1  0.736735  0.492987  0.150327  1
  N  N68  1  0.932486  0.084295  0.628900  1
  N  N69  1  0.955317  0.908930  0.631784  1
