# generated using pymatgen
data_Li24Mn11CrO36
_symmetry_space_group_name_H-M   'P 1'
_cell_length_a   5.00806911
_cell_length_b   13.01255290
_cell_length_c   10.55935688
_cell_angle_alpha   67.25612639
_cell_angle_beta   85.22150413
_cell_angle_gamma   97.17888483
_symmetry_Int_Tables_number   1
_chemical_formula_structural   Li24Mn11CrO36
_chemical_formula_sum   'Li24 Mn11 Cr1 O36'
_cell_volume   623.09941880
_cell_formula_units_Z   1
loop_
 _symmetry_equiv_pos_site_id
 _symmetry_equiv_pos_as_xyz
  1  'x, y, z'
loop_
 _atom_site_type_symbol
 _atom_site_label
 _atom_site_symmetry_multiplicity
 _atom_site_fract_x
 _atom_site_fract_y
 _atom_site_fract_z
 _atom_site_occupancy
  Li  Li0  1  0.781528  0.058512  0.941702  1
  Li  Li1  1  0.666958  0.083524  0.666525  1
  Li  Li2  1  0.883368  0.274320  0.725353  1
  Li  Li3  1  0.333646  0.166706  0.833060  1
  Li  Li4  1  0.557894  0.107893  0.392379  1
  Li  Li5  1  0.000062  0.250050  0.999890  1
  Li  Li6  1  0.999684  0.000228  0.499982  1
  Li  Li7  1  0.777452  0.558129  0.941260  1
  Li  Li8  1  0.449416  0.391806  0.609298  1
  Li  Li9  1  0.666714  0.583454  0.666581  1
  Li  Li10  1  0.667592  0.333310  0.166272  1
  Li  Li11  1  0.108616  0.224370  0.274505  1
  Li  Li12  1  0.889237  0.775258  0.725293  1
  Li  Li13  1  0.333363  0.666717  0.833261  1
  Li  Li14  1  0.333841  0.417654  0.332328  1
  Li  Li15  1  0.552742  0.608235  0.391309  1
  Li  Li16  1  0.999136  0.500282  0.500155  1
  Li  Li17  1  0.222380  0.441871  0.058581  1
  Li  Li18  1  0.443594  0.891629  0.608116  1
  Li  Li19  1  0.666685  0.833390  0.166643  1
  Li  Li20  1  0.114198  0.725195  0.275426  1
  Li  Li21  1  0.333361  0.916746  0.333273  1
  Li  Li22  1  0.999998  0.749971  0.000019  1
  Li  Li23  1  0.219180  0.941552  0.057934  1
  Mn  Mn24  1  0.888991  0.027953  0.222047  1
  Mn  Mn25  1  0.555604  0.361274  0.888744  1
  Mn  Mn26  1  0.778098  0.305286  0.444489  1
  Mn  Mn27  1  0.444300  0.138563  0.111448  1
  Mn  Mn28  1  0.111002  0.471925  0.778087  1
  Mn  Mn29  1  0.889025  0.528117  0.221896  1
  Mn  Mn30  1  0.555669  0.861394  0.888558  1
  Mn  Mn31  1  0.777583  0.805213  0.444762  1
  Mn  Mn32  1  0.222310  0.694604  0.555369  1
  Mn  Mn33  1  0.444380  0.638734  0.111271  1
  Mn  Mn34  1  0.110846  0.971991  0.778263  1
  Cr  Cr35  1  0.224340  0.196859  0.553159  1
  O  O36  1  0.428159  0.001637  0.860461  1
  O  O37  1  0.642968  0.211967  0.924166  1
  O  O38  1  0.898804  0.165149  0.470981  1
  O  O39  1  0.306728  0.045331  0.590873  1
  O  O40  1  0.880308  0.406266  0.955800  1
  O  O41  1  0.024941  0.121021  0.743027  1
  O  O42  1  0.554042  0.241200  0.622494  1
  O  O43  1  0.786459  0.427120  0.710920  1
  O  O44  1  0.761307  0.168458  0.193595  1
  O  O45  1  0.238608  0.331556  0.806290  1
  O  O46  1  0.213776  0.072972  0.289169  1
  O  O47  1  0.452329  0.259318  0.378698  1
  O  O48  1  0.428179  0.501735  0.860402  1
  O  O49  1  0.977656  0.378926  0.257106  1
  O  O50  1  0.119560  0.093644  0.044386  1
  O  O51  1  0.689287  0.454874  0.409048  1
  O  O52  1  0.094476  0.333628  0.528336  1
  O  O53  1  0.642902  0.711817  0.924176  1
  O  O54  1  0.356987  0.288009  0.076071  1
  O  O55  1  0.905221  0.664811  0.473067  1
  O  O56  1  0.309601  0.545179  0.590718  1
  O  O57  1  0.880248  0.906102  0.955977  1
  O  O58  1  0.023635  0.621304  0.742697  1
  O  O59  1  0.571810  0.497954  0.139855  1
  O  O60  1  0.546971  0.739590  0.622408  1
  O  O61  1  0.786026  0.926953  0.711034  1
  O  O62  1  0.761382  0.668425  0.193573  1
  O  O63  1  0.238515  0.831411  0.806475  1
  O  O64  1  0.213570  0.572705  0.289438  1
  O  O65  1  0.452794  0.760267  0.377582  1
  O  O66  1  0.976375  0.878613  0.257395  1
  O  O67  1  0.119715  0.593754  0.044310  1
  O  O68  1  0.690208  0.954518  0.409347  1
  O  O69  1  0.094755  0.835007  0.527004  1
  O  O70  1  0.356940  0.787848  0.076156  1
  O  O71  1  0.571963  0.998214  0.139728  1
