# generated using pymatgen
data_Li2MnP2O7
_symmetry_space_group_name_H-M   'P 1'
_cell_length_a   5.13502052
_cell_length_b   6.90942815
_cell_length_c   16.30491370
_cell_angle_alpha   89.99979723
_cell_angle_beta   89.42202721
_cell_angle_gamma   89.99963723
_symmetry_Int_Tables_number   1
_chemical_formula_structural   Li2MnP2O7
_chemical_formula_sum   'Li8 Mn4 P8 O28'
_cell_volume   578.46980725
_cell_formula_units_Z   4
loop_
 _symmetry_equiv_pos_site_id
 _symmetry_equiv_pos_as_xyz
  1  'x, y, z'
loop_
 _atom_site_type_symbol
 _atom_site_label
 _atom_site_symmetry_multiplicity
 _atom_site_fract_x
 _atom_site_fract_y
 _atom_site_fract_z
 _atom_site_occupancy
  Li  Li0  1  0.243118  0.969550  0.241820  1
  Li  Li1  1  0.243114  0.530443  0.741824  1
  Li  Li2  1  0.266958  0.204594  0.507230  1
  Li  Li3  1  0.266957  0.295410  0.007229  1
  Li  Li4  1  0.732846  0.704231  0.992860  1
  Li  Li5  1  0.732833  0.795797  0.492868  1
  Li  Li6  1  0.756876  0.469553  0.258210  1
  Li  Li7  1  0.756873  0.030430  0.758209  1
  Mn  Mn8  1  0.256182  0.579107  0.368925  1
  Mn  Mn9  1  0.256180  0.920904  0.868918  1
  Mn  Mn10  1  0.743841  0.079093  0.131084  1
  Mn  Mn11  1  0.743842  0.420909  0.631091  1
  P  P12  1  0.250785  0.786886  0.072815  1
  P  P13  1  0.250782  0.713115  0.572827  1
  P  P14  1  0.256425  0.404901  0.165599  1
  P  P15  1  0.256421  0.095096  0.665603  1
  P  P16  1  0.743659  0.904942  0.334380  1
  P  P17  1  0.743636  0.595080  0.834391  1
  P  P18  1  0.749196  0.286883  0.427192  1
  P  P19  1  0.749196  0.213123  0.927196  1
  O  O20  1  0.044915  0.317525  0.424103  1
  O  O21  1  0.044898  0.182471  0.924102  1
  O  O22  1  0.092308  0.251086  0.122969  1
  O  O23  1  0.092318  0.248924  0.622967  1
  O  O24  1  0.121878  0.510715  0.237033  1
  O  O25  1  0.121881  0.989296  0.737028  1
  O  O26  1  0.305793  0.554679  0.088164  1
  O  O27  1  0.305797  0.945323  0.588162  1
  O  O28  1  0.375990  0.690711  0.487609  1
  O  O29  1  0.375971  0.809281  0.987606  1
  O  O30  1  0.395855  0.896561  0.139428  1
  O  O31  1  0.395867  0.603450  0.639436  1
  O  O32  1  0.472386  0.829933  0.312776  1
  O  O33  1  0.472376  0.670055  0.812776  1
  O  O34  1  0.527631  0.329924  0.187231  1
  O  O35  1  0.527638  0.170072  0.687230  1
  O  O36  1  0.604061  0.396508  0.360586  1
  O  O37  1  0.604047  0.103506  0.860576  1
  O  O38  1  0.623995  0.190754  0.012408  1
  O  O39  1  0.624004  0.309243  0.512412  1
  O  O40  1  0.694350  0.054650  0.411851  1
  O  O41  1  0.694352  0.445353  0.911849  1
  O  O42  1  0.878070  0.010786  0.262968  1
  O  O43  1  0.878082  0.489211  0.762959  1
  O  O44  1  0.907774  0.751069  0.376987  1
  O  O45  1  0.907746  0.748928  0.876982  1
  O  O46  1  0.955036  0.817456  0.075909  1
  O  O47  1  0.955055  0.682554  0.575914  1
