# generated using pymatgen
data_NaTi2(PO4)3
_symmetry_space_group_name_H-M   'P 1'
_cell_length_a   12.25892213
_cell_length_b   8.71007011
_cell_length_c   8.79649153
_cell_angle_alpha   90.08791047
_cell_angle_beta   90.08893482
_cell_angle_gamma   89.28073550
_symmetry_Int_Tables_number   1
_chemical_formula_structural   NaTi2(PO4)3
_chemical_formula_sum   'Na4 Ti8 P12 O48'
_cell_volume   939.17858934
_cell_formula_units_Z   4
loop_
 _symmetry_equiv_pos_site_id
 _symmetry_equiv_pos_as_xyz
  1  'x, y, z'
loop_
 _atom_site_type_symbol
 _atom_site_label
 _atom_site_symmetry_multiplicity
 _atom_site_fract_x
 _atom_site_fract_y
 _atom_site_fract_z
 _atom_site_occupancy
  Na  Na0  1  0.167282  0.294044  0.202385  1
  Na  Na1  1  0.319143  0.179124  0.714688  1
  Na  Na2  1  0.685878  0.581019  0.448345  1
  Na  Na3  1  0.813446  0.918367  0.948687  1
  Ti  Ti4  1  0.107151  0.248431  0.532018  1
  Ti  Ti5  1  0.117033  0.750629  0.031564  1
  Ti  Ti6  1  0.393688  0.254799  0.032958  1
  Ti  Ti7  1  0.382285  0.749520  0.532429  1
  Ti  Ti8  1  0.607786  0.738748  0.971863  1
  Ti  Ti9  1  0.614715  0.238565  0.469880  1
  Ti  Ti10  1  0.892079  0.758330  0.471056  1
  Ti  Ti11  1  0.885158  0.260883  0.968518  1
  P  P12  1  0.005079  0.973190  0.748235  1
  P  P13  1  0.998728  0.028578  0.246961  1
  P  P14  1  0.145614  0.611975  0.390765  1
  P  P15  1  0.144562  0.394386  0.884798  1
  P  P16  1  0.355570  0.107358  0.387497  1
  P  P17  1  0.354891  0.885344  0.894239  1
  P  P18  1  0.495866  0.529546  0.248969  1
  P  P19  1  0.499774  0.468168  0.747947  1
  P  P20  1  0.646309  0.111114  0.110633  1
  P  P21  1  0.644646  0.886729  0.614351  1
  P  P22  1  0.855168  0.612637  0.114970  1
  P  P23  1  0.853815  0.390011  0.610637  1
  O  O24  1  0.036191  0.684749  0.441067  1
  O  O25  1  0.038644  0.326209  0.948764  1
  O  O26  1  0.068550  0.868342  0.858171  1
  O  O27  1  0.065322  0.139008  0.348385  1
  O  O28  1  0.082378  0.928367  0.160531  1
  O  O29  1  0.087449  0.065147  0.653887  1
  O  O30  1  0.140266  0.435424  0.413098  1
  O  O31  1  0.143153  0.569389  0.904439  1
  O  O32  1  0.164267  0.638527  0.219064  1
  O  O33  1  0.163285  0.350190  0.716308  1
  O  O34  1  0.236015  0.678721  0.492428  1
  O  O35  1  0.240025  0.321239  0.977910  1
  O  O36  1  0.263683  0.815531  0.991307  1
  O  O37  1  0.260601  0.180601  0.480798  1
  O  O38  1  0.337627  0.154646  0.219705  1
  O  O39  1  0.336483  0.868392  0.720924  1
  O  O40  1  0.354365  0.932007  0.406835  1
  O  O41  1  0.360907  0.059941  0.926965  1
  O  O42  1  0.415601  0.440785  0.146866  1
  O  O43  1  0.418712  0.575547  0.664808  1
  O  O44  1  0.430273  0.631696  0.359071  1
  O  O45  1  0.431462  0.351487  0.839313  1
  O  O46  1  0.463406  0.808868  0.941642  1
  O  O47  1  0.462959  0.171567  0.451483  1
  O  O48  1  0.538373  0.191072  0.060623  1
  O  O49  1  0.536593  0.817291  0.560002  1
  O  O50  1  0.569831  0.635675  0.154713  1
  O  O51  1  0.571329  0.376549  0.635789  1
  O  O52  1  0.573472  0.420120  0.334907  1
  O  O53  1  0.577645  0.558921  0.852030  1
  O  O54  1  0.642046  0.936989  0.082744  1
  O  O55  1  0.645081  0.063641  0.592304  1
  O  O56  1  0.662964  0.141746  0.282112  1
  O  O57  1  0.664905  0.850706  0.784106  1
  O  O58  1  0.737063  0.816928  0.514405  1
  O  O59  1  0.739134  0.176091  0.011050  1
  O  O60  1  0.762467  0.323118  0.509652  1
  O  O61  1  0.762846  0.682474  0.014947  1
  O  O62  1  0.833927  0.643717  0.285257  1
  O  O63  1  0.836867  0.357923  0.781490  1
  O  O64  1  0.856464  0.436410  0.089464  1
  O  O65  1  0.856720  0.564768  0.585164  1
  O  O66  1  0.919371  0.932003  0.341307  1
  O  O67  1  0.925020  0.079140  0.834526  1
  O  O68  1  0.933227  0.869664  0.647329  1
  O  O69  1  0.930953  0.128537  0.137528  1
  O  O70  1  0.962789  0.684822  0.063075  1
  O  O71  1  0.963476  0.314919  0.561272  1
