# generated using pymatgen
data_Li5Mn2P2(CO7)2
_symmetry_space_group_name_H-M   'P 1'
_cell_length_a   8.56513344
_cell_length_b   6.47285433
_cell_length_c   5.03060818
_cell_angle_alpha   89.91656046
_cell_angle_beta   86.79112568
_cell_angle_gamma   89.27372716
_symmetry_Int_Tables_number   1
_chemical_formula_structural   Li5Mn2P2(CO7)2
_chemical_formula_sum   'Li5 Mn2 P2 C2 O14'
_cell_volume   278.44151307
_cell_formula_units_Z   1
loop_
 _symmetry_equiv_pos_site_id
 _symmetry_equiv_pos_as_xyz
  1  'x, y, z'
loop_
 _atom_site_type_symbol
 _atom_site_label
 _atom_site_symmetry_multiplicity
 _atom_site_fract_x
 _atom_site_fract_y
 _atom_site_fract_z
 _atom_site_occupancy
  Li  Li0  1  0.103048  0.238028  0.755647  1
  Li  Li1  1  0.270983  0.465570  0.238025  1
  Li  Li2  1  0.735692  0.520626  0.757884  1
  Li  Li3  1  0.734126  0.977069  0.756095  1
  Li  Li4  1  0.913044  0.753313  0.260608  1
  Mn  Mn5  1  0.336145  0.758252  0.795172  1
  Mn  Mn6  1  0.656108  0.247510  0.210239  1
  P  P7  1  0.415661  0.257935  0.710679  1
  P  P8  1  0.585887  0.744507  0.280153  1
  C  C9  1  0.035421  0.740511  0.730065  1
  C  C10  1  0.959331  0.258464  0.279459  1
  O  O11  1  0.068741  0.740813  0.975858  1
  O  O12  1  0.094146  0.289682  0.362314  1
  O  O13  1  0.148631  0.738609  0.546644  1
  O  O14  1  0.314606  0.068816  0.787489  1
  O  O15  1  0.314543  0.440020  0.832544  1
  O  O16  1  0.437457  0.287238  0.406566  1
  O  O17  1  0.422602  0.734425  0.171523  1
  O  O18  1  0.582239  0.247222  0.821558  1
  O  O19  1  0.571889  0.747745  0.590288  1
  O  O20  1  0.695335  0.562006  0.178214  1
  O  O21  1  0.683081  0.933381  0.173632  1
  O  O22  1  0.840100  0.238991  0.459123  1
  O  O23  1  0.891773  0.745349  0.656271  1
  O  O24  1  0.928629  0.246318  0.030141  1
