# generated using pymatgen
data_Li2TiCo3O8
_symmetry_space_group_name_H-M   'P 1'
_cell_length_a   8.49719874
_cell_length_b   8.16691086
_cell_length_c   8.54221053
_cell_angle_alpha   90.11752930
_cell_angle_beta   90.08867917
_cell_angle_gamma   90.11595560
_symmetry_Int_Tables_number   1
_chemical_formula_structural   Li2TiCo3O8
_chemical_formula_sum   'Li8 Ti4 Co12 O32'
_cell_volume   592.79091066
_cell_formula_units_Z   4
loop_
 _symmetry_equiv_pos_site_id
 _symmetry_equiv_pos_as_xyz
  1  'x, y, z'
loop_
 _atom_site_type_symbol
 _atom_site_label
 _atom_site_symmetry_multiplicity
 _atom_site_fract_x
 _atom_site_fract_y
 _atom_site_fract_z
 _atom_site_occupancy
  Li  Li0  1  0.999203  0.995140  0.998541  1
  Li  Li1  1  0.251010  0.254599  0.249959  1
  Li  Li2  1  0.247760  0.745499  0.751651  1
  Li  Li3  1  0.501481  0.005959  0.498825  1
  Li  Li4  1  0.498629  0.504626  0.002619  1
  Li  Li5  1  0.750707  0.244522  0.748042  1
  Li  Li6  1  0.747767  0.755536  0.246333  1
  Li  Li7  1  0.004313  0.494666  0.502615  1
  Ti  Ti8  1  0.137796  0.882134  0.378153  1
  Ti  Ti9  1  0.362684  0.125902  0.888764  1
  Ti  Ti10  1  0.632996  0.627717  0.614540  1
  Ti  Ti11  1  0.872884  0.366890  0.112315  1
  Co  Co12  1  0.123096  0.126857  0.624087  1
  Co  Co13  1  0.130167  0.380123  0.875094  1
  Co  Co14  1  0.120989  0.625875  0.128532  1
  Co  Co15  1  0.377693  0.376722  0.629494  1
  Co  Co16  1  0.369298  0.616408  0.370783  1
  Co  Co17  1  0.375844  0.869628  0.120313  1
  Co  Co18  1  0.621334  0.371453  0.374972  1
  Co  Co19  1  0.626405  0.122293  0.127738  1
  Co  Co20  1  0.620530  0.874213  0.872453  1
  Co  Co21  1  0.877388  0.125404  0.373289  1
  Co  Co22  1  0.875422  0.877963  0.628209  1
  Co  Co23  1  0.878647  0.632070  0.879882  1
  O  O24  1  0.115128  0.115252  0.384207  1
  O  O25  1  0.116346  0.881004  0.604125  1
  O  O26  1  0.114322  0.616988  0.895403  1
  O  O27  1  0.141441  0.133171  0.865182  1
  O  O28  1  0.109010  0.385613  0.115319  1
  O  O29  1  0.147178  0.368345  0.643785  1
  O  O30  1  0.128093  0.636174  0.360297  1
  O  O31  1  0.133442  0.864422  0.141483  1
  O  O32  1  0.364887  0.150911  0.636928  1
  O  O33  1  0.369459  0.361138  0.869962  1
  O  O34  1  0.354784  0.633680  0.134845  1
  O  O35  1  0.387501  0.600497  0.618746  1
  O  O36  1  0.359216  0.860566  0.368288  1
  O  O37  1  0.389004  0.387969  0.382903  1
  O  O38  1  0.383459  0.116005  0.108680  1
  O  O39  1  0.383197  0.887633  0.881767  1
  O  O40  1  0.607637  0.385331  0.617480  1
  O  O41  1  0.618431  0.614795  0.392761  1
  O  O42  1  0.607954  0.884643  0.107598  1
  O  O43  1  0.645113  0.366251  0.133298  1
  O  O44  1  0.612872  0.098437  0.883242  1
  O  O45  1  0.639630  0.136525  0.359312  1
  O  O46  1  0.631956  0.863481  0.637167  1
  O  O47  1  0.631037  0.651358  0.862671  1
  O  O48  1  0.868806  0.347662  0.363565  1
  O  O49  1  0.866210  0.134850  0.134217  1
  O  O50  1  0.863616  0.862481  0.859643  1
  O  O51  1  0.885772  0.902725  0.382793  1
  O  O52  1  0.856570  0.633181  0.632995  1
  O  O53  1  0.893278  0.114569  0.612576  1
  O  O54  1  0.881677  0.388718  0.890819  1
  O  O55  1  0.888928  0.613564  0.120880  1
