# generated using pymatgen
data_Li12VCr3P4(CO7)4
_symmetry_space_group_name_H-M   'P 1'
_cell_length_a   8.60011876
_cell_length_b   10.01045253
_cell_length_c   6.48831294
_cell_angle_alpha   90.00000000
_cell_angle_beta   90.00000000
_cell_angle_gamma   85.45602422
_symmetry_Int_Tables_number   1
_chemical_formula_structural   Li12VCr3P4(CO7)4
_chemical_formula_sum   'Li12 V1 Cr3 P4 C4 O28'
_cell_volume   556.83013725
_cell_formula_units_Z   1
loop_
 _symmetry_equiv_pos_site_id
 _symmetry_equiv_pos_as_xyz
  1  'x, y, z'
loop_
 _atom_site_type_symbol
 _atom_site_label
 _atom_site_symmetry_multiplicity
 _atom_site_fract_x
 _atom_site_fract_y
 _atom_site_fract_z
 _atom_site_occupancy
  Li  Li0  1  0.089785  0.379364  0.250000  1
  Li  Li1  1  0.091661  0.880166  0.250000  1
  Li  Li2  1  0.273856  0.123520  0.025446  1
  Li  Li3  1  0.273856  0.123520  0.474554  1
  Li  Li4  1  0.274855  0.623797  0.024843  1
  Li  Li5  1  0.274855  0.623797  0.475157  1
  Li  Li6  1  0.726000  0.376977  0.528279  1
  Li  Li7  1  0.726000  0.376977  0.971721  1
  Li  Li8  1  0.725310  0.875734  0.526787  1
  Li  Li9  1  0.725310  0.875734  0.973213  1
  Li  Li10  1  0.907610  0.120828  0.750000  1
  Li  Li11  1  0.905820  0.620663  0.750000  1
  V  V12  1  0.670213  0.603733  0.250000  1
  Cr  Cr13  1  0.335159  0.392744  0.750000  1
  Cr  Cr14  1  0.335889  0.891146  0.750000  1
  Cr  Cr15  1  0.665267  0.107929  0.250000  1
  P  P16  1  0.411237  0.359143  0.250000  1
  P  P17  1  0.413201  0.857209  0.250000  1
  P  P18  1  0.588924  0.141684  0.750000  1
  P  P19  1  0.589968  0.640715  0.750000  1
  C  C20  1  0.031293  0.352904  0.750000  1
  C  C21  1  0.031146  0.852515  0.750000  1
  C  C22  1  0.968380  0.148320  0.250000  1
  C  C23  1  0.964788  0.649533  0.250000  1
  O  O24  1  0.064166  0.476269  0.750000  1
  O  O25  1  0.113550  0.177931  0.250000  1
  O  O26  1  0.065032  0.976154  0.750000  1
  O  O27  1  0.145410  0.258029  0.750000  1
  O  O28  1  0.110077  0.677185  0.250000  1
  O  O29  1  0.144527  0.757367  0.750000  1
  O  O30  1  0.310931  0.413574  0.062954  1
  O  O31  1  0.310931  0.413574  0.437046  1
  O  O32  1  0.312073  0.911553  0.063619  1
  O  O33  1  0.312073  0.911553  0.436381  1
  O  O34  1  0.421789  0.094541  0.750000  1
  O  O35  1  0.423187  0.203648  0.250000  1
  O  O36  1  0.422112  0.594047  0.750000  1
  O  O37  1  0.427589  0.700608  0.250000  1
  O  O38  1  0.579343  0.297294  0.750000  1
  O  O39  1  0.576963  0.408642  0.250000  1
  O  O40  1  0.578650  0.796605  0.750000  1
  O  O41  1  0.578614  0.905800  0.250000  1
  O  O42  1  0.688185  0.086279  0.937041  1
  O  O43  1  0.688185  0.086279  0.562959  1
  O  O44  1  0.690257  0.584969  0.565678  1
  O  O45  1  0.690257  0.584969  0.934322  1
  O  O46  1  0.857649  0.244954  0.250000  1
  O  O47  1  0.888276  0.320239  0.750000  1
  O  O48  1  0.853733  0.745646  0.250000  1
  O  O49  1  0.933022  0.025481  0.250000  1
  O  O50  1  0.887837  0.820882  0.750000  1
  O  O51  1  0.925199  0.527276  0.250000  1
