# generated using pymatgen
data_Fe4OF7
_symmetry_space_group_name_H-M   'P 1'
_cell_length_a   5.79747023
_cell_length_b   10.16182559
_cell_length_c   5.79732677
_cell_angle_alpha   79.86151353
_cell_angle_beta   67.68917581
_cell_angle_gamma   99.90584802
_symmetry_Int_Tables_number   1
_chemical_formula_structural   Fe4OF7
_chemical_formula_sum   'Fe8 O2 F14'
_cell_volume   300.14657751
_cell_formula_units_Z   2
loop_
 _symmetry_equiv_pos_site_id
 _symmetry_equiv_pos_as_xyz
  1  'x, y, z'
loop_
 _atom_site_type_symbol
 _atom_site_label
 _atom_site_symmetry_multiplicity
 _atom_site_fract_x
 _atom_site_fract_y
 _atom_site_fract_z
 _atom_site_occupancy
  Fe  Fe0  1  0.630728  0.255555  0.846509  1
  Fe  Fe1  1  0.866805  0.749422  0.627626  1
  Fe  Fe2  1  0.244660  0.503505  0.748420  1
  Fe  Fe3  1  0.754395  0.492121  0.265415  1
  Fe  Fe4  1  0.500632  -0.000193  0.482010  1
  Fe  Fe5  1  0.391459  0.755254  0.127038  1
  Fe  Fe6  1  0.118720  0.258575  0.372054  1
  Fe  Fe7  1  0.968584  0.988499  0.017494  1
  O  O8  1  0.808678  0.337918  0.496516  1
  O  O9  1  0.617797  0.904463  0.190786  1
  F  F10  1  0.842505  0.392339  0.950378  1
  F  F11  1  0.916933  0.151887  0.793790  1
  F  F12  1  0.572262  0.851055  0.725063  1
  F  F13  1  0.338065  0.347358  0.956540  1
  F  F14  1  0.919228  0.094265  0.288258  1
  F  F15  1  0.643226  0.604631  0.551253  1
  F  F16  1  0.381512  0.095578  0.807990  1
  F  F17  1  0.087909  0.907404  0.708695  1
  F  F18  1  0.348962  0.404660  0.450471  1
  F  F19  1  0.676557  0.644218  0.027711  1
  F  F20  1  0.168386  0.653189  0.526518  1
  F  F21  1  0.432745  0.161454  0.246207  1
  F  F22  1  0.080749  0.851855  0.221455  1
  F  F23  1  0.154194  0.600320  0.050706  1
