# generated using pymatgen
data_Na5Mn2P(CO4)4
_symmetry_space_group_name_H-M   'P 1'
_cell_length_a   9.90450423
_cell_length_b   9.89790209
_cell_length_c   10.07974647
_cell_angle_alpha   120.56601635
_cell_angle_beta   60.63753131
_cell_angle_gamma   118.80336197
_symmetry_Int_Tables_number   1
_chemical_formula_structural   Na5Mn2P(CO4)4
_chemical_formula_sum   'Na10 Mn4 P2 C8 O32'
_cell_volume   705.06816173
_cell_formula_units_Z   2
loop_
 _symmetry_equiv_pos_site_id
 _symmetry_equiv_pos_as_xyz
  1  'x, y, z'
loop_
 _atom_site_type_symbol
 _atom_site_label
 _atom_site_symmetry_multiplicity
 _atom_site_fract_x
 _atom_site_fract_y
 _atom_site_fract_z
 _atom_site_occupancy
  Na  Na0  1  0.915120  0.179177  0.340772  1
  Na  Na1  1  0.915776  0.165776  0.915776  1
  Na  Na2  1  0.911832  0.582369  0.340306  1
  Na  Na3  1  0.659228  0.423285  0.084880  1
  Na  Na4  1  0.340306  0.169770  0.911832  1
  Na  Na5  1  0.659694  0.830230  0.088168  1
  Na  Na6  1  0.340772  0.576715  0.915120  1
  Na  Na7  1  0.088168  0.417631  0.659694  1
  Na  Na8  1  0.084224  0.834224  0.084224  1
  Na  Na9  1  0.084880  0.820823  0.659228  1
  Mn  Mn10  1  0.500000  0.000000  0.000000  1
  Mn  Mn11  1  0.500000  0.000000  0.500000  1
  Mn  Mn12  1  0.500000  0.500000  0.500000  1
  Mn  Mn13  1  0.000000  0.000000  0.500000  1
  P  P14  1  0.875315  0.625315  0.875315  1
  P  P15  1  0.124685  0.374685  0.124685  1
  C  C16  1  0.711512  0.144911  0.713475  1
  C  C17  1  0.649389  0.219486  0.279453  1
  C  C18  1  0.279453  0.209355  0.649389  1
  C  C19  1  0.286525  0.219925  0.288488  1
  C  C20  1  0.713475  0.780075  0.711512  1
  C  C21  1  0.720547  0.790645  0.350611  1
  C  C22  1  0.350611  0.780514  0.720547  1
  C  C23  1  0.288488  0.855089  0.286525  1
  O  O24  1  0.856714  0.155805  0.692235  1
  O  O25  1  0.657736  0.106589  0.300776  1
  O  O26  1  0.684915  0.127462  0.590621  1
  O  O27  1  0.653378  0.197078  0.139042  1
  O  O28  1  0.600583  0.155428  0.854004  1
  O  O29  1  0.941606  0.561255  0.937115  1
  O  O30  1  0.941191  0.561329  0.686928  1
  O  O31  1  0.645146  0.361494  0.398975  1
  O  O32  1  0.307765  0.106857  0.143286  1
  O  O33  1  0.398975  0.182627  0.645146  1
  O  O34  1  0.937115  0.817467  0.941606  1
  O  O35  1  0.686928  0.566790  0.941191  1
  O  O36  1  0.699224  0.648075  0.342264  1
  O  O37  1  0.854004  0.799160  0.600583  1
  O  O38  1  0.409379  0.351927  0.315085  1
  O  O39  1  0.139042  0.095343  0.653378  1
  O  O40  1  0.860958  0.904657  0.346622  1
  O  O41  1  0.590621  0.648073  0.684915  1
  O  O42  1  0.300776  0.351925  0.657736  1
  O  O43  1  0.145996  0.200840  0.399417  1
  O  O44  1  0.313072  0.433210  0.058809  1
  O  O45  1  0.062885  0.182533  0.058394  1
  O  O46  1  0.601025  0.817373  0.354854  1
  O  O47  1  0.692235  0.893143  0.856714  1
  O  O48  1  0.354854  0.638506  0.601025  1
  O  O49  1  0.058809  0.438671  0.313072  1
  O  O50  1  0.058394  0.438745  0.062885  1
  O  O51  1  0.399417  0.844572  0.145996  1
  O  O52  1  0.346622  0.802922  0.860958  1
  O  O53  1  0.315085  0.872538  0.409379  1
  O  O54  1  0.342264  0.893411  0.699224  1
  O  O55  1  0.143286  0.844195  0.307765  1
