# generated using pymatgen
data_CuH20S2(NO7)2
_symmetry_space_group_name_H-M   'P 1'
_cell_length_a   9.79440711
_cell_length_b   12.73871307
_cell_length_c   6.09557255
_cell_angle_alpha   90.00000000
_cell_angle_beta   106.81979651
_cell_angle_gamma   90.00000000
_symmetry_Int_Tables_number   1
_chemical_formula_structural   CuH20S2(NO7)2
_chemical_formula_sum   'Cu2 H40 S4 N4 O28'
_cell_volume   727.99732476
_cell_formula_units_Z   2
loop_
 _symmetry_equiv_pos_site_id
 _symmetry_equiv_pos_as_xyz
  1  'x, y, z'
loop_
 _atom_site_type_symbol
 _atom_site_label
 _atom_site_symmetry_multiplicity
 _atom_site_fract_x
 _atom_site_fract_y
 _atom_site_fract_z
 _atom_site_occupancy
  Cu  Cu0  1  0.500000  0.500000  0.000000  1
  Cu  Cu1  1  0.000000  0.000000  0.000000  1
  H  H2  1  0.555959  0.159363  0.225718  1
  H  H3  1  0.944041  0.659363  0.774282  1
  H  H4  1  0.444041  0.840637  0.774282  1
  H  H5  1  0.055959  0.340637  0.225718  1
  H  H6  1  0.715015  0.196371  0.417584  1
  H  H7  1  0.784985  0.696371  0.582416  1
  H  H8  1  0.284985  0.803629  0.582416  1
  H  H9  1  0.215015  0.303629  0.417584  1
  H  H10  1  0.590612  0.131528  0.508572  1
  H  H11  1  0.909388  0.631528  0.491428  1
  H  H12  1  0.409388  0.868472  0.491428  1
  H  H13  1  0.090612  0.368472  0.508572  1
  H  H14  1  0.680633  0.067460  0.352191  1
  H  H15  1  0.819367  0.567460  0.647810  1
  H  H16  1  0.319367  0.932540  0.647810  1
  H  H17  1  0.180633  0.432540  0.352191  1
  H  H18  1  0.690277  0.411191  0.325867  1
  H  H19  1  0.809723  0.911191  0.674133  1
  H  H20  1  0.309723  0.588809  0.674133  1
  H  H21  1  0.190277  0.088809  0.325867  1
  H  H22  1  0.724972  0.379110  0.088580  1
  H  H23  1  0.775028  0.879110  0.911420  1
  H  H24  1  0.275028  0.620890  0.911420  1
  H  H25  1  0.224972  0.120890  0.088580  1
  H  H26  1  0.220013  0.398549  0.946676  1
  H  H27  1  0.279987  0.898549  0.053324  1
  H  H28  1  0.779987  0.601451  0.053324  1
  H  H29  1  0.720013  0.101451  0.946676  1
  H  H30  1  0.341416  0.313185  0.014565  1
  H  H31  1  0.158584  0.813185  0.985435  1
  H  H32  1  0.658584  0.686815  0.985435  1
  H  H33  1  0.841416  0.186815  0.014565  1
  H  H34  1  0.384132  0.114593  0.326268  1
  H  H35  1  0.115868  0.614593  0.673732  1
  H  H36  1  0.615868  0.885407  0.673732  1
  H  H37  1  0.884132  0.385407  0.326268  1
  H  H38  1  0.535079  0.632375  0.285855  1
  H  H39  1  0.964921  0.132375  0.714145  1
  H  H40  1  0.464921  0.367625  0.714145  1
  H  H41  1  0.035079  0.867625  0.285855  1
  S  S42  1  0.891409  0.357993  0.742783  1
  S  S43  1  0.608591  0.857993  0.257217  1
  S  S44  1  0.108591  0.642007  0.257217  1
  S  S45  1  0.391409  0.142007  0.742783  1
  N  N46  1  0.635814  0.139817  0.374470  1
  N  N47  1  0.864186  0.639817  0.625530  1
  N  N48  1  0.364186  0.860183  0.625530  1
  N  N49  1  0.135814  0.360183  0.374470  1
  O  O50  1  0.885685  0.261275  0.599554  1
  O  O51  1  0.614315  0.761275  0.400446  1
  O  O52  1  0.114315  0.738725  0.400446  1
  O  O53  1  0.385685  0.238725  0.599554  1
  O  O54  1  0.030831  0.411763  0.774324  1
  O  O55  1  0.469169  0.911763  0.225676  1
  O  O56  1  0.969169  0.588237  0.225676  1
  O  O57  1  0.530831  0.088237  0.774324  1
  O  O58  1  0.771855  0.428631  0.625999  1
  O  O59  1  0.728145  0.928631  0.374001  1
  O  O60  1  0.228145  0.571369  0.374001  1
  O  O61  1  0.271855  0.071369  0.625999  1
  O  O62  1  0.876033  0.325177  0.972388  1
  O  O63  1  0.623967  0.825177  0.027612  1
  O  O64  1  0.123967  0.674823  0.027612  1
  O  O65  1  0.376033  0.174823  0.972388  1
  O  O66  1  0.646844  0.390063  0.160803  1
  O  O67  1  0.853156  0.890063  0.839197  1
  O  O68  1  0.353156  0.609937  0.839197  1
  O  O69  1  0.146844  0.109937  0.160803  1
  O  O70  1  0.318501  0.386644  0.044085  1
  O  O71  1  0.181499  0.886644  0.955915  1
  O  O72  1  0.681499  0.613356  0.955915  1
  O  O73  1  0.818501  0.113356  0.044085  1
  O  O74  1  0.511388  0.556322  0.277403  1
  O  O75  1  0.988612  0.056322  0.722597  1
  O  O76  1  0.488612  0.443678  0.722597  1
  O  O77  1  0.011388  0.943678  0.277403  1
