# generated using pymatgen
data_Mn21Sn9O40
_symmetry_space_group_name_H-M   'P 1'
_cell_length_a   10.98028700
_cell_length_b   8.97280508
_cell_length_c   10.98028700
_cell_angle_alpha   114.11610043
_cell_angle_beta   80.38985662
_cell_angle_gamma   114.11610043
_symmetry_Int_Tables_number   1
_chemical_formula_structural   Mn21Sn9O40
_chemical_formula_sum   'Mn21 Sn9 O40'
_cell_volume   901.21866716
_cell_formula_units_Z   1
loop_
 _symmetry_equiv_pos_site_id
 _symmetry_equiv_pos_as_xyz
  1  'x, y, z'
loop_
 _atom_site_type_symbol
 _atom_site_label
 _atom_site_symmetry_multiplicity
 _atom_site_fract_x
 _atom_site_fract_y
 _atom_site_fract_z
 _atom_site_occupancy
  Mn  Mn0  1  0.052173  0.578440  0.853500  1
  Mn  Mn1  1  0.251489  0.877017  0.753632  1
  Mn  Mn2  1  0.349724  0.270303  0.950490  1
  Mn  Mn3  1  0.150144  0.474742  0.549733  1
  Mn  Mn4  1  0.053500  0.075060  0.347827  1
  Mn  Mn5  1  0.546500  0.073733  0.852173  1
  Mn  Mn6  1  0.449856  0.174865  0.650267  1
  Mn  Mn7  1  0.150490  0.480187  0.050276  1
  Mn  Mn8  1  0.348511  0.271896  0.446368  1
  Mn  Mn9  1  0.250276  0.370090  0.249510  1
  Mn  Mn10  1  0.300000  0.950000  0.100000  1
  Mn  Mn11  1  0.449510  0.679421  0.149724  1
  Mn  Mn12  1  0.850267  0.275402  0.950144  1
  Mn  Mn13  1  0.649627  0.474785  0.550184  1
  Mn  Mn14  1  0.750184  0.875399  0.750373  1
  Mn  Mn15  1  0.547827  0.072767  0.346500  1
  Mn  Mn16  1  0.950373  0.674975  0.649816  1
  Mn  Mn17  1  0.849816  0.774841  0.449627  1
  Mn  Mn18  1  0.749733  0.874991  0.249856  1
  Mn  Mn19  1  0.646368  0.974472  0.051489  1
  Mn  Mn20  1  0.953632  0.676616  0.148511  1
  Sn  Sn21  1  0.099888  0.149903  0.699909  1
  Sn  Sn22  1  0.000883  0.000907  0.000654  1
  Sn  Sn23  1  0.399346  0.599975  0.800883  1
  Sn  Sn24  1  0.200654  0.799747  0.399117  1
  Sn  Sn25  1  0.500112  0.750106  0.500091  1
  Sn  Sn26  1  0.700091  0.549985  0.899888  1
  Sn  Sn27  1  0.800000  0.200000  0.600000  1
  Sn  Sn28  1  0.599117  0.399371  0.199346  1
  Sn  Sn29  1  0.899909  0.350006  0.300112  1
  O  O30  1  0.047245  0.329624  0.855242  1
  O  O31  1  0.051135  0.818919  0.844381  1
  O  O32  1  0.348241  0.517523  0.954769  1
  O  O33  1  0.044381  0.825463  0.348865  1
  O  O34  1  0.150215  0.725747  0.557136  1
  O  O35  1  0.244502  0.625323  0.747812  1
  O  O36  1  0.254864  0.124488  0.751806  1
  O  O37  1  0.151521  0.227590  0.545301  1
  O  O38  1  0.353833  0.032720  0.938313  1
  O  O39  1  0.055242  0.325618  0.352755  1
  O  O40  1  0.345136  0.517817  0.448194  1
  O  O41  1  0.448479  0.930768  0.654699  1
  O  O42  1  0.544758  0.317622  0.847245  1
  O  O43  1  0.246167  0.140574  0.261687  1
  O  O44  1  0.138313  0.705593  0.046167  1
  O  O45  1  0.555619  0.832217  0.851135  1
  O  O46  1  0.449785  0.418396  0.642864  1
  O  O47  1  0.355498  0.033010  0.452188  1
  O  O48  1  0.251759  0.614513  0.245231  1
  O  O49  1  0.154769  0.237246  0.051759  1
  O  O50  1  0.842864  0.024468  0.950215  1
  O  O51  1  0.548865  0.323401  0.355619  1
  O  O52  1  0.644370  0.223461  0.545249  1
  O  O53  1  0.445231  0.430718  0.148241  1
  O  O54  1  0.745249  0.121787  0.755630  1
  O  O55  1  0.854699  0.523931  0.951521  1
  O  O56  1  0.751133  0.626600  0.743918  1
  O  O57  1  0.552755  0.827137  0.344758  1
  O  O58  1  0.656082  0.724533  0.551133  1
  O  O59  1  0.461687  0.921113  0.153833  1
  O  O60  1  0.943918  0.917317  0.648867  1
  O  O61  1  0.648194  0.730377  0.054864  1
  O  O62  1  0.848867  0.531549  0.456082  1
  O  O63  1  0.745301  0.117711  0.248479  1
  O  O64  1  0.854751  0.020909  0.444370  1
  O  O65  1  0.652188  0.219178  0.044502  1
  O  O66  1  0.955630  0.433843  0.654751  1
  O  O67  1  0.757136  0.631389  0.249785  1
  O  O68  1  0.947812  0.922489  0.155498  1
  O  O69  1  0.951806  0.427319  0.145136  1
