# generated using pymatgen
data_TbFeGe2O7
_symmetry_space_group_name_H-M   'P 1'
_cell_length_a   6.75538450
_cell_length_b   8.70048075
_cell_length_c   9.82317273
_cell_angle_alpha   90.00000000
_cell_angle_beta   100.31334651
_cell_angle_gamma   90.00000000
_symmetry_Int_Tables_number   1
_chemical_formula_structural   TbFeGe2O7
_chemical_formula_sum   'Tb4 Fe4 Ge8 O28'
_cell_volume   568.02972556
_cell_formula_units_Z   4
loop_
 _symmetry_equiv_pos_site_id
 _symmetry_equiv_pos_as_xyz
  1  'x, y, z'
loop_
 _atom_site_type_symbol
 _atom_site_label
 _atom_site_symmetry_multiplicity
 _atom_site_fract_x
 _atom_site_fract_y
 _atom_site_fract_z
 _atom_site_occupancy
  Tb  Tb0  1  0.251584  0.042226  0.248769  1
  Tb  Tb1  1  0.748416  0.542226  0.751231  1
  Tb  Tb2  1  0.748416  0.957774  0.751231  1
  Tb  Tb3  1  0.251584  0.457774  0.248769  1
  Fe  Fe4  1  0.247889  0.448676  0.749332  1
  Fe  Fe5  1  0.752111  0.551324  0.250668  1
  Fe  Fe6  1  0.247889  0.051324  0.749332  1
  Fe  Fe7  1  0.752111  0.948676  0.250668  1
  Ge  Ge8  1  0.450119  0.750000  0.970456  1
  Ge  Ge9  1  0.518397  0.750000  0.446419  1
  Ge  Ge10  1  0.027978  0.250000  0.946152  1
  Ge  Ge11  1  0.042876  0.750000  0.528553  1
  Ge  Ge12  1  0.481603  0.250000  0.553581  1
  Ge  Ge13  1  0.549881  0.250000  0.029544  1
  Ge  Ge14  1  0.957124  0.250000  0.471447  1
  Ge  Ge15  1  0.972022  0.750000  0.053848  1
  O  O16  1  0.036843  0.913331  0.637428  1
  O  O17  1  0.755120  0.250000  0.568078  1
  O  O18  1  0.531292  0.573871  0.358372  1
  O  O19  1  0.545244  0.413465  0.138357  1
  O  O20  1  0.454756  0.586535  0.861643  1
  O  O21  1  0.531292  0.926129  0.358372  1
  O  O22  1  0.545244  0.086535  0.138357  1
  O  O23  1  0.845285  0.750000  0.379973  1
  O  O24  1  0.356848  0.250000  0.381728  1
  O  O25  1  0.643152  0.750000  0.618272  1
  O  O26  1  0.967836  0.571086  0.139314  1
  O  O27  1  0.248432  0.750000  0.066722  1
  O  O28  1  0.468708  0.426129  0.641628  1
  O  O29  1  0.454756  0.913465  0.861643  1
  O  O30  1  0.656145  0.750000  0.114891  1
  O  O31  1  0.032164  0.071086  0.860686  1
  O  O32  1  0.751568  0.250000  0.933278  1
  O  O33  1  0.847246  0.750000  0.881796  1
  O  O34  1  0.154715  0.250000  0.620027  1
  O  O35  1  0.036843  0.586669  0.637428  1
  O  O36  1  0.468708  0.073871  0.641628  1
  O  O37  1  0.032164  0.428914  0.860686  1
  O  O38  1  0.244880  0.750000  0.431922  1
  O  O39  1  0.152754  0.250000  0.118204  1
  O  O40  1  0.963157  0.413331  0.362572  1
  O  O41  1  0.963157  0.086669  0.362572  1
  O  O42  1  0.343855  0.250000  0.885109  1
  O  O43  1  0.967836  0.928914  0.139314  1
