# generated using pymatgen
data_Li7Fe2P7O24
_symmetry_space_group_name_H-M   'P 1'
_cell_length_a   15.06291813
_cell_length_b   5.08712114
_cell_length_c   12.11112643
_cell_angle_alpha   90.00000000
_cell_angle_beta   96.26523269
_cell_angle_gamma   90.00000000
_symmetry_Int_Tables_number   1
_chemical_formula_structural   Li7Fe2P7O24
_chemical_formula_sum   'Li14 Fe4 P14 O48'
_cell_volume   922.49510680
_cell_formula_units_Z   2
loop_
 _symmetry_equiv_pos_site_id
 _symmetry_equiv_pos_as_xyz
  1  'x, y, z'
loop_
 _atom_site_type_symbol
 _atom_site_label
 _atom_site_symmetry_multiplicity
 _atom_site_fract_x
 _atom_site_fract_y
 _atom_site_fract_z
 _atom_site_occupancy
  Li  Li0  1  0.052953  0.744571  0.516581  1
  Li  Li1  1  0.136984  0.797866  0.885156  1
  Li  Li2  1  0.052953  0.255429  0.016581  1
  Li  Li3  1  0.136984  0.202134  0.385156  1
  Li  Li4  1  0.406925  0.168919  0.569246  1
  Li  Li5  1  0.406925  0.831081  0.069246  1
  Li  Li6  1  0.500000  0.699863  0.750000  1
  Li  Li7  1  0.500000  0.300137  0.250000  1
  Li  Li8  1  0.593075  0.168919  0.930754  1
  Li  Li9  1  0.593075  0.831081  0.430754  1
  Li  Li10  1  0.863016  0.797866  0.614844  1
  Li  Li11  1  0.947047  0.744571  0.983419  1
  Li  Li12  1  0.863016  0.202134  0.114844  1
  Li  Li13  1  0.947047  0.255429  0.483419  1
  Fe  Fe14  1  0.282194  0.631274  0.703952  1
  Fe  Fe15  1  0.282194  0.368726  0.203952  1
  Fe  Fe16  1  0.717806  0.631274  0.796048  1
  Fe  Fe17  1  0.717806  0.368726  0.296048  1
  P  P18  1  0.000000  0.451536  0.750000  1
  P  P19  1  0.000000  0.548464  0.250000  1
  P  P20  1  0.139973  0.131371  0.659110  1
  P  P21  1  0.139973  0.868629  0.159110  1
  P  P22  1  0.273752  0.382358  0.953165  1
  P  P23  1  0.273752  0.617642  0.453165  1
  P  P24  1  0.393916  0.133702  0.808939  1
  P  P25  1  0.393916  0.866298  0.308939  1
  P  P26  1  0.606084  0.133702  0.691061  1
  P  P27  1  0.606084  0.866298  0.191061  1
  P  P28  1  0.726248  0.382358  0.546835  1
  P  P29  1  0.726248  0.617642  0.046835  1
  P  P30  1  0.860027  0.131371  0.840890  1
  P  P31  1  0.860027  0.868629  0.340890  1
  O  O32  1  0.015431  0.599688  0.858485  1
  O  O33  1  0.015431  0.400312  0.358485  1
  O  O34  1  0.082039  0.249968  0.753773  1
  O  O35  1  0.080313  0.125936  0.549215  1
  O  O36  1  0.082039  0.750032  0.253773  1
  O  O37  1  0.080313  0.874064  0.049215  1
  O  O38  1  0.167990  0.863442  0.710064  1
  O  O39  1  0.188997  0.275640  0.990748  1
  O  O40  1  0.219370  0.314694  0.657048  1
  O  O41  1  0.167990  0.136558  0.210064  1
  O  O42  1  0.188997  0.724360  0.490748  1
  O  O43  1  0.256595  0.601799  0.865258  1
  O  O44  1  0.219370  0.685306  0.157048  1
  O  O45  1  0.256595  0.398202  0.365258  1
  O  O46  1  0.318232  0.133447  0.893783  1
  O  O47  1  0.318232  0.866553  0.393783  1
  O  O48  1  0.358907  0.948040  0.711703  1
  O  O49  1  0.343968  0.533495  0.549350  1
  O  O50  1  0.401249  0.416793  0.765200  1
  O  O51  1  0.358907  0.051960  0.211703  1
  O  O52  1  0.343968  0.466505  0.049350  1
  O  O53  1  0.401249  0.583207  0.265200  1
  O  O54  1  0.477638  0.021008  0.871758  1
  O  O55  1  0.477638  0.978992  0.371758  1
  O  O56  1  0.522362  0.021008  0.628242  1
  O  O57  1  0.522362  0.978992  0.128242  1
  O  O58  1  0.598751  0.416793  0.734800  1
  O  O59  1  0.656032  0.533495  0.950650  1
  O  O60  1  0.641093  0.948040  0.788297  1
  O  O61  1  0.598751  0.583207  0.234800  1
  O  O62  1  0.656032  0.466505  0.450650  1
  O  O63  1  0.641093  0.051960  0.288297  1
  O  O64  1  0.681768  0.133447  0.606217  1
  O  O65  1  0.681768  0.866553  0.106217  1
  O  O66  1  0.743405  0.601799  0.634742  1
  O  O67  1  0.780630  0.314694  0.842952  1
  O  O68  1  0.743405  0.398202  0.134742  1
  O  O69  1  0.811003  0.275640  0.509252  1
  O  O70  1  0.832010  0.863442  0.789936  1
  O  O71  1  0.780630  0.685306  0.342952  1
  O  O72  1  0.811003  0.724360  0.009252  1
  O  O73  1  0.832010  0.136558  0.289936  1
  O  O74  1  0.919687  0.125936  0.950785  1
  O  O75  1  0.917961  0.249968  0.746227  1
  O  O76  1  0.919687  0.874064  0.450785  1
  O  O77  1  0.917961  0.750032  0.246227  1
  O  O78  1  0.984569  0.599688  0.641515  1
  O  O79  1  0.984569  0.400312  0.141515  1
