# generated using pymatgen
data_LiCuPO4
_symmetry_space_group_name_H-M   'P 1'
_cell_length_a   4.26697309
_cell_length_b   15.00417814
_cell_length_c   4.58328237
_cell_angle_alpha   90.00000000
_cell_angle_beta   90.00000000
_cell_angle_gamma   90.00000000
_symmetry_Int_Tables_number   1
_chemical_formula_structural   LiCuPO4
_chemical_formula_sum   'Li4 Cu4 P4 O16'
_cell_volume   293.43284886
_cell_formula_units_Z   4
loop_
 _symmetry_equiv_pos_site_id
 _symmetry_equiv_pos_as_xyz
  1  'x, y, z'
loop_
 _atom_site_type_symbol
 _atom_site_label
 _atom_site_symmetry_multiplicity
 _atom_site_fract_x
 _atom_site_fract_y
 _atom_site_fract_z
 _atom_site_occupancy
  Li  Li0  1  0.000000  0.247058  0.750000  1
  Li  Li1  1  0.000000  0.752942  0.250000  1
  Li  Li2  1  0.500000  0.252942  0.250000  1
  Li  Li3  1  0.500000  0.747058  0.750000  1
  Cu  Cu4  1  0.000000  0.071057  0.250000  1
  Cu  Cu5  1  0.000000  0.928943  0.750000  1
  Cu  Cu6  1  0.500000  0.428943  0.750000  1
  Cu  Cu7  1  0.500000  0.571057  0.250000  1
  P  P8  1  0.000000  0.386405  0.250000  1
  P  P9  1  0.000000  0.613595  0.750000  1
  P  P10  1  0.500000  0.886405  0.250000  1
  P  P11  1  0.500000  0.113595  0.750000  1
  O  O12  1  0.190139  0.327540  0.467095  1
  O  O13  1  0.190139  0.672460  0.967095  1
  O  O14  1  0.265748  0.054434  0.577985  1
  O  O15  1  0.265748  0.945566  0.077985  1
  O  O16  1  0.234252  0.445566  0.077985  1
  O  O17  1  0.234252  0.554434  0.577985  1
  O  O18  1  0.309861  0.172460  0.967095  1
  O  O19  1  0.309861  0.827540  0.467095  1
  O  O20  1  0.690139  0.172460  0.532905  1
  O  O21  1  0.690139  0.827540  0.032905  1
  O  O22  1  0.765748  0.554434  0.922015  1
  O  O23  1  0.765748  0.445566  0.422015  1
  O  O24  1  0.734252  0.054434  0.922015  1
  O  O25  1  0.734252  0.945566  0.422015  1
  O  O26  1  0.809861  0.327540  0.032905  1
  O  O27  1  0.809861  0.672460  0.532905  1
