# generated using pymatgen
data_Th4P6O23
_symmetry_space_group_name_H-M   'P 1'
_cell_length_a   12.96819756
_cell_length_b   10.50477793
_cell_length_c   7.16150127
_cell_angle_alpha   90.00000000
_cell_angle_beta   90.00000000
_cell_angle_gamma   90.00000000
_symmetry_Int_Tables_number   1
_chemical_formula_structural   Th4P6O23
_chemical_formula_sum   'Th8 P12 O46'
_cell_volume   975.59724939
_cell_formula_units_Z   2
loop_
 _symmetry_equiv_pos_site_id
 _symmetry_equiv_pos_as_xyz
  1  'x, y, z'
loop_
 _atom_site_type_symbol
 _atom_site_label
 _atom_site_symmetry_multiplicity
 _atom_site_fract_x
 _atom_site_fract_y
 _atom_site_fract_z
 _atom_site_occupancy
  Th  Th0  1  0.085644  0.511403  0.750000  1
  Th  Th1  1  0.183573  0.977607  0.250000  1
  Th  Th2  1  0.316067  0.978491  0.750000  1
  Th  Th3  1  0.411527  0.509480  0.250000  1
  Th  Th4  1  0.585644  0.488597  0.750000  1
  Th  Th5  1  0.683573  0.022392  0.250000  1
  Th  Th6  1  0.816067  0.021509  0.750000  1
  Th  Th7  1  0.911528  0.490520  0.250000  1
  P  P8  1  0.083088  0.875058  0.750000  1
  P  P9  1  0.134883  0.624933  0.250000  1
  P  P10  1  0.256588  0.276627  0.539018  1
  P  P11  1  0.256588  0.276627  0.960982  1
  P  P12  1  0.364292  0.626164  0.750000  1
  P  P13  1  0.417179  0.874358  0.250000  1
  P  P14  1  0.583088  0.124942  0.750000  1
  P  P15  1  0.634883  0.375067  0.250000  1
  P  P16  1  0.756588  0.723373  0.960982  1
  P  P17  1  0.756588  0.723373  0.539018  1
  P  P18  1  0.864292  0.373836  0.750000  1
  P  P19  1  0.917179  0.125642  0.250000  1
  O  O20  1  0.019750  0.050841  0.250000  1
  O  O21  1  0.062418  0.732575  0.750000  1
  O  O22  1  0.070023  0.575473  0.081440  1
  O  O23  1  0.070023  0.575473  0.418560  1
  O  O24  1  0.139554  0.770654  0.250000  1
  O  O25  1  0.153170  0.917872  0.582834  1
  O  O26  1  0.153170  0.917872  0.917166  1
  O  O27  1  0.154722  0.346527  0.946253  1
  O  O28  1  0.154722  0.346527  0.553747  1
  O  O29  1  0.244393  0.571160  0.250000  1
  O  O30  1  0.244495  0.136920  0.473184  1
  O  O31  1  0.244495  0.136920  0.026816  1
  O  O32  1  0.255064  0.570592  0.750000  1
  O  O33  1  0.301433  0.248755  0.750000  1
  O  O34  1  0.342170  0.346338  0.059989  1
  O  O35  1  0.342170  0.346338  0.440011  1
  O  O36  1  0.348022  0.917400  0.080820  1
  O  O37  1  0.348022  0.917400  0.419180  1
  O  O38  1  0.358889  0.772350  0.750000  1
  O  O39  1  0.429117  0.576232  0.917992  1
  O  O40  1  0.429117  0.576232  0.582008  1
  O  O41  1  0.436982  0.731679  0.250000  1
  O  O42  1  0.480346  0.049756  0.750000  1
  O  O43  1  0.519750  0.949159  0.250000  1
  O  O44  1  0.562418  0.267425  0.750000  1
  O  O45  1  0.570023  0.424527  0.081440  1
  O  O46  1  0.570023  0.424527  0.418560  1
  O  O47  1  0.639554  0.229346  0.250000  1
  O  O48  1  0.653170  0.082128  0.582834  1
  O  O49  1  0.653170  0.082128  0.917166  1
  O  O50  1  0.654722  0.653473  0.553747  1
  O  O51  1  0.654722  0.653473  0.946253  1
  O  O52  1  0.744393  0.428840  0.250000  1
  O  O53  1  0.744495  0.863080  0.026816  1
  O  O54  1  0.744495  0.863080  0.473184  1
  O  O55  1  0.755064  0.429408  0.750000  1
  O  O56  1  0.801433  0.751245  0.750000  1
  O  O57  1  0.842170  0.653662  0.059989  1
  O  O58  1  0.842170  0.653662  0.440011  1
  O  O59  1  0.848022  0.082600  0.080820  1
  O  O60  1  0.848022  0.082600  0.419180  1
  O  O61  1  0.858889  0.227650  0.750000  1
  O  O62  1  0.929117  0.423768  0.582008  1
  O  O63  1  0.929117  0.423768  0.917992  1
  O  O64  1  0.936982  0.268321  0.250000  1
  O  O65  1  0.980346  0.950244  0.750000  1
