# generated using pymatgen
data_Li2CrP2O7
_symmetry_space_group_name_H-M   'P 1'
_cell_length_a   9.91448746
_cell_length_b   9.86951398
_cell_length_c   11.41667362
_cell_angle_alpha   89.96292939
_cell_angle_beta   102.24969622
_cell_angle_gamma   89.88705225
_symmetry_Int_Tables_number   1
_chemical_formula_structural   Li2CrP2O7
_chemical_formula_sum   'Li16 Cr8 P16 O56'
_cell_volume   1091.69746283
_cell_formula_units_Z   8
loop_
 _symmetry_equiv_pos_site_id
 _symmetry_equiv_pos_as_xyz
  1  'x, y, z'
loop_
 _atom_site_type_symbol
 _atom_site_label
 _atom_site_symmetry_multiplicity
 _atom_site_fract_x
 _atom_site_fract_y
 _atom_site_fract_z
 _atom_site_occupancy
  Li  Li0  1  0.110016  0.720007  0.445665  1
  Li  Li1  1  0.170386  0.423907  0.546568  1
  Li  Li2  1  0.084992  0.107665  0.026152  1
  Li  Li3  1  0.341219  0.911959  0.958423  1
  Li  Li4  1  0.157648  0.410722  0.041767  1
  Li  Li5  1  0.415734  0.608580  0.972975  1
  Li  Li6  1  0.329494  0.923113  0.453538  1
  Li  Li7  1  0.389854  0.221004  0.553657  1
  Li  Li8  1  0.610146  0.778996  0.446343  1
  Li  Li9  1  0.670506  0.076887  0.546462  1
  Li  Li10  1  0.584266  0.391420  0.027025  1
  Li  Li11  1  0.842352  0.589278  0.958233  1
  Li  Li12  1  0.658781  0.088041  0.041577  1
  Li  Li13  1  0.915008  0.892335  0.973848  1
  Li  Li14  1  0.829614  0.576093  0.453432  1
  Li  Li15  1  0.889984  0.279993  0.554335  1
  Cr  Cr16  1  0.200640  0.925410  0.672236  1
  Cr  Cr17  1  0.268520  0.215615  0.827289  1
  Cr  Cr18  1  0.231105  0.715109  0.172533  1
  Cr  Cr19  1  0.299386  0.425204  0.327430  1
  Cr  Cr20  1  0.700614  0.574796  0.672570  1
  Cr  Cr21  1  0.768895  0.284891  0.827467  1
  Cr  Cr22  1  0.731480  0.784385  0.172711  1
  Cr  Cr23  1  0.799360  0.074590  0.327764  1
  P  P24  1  0.028860  0.450595  0.761823  1
  P  P25  1  0.118937  0.701850  0.895181  1
  P  P26  1  0.059231  0.937954  0.244893  1
  P  P27  1  0.125148  0.155278  0.423760  1
  P  P28  1  0.375237  0.655481  0.577879  1
  P  P29  1  0.440926  0.437540  0.755585  1
  P  P30  1  0.529760  0.050344  0.762083  1
  P  P31  1  0.381413  0.201033  0.104000  1
  P  P32  1  0.618587  0.798967  0.896000  1
  P  P33  1  0.470240  0.949656  0.237917  1
  P  P34  1  0.559074  0.562460  0.244415  1
  P  P35  1  0.624763  0.344519  0.422121  1
  P  P36  1  0.874852  0.844722  0.576240  1
  P  P37  1  0.940769  0.062046  0.755107  1
  P  P38  1  0.881063  0.298150  0.104819  1
  P  P39  1  0.971140  0.549405  0.238177  1
  O  O40  1  0.024484  0.415664  0.631583  1
  O  O41  1  0.021158  0.837143  0.553972  1
  O  O42  1  0.083236  0.079104  0.723936  1
  O  O43  1  0.121223  0.358745  0.854445  1
  O  O44  1  0.094445  0.600330  0.779272  1
  O  O45  1  0.182500  0.827706  0.852644  1
  O  O46  1  0.222570  0.627932  0.998417  1
  O  O47  1  0.019683  0.279947  0.071354  1
  O  O48  1  0.117668  0.085834  0.293773  1
  O  O49  1  0.059595  0.939654  0.112814  1
  O  O50  1  0.119524  0.541188  0.210920  1
  O  O51  1  0.186677  0.297094  0.415117  1
  O  O52  1  0.163456  0.830470  0.311535  1
  O  O53  1  0.228990  0.070909  0.513412  1
  O  O54  1  0.270839  0.572352  0.488158  1
  O  O55  1  0.336244  0.331172  0.688585  1
  O  O56  1  0.315285  0.798079  0.586476  1
  O  O57  1  0.381867  0.043246  0.789806  1
  O  O58  1  0.382399  0.586089  0.707773  1
  O  O59  1  0.440775  0.438664  0.887665  1
  O  O60  1  0.479772  0.781830  0.929007  1
  O  O61  1  0.277878  0.127116  0.000904  1
  O  O62  1  0.317840  0.327780  0.145338  1
  O  O63  1  0.405001  0.099979  0.220324  1
  O  O64  1  0.416957  0.579635  0.276370  1
  O  O65  1  0.376953  0.858638  0.145609  1
  O  O66  1  0.525116  0.085206  0.631655  1
  O  O67  1  0.478251  0.338627  0.444345  1
  O  O68  1  0.521749  0.661373  0.555655  1
  O  O69  1  0.474884  0.914794  0.368345  1
  O  O70  1  0.623047  0.141362  0.854391  1
  O  O71  1  0.583043  0.420365  0.723630  1
  O  O72  1  0.594999  0.900021  0.779676  1
  O  O73  1  0.682160  0.672220  0.854662  1
  O  O74  1  0.722122  0.872884  0.999096  1
  O  O75  1  0.520228  0.218170  0.070993  1
  O  O76  1  0.559225  0.561336  0.112335  1
  O  O77  1  0.617601  0.413911  0.292227  1
  O  O78  1  0.618133  0.956754  0.210194  1
  O  O79  1  0.684715  0.201921  0.413524  1
  O  O80  1  0.663756  0.668828  0.311415  1
  O  O81  1  0.729161  0.427648  0.511842  1
  O  O82  1  0.771010  0.929091  0.486588  1
  O  O83  1  0.836544  0.169530  0.688465  1
  O  O84  1  0.813323  0.702906  0.584883  1
  O  O85  1  0.880476  0.458812  0.789080  1
  O  O86  1  0.940405  0.060346  0.887186  1
  O  O87  1  0.882332  0.914166  0.706227  1
  O  O88  1  0.980317  0.720053  0.928646  1
  O  O89  1  0.777430  0.372068  0.001583  1
  O  O90  1  0.817500  0.172294  0.147356  1
  O  O91  1  0.905555  0.399670  0.220728  1
  O  O92  1  0.878777  0.641255  0.145555  1
  O  O93  1  0.916764  0.920896  0.276064  1
  O  O94  1  0.978842  0.162857  0.446028  1
  O  O95  1  0.975516  0.584336  0.368417  1
