# generated using pymatgen
data_SrNd2O4
_symmetry_space_group_name_H-M   'P 1'
_cell_length_a   7.19580554
_cell_length_b   7.20796428
_cell_length_c   7.19580554
_cell_angle_alpha   60.05578476
_cell_angle_beta   90.00000000
_cell_angle_gamma   119.94421524
_symmetry_Int_Tables_number   1
_chemical_formula_structural   SrNd2O4
_chemical_formula_sum   'Sr2 Nd4 O8'
_cell_volume   264.35480208
_cell_formula_units_Z   2
loop_
 _symmetry_equiv_pos_site_id
 _symmetry_equiv_pos_as_xyz
  1  'x, y, z'
loop_
 _atom_site_type_symbol
 _atom_site_label
 _atom_site_symmetry_multiplicity
 _atom_site_fract_x
 _atom_site_fract_y
 _atom_site_fract_z
 _atom_site_occupancy
  Sr  Sr0  1  0.625000  0.750000  0.125000  1
  Sr  Sr1  1  0.375000  0.250000  0.875000  1
  Nd  Nd2  1  0.000000  0.500000  0.000000  1
  Nd  Nd3  1  0.500000  0.000000  0.500000  1
  Nd  Nd4  1  0.000000  0.000000  0.500000  1
  Nd  Nd5  1  0.000000  0.500000  0.500000  1
  O  O6  1  0.765004  0.030370  0.263531  1
  O  O7  1  0.763532  0.469630  0.265366  1
  O  O8  1  0.206098  0.469630  0.265004  1
  O  O9  1  0.234634  0.969630  0.293902  1
  O  O10  1  0.765366  0.030370  0.706098  1
  O  O11  1  0.793902  0.530370  0.734996  1
  O  O12  1  0.236468  0.530370  0.734634  1
  O  O13  1  0.234995  0.969630  0.736468  1
