# generated using pymatgen
data_LiMn2(CO4)2
_symmetry_space_group_name_H-M   'P 1'
_cell_length_a   9.30277596
_cell_length_b   9.76382194
_cell_length_c   6.38742540
_cell_angle_alpha   71.12210840
_cell_angle_beta   90.00000000
_cell_angle_gamma   90.00000000
_symmetry_Int_Tables_number   1
_chemical_formula_structural   LiMn2(CO4)2
_chemical_formula_sum   'Li4 Mn8 C8 O32'
_cell_volume   548.96659035
_cell_formula_units_Z   4
loop_
 _symmetry_equiv_pos_site_id
 _symmetry_equiv_pos_as_xyz
  1  'x, y, z'
loop_
 _atom_site_type_symbol
 _atom_site_label
 _atom_site_symmetry_multiplicity
 _atom_site_fract_x
 _atom_site_fract_y
 _atom_site_fract_z
 _atom_site_occupancy
  Li  Li0  1  0.897872  0.684477  0.290491  1
  Li  Li1  1  0.602128  0.184477  0.790491  1
  Li  Li2  1  0.397872  0.815523  0.709509  1
  Li  Li3  1  0.102128  0.315523  0.209509  1
  Mn  Mn4  1  0.876898  0.055501  0.098777  1
  Mn  Mn5  1  0.883246  0.067572  0.590128  1
  Mn  Mn6  1  0.623102  0.555501  0.598777  1
  Mn  Mn7  1  0.616754  0.567572  0.090128  1
  Mn  Mn8  1  0.376898  0.444499  0.901223  1
  Mn  Mn9  1  0.383246  0.432428  0.409872  1
  Mn  Mn10  1  0.123102  0.944499  0.401223  1
  Mn  Mn11  1  0.116754  0.932428  0.909872  1
  C  C12  1  0.837316  0.367243  0.937825  1
  C  C13  1  0.839545  0.363756  0.451061  1
  C  C14  1  0.660455  0.863756  0.951061  1
  C  C15  1  0.662684  0.867243  0.437825  1
  C  C16  1  0.337316  0.132757  0.062175  1
  C  C17  1  0.339545  0.136244  0.548939  1
  C  C18  1  0.162684  0.632757  0.562175  1
  C  C19  1  0.160455  0.636244  0.048939  1
  O  O20  1  0.003946  0.898182  0.660921  1
  O  O21  1  0.999944  0.885539  0.201320  1
  O  O22  1  0.970209  0.367973  0.417314  1
  O  O23  1  0.967058  0.381780  0.958145  1
  O  O24  1  0.749674  0.484811  0.869679  1
  O  O25  1  0.761207  0.486688  0.403141  1
  O  O26  1  0.765723  0.243143  0.527966  1
  O  O27  1  0.769977  0.241958  0.984097  1
  O  O28  1  0.734277  0.743143  0.027966  1
  O  O29  1  0.730023  0.741958  0.484097  1
  O  O30  1  0.738793  0.986688  0.903141  1
  O  O31  1  0.750326  0.984811  0.369679  1
  O  O32  1  0.532942  0.881780  0.458145  1
  O  O33  1  0.529791  0.867973  0.917314  1
  O  O34  1  0.500056  0.385539  0.701320  1
  O  O35  1  0.496054  0.398182  0.160921  1
  O  O36  1  0.499944  0.614461  0.798680  1
  O  O37  1  0.503946  0.601818  0.339079  1
  O  O38  1  0.467058  0.118220  0.041855  1
  O  O39  1  0.470209  0.132027  0.582686  1
  O  O40  1  0.249674  0.015189  0.130321  1
  O  O41  1  0.261207  0.013312  0.596859  1
  O  O42  1  0.269977  0.258042  0.015903  1
  O  O43  1  0.265723  0.256857  0.472034  1
  O  O44  1  0.234277  0.756857  0.972034  1
  O  O45  1  0.230023  0.758042  0.515903  1
  O  O46  1  0.250326  0.515189  0.630321  1
  O  O47  1  0.238793  0.513312  0.096859  1
  O  O48  1  0.029791  0.632027  0.082686  1
  O  O49  1  0.032942  0.618220  0.541855  1
  O  O50  1  0.000056  0.114461  0.298680  1
  O  O51  1  0.996054  0.101818  0.839079  1
