# generated using pymatgen
data_Na6Cr2C4SO16
_symmetry_space_group_name_H-M   'P 1'
_cell_length_a   9.96695442
_cell_length_b   9.96695422
_cell_length_c   9.96695457
_cell_angle_alpha   89.99999759
_cell_angle_beta   60.00000051
_cell_angle_gamma   59.99999935
_symmetry_Int_Tables_number   1
_chemical_formula_structural   Na6Cr2C4SO16
_chemical_formula_sum   'Na12 Cr4 C8 S2 O32'
_cell_volume   700.11990498
_cell_formula_units_Z   2
loop_
 _symmetry_equiv_pos_site_id
 _symmetry_equiv_pos_as_xyz
  1  'x, y, z'
loop_
 _atom_site_type_symbol
 _atom_site_label
 _atom_site_symmetry_multiplicity
 _atom_site_fract_x
 _atom_site_fract_y
 _atom_site_fract_z
 _atom_site_occupancy
  Na  Na0  1  0.750000  0.660481  0.910481  1
  Na  Na1  1  0.679040  0.910481  0.660481  1
  Na  Na2  1  0.750000  0.089519  0.910481  1
  Na  Na3  1  0.750000  0.660481  0.339519  1
  Na  Na4  1  0.820960  0.339519  0.089519  1
  Na  Na5  1  0.250000  0.910481  0.660481  1
  Na  Na6  1  0.179040  0.660481  0.910481  1
  Na  Na7  1  0.750000  0.089519  0.339519  1
  Na  Na8  1  0.250000  0.339519  0.660481  1
  Na  Na9  1  0.250000  0.910481  0.089519  1
  Na  Na10  1  0.320960  0.089519  0.339519  1
  Na  Na11  1  0.250000  0.339519  0.089519  1
  Cr  Cr12  1  0.500000  0.500000  0.500000  1
  Cr  Cr13  1  0.500000  0.500000  0.000000  1
  Cr  Cr14  1  0.000000  0.500000  0.500000  1
  Cr  Cr15  1  0.000000  0.000000  0.500000  1
  C  C16  1  0.941239  0.279381  0.720619  1
  C  C17  1  0.558761  0.661858  0.720619  1
  C  C18  1  0.941239  0.279381  0.338142  1
  C  C19  1  0.558761  0.279381  0.720619  1
  C  C20  1  0.441239  0.720619  0.279381  1
  C  C21  1  0.058761  0.720619  0.661858  1
  C  C22  1  0.441239  0.338142  0.279381  1
  C  C23  1  0.058761  0.720619  0.279381  1
  S  S24  1  0.750000  0.875000  0.125000  1
  S  S25  1  0.250000  0.125000  0.875000  1
  O  O26  1  0.939366  0.861655  0.663424  1
  O  O27  1  0.939366  0.698979  0.397209  1
  O  O28  1  0.801770  0.397209  0.861655  1
  O  O29  1  0.698230  0.663424  0.698979  1
  O  O30  1  0.964445  0.138345  0.698979  1
  O  O31  1  0.872810  0.936405  0.063595  1
  O  O32  1  0.964445  0.397209  0.336576  1
  O  O33  1  0.627190  0.936405  0.309215  1
  O  O34  1  0.872810  0.690785  0.063595  1
  O  O35  1  0.439366  0.663424  0.861655  1
  O  O36  1  0.535555  0.663424  0.602791  1
  O  O37  1  0.627190  0.936405  0.063595  1
  O  O38  1  0.535555  0.301021  0.861655  1
  O  O39  1  0.801770  0.301021  0.336576  1
  O  O40  1  0.698230  0.138345  0.602791  1
  O  O41  1  0.560634  0.602791  0.301021  1
  O  O42  1  0.439366  0.397209  0.698979  1
  O  O43  1  0.301770  0.861655  0.397209  1
  O  O44  1  0.198230  0.698979  0.663424  1
  O  O45  1  0.464445  0.698979  0.138345  1
  O  O46  1  0.372810  0.063595  0.936405  1
  O  O47  1  0.464445  0.336576  0.397209  1
  O  O48  1  0.560634  0.336576  0.138345  1
  O  O49  1  0.372810  0.063595  0.690785  1
  O  O50  1  0.127190  0.309215  0.936405  1
  O  O51  1  0.035555  0.602791  0.663424  1
  O  O52  1  0.127190  0.063595  0.936405  1
  O  O53  1  0.035555  0.861655  0.301021  1
  O  O54  1  0.301770  0.336576  0.301021  1
  O  O55  1  0.198230  0.602791  0.138345  1
  O  O56  1  0.060634  0.301021  0.602791  1
  O  O57  1  0.060634  0.138345  0.336576  1
