# generated using pymatgen
data_CaAl2Si3H6O13
_symmetry_space_group_name_H-M   'P 1'
_cell_length_a   13.38246278
_cell_length_b   10.13335455
_cell_length_c   9.87274107
_cell_angle_alpha   83.92663541
_cell_angle_beta   48.88819630
_cell_angle_gamma   47.51952743
_symmetry_Int_Tables_number   1
_chemical_formula_structural   CaAl2Si3H6O13
_chemical_formula_sum   'Ca2 Al4 Si6 H12 O26'
_cell_volume   590.21345221
_cell_formula_units_Z   2
loop_
 _symmetry_equiv_pos_site_id
 _symmetry_equiv_pos_as_xyz
  1  'x, y, z'
loop_
 _atom_site_type_symbol
 _atom_site_label
 _atom_site_symmetry_multiplicity
 _atom_site_fract_x
 _atom_site_fract_y
 _atom_site_fract_z
 _atom_site_occupancy
  Ca  Ca0  1  0.840838  0.620998  0.105752  1
  Ca  Ca1  1  0.627108  0.411135  0.821582  1
  Al  Al2  1  0.582856  0.735009  0.983408  1
  Al  Al3  1  0.514117  0.668813  0.552111  1
  Al  Al4  1  0.672191  0.001631  0.727670  1
  Al  Al5  1  0.249990  0.575779  0.650732  1
  Si  Si6  1  0.246888  0.244438  0.252909  1
  Si  Si7  1  0.006678  0.002444  0.994154  1
  Si  Si8  1  0.573048  0.512874  0.226526  1
  Si  Si9  1  0.737906  0.676092  0.561421  1
  Si  Si10  1  0.668070  0.246736  0.501516  1
  Si  Si11  1  0.003281  0.582123  0.665431  1
  H  H12  1  0.127418  0.062149  0.426372  1
  H  H13  1  0.193179  0.119906  0.857575  1
  H  H14  1  0.096314  0.942728  0.527240  1
  H  H15  1  0.310042  0.151831  0.813848  1
  H  H16  1  0.116174  0.814437  0.194718  1
  H  H17  1  0.437255  0.131395  0.374617  1
  H  H18  1  0.173556  0.680325  0.286463  1
  H  H19  1  0.570906  0.081890  0.386288  1
  H  H20  1  0.713647  0.156090  0.011899  1
  H  H21  1  0.095462  0.534647  0.128957  1
  H  H22  1  0.553600  0.208123  0.043429  1
  H  H23  1  0.036150  0.701156  0.059080  1
  O  O24  1  0.324020  0.026659  0.209224  1
  O  O25  1  0.222708  0.927891  0.809593  1
  O  O26  1  0.439657  0.185759  0.026657  1
  O  O27  1  0.066176  0.809489  0.900207  1
  O  O28  1  0.574001  0.577906  0.067596  1
  O  O29  1  0.670991  0.677597  0.470004  1
  O  O30  1  0.696706  0.145470  0.630037  1
  O  O31  1  0.104624  0.554615  0.720187  1
  O  O32  1  0.793758  0.654583  0.891390  1
  O  O33  1  0.594235  0.457593  0.590082  1
  O  O34  1  0.629629  0.910314  0.654090  1
  O  O35  1  0.341382  0.616611  0.442080  1
  O  O36  1  0.597063  0.609916  0.311350  1
  O  O37  1  0.646562  0.646608  0.763757  1
  O  O38  1  0.491718  0.320228  0.547261  1
  O  O39  1  0.926738  0.760254  0.611261  1
  O  O40  1  0.798042  0.235104  0.067951  1
  O  O41  1  0.016000  0.452122  0.347363  1
  O  O42  1  0.920930  0.048689  0.224126  1
  O  O43  1  0.199573  0.329726  0.444581  1
  O  O44  1  0.014926  0.081929  0.541941  1
  O  O45  1  0.168053  0.234571  0.892063  1
  O  O46  1  0.240422  0.669364  0.148505  1
  O  O47  1  0.581531  0.010149  0.308958  1
  O  O48  1  0.630549  0.230378  0.992488  1
  O  O49  1  0.025853  0.613102  0.095764  1
