# generated using pymatgen
data_Co3SnC12BrO12
_symmetry_space_group_name_H-M   'P 1'
_cell_length_a   10.49916744
_cell_length_b   10.49916733
_cell_length_c   12.28609784
_cell_angle_alpha   90.00000000
_cell_angle_beta   90.00000000
_cell_angle_gamma   120.00000037
_symmetry_Int_Tables_number   1
_chemical_formula_structural   Co3SnC12BrO12
_chemical_formula_sum   'Co6 Sn2 C24 Br2 O24'
_cell_volume   1172.88199284
_cell_formula_units_Z   2
loop_
 _symmetry_equiv_pos_site_id
 _symmetry_equiv_pos_as_xyz
  1  'x, y, z'
loop_
 _atom_site_type_symbol
 _atom_site_label
 _atom_site_symmetry_multiplicity
 _atom_site_fract_x
 _atom_site_fract_y
 _atom_site_fract_z
 _atom_site_occupancy
  Co  Co0  1  0.113132  0.403210  0.942371  1
  Co  Co1  1  0.886868  0.596790  0.442371  1
  Co  Co2  1  0.403210  0.290077  0.442371  1
  Co  Co3  1  0.290077  0.886868  0.942371  1
  Co  Co4  1  0.709923  0.113132  0.442371  1
  Co  Co5  1  0.596790  0.709923  0.942371  1
  Sn  Sn6  1  0.666667  0.333333  0.497171  1
  Sn  Sn7  1  0.333333  0.666667  0.997171  1
  C  C8  1  0.167976  0.831558  0.055074  1
  C  C9  1  0.663582  0.832024  0.055074  1
  C  C10  1  0.772725  0.746427  0.901606  1
  C  C11  1  0.992420  0.471763  0.971608  1
  C  C12  1  0.973702  0.227275  0.901606  1
  C  C13  1  0.208299  0.439804  0.816725  1
  C  C14  1  0.227275  0.253573  0.401606  1
  C  C15  1  0.479343  0.007580  0.971608  1
  C  C16  1  0.768495  0.208299  0.316725  1
  C  C17  1  0.832024  0.168442  0.555074  1
  C  C18  1  0.831558  0.663582  0.555074  1
  C  C19  1  0.168442  0.336418  0.055074  1
  C  C20  1  0.746427  0.973702  0.401606  1
  C  C21  1  0.439804  0.231505  0.316725  1
  C  C22  1  0.026298  0.772725  0.401606  1
  C  C23  1  0.336418  0.167976  0.555074  1
  C  C24  1  0.520657  0.992420  0.471608  1
  C  C25  1  0.528237  0.520657  0.971608  1
  C  C26  1  0.791701  0.560196  0.316725  1
  C  C27  1  0.231505  0.791701  0.816725  1
  C  C28  1  0.007580  0.528237  0.471608  1
  C  C29  1  0.253573  0.026298  0.901606  1
  C  C30  1  0.471763  0.479343  0.471608  1
  C  C31  1  0.560196  0.768495  0.816725  1
  Br  Br32  1  0.333333  0.666667  0.206690  1
  Br  Br33  1  0.666667  0.333333  0.706690  1
  O  O34  1  0.735804  0.547468  0.232919  1
  O  O35  1  0.399667  0.904399  0.489269  1
  O  O36  1  0.547468  0.811665  0.732919  1
  O  O37  1  0.720647  0.913877  0.125993  1
  O  O38  1  0.600333  0.095601  0.989269  1
  O  O39  1  0.884163  0.110701  0.875415  1
  O  O40  1  0.226538  0.115837  0.875415  1
  O  O41  1  0.279353  0.086123  0.625993  1
  O  O42  1  0.095601  0.495268  0.489269  1
  O  O43  1  0.773462  0.884163  0.375415  1
  O  O44  1  0.264196  0.452532  0.732919  1
  O  O45  1  0.889299  0.773462  0.875415  1
  O  O46  1  0.110701  0.226538  0.375415  1
  O  O47  1  0.904399  0.504732  0.989269  1
  O  O48  1  0.452532  0.188335  0.232919  1
  O  O49  1  0.913877  0.193230  0.625993  1
  O  O50  1  0.115837  0.889299  0.375415  1
  O  O51  1  0.495268  0.399667  0.989269  1
  O  O52  1  0.188335  0.735804  0.732919  1
  O  O53  1  0.811665  0.264196  0.232919  1
  O  O54  1  0.193230  0.279353  0.125993  1
  O  O55  1  0.086123  0.806770  0.125993  1
  O  O56  1  0.504732  0.600333  0.489269  1
  O  O57  1  0.806770  0.720647  0.625993  1
