# generated using pymatgen
data_LiNiPO4
_symmetry_space_group_name_H-M   'P 1'
_cell_length_a   8.41401879
_cell_length_b   7.37505008
_cell_length_c   14.60723362
_cell_angle_alpha   90.00000000
_cell_angle_beta   90.27394314
_cell_angle_gamma   90.00000000
_symmetry_Int_Tables_number   1
_chemical_formula_structural   LiNiPO4
_chemical_formula_sum   'Li12 Ni12 P12 O48'
_cell_volume   906.42413882
_cell_formula_units_Z   12
loop_
 _symmetry_equiv_pos_site_id
 _symmetry_equiv_pos_as_xyz
  1  'x, y, z'
loop_
 _atom_site_type_symbol
 _atom_site_label
 _atom_site_symmetry_multiplicity
 _atom_site_fract_x
 _atom_site_fract_y
 _atom_site_fract_z
 _atom_site_occupancy
  Li  Li0  1  0.070310  0.664425  0.406114  1
  Li  Li1  1  0.076314  0.824530  0.758960  1
  Li  Li2  1  0.098122  0.669703  0.082883  1
  Li  Li3  1  0.401878  0.169703  0.417117  1
  Li  Li4  1  0.423686  0.324530  0.741040  1
  Li  Li5  1  0.429690  0.164425  0.093886  1
  Li  Li6  1  0.570310  0.835575  0.906114  1
  Li  Li7  1  0.576314  0.675470  0.258960  1
  Li  Li8  1  0.598122  0.830297  0.582883  1
  Li  Li9  1  0.901878  0.330297  0.917117  1
  Li  Li10  1  0.923686  0.175470  0.241040  1
  Li  Li11  1  0.929690  0.335575  0.593886  1
  Ni  Ni12  1  0.242302  0.949886  0.923216  1
  Ni  Ni13  1  0.243668  0.046736  0.586252  1
  Ni  Ni14  1  0.246381  0.915762  0.248088  1
  Ni  Ni15  1  0.253619  0.415762  0.251912  1
  Ni  Ni16  1  0.256332  0.546736  0.913748  1
  Ni  Ni17  1  0.257698  0.449886  0.576784  1
  Ni  Ni18  1  0.742302  0.550114  0.423216  1
  Ni  Ni19  1  0.743668  0.453264  0.086252  1
  Ni  Ni20  1  0.746381  0.584238  0.748088  1
  Ni  Ni21  1  0.753619  0.084238  0.751912  1
  Ni  Ni22  1  0.756332  0.953264  0.413748  1
  Ni  Ni23  1  0.757698  0.050114  0.076784  1
  P  P24  1  0.049588  0.257625  0.412106  1
  P  P25  1  0.090676  0.235346  0.771259  1
  P  P26  1  0.108382  0.262160  0.070915  1
  P  P27  1  0.391618  0.762160  0.429085  1
  P  P28  1  0.409324  0.735346  0.728741  1
  P  P29  1  0.450412  0.757625  0.087894  1
  P  P30  1  0.549588  0.242375  0.912106  1
  P  P31  1  0.590676  0.264654  0.271259  1
  P  P32  1  0.608382  0.237840  0.570915  1
  P  P33  1  0.891618  0.737840  0.929085  1
  P  P34  1  0.909324  0.764654  0.228741  1
  P  P35  1  0.950412  0.742375  0.587894  1
  O  O36  1  0.042600  0.564547  0.605080  1
  O  O37  1  0.047335  0.903406  0.625243  1
  O  O38  1  0.069891  0.760347  0.958285  1
  O  O39  1  0.092769  0.054252  0.824719  1
  O  O40  1  0.100295  0.392892  0.839757  1
  O  O41  1  0.074317  0.749994  0.279921  1
  O  O42  1  0.097533  0.238833  0.515466  1
  O  O43  1  0.108424  0.271631  0.178260  1
  O  O44  1  0.177948  0.441707  0.035214  1
  O  O45  1  0.220888  0.239655  0.695325  1
  O  O46  1  0.210188  0.266693  0.358311  1
  O  O47  1  0.213688  0.102944  0.039652  1
  O  O48  1  0.286312  0.602944  0.460348  1
  O  O49  1  0.289812  0.766693  0.141689  1
  O  O50  1  0.279112  0.739655  0.804675  1
  O  O51  1  0.322052  0.941707  0.464786  1
  O  O52  1  0.391576  0.771631  0.321740  1
  O  O53  1  0.402467  0.738833  0.984534  1
  O  O54  1  0.399705  0.892892  0.660243  1
  O  O55  1  0.425683  0.249994  0.220079  1
  O  O56  1  0.407231  0.554252  0.675281  1
  O  O57  1  0.430109  0.260347  0.541715  1
  O  O58  1  0.452665  0.403406  0.874757  1
  O  O59  1  0.457400  0.064547  0.894920  1
  O  O60  1  0.542600  0.935453  0.105080  1
  O  O61  1  0.547335  0.596594  0.125243  1
  O  O62  1  0.569891  0.739653  0.458285  1
  O  O63  1  0.592769  0.445748  0.324719  1
  O  O64  1  0.574317  0.750006  0.779921  1
  O  O65  1  0.600295  0.107108  0.339757  1
  O  O66  1  0.597533  0.261167  0.015466  1
  O  O67  1  0.608424  0.228369  0.678260  1
  O  O68  1  0.677948  0.058293  0.535214  1
  O  O69  1  0.720888  0.260345  0.195325  1
  O  O70  1  0.710188  0.233307  0.858311  1
  O  O71  1  0.713688  0.397056  0.539652  1
  O  O72  1  0.786312  0.897056  0.960348  1
  O  O73  1  0.789812  0.733307  0.641689  1
  O  O74  1  0.779112  0.760345  0.304675  1
  O  O75  1  0.822052  0.558293  0.964786  1
  O  O76  1  0.891576  0.728369  0.821740  1
  O  O77  1  0.902467  0.761167  0.484534  1
  O  O78  1  0.925683  0.250006  0.720079  1
  O  O79  1  0.899705  0.607108  0.160243  1
  O  O80  1  0.907231  0.945748  0.175281  1
  O  O81  1  0.930109  0.239653  0.041715  1
  O  O82  1  0.952665  0.096594  0.374757  1
  O  O83  1  0.957400  0.435453  0.394920  1
