# generated using pymatgen
data_Na6CuO4
_symmetry_space_group_name_H-M   'P 1'
_cell_length_a   7.53226468
_cell_length_b   7.53224626
_cell_length_c   5.34606148
_cell_angle_alpha   89.99880823
_cell_angle_beta   89.99984690
_cell_angle_gamma   89.99877387
_symmetry_Int_Tables_number   1
_chemical_formula_structural   Na6CuO4
_chemical_formula_sum   'Na12 Cu2 O8'
_cell_volume   303.30811619
_cell_formula_units_Z   2
loop_
 _symmetry_equiv_pos_site_id
 _symmetry_equiv_pos_as_xyz
  1  'x, y, z'
loop_
 _atom_site_type_symbol
 _atom_site_label
 _atom_site_symmetry_multiplicity
 _atom_site_fract_x
 _atom_site_fract_y
 _atom_site_fract_z
 _atom_site_occupancy
  Na  Na0  1  0.039311  0.539308  0.749993  1
  Na  Na1  1  0.039303  0.960695  0.750008  1
  Na  Na2  1  0.250000  0.249998  0.649995  1
  Na  Na3  1  0.250010  0.250003  0.149988  1
  Na  Na4  1  0.460701  0.539316  0.749992  1
  Na  Na5  1  0.460719  0.960721  0.749992  1
  Na  Na6  1  0.539312  0.039309  0.249994  1
  Na  Na7  1  0.539312  0.460703  0.249996  1
  Na  Na8  1  0.750006  0.750013  0.350010  1
  Na  Na9  1  0.750007  0.750007  0.850017  1
  Na  Na10  1  0.960717  0.039315  0.250013  1
  Na  Na11  1  0.960707  0.460713  0.249994  1
  Cu  Cu12  1  0.250005  0.750015  0.250003  1
  Cu  Cu13  1  0.750011  0.250013  0.749996  1
  O  O14  1  0.998961  0.250007  0.914799  1
  O  O15  1  0.250012  0.998963  0.414804  1
  O  O16  1  0.250006  0.501044  0.414796  1
  O  O17  1  0.501049  0.250007  0.914788  1
  O  O18  1  0.498964  0.750006  0.085199  1
  O  O19  1  0.750009  0.001053  0.585211  1
  O  O20  1  0.750007  0.498961  0.585204  1
  O  O21  1  0.001053  0.750012  0.085208  1
