# generated using pymatgen
data_LiCoGeO4
_symmetry_space_group_name_H-M   'P 1'
_cell_length_a   6.22633981
_cell_length_b   5.71607888
_cell_length_c   5.11817604
_cell_angle_alpha   90.00000000
_cell_angle_beta   90.07629963
_cell_angle_gamma   90.00000000
_symmetry_Int_Tables_number   1
_chemical_formula_structural   LiCoGeO4
_chemical_formula_sum   'Li2 Co2 Ge2 O8'
_cell_volume   182.15700068
_cell_formula_units_Z   2
loop_
 _symmetry_equiv_pos_site_id
 _symmetry_equiv_pos_as_xyz
  1  'x, y, z'
loop_
 _atom_site_type_symbol
 _atom_site_label
 _atom_site_symmetry_multiplicity
 _atom_site_fract_x
 _atom_site_fract_y
 _atom_site_fract_z
 _atom_site_occupancy
  Li  Li0  1  0.248992  0.339295  0.995789  1
  Li  Li1  1  0.748992  0.660705  0.495789  1
  Co  Co2  1  0.003057  0.827786  0.995339  1
  Co  Co3  1  0.503057  0.172214  0.495339  1
  Ge  Ge4  1  0.999367  0.151609  0.499571  1
  Ge  Ge5  1  0.499367  0.848391  0.999571  1
  O  O6  1  0.020993  0.127004  0.845028  1
  O  O7  1  0.976003  0.868242  0.357843  1
  O  O8  1  0.237042  0.288143  0.379785  1
  O  O9  1  0.264844  0.677959  0.931896  1
  O  O10  1  0.476003  0.131758  0.857843  1
  O  O11  1  0.520993  0.872996  0.345028  1
  O  O12  1  0.737042  0.711857  0.879785  1
  O  O13  1  0.764844  0.322041  0.431896  1
