# generated using pymatgen
data_H8S2N2O5
_symmetry_space_group_name_H-M   'P 1'
_cell_length_a   7.29078574
_cell_length_b   6.11110742
_cell_length_c   15.37497739
_cell_angle_alpha   89.99988673
_cell_angle_beta   89.99999908
_cell_angle_gamma   89.99994144
_symmetry_Int_Tables_number   1
_chemical_formula_structural   H8S2N2O5
_chemical_formula_sum   'H32 S8 N8 O20'
_cell_volume   685.02865568
_cell_formula_units_Z   4
loop_
 _symmetry_equiv_pos_site_id
 _symmetry_equiv_pos_as_xyz
  1  'x, y, z'
loop_
 _atom_site_type_symbol
 _atom_site_label
 _atom_site_symmetry_multiplicity
 _atom_site_fract_x
 _atom_site_fract_y
 _atom_site_fract_z
 _atom_site_occupancy
  H  H0  1  0.666637  0.250000  0.014877  1
  H  H1  1  0.166636  0.250000  0.485123  1
  H  H2  1  0.333364  0.750000  0.985123  1
  H  H3  1  0.833363  0.750000  0.514877  1
  H  H4  1  0.880218  0.250000  0.053904  1
  H  H5  1  0.380218  0.250000  0.446095  1
  H  H6  1  0.119782  0.750000  0.946095  1
  H  H7  1  0.619782  0.750000  0.553904  1
  H  H8  1  0.833343  0.387383  0.961905  1
  H  H9  1  0.333343  0.112617  0.538095  1
  H  H10  1  0.166657  0.887382  0.038095  1
  H  H11  1  0.666657  0.612618  0.461904  1
  H  H12  1  0.166657  0.612617  0.038096  1
  H  H13  1  0.666657  0.887383  0.461904  1
  H  H14  1  0.833343  0.112617  0.961905  1
  H  H15  1  0.333343  0.387382  0.538095  1
  H  H16  1  0.879327  0.250000  0.371501  1
  H  H17  1  0.379327  0.250000  0.128499  1
  H  H18  1  0.120673  0.750000  0.628499  1
  H  H19  1  0.620673  0.750000  0.871501  1
  H  H20  1  0.663350  0.250000  0.332620  1
  H  H21  1  0.163348  0.250000  0.167380  1
  H  H22  1  0.336650  0.750000  0.667380  1
  H  H23  1  0.836651  0.750000  0.832620  1
  H  H24  1  0.830026  0.387155  0.280165  1
  H  H25  1  0.330026  0.112846  0.219834  1
  H  H26  1  0.169973  0.887155  0.719834  1
  H  H27  1  0.669973  0.612845  0.780166  1
  H  H28  1  0.169973  0.612845  0.719834  1
  H  H29  1  0.669974  0.887155  0.780165  1
  H  H30  1  0.830027  0.112845  0.280165  1
  H  H31  1  0.330026  0.387154  0.219834  1
  S  S32  1  0.666230  0.750000  0.092295  1
  S  S33  1  0.166231  0.749999  0.407704  1
  S  S34  1  0.333769  0.250001  0.907706  1
  S  S35  1  0.833769  0.250001  0.592294  1
  S  S36  1  0.896187  0.750003  0.190768  1
  S  S37  1  0.396188  0.749999  0.309231  1
  S  S38  1  0.103808  0.250005  0.809232  1
  S  S39  1  0.603811  0.249999  0.690768  1
  N  N40  1  0.803449  0.249999  0.998028  1
  N  N41  1  0.303449  0.250001  0.501971  1
  N  N42  1  0.196550  0.750000  0.001972  1
  N  N43  1  0.696551  0.750000  0.498029  1
  N  N44  1  0.799578  0.250001  0.316174  1
  N  N45  1  0.299576  0.250000  0.183826  1
  N  N46  1  0.200423  0.749997  0.683824  1
  N  N47  1  0.700424  0.750000  0.816176  1
  O  O48  1  0.995137  0.544360  0.161873  1
  O  O49  1  0.495140  0.955640  0.338127  1
  O  O50  1  0.004863  0.044356  0.838129  1
  O  O51  1  0.504863  0.455639  0.661871  1
  O  O52  1  0.004860  0.455648  0.838128  1
  O  O53  1  0.504859  0.044352  0.661872  1
  O  O54  1  0.995141  0.955652  0.161870  1
  O  O55  1  0.495137  0.544355  0.338129  1
  O  O56  1  0.558770  0.547959  0.107483  1
  O  O57  1  0.058768  0.952043  0.392517  1
  O  O58  1  0.441231  0.047959  0.892516  1
  O  O59  1  0.941232  0.452038  0.607485  1
  O  O60  1  0.441233  0.452044  0.892517  1
  O  O61  1  0.941234  0.047954  0.607484  1
  O  O62  1  0.558770  0.952040  0.107483  1
  O  O63  1  0.058770  0.547962  0.392518  1
  O  O64  1  0.762917  0.749998  0.006756  1
  O  O65  1  0.262919  0.749998  0.493244  1
  O  O66  1  0.237084  0.250001  0.993244  1
  O  O67  1  0.737081  0.250000  0.506757  1
