# generated using pymatgen
data_LiFeSiO4
_symmetry_space_group_name_H-M   'P 1'
_cell_length_a   5.46716136
_cell_length_b   8.24911348
_cell_length_c   5.46716136
_cell_angle_alpha   99.77574902
_cell_angle_beta   53.17516867
_cell_angle_gamma   84.50679307
_symmetry_Int_Tables_number   1
_chemical_formula_structural   LiFeSiO4
_chemical_formula_sum   'Li2 Fe2 Si2 O8'
_cell_volume   188.30795995
_cell_formula_units_Z   2
loop_
 _symmetry_equiv_pos_site_id
 _symmetry_equiv_pos_as_xyz
  1  'x, y, z'
loop_
 _atom_site_type_symbol
 _atom_site_label
 _atom_site_symmetry_multiplicity
 _atom_site_fract_x
 _atom_site_fract_y
 _atom_site_fract_z
 _atom_site_occupancy
  Li  Li0  1  0.752117  0.132430  0.596786  1
  Li  Li1  1  0.964356  0.632430  0.884547  1
  Fe  Fe2  1  0.324709  0.495519  0.003590  1
  Fe  Fe3  1  0.008073  0.995519  0.820227  1
  Si  Si4  1  0.390792  0.253014  0.398247  1
  Si  Si5  1  0.645234  0.753014  0.643806  1
  O  O6  1  0.414071  0.306317  0.108830  1
  O  O7  1  0.727703  0.125427  0.257168  1
  O  O8  1  0.116419  0.149946  0.571889  1
  O  O9  1  0.312997  0.422449  0.662104  1
  O  O10  1  0.302513  0.806317  0.720387  1
  O  O11  1  0.631741  0.625427  0.853131  1
  O  O12  1  0.921943  0.649946  0.266364  1
  O  O13  1  0.739655  0.922449  0.735446  1
