# generated using pymatgen
data_Li2V2O5F2
_symmetry_space_group_name_H-M   'P 1'
_cell_length_a   7.31844636
_cell_length_b   7.06339463
_cell_length_c   6.87989106
_cell_angle_alpha   63.30321292
_cell_angle_beta   120.42855624
_cell_angle_gamma   88.17610626
_symmetry_Int_Tables_number   1
_chemical_formula_structural   Li2V2O5F2
_chemical_formula_sum   'Li4 V4 O10 F4'
_cell_volume   257.97096334
_cell_formula_units_Z   2
loop_
 _symmetry_equiv_pos_site_id
 _symmetry_equiv_pos_as_xyz
  1  'x, y, z'
loop_
 _atom_site_type_symbol
 _atom_site_label
 _atom_site_symmetry_multiplicity
 _atom_site_fract_x
 _atom_site_fract_y
 _atom_site_fract_z
 _atom_site_occupancy
  Li  Li0  1  0.440356  0.407176  0.018135  1
  Li  Li1  1  0.565459  0.026956  0.518380  1
  Li  Li2  1  0.407176  0.440356  0.484955  1
  Li  Li3  1  0.026956  0.565459  0.479878  1
  V  V4  1  0.031411  0.011531  0.003989  1
  V  V5  1  0.532669  0.948455  0.054982  1
  V  V6  1  0.011531  0.031411  0.484110  1
  V  V7  1  0.948455  0.532669  0.970767  1
  O  O8  1  0.671226  0.064159  0.243193  1
  O  O9  1  0.945002  0.314056  0.259200  1
  O  O10  1  0.909251  0.054137  0.679114  1
  O  O11  1  0.686481  0.679584  0.248466  1
  O  O12  1  0.064159  0.671226  0.136126  1
  O  O13  1  0.314056  0.945002  0.128254  1
  O  O14  1  0.961800  0.291996  0.904378  1
  O  O15  1  0.054137  0.909251  0.323999  1
  O  O16  1  0.679584  0.686481  0.741569  1
  O  O17  1  0.291996  0.961800  0.734576  1
  F  F18  1  0.377244  0.329422  0.271931  1
  F  F19  1  0.656053  0.055256  0.845345  1
  F  F20  1  0.329422  0.377244  0.724108  1
  F  F21  1  0.055256  0.656053  0.744549  1
