# generated using pymatgen
data_CaAs2H6F18
_symmetry_space_group_name_H-M   'P 1'
_cell_length_a   9.81053058
_cell_length_b   15.13080120
_cell_length_c   9.70463652
_cell_angle_alpha   90.00000000
_cell_angle_beta   108.49201538
_cell_angle_gamma   90.00000000
_symmetry_Int_Tables_number   1
_chemical_formula_structural   CaAs2H6F18
_chemical_formula_sum   'Ca4 As8 H24 F72'
_cell_volume   1366.18818302
_cell_formula_units_Z   4
loop_
 _symmetry_equiv_pos_site_id
 _symmetry_equiv_pos_as_xyz
  1  'x, y, z'
loop_
 _atom_site_type_symbol
 _atom_site_label
 _atom_site_symmetry_multiplicity
 _atom_site_fract_x
 _atom_site_fract_y
 _atom_site_fract_z
 _atom_site_occupancy
  Ca  Ca0  1  0.309473  0.992194  0.702585  1
  Ca  Ca1  1  0.309473  0.507806  0.202585  1
  Ca  Ca2  1  0.690527  0.492194  0.797415  1
  Ca  Ca3  1  0.690527  0.007806  0.297415  1
  As  As4  1  0.100081  0.322266  0.583872  1
  As  As5  1  0.100081  0.177734  0.083872  1
  As  As6  1  0.387503  0.649752  0.876897  1
  As  As7  1  0.387503  0.850248  0.376897  1
  As  As8  1  0.612497  0.149752  0.623103  1
  As  As9  1  0.612497  0.350248  0.123103  1
  As  As10  1  0.899919  0.822265  0.916128  1
  As  As11  1  0.899919  0.677735  0.416128  1
  H  H12  1  0.092954  0.480264  0.891038  1
  H  H13  1  0.074064  0.052879  0.837950  1
  H  H14  1  0.094482  0.852926  0.705842  1
  H  H15  1  0.092954  0.019736  0.391038  1
  H  H16  1  0.074064  0.447121  0.337950  1
  H  H17  1  0.094482  0.647074  0.205842  1
  H  H18  1  0.375212  0.399386  0.690354  1
  H  H19  1  0.456075  0.159891  0.837031  1
  H  H20  1  0.345390  0.512183  0.527231  1
  H  H21  1  0.654610  0.012183  0.972769  1
  H  H22  1  0.543925  0.659891  0.662969  1
  H  H23  1  0.375212  0.100614  0.190354  1
  H  H24  1  0.624788  0.899386  0.809646  1
  H  H25  1  0.456075  0.340109  0.337031  1
  H  H26  1  0.345390  0.987817  0.027231  1
  H  H27  1  0.654610  0.487817  0.472769  1
  H  H28  1  0.543925  0.840109  0.162969  1
  H  H29  1  0.624788  0.600614  0.309646  1
  H  H30  1  0.905518  0.352926  0.794158  1
  H  H31  1  0.925936  0.552879  0.662050  1
  H  H32  1  0.907046  0.980264  0.608962  1
  H  H33  1  0.905518  0.147074  0.294158  1
  H  H34  1  0.925936  0.947121  0.162050  1
  H  H35  1  0.907046  0.519736  0.108962  1
  F  F36  1  0.012333  0.375810  0.698780  1
  F  F37  1  0.070258  0.038766  0.738615  1
  F  F38  1  0.150289  0.454020  0.979712  1
  F  F39  1  0.085559  0.221658  0.664272  1
  F  F40  1  0.200852  0.223641  0.983171  1
  F  F41  1  0.062443  0.688050  0.555102  1
  F  F42  1  0.012333  0.124190  0.198780  1
  F  F43  1  0.118752  0.431482  0.510550  1
  F  F44  1  0.238585  0.714157  0.868970  1
  F  F45  1  0.156930  0.868811  0.650487  1
  F  F46  1  0.316736  0.949702  0.943526  1
  F  F47  1  0.070258  0.461234  0.238615  1
  F  F48  1  0.269303  0.347598  0.727481  1
  F  F49  1  0.150289  0.045981  0.479712  1
  F  F50  1  0.277218  0.563704  0.780738  1
  F  F51  1  0.085559  0.278342  0.164272  1
  F  F52  1  0.200852  0.276359  0.483171  1
  F  F53  1  0.062443  0.811950  0.055102  1
  F  F54  1  0.382349  0.120364  0.847761  1
  F  F55  1  0.118752  0.068518  0.010550  1
  F  F56  1  0.238585  0.785843  0.368970  1
  F  F57  1  0.156930  0.631189  0.150487  1
  F  F58  1  0.404908  0.693343  0.710964  1
  F  F59  1  0.316736  0.550298  0.443526  1
  F  F60  1  0.269303  0.152401  0.227481  1
  F  F61  1  0.505280  0.730817  0.974937  1
  F  F62  1  0.277218  0.936296  0.280738  1
  F  F63  1  0.386237  0.900249  0.545762  1
  F  F64  1  0.541845  0.580210  0.889930  1
  F  F65  1  0.382349  0.379636  0.347761  1
  F  F66  1  0.557769  0.939352  0.840113  1
  F  F67  1  0.442231  0.439352  0.659887  1
  F  F68  1  0.458155  0.080210  0.610070  1
  F  F69  1  0.613763  0.400249  0.954238  1
  F  F70  1  0.404908  0.806657  0.210964  1
  F  F71  1  0.494720  0.230817  0.525063  1
  F  F72  1  0.505280  0.769183  0.474937  1
  F  F73  1  0.595092  0.193343  0.789036  1
  F  F74  1  0.386237  0.599751  0.045762  1
  F  F75  1  0.541845  0.919790  0.389930  1
  F  F76  1  0.557769  0.560648  0.340113  1
  F  F77  1  0.442231  0.060648  0.159887  1
  F  F78  1  0.617651  0.620364  0.652239  1
  F  F79  1  0.458155  0.419790  0.110070  1
  F  F80  1  0.613763  0.099751  0.454238  1
  F  F81  1  0.722782  0.063704  0.719262  1
  F  F82  1  0.494720  0.269183  0.025063  1
  F  F83  1  0.730697  0.847599  0.772519  1
  F  F84  1  0.683264  0.449702  0.556474  1
  F  F85  1  0.595092  0.306657  0.289036  1
  F  F86  1  0.843070  0.368812  0.849513  1
  F  F87  1  0.761415  0.214157  0.631030  1
  F  F88  1  0.881248  0.931482  0.989450  1
  F  F89  1  0.617651  0.879636  0.152239  1
  F  F90  1  0.937557  0.188050  0.944898  1
  F  F91  1  0.799148  0.723641  0.516829  1
  F  F92  1  0.914441  0.721658  0.835728  1
  F  F93  1  0.722782  0.436296  0.219262  1
  F  F94  1  0.849711  0.954019  0.520288  1
  F  F95  1  0.730697  0.652401  0.272519  1
  F  F96  1  0.929742  0.538766  0.761385  1
  F  F97  1  0.683264  0.050298  0.056474  1
  F  F98  1  0.843070  0.131189  0.349513  1
  F  F99  1  0.761415  0.285843  0.131030  1
  F  F100  1  0.881248  0.568518  0.489450  1
  F  F101  1  0.987667  0.875810  0.801220  1
  F  F102  1  0.937557  0.311950  0.444898  1
  F  F103  1  0.799148  0.776359  0.016829  1
  F  F104  1  0.914441  0.778342  0.335728  1
  F  F105  1  0.849711  0.545981  0.020288  1
  F  F106  1  0.929742  0.961234  0.261385  1
  F  F107  1  0.987667  0.624190  0.301220  1
