# generated using pymatgen
data_ScTlO3
_symmetry_space_group_name_H-M   'P 1'
_cell_length_a   5.51815311
_cell_length_b   5.68151619
_cell_length_c   8.17784504
_cell_angle_alpha   90.00000000
_cell_angle_beta   90.12591132
_cell_angle_gamma   90.00000000
_symmetry_Int_Tables_number   1
_chemical_formula_structural   ScTlO3
_chemical_formula_sum   'Sc4 Tl4 O12'
_cell_volume   256.38689527
_cell_formula_units_Z   4
loop_
 _symmetry_equiv_pos_site_id
 _symmetry_equiv_pos_as_xyz
  1  'x, y, z'
loop_
 _atom_site_type_symbol
 _atom_site_label
 _atom_site_symmetry_multiplicity
 _atom_site_fract_x
 _atom_site_fract_y
 _atom_site_fract_z
 _atom_site_occupancy
  Sc  Sc0  1  0.000000  0.500000  0.500000  1
  Sc  Sc1  1  0.000000  0.500000  0.000000  1
  Sc  Sc2  1  0.500000  0.000000  0.500000  1
  Sc  Sc3  1  0.500000  0.000000  0.000000  1
  Tl  Tl4  1  0.019466  0.947243  0.748052  1
  Tl  Tl5  1  0.480534  0.447243  0.751948  1
  Tl  Tl6  1  0.519466  0.552757  0.248052  1
  Tl  Tl7  1  0.980534  0.052757  0.251948  1
  O  O8  1  0.122355  0.436564  0.249819  1
  O  O9  1  0.188966  0.192060  0.565898  1
  O  O10  1  0.190008  0.192947  0.929974  1
  O  O11  1  0.309992  0.692947  0.570026  1
  O  O12  1  0.311034  0.692060  0.934102  1
  O  O13  1  0.377645  0.936564  0.250181  1
  O  O14  1  0.622355  0.063436  0.749819  1
  O  O15  1  0.688966  0.307940  0.065898  1
  O  O16  1  0.690008  0.307053  0.429974  1
  O  O17  1  0.809992  0.807053  0.070026  1
  O  O18  1  0.811034  0.807940  0.434102  1
  O  O19  1  0.877645  0.563436  0.750181  1
