# generated using pymatgen
data_Li4CoNi5(PO4)6
_symmetry_space_group_name_H-M   'P 1'
_cell_length_a   8.28485209
_cell_length_b   8.74393584
_cell_length_c   8.73135039
_cell_angle_alpha   60.00906623
_cell_angle_beta   58.81056362
_cell_angle_gamma   58.63399644
_symmetry_Int_Tables_number   1
_chemical_formula_structural   Li4CoNi5(PO4)6
_chemical_formula_sum   'Li4 Co1 Ni5 P6 O24'
_cell_volume   438.45141821
_cell_formula_units_Z   1
loop_
 _symmetry_equiv_pos_site_id
 _symmetry_equiv_pos_as_xyz
  1  'x, y, z'
loop_
 _atom_site_type_symbol
 _atom_site_label
 _atom_site_symmetry_multiplicity
 _atom_site_fract_x
 _atom_site_fract_y
 _atom_site_fract_z
 _atom_site_occupancy
  Li  Li0  1  0.249720  0.855064  0.643409  1
  Li  Li1  1  0.759035  0.145162  0.354674  1
  Li  Li2  1  0.758498  0.741522  0.143827  1
  Li  Li3  1  0.759199  0.355844  0.741039  1
  Co  Co4  1  0.570031  0.144982  0.142653  1
  Ni  Ni5  1  0.007508  0.998069  0.002726  1
  Ni  Ni6  1  0.071841  0.641863  0.643775  1
  Ni  Ni7  1  0.496095  0.497217  0.500215  1
  Ni  Ni8  1  0.428971  0.856001  0.856492  1
  Ni  Ni9  1  0.939967  0.353591  0.351596  1
  P  P10  1  0.252452  0.252778  0.547477  1
  P  P11  1  0.249422  0.951785  0.247393  1
  P  P12  1  0.250013  0.548587  0.951528  1
  P  P13  1  0.746241  0.454273  0.046764  1
  P  P14  1  0.753052  0.046385  0.751692  1
  P  P15  1  0.738920  0.753434  0.454952  1
  O  O16  1  0.052634  0.105431  0.315915  1
  O  O17  1  0.053168  0.523754  0.103646  1
  O  O18  1  0.053201  0.321616  0.522027  1
  O  O19  1  0.224962  0.088145  0.739190  1
  O  O20  1  0.443071  0.185469  0.385744  1
  O  O21  1  0.281847  0.401771  0.565975  1
  O  O22  1  0.225901  0.929939  0.095863  1
  O  O23  1  0.282107  0.760962  0.410213  1
  O  O24  1  0.556668  0.610168  0.012501  1
  O  O25  1  0.285041  0.568510  0.749717  1
  O  O26  1  0.768952  0.250377  0.070058  1
  O  O27  1  0.575635  0.998823  0.812108  1
  O  O28  1  0.442687  0.991089  0.177973  1
  O  O29  1  0.220782  0.750266  0.928138  1
  O  O30  1  0.721331  0.430814  0.247360  1
  O  O31  1  0.443072  0.387730  0.987540  1
  O  O32  1  0.724385  0.246555  0.598606  1
  O  O33  1  0.768164  0.073465  0.912627  1
  O  O34  1  0.723389  0.598565  0.426406  1
  O  O35  1  0.539804  0.816588  0.606436  1
  O  O36  1  0.766145  0.912709  0.251457  1
  O  O37  1  0.922097  0.694917  0.494502  1
  O  O38  1  0.937563  0.482681  0.892075  1
  O  O39  1  0.956432  0.896099  0.690712  1
