# generated using pymatgen
data_Li24Ti11CrO36
_symmetry_space_group_name_H-M   'P 1'
_cell_length_a   5.10492350
_cell_length_b   13.20071408
_cell_length_c   10.68642757
_cell_angle_alpha   67.78095163
_cell_angle_beta   85.26471133
_cell_angle_gamma   97.15736512
_symmetry_Int_Tables_number   1
_chemical_formula_structural   Li24Ti11CrO36
_chemical_formula_sum   'Li24 Ti11 Cr1 O36'
_cell_volume   654.85025543
_cell_formula_units_Z   1
loop_
 _symmetry_equiv_pos_site_id
 _symmetry_equiv_pos_as_xyz
  1  'x, y, z'
loop_
 _atom_site_type_symbol
 _atom_site_label
 _atom_site_symmetry_multiplicity
 _atom_site_fract_x
 _atom_site_fract_y
 _atom_site_fract_z
 _atom_site_occupancy
  Li  Li0  1  0.784213  0.058867  0.941573  1
  Li  Li1  1  0.665086  0.082963  0.666679  1
  Li  Li2  1  0.884988  0.274731  0.725231  1
  Li  Li3  1  0.333040  0.165765  0.833580  1
  Li  Li4  1  0.556337  0.107681  0.392494  1
  Li  Li5  1  0.000029  0.250021  0.999987  1
  Li  Li6  1  0.000966  0.999833  0.500861  1
  Li  Li7  1  0.777872  0.558826  0.940712  1
  Li  Li8  1  0.446983  0.392127  0.608082  1
  Li  Li9  1  0.666715  0.583423  0.666623  1
  Li  Li10  1  0.666751  0.333271  0.166777  1
  Li  Li11  1  0.110998  0.225419  0.274109  1
  Li  Li12  1  0.890306  0.775089  0.726124  1
  Li  Li13  1  0.333705  0.666205  0.833422  1
  Li  Li14  1  0.333231  0.416392  0.333730  1
  Li  Li15  1  0.552398  0.607574  0.391816  1
  Li  Li16  1  0.000009  0.499962  0.500054  1
  Li  Li17  1  0.222060  0.441215  0.059213  1
  Li  Li18  1  0.440750  0.892695  0.607168  1
  Li  Li19  1  0.667224  0.833289  0.166967  1
  Li  Li20  1  0.114267  0.725783  0.274801  1
  Li  Li21  1  0.333308  0.916707  0.333235  1
  Li  Li22  1  0.999768  0.751253  0.998997  1
  Li  Li23  1  0.216705  0.941070  0.057203  1
  Ti  Ti24  1  0.889351  0.028105  0.221955  1
  Ti  Ti25  1  0.555728  0.361338  0.888561  1
  Ti  Ti26  1  0.780431  0.305256  0.446184  1
  Ti  Ti27  1  0.226475  0.192753  0.553541  1
  Ti  Ti28  1  0.444006  0.138063  0.111741  1
  Ti  Ti29  1  0.110545  0.471567  0.778400  1
  Ti  Ti30  1  0.889807  0.528516  0.221714  1
  Ti  Ti31  1  0.554842  0.863165  0.890669  1
  Ti  Ti32  1  0.777247  0.805080  0.445269  1
  Ti  Ti33  1  0.222583  0.694859  0.555120  1
  Ti  Ti34  1  0.444878  0.638392  0.110763  1
  Cr  Cr35  1  0.106363  0.972420  0.776723  1
  O  O36  1  0.424499  0.002763  0.858319  1
  O  O37  1  0.642982  0.211371  0.923117  1
  O  O38  1  0.904384  0.163958  0.472795  1
  O  O39  1  0.313472  0.045577  0.588429  1
  O  O40  1  0.880787  0.406492  0.956546  1
  O  O41  1  0.023972  0.117966  0.745732  1
  O  O42  1  0.547468  0.239766  0.623662  1
  O  O43  1  0.785527  0.426797  0.710085  1
  O  O44  1  0.762031  0.168941  0.194362  1
  O  O45  1  0.237740  0.330865  0.805801  1
  O  O46  1  0.214413  0.073179  0.289806  1
  O  O47  1  0.451673  0.259557  0.377212  1
  O  O48  1  0.428483  0.502189  0.860993  1
  O  O49  1  0.976129  0.378041  0.256863  1
  O  O50  1  0.119033  0.093451  0.043444  1
  O  O51  1  0.690310  0.455218  0.410016  1
  O  O52  1  0.093766  0.334651  0.528682  1
  O  O53  1  0.640381  0.712028  0.922401  1
  O  O54  1  0.357196  0.288481  0.076737  1
  O  O55  1  0.904798  0.664378  0.472534  1
  O  O56  1  0.309537  0.544781  0.589974  1
  O  O57  1  0.877030  0.905955  0.957509  1
  O  O58  1  0.023950  0.621908  0.743549  1
  O  O59  1  0.571235  0.497824  0.138818  1
  O  O60  1  0.547440  0.740217  0.623365  1
  O  O61  1  0.796166  0.928602  0.709860  1
  O  O62  1  0.761744  0.668941  0.194092  1
  O  O63  1  0.236754  0.833716  0.804913  1
  O  O64  1  0.214381  0.573311  0.289744  1
  O  O65  1  0.452265  0.760053  0.376845  1
  O  O66  1  0.976077  0.878103  0.256750  1
  O  O67  1  0.118930  0.593584  0.043347  1
  O  O68  1  0.690560  0.955194  0.410162  1
  O  O69  1  0.095337  0.835599  0.527621  1
  O  O70  1  0.357927  0.789075  0.076932  1
  O  O71  1  0.571661  0.997791  0.138901  1
