# generated using pymatgen
data_Li3MnV(PO4)3
_symmetry_space_group_name_H-M   'P 1'
_cell_length_a   8.55761174
_cell_length_b   12.12097946
_cell_length_c   8.75531961
_cell_angle_alpha   90.16997003
_cell_angle_beta   89.73197082
_cell_angle_gamma   91.61020297
_symmetry_Int_Tables_number   1
_chemical_formula_structural   Li3MnV(PO4)3
_chemical_formula_sum   'Li12 Mn4 V4 P12 O48'
_cell_volume   907.78765863
_cell_formula_units_Z   4
loop_
 _symmetry_equiv_pos_site_id
 _symmetry_equiv_pos_as_xyz
  1  'x, y, z'
loop_
 _atom_site_type_symbol
 _atom_site_label
 _atom_site_symmetry_multiplicity
 _atom_site_fract_x
 _atom_site_fract_y
 _atom_site_fract_z
 _atom_site_occupancy
  Li  Li0  1  0.065211  0.345578  0.512702  1
  Li  Li1  1  0.080073  0.691189  0.086040  1
  Li  Li2  1  0.179004  0.177856  0.780110  1
  Li  Li3  1  0.320068  0.322676  0.279722  1
  Li  Li4  1  0.419606  0.809602  0.587097  1
  Li  Li5  1  0.434301  0.154231  0.012304  1
  Li  Li6  1  0.564552  0.846578  0.985806  1
  Li  Li7  1  0.580398  0.191027  0.415103  1
  Li  Li8  1  0.680070  0.677948  0.719333  1
  Li  Li9  1  0.819363  0.823238  0.219893  1
  Li  Li10  1  0.920981  0.308939  0.914284  1
  Li  Li11  1  0.934415  0.653995  0.486522  1
  Mn  Mn12  1  0.254398  0.390802  0.963967  1
  Mn  Mn13  1  0.746857  0.394624  0.470041  1
  Mn  Mn14  1  0.753436  0.890825  0.536651  1
  Mn  Mn15  1  0.752297  0.106195  0.971382  1
  V  V16  1  0.243547  0.895214  0.026386  1
  V  V17  1  0.244759  0.108494  0.464939  1
  V  V18  1  0.254876  0.606490  0.525515  1
  V  V19  1  0.744402  0.609719  0.034505  1
  P  P20  1  0.040892  0.490428  0.246970  1
  P  P21  1  0.115155  0.847130  0.382055  1
  P  P22  1  0.115732  0.146802  0.111547  1
  P  P23  1  0.385375  0.650776  0.883096  1
  P  P24  1  0.385455  0.354462  0.610858  1
  P  P25  1  0.456452  0.010155  0.747881  1
  P  P26  1  0.541451  0.989982  0.249196  1
  P  P27  1  0.616684  0.649907  0.390291  1
  P  P28  1  0.615896  0.349532  0.120108  1
  P  P29  1  0.885063  0.851389  0.890295  1
  P  P30  1  0.884658  0.147500  0.618281  1
  P  P31  1  0.956329  0.510044  0.748999  1
  O  O32  1  0.052840  0.896570  0.892680  1
  O  O33  1  0.044683  0.444039  0.867490  1
  O  O34  1  0.056079  0.599512  0.664908  1
  O  O35  1  0.057367  0.186443  0.578719  1
  O  O36  1  0.100558  0.582037  0.359465  1
  O  O37  1  0.127470  0.831134  0.205027  1
  O  O38  1  0.140456  0.969284  0.421279  1
  O  O39  1  0.129950  0.246689  0.994375  1
  O  O40  1  0.174656  0.187189  0.270155  1
  O  O41  1  0.187366  0.435518  0.175723  1
  O  O42  1  0.230803  0.776540  0.471133  1
  O  O43  1  0.236118  0.062713  0.049438  1
  O  O44  1  0.264407  0.437335  0.550164  1
  O  O45  1  0.270904  0.723423  0.971700  1
  O  O46  1  0.311166  0.065456  0.676712  1
  O  O47  1  0.326189  0.312762  0.770446  1
  O  O48  1  0.361507  0.527957  0.919829  1
  O  O49  1  0.371950  0.254461  0.494932  1
  O  O50  1  0.376332  0.668900  0.706154  1
  O  O51  1  0.398431  0.918427  0.859765  1
  O  O52  1  0.443299  0.900913  0.164018  1
  O  O53  1  0.445093  0.308984  0.084756  1
  O  O54  1  0.448591  0.604070  0.394791  1
  O  O55  1  0.449932  0.055674  0.369187  1
  O  O56  1  0.546489  0.945971  0.626802  1
  O  O57  1  0.553828  0.399117  0.612010  1
  O  O58  1  0.558427  0.687981  0.921579  1
  O  O59  1  0.551697  0.102122  0.831450  1
  O  O60  1  0.599695  0.084098  0.136882  1
  O  O61  1  0.623686  0.334239  0.299612  1
  O  O62  1  0.626810  0.751025  0.506803  1
  O  O63  1  0.637933  0.471788  0.081852  1
  O  O64  1  0.668903  0.689188  0.229511  1
  O  O65  1  0.685297  0.935118  0.319635  1
  O  O66  1  0.733529  0.280347  0.030815  1
  O  O67  1  0.736764  0.567972  0.451326  1
  O  O68  1  0.763356  0.933653  0.951528  1
  O  O69  1  0.770046  0.217925  0.530205  1
  O  O70  1  0.812817  0.567068  0.820590  1
  O  O71  1  0.831125  0.809618  0.730571  1
  O  O72  1  0.874495  0.752103  0.007273  1
  O  O73  1  0.865346  0.023895  0.582709  1
  O  O74  1  0.879107  0.165999  0.797191  1
  O  O75  1  0.896241  0.417867  0.635192  1
  O  O76  1  0.942840  0.808624  0.417430  1
  O  O77  1  0.945897  0.398667  0.332424  1
  O  O78  1  0.949600  0.554526  0.128152  1
  O  O79  1  0.948170  0.101733  0.113737  1
