# generated using pymatgen
data_CaAsH3O5
_symmetry_space_group_name_H-M   'P 1'
_cell_length_a   6.98810763
_cell_length_b   16.32860848
_cell_length_c   8.01842682
_cell_angle_alpha   90.00000000
_cell_angle_beta   90.00000000
_cell_angle_gamma   90.00000000
_symmetry_Int_Tables_number   1
_chemical_formula_structural   CaAsH3O5
_chemical_formula_sum   'Ca8 As8 H24 O40'
_cell_volume   914.95120013
_cell_formula_units_Z   8
loop_
 _symmetry_equiv_pos_site_id
 _symmetry_equiv_pos_as_xyz
  1  'x, y, z'
loop_
 _atom_site_type_symbol
 _atom_site_label
 _atom_site_symmetry_multiplicity
 _atom_site_fract_x
 _atom_site_fract_y
 _atom_site_fract_z
 _atom_site_occupancy
  Ca  Ca0  1  0.625383  0.546945  0.817197  1
  Ca  Ca1  1  0.874617  0.046945  0.682803  1
  Ca  Ca2  1  0.125383  0.453055  0.682803  1
  Ca  Ca3  1  0.374617  0.953055  0.817197  1
  Ca  Ca4  1  0.374617  0.453055  0.182803  1
  Ca  Ca5  1  0.125383  0.953055  0.317197  1
  Ca  Ca6  1  0.874617  0.546945  0.317197  1
  Ca  Ca7  1  0.625383  0.046945  0.182803  1
  As  As8  1  0.128682  0.609120  0.941753  1
  As  As9  1  0.371318  0.109120  0.558247  1
  As  As10  1  0.628682  0.390880  0.558247  1
  As  As11  1  0.871318  0.890880  0.941753  1
  As  As12  1  0.871318  0.390880  0.058247  1
  As  As13  1  0.628682  0.890880  0.441753  1
  As  As14  1  0.371318  0.609120  0.441753  1
  As  As15  1  0.128682  0.109120  0.058247  1
  H  H16  1  0.313076  0.683267  0.765195  1
  H  H17  1  0.186924  0.183267  0.734805  1
  H  H18  1  0.813076  0.316733  0.734805  1
  H  H19  1  0.686924  0.816733  0.765195  1
  H  H20  1  0.686924  0.316733  0.234805  1
  H  H21  1  0.813076  0.816733  0.265195  1
  H  H22  1  0.186924  0.683267  0.265195  1
  H  H23  1  0.313076  0.183267  0.234805  1
  H  H24  1  0.684568  0.712361  0.988583  1
  H  H25  1  0.815432  0.212361  0.511417  1
  H  H26  1  0.184568  0.287639  0.511417  1
  H  H27  1  0.315432  0.787639  0.988583  1
  H  H28  1  0.315432  0.287639  0.011417  1
  H  H29  1  0.184568  0.787639  0.488583  1
  H  H30  1  0.815432  0.712361  0.488583  1
  H  H31  1  0.684568  0.212361  0.011417  1
  H  H32  1  0.580954  0.652052  0.121872  1
  H  H33  1  0.919046  0.152052  0.378128  1
  H  H34  1  0.080954  0.347948  0.378128  1
  H  H35  1  0.419046  0.847948  0.121872  1
  H  H36  1  0.419046  0.347948  0.878128  1
  H  H37  1  0.080954  0.847948  0.621872  1
  H  H38  1  0.919046  0.652052  0.621872  1
  H  H39  1  0.580954  0.152052  0.878128  1
  O  O40  1  0.219966  0.701353  0.855890  1
  O  O41  1  0.280034  0.201353  0.644110  1
  O  O42  1  0.719966  0.298647  0.644110  1
  O  O43  1  0.780034  0.798647  0.855890  1
  O  O44  1  0.780034  0.298647  0.144110  1
  O  O45  1  0.719966  0.798647  0.355890  1
  O  O46  1  0.280034  0.701353  0.355890  1
  O  O47  1  0.219966  0.201353  0.144110  1
  O  O48  1  0.959974  0.573334  0.804377  1
  O  O49  1  0.540026  0.073334  0.695623  1
  O  O50  1  0.459974  0.426666  0.695623  1
  O  O51  1  0.040026  0.926666  0.804377  1
  O  O52  1  0.040026  0.426666  0.195623  1
  O  O53  1  0.459974  0.926666  0.304377  1
  O  O54  1  0.540026  0.573334  0.304377  1
  O  O55  1  0.959974  0.073334  0.195623  1
  O  O56  1  0.047549  0.632686  0.135136  1
  O  O57  1  0.452451  0.132686  0.364864  1
  O  O58  1  0.547549  0.367314  0.364864  1
  O  O59  1  0.952451  0.867314  0.135136  1
  O  O60  1  0.952451  0.367314  0.864864  1
  O  O61  1  0.547549  0.867314  0.635136  1
  O  O62  1  0.452451  0.632686  0.635136  1
  O  O63  1  0.047549  0.132686  0.864864  1
  O  O64  1  0.304132  0.534837  0.940736  1
  O  O65  1  0.195868  0.034837  0.559264  1
  O  O66  1  0.804132  0.465163  0.559264  1
  O  O67  1  0.695868  0.965163  0.940736  1
  O  O68  1  0.695868  0.465163  0.059264  1
  O  O69  1  0.804132  0.965163  0.440736  1
  O  O70  1  0.195868  0.534837  0.440736  1
  O  O71  1  0.304132  0.034837  0.059264  1
  O  O72  1  0.621944  0.658667  0.005617  1
  O  O73  1  0.878056  0.158667  0.494383  1
  O  O74  1  0.121944  0.341333  0.494383  1
  O  O75  1  0.378056  0.841333  0.005617  1
  O  O76  1  0.378056  0.341333  0.994383  1
  O  O77  1  0.121944  0.841333  0.505617  1
  O  O78  1  0.878056  0.658667  0.505617  1
  O  O79  1  0.621944  0.158667  0.994383  1
