# generated using pymatgen
data_LiVPO4
_symmetry_space_group_name_H-M   'P 1'
_cell_length_a   4.97789008
_cell_length_b   9.92927696
_cell_length_c   7.21146537
_cell_angle_alpha   90.00000000
_cell_angle_beta   90.86211686
_cell_angle_gamma   90.00000000
_symmetry_Int_Tables_number   1
_chemical_formula_structural   LiVPO4
_chemical_formula_sum   'Li4 V4 P4 O16'
_cell_volume   356.39966302
_cell_formula_units_Z   4
loop_
 _symmetry_equiv_pos_site_id
 _symmetry_equiv_pos_as_xyz
  1  'x, y, z'
loop_
 _atom_site_type_symbol
 _atom_site_label
 _atom_site_symmetry_multiplicity
 _atom_site_fract_x
 _atom_site_fract_y
 _atom_site_fract_z
 _atom_site_occupancy
  Li  Li0  1  0.200007  0.167343  0.510085  1
  Li  Li1  1  0.299993  0.667343  0.989915  1
  Li  Li2  1  0.700007  0.332657  0.010085  1
  Li  Li3  1  0.799993  0.832657  0.489915  1
  V  V4  1  0.231784  0.118224  0.012263  1
  V  V5  1  0.268216  0.618224  0.487737  1
  V  V6  1  0.731784  0.381776  0.512263  1
  V  V7  1  0.768216  0.881776  0.987737  1
  P  P8  1  0.194962  0.405930  0.232859  1
  P  P9  1  0.305038  0.905930  0.267141  1
  P  P10  1  0.694962  0.094070  0.732859  1
  P  P11  1  0.805038  0.594070  0.767141  1
  O  O12  1  0.109845  0.624508  0.763222  1
  O  O13  1  0.198375  0.878513  0.059913  1
  O  O14  1  0.170323  0.817847  0.413981  1
  O  O15  1  0.243468  0.056974  0.297171  1
  O  O16  1  0.256532  0.556974  0.202829  1
  O  O17  1  0.329677  0.317847  0.086019  1
  O  O18  1  0.301625  0.378513  0.440087  1
  O  O19  1  0.390155  0.124508  0.736778  1
  O  O20  1  0.609845  0.875492  0.263222  1
  O  O21  1  0.698375  0.621487  0.559913  1
  O  O22  1  0.670323  0.682153  0.913981  1
  O  O23  1  0.743468  0.443026  0.797171  1
  O  O24  1  0.756532  0.943026  0.702829  1
  O  O25  1  0.829677  0.182153  0.586019  1
  O  O26  1  0.801625  0.121487  0.940087  1
  O  O27  1  0.890155  0.375492  0.236778  1
