# generated using pymatgen
data_Li3V3P8O29
_symmetry_space_group_name_H-M   'P 1'
_cell_length_a   9.80136838
_cell_length_b   9.78094303
_cell_length_c   14.15049975
_cell_angle_alpha   89.62055682
_cell_angle_beta   89.96706273
_cell_angle_gamma   59.92376321
_symmetry_Int_Tables_number   1
_chemical_formula_structural   Li3V3P8O29
_chemical_formula_sum   'Li6 V6 P16 O58'
_cell_volume   1173.88080493
_cell_formula_units_Z   2
loop_
 _symmetry_equiv_pos_site_id
 _symmetry_equiv_pos_as_xyz
  1  'x, y, z'
loop_
 _atom_site_type_symbol
 _atom_site_label
 _atom_site_symmetry_multiplicity
 _atom_site_fract_x
 _atom_site_fract_y
 _atom_site_fract_z
 _atom_site_occupancy
  Li  Li0  1  0.093870  0.223851  0.942634  1
  Li  Li1  1  0.310183  0.778227  0.556545  1
  Li  Li2  1  0.692881  0.225029  0.441616  1
  Li  Li3  1  0.773859  0.310996  0.057926  1
  Li  Li4  1  0.772582  0.907625  0.558494  1
  Li  Li5  1  0.914790  0.775497  0.058133  1
  V  V6  1  0.001936  0.565389  0.256985  1
  V  V7  1  0.431165  0.999569  0.246851  1
  V  V8  1  0.431448  0.566022  0.755260  1
  V  V9  1  0.562009  0.438153  0.247957  1
  V  V10  1  0.563277  0.004002  0.756598  1
  V  V11  1  0.994822  0.435221  0.739870  1
  P  P12  1  0.085268  0.233860  0.160296  1
  P  P13  1  0.233036  0.083500  0.657825  1
  P  P14  1  0.087351  0.686187  0.660264  1
  P  P15  1  0.338795  0.328020  0.369262  1
  P  P16  1  0.326774  0.334447  0.870770  1
  P  P17  1  0.225009  0.687596  0.157639  1
  P  P18  1  0.316471  0.771483  0.340174  1
  P  P19  1  0.683632  0.086726  0.158410  1
  P  P20  1  0.314151  0.914033  0.842412  1
  P  P21  1  0.679326  0.231132  0.659396  1
  P  P22  1  0.772719  0.317071  0.840208  1
  P  P23  1  0.671122  0.666119  0.130614  1
  P  P24  1  0.658833  0.674389  0.629201  1
  P  P25  1  0.913375  0.313158  0.343559  1
  P  P26  1  0.765950  0.914378  0.341559  1
  P  P27  1  0.914379  0.764007  0.841849  1
  O  O28  1  0.000392  0.235650  0.430213  1
  O  O29  1  0.090192  0.255257  0.665416  1
  O  O30  1  0.208640  0.999328  0.750094  1
  O  O31  1  0.234472  0.002990  0.928213  1
  O  O32  1  0.093730  0.385090  0.179384  1
  O  O33  1  0.253612  0.088979  0.165661  1
  O  O34  1  0.179953  0.332580  0.830369  1
  O  O35  1  0.097274  0.522153  0.675339  1
  O  O36  1  0.987440  0.757034  0.933898  1
  O  O37  1  0.081211  0.660843  0.163609  1
  O  O38  1  0.339826  0.182564  0.322952  1
  O  O39  1  0.187247  0.478094  0.325948  1
  O  O40  1  0.384648  0.091599  0.678044  1
  O  O41  1  0.344258  0.327446  0.473695  1
  O  O42  1  0.335688  0.329859  0.975146  1
  O  O43  1  0.523621  0.093836  0.174933  1
  O  O44  1  0.332545  0.481408  0.825437  1
  O  O45  1  0.477828  0.185087  0.825499  1
  O  O46  1  0.256506  0.661822  0.661102  1
  O  O47  1  0.204041  0.787863  0.253538  1
  O  O48  1  0.238377  0.762021  0.070616  1
  O  O49  1  0.254030  0.756794  0.432156  1
  O  O50  1  0.379944  0.523799  0.179787  1
  O  O51  1  0.488895  0.330657  0.327372  1
  O  O52  1  0.658052  0.084003  0.665179  1
  O  O53  1  0.343434  0.743079  0.834304  1
  O  O54  1  0.520744  0.384050  0.681305  1
  O  O55  1  0.239442  0.996085  0.572045  1
  O  O56  1  0.757432  0.997169  0.431870  1
  O  O57  1  0.478726  0.618448  0.318090  1
  O  O58  1  0.659568  0.256863  0.159170  1
  O  O59  1  0.784805  0.010455  0.255111  1
  O  O60  1  0.341793  0.914685  0.329367  1
  O  O61  1  0.512012  0.670821  0.671207  1
  O  O62  1  0.618812  0.479531  0.820962  1
  O  O63  1  0.762758  0.247832  0.931469  1
  O  O64  1  0.749200  0.239580  0.568452  1
  O  O65  1  0.790195  0.210023  0.749825  1
  O  O66  1  0.742518  0.339451  0.337075  1
  O  O67  1  0.523840  0.814356  0.174882  1
  O  O68  1  0.476737  0.905089  0.824850  1
  O  O69  1  0.670427  0.513362  0.171457  1
  O  O70  1  0.664794  0.669261  0.524482  1
  O  O71  1  0.674013  0.662072  0.025863  1
  O  O72  1  0.615279  0.905953  0.323067  1
  O  O73  1  0.812488  0.521233  0.673224  1
  O  O74  1  0.665571  0.819340  0.669981  1
  O  O75  1  0.919198  0.338366  0.834264  1
  O  O76  1  0.992073  0.213125  0.247232  1
  O  O77  1  0.000824  0.245561  0.069686  1
  O  O78  1  0.905547  0.476238  0.322968  1
  O  O79  1  0.819705  0.666190  0.172904  1
  O  O80  1  0.745099  0.909206  0.829582  1
  O  O81  1  0.907083  0.613199  0.817744  1
  O  O82  1  0.771097  0.992895  0.075395  1
  O  O83  1  0.911635  0.745984  0.334506  1
  O  O84  1  0.992334  0.771255  0.576245  1
  O  O85  1  0.011400  0.784233  0.756220  1
