# generated using pymatgen
data_LiCuPO4
_symmetry_space_group_name_H-M   'P 1'
_cell_length_a   7.49402601
_cell_length_b   4.85905772
_cell_length_c   17.87545240
_cell_angle_alpha   90.00000000
_cell_angle_beta   87.75806848
_cell_angle_gamma   90.00000000
_symmetry_Int_Tables_number   1
_chemical_formula_structural   LiCuPO4
_chemical_formula_sum   'Li8 Cu8 P8 O32'
_cell_volume   650.41678450
_cell_formula_units_Z   8
loop_
 _symmetry_equiv_pos_site_id
 _symmetry_equiv_pos_as_xyz
  1  'x, y, z'
loop_
 _atom_site_type_symbol
 _atom_site_label
 _atom_site_symmetry_multiplicity
 _atom_site_fract_x
 _atom_site_fract_y
 _atom_site_fract_z
 _atom_site_occupancy
  Li  Li0  1  0.001630  0.770214  0.587937  1
  Li  Li1  1  0.001630  0.729786  0.087937  1
  Li  Li2  1  0.498250  0.344108  0.822568  1
  Li  Li3  1  0.498250  0.155892  0.322568  1
  Li  Li4  1  0.501750  0.844108  0.677432  1
  Li  Li5  1  0.501750  0.655892  0.177432  1
  Li  Li6  1  0.998370  0.270214  0.912063  1
  Li  Li7  1  0.998370  0.229786  0.412063  1
  Cu  Cu8  1  0.176137  0.775118  0.774276  1
  Cu  Cu9  1  0.176137  0.724882  0.274276  1
  Cu  Cu10  1  0.366210  0.251348  0.513431  1
  Cu  Cu11  1  0.366210  0.248652  0.013431  1
  Cu  Cu12  1  0.633790  0.751348  0.986569  1
  Cu  Cu13  1  0.633790  0.748652  0.486569  1
  Cu  Cu14  1  0.823863  0.275118  0.725724  1
  Cu  Cu15  1  0.823863  0.224882  0.225724  1
  P  P16  1  0.235896  0.334094  0.681085  1
  P  P17  1  0.235896  0.165906  0.181085  1
  P  P18  1  0.251995  0.715794  0.936965  1
  P  P19  1  0.251995  0.784206  0.436965  1
  P  P20  1  0.748005  0.215794  0.563035  1
  P  P21  1  0.748005  0.284206  0.063035  1
  P  P22  1  0.764104  0.834094  0.818915  1
  P  P23  1  0.764104  0.665906  0.318915  1
  O  O24  1  0.053402  0.453796  0.712162  1
  O  O25  1  0.053402  0.046204  0.212162  1
  O  O26  1  0.172052  0.609783  0.010537  1
  O  O27  1  0.149687  0.594674  0.870526  1
  O  O28  1  0.243557  0.420477  0.597963  1
  O  O29  1  0.257147  0.020745  0.691617  1
  O  O30  1  0.172052  0.890217  0.510537  1
  O  O31  1  0.149687  0.905326  0.370526  1
  O  O32  1  0.243557  0.079523  0.097963  1
  O  O33  1  0.257147  0.479255  0.191617  1
  O  O34  1  0.257768  0.036328  0.931464  1
  O  O35  1  0.257768  0.463672  0.431464  1
  O  O36  1  0.376999  0.493344  0.727563  1
  O  O37  1  0.376999  0.006656  0.227563  1
  O  O38  1  0.447650  0.585045  0.927086  1
  O  O39  1  0.447650  0.914955  0.427086  1
  O  O40  1  0.552350  0.085045  0.572914  1
  O  O41  1  0.552350  0.414955  0.072914  1
  O  O42  1  0.623001  0.993344  0.772437  1
  O  O43  1  0.623001  0.506656  0.272437  1
  O  O44  1  0.742232  0.536328  0.568536  1
  O  O45  1  0.742232  0.963672  0.068536  1
  O  O46  1  0.742853  0.520745  0.808383  1
  O  O47  1  0.756443  0.920477  0.902037  1
  O  O48  1  0.850313  0.094674  0.629474  1
  O  O49  1  0.827948  0.109783  0.489463  1
  O  O50  1  0.742853  0.979255  0.308383  1
  O  O51  1  0.756443  0.579523  0.402037  1
  O  O52  1  0.850313  0.405326  0.129474  1
  O  O53  1  0.827948  0.390217  0.989463  1
  O  O54  1  0.946598  0.953796  0.787838  1
  O  O55  1  0.946598  0.546204  0.287838  1
