# generated using pymatgen
data_ScH16I3O8
_symmetry_space_group_name_H-M   'P 1'
_cell_length_a   13.30423598
_cell_length_b   8.87333739
_cell_length_c   15.31824761
_cell_angle_alpha   90.00000000
_cell_angle_beta   111.37738681
_cell_angle_gamma   90.00000000
_symmetry_Int_Tables_number   1
_chemical_formula_structural   ScH16I3O8
_chemical_formula_sum   'Sc4 H64 I12 O32'
_cell_volume   1683.94875414
_cell_formula_units_Z   4
loop_
 _symmetry_equiv_pos_site_id
 _symmetry_equiv_pos_as_xyz
  1  'x, y, z'
loop_
 _atom_site_type_symbol
 _atom_site_label
 _atom_site_symmetry_multiplicity
 _atom_site_fract_x
 _atom_site_fract_y
 _atom_site_fract_z
 _atom_site_occupancy
  Sc  Sc0  1  0.222805  0.511637  0.487240  1
  Sc  Sc1  1  0.777195  0.011637  0.012760  1
  Sc  Sc2  1  0.777195  0.488363  0.512760  1
  Sc  Sc3  1  0.222805  0.988363  0.987240  1
  H  H4  1  0.332047  0.612158  0.662919  1
  H  H5  1  0.667953  0.112158  0.837081  1
  H  H6  1  0.667953  0.387842  0.337081  1
  H  H7  1  0.332047  0.887842  0.162919  1
  H  H8  1  0.221953  0.562381  0.671468  1
  H  H9  1  0.778047  0.062381  0.828532  1
  H  H10  1  0.778047  0.437619  0.328532  1
  H  H11  1  0.221953  0.937619  0.171468  1
  H  H12  1  0.421098  0.335311  0.294366  1
  H  H13  1  0.578902  0.835311  0.205634  1
  H  H14  1  0.578902  0.664689  0.705634  1
  H  H15  1  0.421098  0.164689  0.794366  1
  H  H16  1  0.104511  0.300737  0.340751  1
  H  H17  1  0.895489  0.800737  0.159249  1
  H  H18  1  0.895489  0.699263  0.659249  1
  H  H19  1  0.104511  0.199263  0.840751  1
  H  H20  1  0.514474  0.602861  0.607160  1
  H  H21  1  0.485526  0.102861  0.892840  1
  H  H22  1  0.485526  0.397139  0.392840  1
  H  H23  1  0.514474  0.897139  0.107160  1
  H  H24  1  0.416246  0.453000  0.514308  1
  H  H25  1  0.583754  0.953000  0.985692  1
  H  H26  1  0.583754  0.547000  0.485692  1
  H  H27  1  0.416246  0.047000  0.014308  1
  H  H28  1  0.266894  0.031486  0.604358  1
  H  H29  1  0.733106  0.531486  0.895642  1
  H  H30  1  0.733106  0.968514  0.395642  1
  H  H31  1  0.266894  0.468514  0.104358  1
  H  H32  1  0.569146  0.084958  0.524740  1
  H  H33  1  0.430854  0.584958  0.975260  1
  H  H34  1  0.430854  0.915042  0.475260  1
  H  H35  1  0.569146  0.415042  0.024740  1
  H  H36  1  0.067698  0.729165  0.396084  1
  H  H37  1  0.932302  0.229165  0.103916  1
  H  H38  1  0.932302  0.270835  0.603916  1
  H  H39  1  0.067698  0.770835  0.896084  1
  H  H40  1  0.118728  0.778932  0.501225  1
  H  H41  1  0.881272  0.278932  0.998775  1
  H  H42  1  0.881272  0.221068  0.498775  1
  H  H43  1  0.118728  0.721068  0.001225  1
  H  H44  1  0.094772  0.281822  0.506375  1
  H  H45  1  0.905228  0.781822  0.993625  1
  H  H46  1  0.905228  0.718178  0.493625  1
  H  H47  1  0.094772  0.218178  0.006375  1
  H  H48  1  0.026682  0.446575  0.321784  1
  H  H49  1  0.973318  0.946575  0.178216  1
  H  H50  1  0.973318  0.553425  0.678216  1
  H  H51  1  0.026682  0.053425  0.821784  1
  H  H52  1  0.183897  0.759636  0.318543  1
  H  H53  1  0.816103  0.259636  0.181457  1
  H  H54  1  0.816103  0.240364  0.681457  1
  H  H55  1  0.183897  0.740364  0.818543  1
  H  H56  1  0.237912  0.606971  0.308034  1
  H  H57  1  0.762088  0.106971  0.191966  1
  H  H58  1  0.762088  0.393029  0.691966  1
  H  H59  1  0.237912  0.893029  0.808034  1
  H  H60  1  0.491689  0.714043  0.769589  1
  H  H61  1  0.508311  0.214043  0.730411  1
  H  H62  1  0.508311  0.285957  0.230411  1
  H  H63  1  0.491689  0.785957  0.269589  1
  H  H64  1  0.491144  0.012231  0.627384  1
  H  H65  1  0.508856  0.512231  0.872616  1
  H  H66  1  0.508856  0.987769  0.372616  1
  H  H67  1  0.491144  0.487769  0.127384  1
  I  I68  1  0.452485  0.676091  0.877110  1
  I  I69  1  0.547515  0.176091  0.622890  1
  I  I70  1  0.547515  0.323909  0.122890  1
  I  I71  1  0.452485  0.823909  0.377110  1
  I  I72  1  0.134759  0.462567  0.796252  1
  I  I73  1  0.865241  0.962567  0.703748  1
  I  I74  1  0.865241  0.537433  0.203748  1
  I  I75  1  0.134759  0.037433  0.296252  1
  I  I76  1  0.160081  0.984576  0.626869  1
  I  I77  1  0.839919  0.484576  0.873131  1
  I  I78  1  0.839919  0.015424  0.373131  1
  I  I79  1  0.160081  0.515424  0.126869  1
  O  O80  1  0.254320  0.610243  0.629861  1
  O  O81  1  0.745680  0.110243  0.870139  1
  O  O82  1  0.745680  0.389757  0.370139  1
  O  O83  1  0.254320  0.889757  0.129861  1
  O  O84  1  0.249871  0.304612  0.542216  1
  O  O85  1  0.750129  0.804612  0.957784  1
  O  O86  1  0.750129  0.695388  0.457784  1
  O  O87  1  0.249871  0.195388  0.042216  1
  O  O88  1  0.379003  0.545854  0.517917  1
  O  O89  1  0.620997  0.045854  0.982083  1
  O  O90  1  0.620997  0.454146  0.482083  1
  O  O91  1  0.379003  0.954146  0.017917  1
  O  O92  1  0.094096  0.399529  0.366989  1
  O  O93  1  0.905904  0.899529  0.133011  1
  O  O94  1  0.905904  0.600471  0.633011  1
  O  O95  1  0.094096  0.100471  0.866989  1
  O  O96  1  0.091268  0.691090  0.460438  1
  O  O97  1  0.908732  0.191090  0.039562  1
  O  O98  1  0.908732  0.308910  0.539562  1
  O  O99  1  0.091268  0.808910  0.960438  1
  O  O100  1  0.147764  0.342892  0.555382  1
  O  O101  1  0.852236  0.842892  0.944618  1
  O  O102  1  0.852236  0.657108  0.444618  1
  O  O103  1  0.147764  0.157108  0.055382  1
  O  O104  1  0.214021  0.664430  0.351539  1
  O  O105  1  0.785979  0.164430  0.148461  1
  O  O106  1  0.785979  0.335570  0.648461  1
  O  O107  1  0.214021  0.835570  0.851539  1
  O  O108  1  0.589083  0.613345  0.652845  1
  O  O109  1  0.410917  0.113345  0.847155  1
  O  O110  1  0.410917  0.386655  0.347155  1
  O  O111  1  0.589083  0.886655  0.152845  1
