# generated using pymatgen
data_La5Mn7Co(PbO8)3
_symmetry_space_group_name_H-M   'P 1'
_cell_length_a   5.51434360
_cell_length_b   22.21495470
_cell_length_c   9.61982140
_cell_angle_alpha   30.05087987
_cell_angle_beta   55.77664756
_cell_angle_gamma   60.85399266
_symmetry_Int_Tables_number   1
_chemical_formula_structural   La5Mn7Co(PbO8)3
_chemical_formula_sum   'La5 Mn7 Co1 Pb3 O24'
_cell_volume   487.94512795
_cell_formula_units_Z   1
loop_
 _symmetry_equiv_pos_site_id
 _symmetry_equiv_pos_as_xyz
  1  'x, y, z'
loop_
 _atom_site_type_symbol
 _atom_site_label
 _atom_site_symmetry_multiplicity
 _atom_site_fract_x
 _atom_site_fract_y
 _atom_site_fract_z
 _atom_site_occupancy
  La  La0  1  0.747459  0.999014  0.753898  1
  La  La1  1  0.245952  0.749983  0.252312  1
  La  La2  1  0.749825  0.249785  0.750198  1
  La  La3  1  0.746161  0.500062  0.752396  1
  La  La4  1  0.756418  0.752158  0.741590  1
  Mn  Mn5  1  0.997761  0.999722  0.001068  1
  Mn  Mn6  1  0.500035  0.249768  0.500364  1
  Mn  Mn7  1  -0.000104  0.249975  0.000223  1
  Mn  Mn8  1  0.501084  0.499947  0.499040  1
  Mn  Mn9  1  0.002288  0.500533  0.997670  1
  Mn  Mn10  1  0.000580  0.749901  0.000485  1
  Mn  Mn11  1  0.498498  0.000003  0.500444  1
  Co  Co12  1  0.499445  0.750092  0.500272  1
  Pb  Pb13  1  0.251719  0.250680  0.247467  1
  Pb  Pb14  1  0.250620  0.501226  0.246906  1
  Pb  Pb15  1  0.247995  0.999556  0.251222  1
  O  O16  1  0.190563  0.108236  0.312141  1
  O  O17  1  0.751871  0.026020  0.196680  1
  O  O18  1  0.188523  0.359737  0.311481  1
  O  O19  1  0.704540  0.135698  0.249245  1
  O  O20  1  0.311100  0.109891  0.750602  1
  O  O21  1  0.251661  0.226581  0.795830  1
  O  O22  1  0.747693  0.279090  0.192622  1
  O  O23  1  0.183604  0.613381  0.314109  1
  O  O24  1  0.700580  0.387102  0.249200  1
  O  O25  1  0.312833  0.361577  0.745441  1
  O  O26  1  0.797424  0.137859  0.701076  1
  O  O27  1  0.251013  0.479996  0.790608  1
  O  O28  1  0.752197  0.532549  0.183317  1
  O  O29  1  0.194300  0.859739  0.298856  1
  O  O30  1  0.689449  0.639845  0.253020  1
  O  O31  1  0.303471  0.612683  0.738100  1
  O  O32  1  0.797199  0.387921  0.700879  1
  O  O33  1  0.239198  0.728515  0.801818  1
  O  O34  1  0.758343  0.779243  0.185163  1
  O  O35  1  0.723083  0.885076  0.243936  1
  O  O36  1  0.308720  0.853284  0.774037  1
  O  O37  1  0.810417  0.635573  0.697172  1
  O  O38  1  0.248467  0.972998  0.804756  1
  O  O39  1  0.788013  0.885001  0.714358  1
