# generated using pymatgen
data_Li3Fe8(BO3)8
_symmetry_space_group_name_H-M   'P 1'
_cell_length_a   5.28720366
_cell_length_b   9.07107525
_cell_length_c   11.35973099
_cell_angle_alpha   113.32724799
_cell_angle_beta   77.14347937
_cell_angle_gamma   90.19456791
_symmetry_Int_Tables_number   1
_chemical_formula_structural   Li3Fe8(BO3)8
_chemical_formula_sum   'Li3 Fe8 B8 O24'
_cell_volume   485.55458092
_cell_formula_units_Z   1
loop_
 _symmetry_equiv_pos_site_id
 _symmetry_equiv_pos_as_xyz
  1  'x, y, z'
loop_
 _atom_site_type_symbol
 _atom_site_label
 _atom_site_symmetry_multiplicity
 _atom_site_fract_x
 _atom_site_fract_y
 _atom_site_fract_z
 _atom_site_occupancy
  Li  Li0  1  0.600446  0.055015  0.095831  1
  Li  Li1  1  0.935114  0.430237  0.834502  1
  Li  Li2  1  0.674963  0.667024  0.347785  1
  Fe  Fe3  1  0.406250  0.265110  0.873292  1
  Fe  Fe4  1  0.098385  0.225486  0.124339  1
  Fe  Fe5  1  0.847683  0.140034  0.616499  1
  Fe  Fe6  1  0.651304  0.346615  0.371625  1
  Fe  Fe7  1  0.349290  0.646434  0.627056  1
  Fe  Fe8  1  0.152809  0.849816  0.371147  1
  Fe  Fe9  1  0.901914  0.785103  0.868113  1
  Fe  Fe10  1  0.593675  0.725935  0.119850  1
  B  B11  1  0.651895  0.014468  0.366782  1
  B  B12  1  0.889357  0.116534  0.876384  1
  B  B13  1  0.138534  0.517722  0.375041  1
  B  B14  1  0.404982  0.593942  0.869907  1
  B  B15  1  0.849861  0.481179  0.621326  1
  B  B16  1  0.594443  0.396029  0.128165  1
  B  B17  1  0.353561  0.979419  0.624985  1
  B  B18  1  0.109012  0.890918  0.118097  1
  O  O19  1  0.120577  0.149827  0.914559  1
  O  O20  1  0.473662  0.122146  0.674378  1
  O  O21  1  0.234387  0.019943  0.114472  1
  O  O22  1  0.547554  0.140549  0.351497  1
  O  O23  1  0.856442  0.030067  0.427644  1
  O  O24  1  0.795664  0.222440  0.827551  1
  O  O25  1  0.280875  0.459981  0.868166  1
  O  O26  1  0.027974  0.371109  0.337293  1
  O  O27  1  0.693845  0.289250  0.172683  1
  O  O28  1  0.631659  0.474438  0.569023  1
  O  O29  1  0.927346  0.354351  0.645049  1
  O  O30  1  0.396609  0.347424  0.064378  1
  O  O31  1  0.634994  0.625249  0.916615  1
  O  O32  1  0.380593  0.525715  0.412684  1
  O  O33  1  0.304616  0.695429  0.822699  1
  O  O34  1  0.976452  0.620918  0.656865  1
  O  O35  1  0.690390  0.542330  0.149771  1
  O  O36  1  0.220553  0.780805  0.154392  1
  O  O37  1  0.131770  0.986293  0.581510  1
  O  O38  1  0.459660  0.837260  0.614552  1
  O  O39  1  0.021273  0.648925  0.373342  1
  O  O40  1  0.752719  0.997305  0.893980  1
  O  O41  1  0.557235  0.861500  0.320657  1
  O  O42  1  0.864969  0.864648  0.084112  1
