# generated using pymatgen
data_LiFe4(PO4)3
_symmetry_space_group_name_H-M   'P 1'
_cell_length_a   9.35551588
_cell_length_b   6.46609037
_cell_length_c   14.92721306
_cell_angle_alpha   90.00000000
_cell_angle_beta   89.34624483
_cell_angle_gamma   90.00000000
_symmetry_Int_Tables_number   1
_chemical_formula_structural   LiFe4(PO4)3
_chemical_formula_sum   'Li4 Fe16 P12 O48'
_cell_volume   902.94224116
_cell_formula_units_Z   4
loop_
 _symmetry_equiv_pos_site_id
 _symmetry_equiv_pos_as_xyz
  1  'x, y, z'
loop_
 _atom_site_type_symbol
 _atom_site_label
 _atom_site_symmetry_multiplicity
 _atom_site_fract_x
 _atom_site_fract_y
 _atom_site_fract_z
 _atom_site_occupancy
  Li  Li0  1  0.163093  0.750000  0.155175  1
  Li  Li1  1  0.336002  0.250000  0.322099  1
  Li  Li2  1  0.335089  0.250000  0.656012  1
  Li  Li3  1  0.330289  0.250000  0.996255  1
  Fe  Fe4  1  0.020115  0.506885  0.665488  1
  Fe  Fe5  1  0.006046  0.508557  0.001017  1
  Fe  Fe6  1  0.004301  0.513072  0.335059  1
  Fe  Fe7  1  0.006046  0.991443  0.001017  1
  Fe  Fe8  1  0.004301  0.986928  0.335059  1
  Fe  Fe9  1  0.020115  0.993115  0.665488  1
  Fe  Fe10  1  0.498888  0.987807  0.163034  1
  Fe  Fe11  1  0.498888  0.512193  0.163034  1
  Fe  Fe12  1  0.482985  0.985310  0.488697  1
  Fe  Fe13  1  0.488218  0.995030  0.835726  1
  Fe  Fe14  1  0.482985  0.514690  0.488697  1
  Fe  Fe15  1  0.488218  0.504970  0.835726  1
  Fe  Fe16  1  0.651318  0.750000  0.676424  1
  Fe  Fe17  1  0.852089  0.250000  0.842072  1
  Fe  Fe18  1  0.858214  0.250000  0.501937  1
  Fe  Fe19  1  0.844015  0.250000  0.174974  1
  P  P20  1  0.179216  0.250000  0.160205  1
  P  P21  1  0.174392  0.250000  0.488714  1
  P  P22  1  0.174493  0.250000  0.825183  1
  P  P23  1  0.324505  0.750000  0.321259  1
  P  P24  1  0.328208  0.750000  0.657501  1
  P  P25  1  0.320802  0.750000  0.993351  1
  P  P26  1  0.674865  0.250000  0.346799  1
  P  P27  1  0.674913  0.250000  0.010853  1
  P  P28  1  0.684358  0.250000  0.674899  1
  P  P29  1  0.820170  0.750000  0.172559  1
  P  P30  1  0.816565  0.750000  0.840074  1
  P  P31  1  0.825353  0.750000  0.509490  1
  O  O32  1  0.114314  0.054194  0.117536  1
  O  O33  1  0.109480  0.055694  0.783116  1
  O  O34  1  0.106566  0.055827  0.448496  1
  O  O35  1  0.106566  0.444173  0.448496  1
  O  O36  1  0.109480  0.444306  0.783116  1
  O  O37  1  0.114314  0.445806  0.117536  1
  O  O38  1  0.141076  0.250000  0.262461  1
  O  O39  1  0.143075  0.250000  0.592950  1
  O  O40  1  0.137412  0.250000  0.928372  1
  O  O41  1  0.158197  0.750000  0.301470  1
  O  O42  1  0.153946  0.750000  0.985768  1
  O  O43  1  0.163603  0.750000  0.647950  1
  O  O44  1  0.344195  0.250000  0.139352  1
  O  O45  1  0.340021  0.250000  0.467733  1
  O  O46  1  0.341580  0.250000  0.805253  1
  O  O47  1  0.361800  0.750000  0.422213  1
  O  O48  1  0.361410  0.750000  0.094934  1
  O  O49  1  0.382426  0.750000  0.756113  1
  O  O50  1  0.377339  0.950561  0.949409  1
  O  O51  1  0.383781  0.950620  0.277965  1
  O  O52  1  0.389581  0.948441  0.611877  1
  O  O53  1  0.389581  0.551559  0.611877  1
  O  O54  1  0.377339  0.549439  0.949409  1
  O  O55  1  0.383781  0.549380  0.277965  1
  O  O56  1  0.617282  0.052879  0.053277  1
  O  O57  1  0.618581  0.053194  0.390630  1
  O  O58  1  0.617563  0.054850  0.718833  1
  O  O59  1  0.617282  0.447121  0.053277  1
  O  O60  1  0.618581  0.446806  0.390630  1
  O  O61  1  0.617563  0.445150  0.718833  1
  O  O62  1  0.646394  0.250000  0.243076  1
  O  O63  1  0.647056  0.250000  0.906346  1
  O  O64  1  0.660246  0.250000  0.572997  1
  O  O65  1  0.656556  0.750000  0.183037  1
  O  O66  1  0.649878  0.750000  0.843559  1
  O  O67  1  0.659099  0.750000  0.533066  1
  O  O68  1  0.848723  0.250000  0.698945  1
  O  O69  1  0.846123  0.250000  0.027455  1
  O  O70  1  0.845459  0.250000  0.361504  1
  O  O71  1  0.860506  0.750000  0.737814  1
  O  O72  1  0.868190  0.750000  0.410334  1
  O  O73  1  0.881454  0.750000  0.075614  1
  O  O74  1  0.875121  0.552769  0.886089  1
  O  O75  1  0.875121  0.947231  0.886089  1
  O  O76  1  0.883338  0.550986  0.557363  1
  O  O77  1  0.880045  0.551576  0.220981  1
  O  O78  1  0.880045  0.948424  0.220981  1
  O  O79  1  0.883338  0.949014  0.557363  1
