# generated using pymatgen
data_NaLi3Ti2Fe2(PO4)6
_symmetry_space_group_name_H-M   'P 1'
_cell_length_a   8.95553199
_cell_length_b   8.95762333
_cell_length_c   26.87349516
_cell_angle_alpha   56.62822240
_cell_angle_beta   56.66623730
_cell_angle_gamma   56.66515721
_symmetry_Int_Tables_number   1
_chemical_formula_structural   NaLi3Ti2Fe2(PO4)6
_chemical_formula_sum   'Na3 Li9 Ti6 Fe6 P18 O72'
_cell_volume   1406.54543993
_cell_formula_units_Z   3
loop_
 _symmetry_equiv_pos_site_id
 _symmetry_equiv_pos_as_xyz
  1  'x, y, z'
loop_
 _atom_site_type_symbol
 _atom_site_label
 _atom_site_symmetry_multiplicity
 _atom_site_fract_x
 _atom_site_fract_y
 _atom_site_fract_z
 _atom_site_occupancy
  Na  Na0  1  0.005646  0.008857  0.337000  1
  Na  Na1  1  0.497801  0.498432  0.836063  1
  Na  Na2  1  0.009091  0.009452  0.666319  1
  Li  Li3  1  0.276430  0.910272  0.217484  1
  Li  Li4  1  0.650837  0.279260  0.303650  1
  Li  Li5  1  0.918151  0.674752  0.087021  1
  Li  Li6  1  0.279840  0.910023  0.550404  1
  Li  Li7  1  0.655999  0.280914  0.632567  1
  Li  Li8  1  0.911259  0.652642  0.427358  1
  Li  Li9  1  0.261174  0.918510  0.894153  1
  Li  Li10  1  0.680121  0.259671  0.974941  1
  Li  Li11  1  0.911211  0.658043  0.758558  1
  Ti  Ti12  1  0.144496  0.141881  0.047839  1
  Ti  Ti13  1  0.361423  0.355270  0.118595  1
  Ti  Ti14  1  0.142329  0.144807  0.385036  1
  Ti  Ti15  1  0.149882  0.147810  0.712601  1
  Ti  Ti16  1  0.853022  0.848256  0.283559  1
  Ti  Ti17  1  0.353878  0.357048  0.785219  1
  Fe  Fe18  1  0.355239  0.357468  0.452706  1
  Fe  Fe19  1  0.651667  0.649926  0.216393  1
  Fe  Fe20  1  0.652776  0.658571  0.550079  1
  Fe  Fe21  1  0.851938  0.854072  0.617714  1
  Fe  Fe22  1  0.653335  0.650566  0.885912  1
  Fe  Fe23  1  0.855948  0.855446  0.952011  1
  P  P24  1  0.038388  0.751937  0.152283  1
  P  P25  1  0.456103  0.036678  0.251919  1
  P  P26  1  0.756716  0.460549  0.012723  1
  P  P27  1  0.243655  0.540096  0.323823  1
  P  P28  1  0.537213  0.969801  0.082225  1
  P  P29  1  0.039084  0.752516  0.487379  1
  P  P30  1  0.970642  0.247908  0.178675  1
  P  P31  1  0.462125  0.038742  0.583787  1
  P  P32  1  0.749427  0.458146  0.346284  1
  P  P33  1  0.247964  0.540845  0.655665  1
  P  P34  1  0.541173  0.971365  0.414614  1
  P  P35  1  0.039009  0.757098  0.819287  1
  P  P36  1  0.970918  0.244509  0.514786  1
  P  P37  1  0.460807  0.039871  0.918159  1
  P  P38  1  0.755971  0.458586  0.679734  1
  P  P39  1  0.249983  0.532673  0.989831  1
  P  P40  1  0.535561  0.966267  0.750753  1
  P  P41  1  0.966432  0.249500  0.844766  1
  O  O42  1  0.168282  0.209150  0.175534  1
  O  O43  1  0.219343  0.516584  0.055491  1
  O  O44  1  0.521099  0.167122  0.072292  1
  O  O45  1  0.113911  0.898087  0.089102  1
  O  O46  1  0.188574  0.548238  0.156636  1
  O  O47  1  0.998840  0.796801  0.207591  1
  O  O48  1  0.264745  0.108382  0.301364  1
  O  O49  1  0.469180  0.189297  0.184183  1
  O  O50  1  0.551716  0.464204  0.062631  1
  O  O51  1  0.190969  0.383943  0.335265  1
  O  O52  1  0.111180  0.746136  0.292763  1
  O  O53  1  0.383145  0.005010  0.063852  1
  O  O54  1  0.623363  0.996310  0.266395  1
  O  O55  1  0.902675  0.267103  0.036855  1
  O  O56  1  0.169979  0.202147  0.510154  1
  O  O57  1  0.790301  0.625711  0.002372  1
  O  O58  1  0.202722  0.533659  0.388820  1
  O  O59  1  0.451502  0.517191  0.276711  1
  O  O60  1  0.513249  0.828663  0.151732  1
  O  O61  1  0.533752  0.167734  0.400243  1
  O  O62  1  0.108164  0.904043  0.421468  1
  O  O63  1  0.741098  0.886966  0.037659  1
  O  O64  1  0.183391  0.550536  0.492110  1
  O  O65  1  0.003976  0.192295  0.127812  1
  O  O66  1  0.003383  0.801967  0.539929  1
  O  O67  1  0.832561  0.457302  0.170012  1
  O  O68  1  0.263072  0.109456  0.633825  1
  O  O69  1  0.881160  0.114650  0.247639  1
  O  O70  1  0.465832  0.854150  0.254945  1
  O  O71  1  0.477037  0.183648  0.516574  1
  O  O72  1  0.549200  0.481769  0.395384  1
  O  O73  1  0.766270  0.465153  0.284259  1
  O  O74  1  0.194704  0.385022  0.667060  1
  O  O75  1  0.853099  0.766074  0.155974  1
  O  O76  1  0.113811  0.746261  0.628781  1
  O  O77  1  0.382662  0.003201  0.398561  1
  O  O78  1  0.615469  0.002838  0.602238  1
  O  O79  1  0.901436  0.266248  0.369509  1
  O  O80  1  0.161012  0.225615  0.839482  1
  O  O81  1  0.804954  0.622533  0.330123  1
  O  O82  1  0.214611  0.523386  0.722296  1
  O  O83  1  0.455419  0.515867  0.608751  1
  O  O84  1  0.518762  0.830590  0.484008  1
  O  O85  1  0.517956  0.163935  0.740842  1
  O  O86  1  0.106625  0.904790  0.753548  1
  O  O87  1  0.745654  0.878276  0.370188  1
  O  O88  1  0.199552  0.555549  0.820725  1
  O  O89  1  0.001137  0.192023  0.462931  1
  O  O90  1  0.009465  0.795285  0.873104  1
  O  O91  1  0.831620  0.453299  0.506326  1
  O  O92  1  0.266515  0.109407  0.966977  1
  O  O93  1  0.880875  0.114174  0.583398  1
  O  O94  1  0.463487  0.852151  0.590680  1
  O  O95  1  0.462423  0.198628  0.850648  1
  O  O96  1  0.553939  0.461664  0.732788  1
  O  O97  1  0.760886  0.468156  0.619521  1
  O  O98  1  0.195479  0.381406  0.999491  1
  O  O99  1  0.852516  0.771652  0.488222  1
  O  O100  1  0.118496  0.737680  0.961242  1
  O  O101  1  0.384294  0.000550  0.730977  1
  O  O102  1  0.625449  0.012339  0.928859  1
  O  O103  1  0.903760  0.260836  0.702530  1
  O  O104  1  0.795040  0.616612  0.671800  1
  O  O105  1  0.460555  0.505664  0.941567  1
  O  O106  1  0.504670  0.821075  0.820525  1
  O  O107  1  0.742744  0.882501  0.707424  1
  O  O108  1  0.003070  0.196254  0.792721  1
  O  O109  1  0.817270  0.457638  0.836195  1
  O  O110  1  0.885082  0.116183  0.912671  1
  O  O111  1  0.471463  0.858475  0.919592  1
  O  O112  1  0.767800  0.467205  0.951517  1
  O  O113  1  0.859906  0.758514  0.822065  1
