# generated using pymatgen
data_Li4MnFe3(BO3)4
_symmetry_space_group_name_H-M   'P 1'
_cell_length_a   11.07065497
_cell_length_b   5.22160391
_cell_length_c   5.16697773
_cell_angle_alpha   60.78937130
_cell_angle_beta   87.72610403
_cell_angle_gamma   75.54323678
_symmetry_Int_Tables_number   1
_chemical_formula_structural   Li4MnFe3(BO3)4
_chemical_formula_sum   'Li4 Mn1 Fe3 B4 O12'
_cell_volume   251.25164895
_cell_formula_units_Z   1
loop_
 _symmetry_equiv_pos_site_id
 _symmetry_equiv_pos_as_xyz
  1  'x, y, z'
loop_
 _atom_site_type_symbol
 _atom_site_label
 _atom_site_symmetry_multiplicity
 _atom_site_fract_x
 _atom_site_fract_y
 _atom_site_fract_z
 _atom_site_occupancy
  Li  Li0  1  0.164298  0.367618  0.400849  1
  Li  Li1  1  0.337917  0.626902  0.103200  1
  Li  Li2  1  0.661567  0.372725  0.897535  1
  Li  Li3  1  0.834677  0.633667  0.596255  1
  Mn  Mn4  1  0.117543  0.748751  0.721778  1
  Fe  Fe5  1  0.384018  0.250811  0.785703  1
  Fe  Fe6  1  0.617968  0.743387  0.217390  1
  Fe  Fe7  1  0.882013  0.244836  0.283819  1
  B  B8  1  0.130836  0.074503  0.060351  1
  B  B9  1  0.371902  0.923812  0.439856  1
  B  B10  1  0.629269  0.075022  0.560029  1
  B  B11  1  0.867778  0.929039  0.940734  1
  O  O12  1  0.162148  0.303672  0.803437  1
  O  O13  1  0.085665  0.134056  0.288423  1
  O  O14  1  0.149309  0.786037  0.097398  1
  O  O15  1  0.342830  0.685813  0.695439  1
  O  O16  1  0.353701  0.206768  0.412332  1
  O  O17  1  0.413574  0.873243  0.203635  1
  O  O18  1  0.588146  0.125307  0.796151  1
  O  O19  1  0.646920  0.792577  0.586543  1
  O  O20  1  0.658067  0.312961  0.303610  1
  O  O21  1  0.851309  0.214410  0.910425  1
  O  O22  1  0.910115  0.881521  0.702435  1
  O  O23  1  0.838430  0.692562  0.192672  1
