# generated using pymatgen
data_Li4Ni3O3F4
_symmetry_space_group_name_H-M   'P 1'
_cell_length_a   2.94239434
_cell_length_b   2.94239434
_cell_length_c   14.67827869
_cell_angle_alpha   95.75238875
_cell_angle_beta   95.75238875
_cell_angle_gamma   90.00000000
_symmetry_Int_Tables_number   1
_chemical_formula_structural   Li4Ni3O3F4
_chemical_formula_sum   'Li4 Ni3 O3 F4'
_cell_volume   125.79678753
_cell_formula_units_Z   1
loop_
 _symmetry_equiv_pos_site_id
 _symmetry_equiv_pos_as_xyz
  1  'x, y, z'
loop_
 _atom_site_type_symbol
 _atom_site_label
 _atom_site_symmetry_multiplicity
 _atom_site_fract_x
 _atom_site_fract_y
 _atom_site_fract_z
 _atom_site_occupancy
  Li  Li0  1  0.497921  0.497921  0.995842  1
  Li  Li1  1  0.787793  0.787793  0.575586  1
  Li  Li2  1  0.358686  0.358686  0.717374  1
  Li  Li3  1  0.927028  0.927028  0.854055  1
  Ni  Ni4  1  0.070705  0.070705  0.141408  1
  Ni  Ni5  1  0.642857  0.642857  0.285714  1
  Ni  Ni6  1  0.215010  0.215010  0.430020  1
  O  O7  1  0.569628  0.569628  0.139256  1
  O  O8  1  0.142857  0.142857  0.285714  1
  O  O9  1  0.716086  0.716086  0.432172  1
  F  F10  1  0.996117  0.996117  0.992235  1
  F  F11  1  0.289597  0.289597  0.579193  1
  F  F12  1  0.858224  0.858224  0.716449  1
  F  F13  1  0.427490  0.427490  0.854980  1
