# generated using pymatgen
data_SnBO3
_symmetry_space_group_name_H-M   'P 1'
_cell_length_a   5.20115059
_cell_length_b   5.20115033
_cell_length_c   12.49287553
_cell_angle_alpha   83.76980001
_cell_angle_beta   96.23020209
_cell_angle_gamma   62.18260311
_symmetry_Int_Tables_number   1
_chemical_formula_structural   SnBO3
_chemical_formula_sum   'Sn4 B4 O12'
_cell_volume   292.22743223
_cell_formula_units_Z   4
loop_
 _symmetry_equiv_pos_site_id
 _symmetry_equiv_pos_as_xyz
  1  'x, y, z'
loop_
 _atom_site_type_symbol
 _atom_site_label
 _atom_site_symmetry_multiplicity
 _atom_site_fract_x
 _atom_site_fract_y
 _atom_site_fract_z
 _atom_site_occupancy
  Sn  Sn0  1  0.139766  0.615968  0.374214  1
  Sn  Sn1  1  0.492801  0.148569  0.129987  1
  Sn  Sn2  1  0.384032  0.860234  0.874214  1
  Sn  Sn3  1  0.851431  0.507199  0.629987  1
  B  B4  1  0.117220  0.472771  0.877853  1
  B  B5  1  0.522251  0.157962  0.628353  1
  B  B6  1  0.527229  0.882780  0.377853  1
  B  B7  1  0.842038  0.477749  0.128353  1
  O  O8  1  0.108236  0.477870  0.154577  1
  O  O9  1  0.259406  0.423400  0.606185  1
  O  O10  1  0.024987  0.763288  0.872221  1
  O  O11  1  0.329809  0.245901  0.961589  1
  O  O12  1  0.657276  0.969569  0.297452  1
  O  O13  1  0.236712  0.975013  0.372221  1
  O  O14  1  0.782484  0.162019  0.621318  1
  O  O15  1  0.522130  0.891764  0.654577  1
  O  O16  1  0.576600  0.740594  0.106185  1
  O  O17  1  0.837981  0.217516  0.121318  1
  O  O18  1  0.754099  0.670191  0.461589  1
  O  O19  1  0.030431  0.342724  0.797452  1
