# generated using pymatgen
data_Li3Fe2P2(CO7)2
_symmetry_space_group_name_H-M   'P 1'
_cell_length_a   8.38482226
_cell_length_b   5.14189590
_cell_length_c   12.96955038
_cell_angle_alpha   90.06349169
_cell_angle_beta   90.90135265
_cell_angle_gamma   84.90932275
_symmetry_Int_Tables_number   1
_chemical_formula_structural   Li3Fe2P2(CO7)2
_chemical_formula_sum   'Li6 Fe4 P4 C4 O28'
_cell_volume   556.89311223
_cell_formula_units_Z   2
loop_
 _symmetry_equiv_pos_site_id
 _symmetry_equiv_pos_as_xyz
  1  'x, y, z'
loop_
 _atom_site_type_symbol
 _atom_site_label
 _atom_site_symmetry_multiplicity
 _atom_site_fract_x
 _atom_site_fract_y
 _atom_site_fract_z
 _atom_site_occupancy
  Li  Li0  1  0.108697  0.775714  0.126457  1
  Li  Li1  1  0.100898  0.757581  0.631790  1
  Li  Li2  1  0.285815  0.247190  0.520698  1
  Li  Li3  1  0.714185  0.752810  0.979302  1
  Li  Li4  1  0.891303  0.224286  0.373543  1
  Li  Li5  1  0.899102  0.242419  0.868210  1
  Fe  Fe6  1  0.334443  0.802611  0.370690  1
  Fe  Fe7  1  0.327983  0.800009  0.874181  1
  Fe  Fe8  1  0.665557  0.197389  0.129310  1
  Fe  Fe9  1  0.672017  0.199991  0.625819  1
  P  P10  1  0.421346  0.724293  0.121187  1
  P  P11  1  0.422638  0.729509  0.623952  1
  P  P12  1  0.578654  0.275707  0.378813  1
  P  P13  1  0.577362  0.270491  0.876048  1
  C  C14  1  0.036453  0.707831  0.880073  1
  C  C15  1  0.045521  0.699745  0.377741  1
  C  C16  1  0.954479  0.300255  0.122259  1
  C  C17  1  0.963547  0.292169  0.619927  1
  O  O18  1  0.074943  0.945284  0.372640  1
  O  O19  1  0.069587  0.950327  0.875010  1
  O  O20  1  0.089683  0.384891  0.124396  1
  O  O21  1  0.102674  0.366911  0.606217  1
  O  O22  1  0.158353  0.535375  0.870581  1
  O  O23  1  0.174768  0.534324  0.383751  1
  O  O24  1  0.306032  0.833588  0.534226  1
  O  O25  1  0.303804  0.792051  0.029938  1
  O  O26  1  0.319207  0.803028  0.216857  1
  O  O27  1  0.314402  0.774123  0.719678  1
  O  O28  1  0.423166  0.135205  0.387584  1
  O  O29  1  0.425283  0.127341  0.870558  1
  O  O30  1  0.475581  0.428686  0.122538  1
  O  O31  1  0.466903  0.430770  0.607926  1
  O  O32  1  0.524419  0.571314  0.377462  1
  O  O33  1  0.533097  0.569230  0.892074  1
  O  O34  1  0.576834  0.864795  0.112416  1
  O  O35  1  0.574717  0.872659  0.629442  1
  O  O36  1  0.680793  0.196972  0.283143  1
  O  O37  1  0.696196  0.207949  0.470062  1
  O  O38  1  0.685598  0.225877  0.780322  1
  O  O39  1  0.693968  0.166412  0.965774  1
  O  O40  1  0.825232  0.465676  0.116249  1
  O  O41  1  0.841647  0.464625  0.629419  1
  O  O42  1  0.910317  0.615109  0.375604  1
  O  O43  1  0.897326  0.633089  0.893783  1
  O  O44  1  0.925057  0.054716  0.127360  1
  O  O45  1  0.930413  0.049673  0.624990  1
