# generated using pymatgen
data_H13ClO6
_symmetry_space_group_name_H-M   'P 1'
_cell_length_a   6.38380009
_cell_length_b   6.53489351
_cell_length_c   18.04711149
_cell_angle_alpha   90.00000672
_cell_angle_beta   90.00000262
_cell_angle_gamma   90.00000967
_symmetry_Int_Tables_number   1
_chemical_formula_structural   H13ClO6
_chemical_formula_sum   'H52 Cl4 O24'
_cell_volume   752.87953940
_cell_formula_units_Z   4
loop_
 _symmetry_equiv_pos_site_id
 _symmetry_equiv_pos_as_xyz
  1  'x, y, z'
loop_
 _atom_site_type_symbol
 _atom_site_label
 _atom_site_symmetry_multiplicity
 _atom_site_fract_x
 _atom_site_fract_y
 _atom_site_fract_z
 _atom_site_occupancy
  H  H0  1  0.100970  0.517872  0.705632  1
  H  H1  1  0.899030  0.482127  0.205632  1
  H  H2  1  0.100970  0.982127  0.294368  1
  H  H3  1  0.899030  0.017873  0.794368  1
  H  H4  1  0.899030  0.482127  0.294368  1
  H  H5  1  0.100970  0.517872  0.794368  1
  H  H6  1  0.899030  0.017873  0.705632  1
  H  H7  1  0.100970  0.982127  0.205632  1
  H  H8  1  0.275342  0.287975  0.750000  1
  H  H9  1  0.724658  0.712025  0.250000  1
  H  H10  1  0.275342  0.212024  0.250000  1
  H  H11  1  0.724658  0.787975  0.750000  1
  H  H12  1  0.398133  0.093325  0.702295  1
  H  H13  1  0.601867  0.906675  0.202295  1
  H  H14  1  0.398133  0.406675  0.297705  1
  H  H15  1  0.601867  0.593325  0.797705  1
  H  H16  1  0.601867  0.906675  0.297705  1
  H  H17  1  0.398133  0.093325  0.797705  1
  H  H18  1  0.601867  0.593325  0.702295  1
  H  H19  1  0.398133  0.406675  0.202295  1
  H  H20  1  0.622900  0.558415  0.589371  1
  H  H21  1  0.377100  0.441585  0.089371  1
  H  H22  1  0.622900  0.941585  0.410629  1
  H  H23  1  0.377100  0.058414  0.910629  1
  H  H24  1  0.377100  0.441585  0.410629  1
  H  H25  1  0.622900  0.558415  0.910629  1
  H  H26  1  0.377100  0.058414  0.589371  1
  H  H27  1  0.622900  0.941585  0.089371  1
  H  H28  1  0.682455  0.350616  0.629611  1
  H  H29  1  0.317545  0.649385  0.129611  1
  H  H30  1  0.682455  0.149384  0.370389  1
  H  H31  1  0.317545  0.850615  0.870389  1
  H  H32  1  0.317545  0.649384  0.370388  1
  H  H33  1  0.682456  0.350615  0.870389  1
  H  H34  1  0.317545  0.850616  0.629612  1
  H  H35  1  0.682456  0.149385  0.129611  1
  H  H36  1  0.963126  0.181609  0.582114  1
  H  H37  1  0.036875  0.818391  0.082114  1
  H  H38  1  0.963126  0.318391  0.417886  1
  H  H39  1  0.036875  0.681609  0.917886  1
  H  H40  1  0.036874  0.818392  0.417886  1
  H  H41  1  0.963126  0.181609  0.917886  1
  H  H42  1  0.036874  0.681608  0.582115  1
  H  H43  1  0.963126  0.318391  0.082114  1
  H  H44  1  0.772725  0.032748  0.589012  1
  H  H45  1  0.227276  0.967252  0.089012  1
  H  H46  1  0.772724  0.467252  0.410988  1
  H  H47  1  0.227276  0.532748  0.910988  1
  H  H48  1  0.227275  0.967253  0.410987  1
  H  H49  1  0.772724  0.032748  0.910988  1
  H  H50  1  0.227275  0.532748  0.589013  1
  H  H51  1  0.772724  0.467252  0.089011  1
  Cl  Cl52  1  0.227818  0.250000  0.500000  1
  Cl  Cl53  1  0.772197  0.750000  -0.000000  1
  Cl  Cl54  1  0.772180  0.749999  0.500000  1
  Cl  Cl55  1  0.227803  0.250000  0.000000  1
  O  O56  1  0.094991  0.428737  0.750000  1
  O  O57  1  0.905009  0.571262  0.250000  1
  O  O58  1  0.094991  0.071263  0.250000  1
  O  O59  1  0.905009  0.928737  0.750000  1
  O  O60  1  0.400792  0.183723  0.750000  1
  O  O61  1  0.599210  0.816277  0.250000  1
  O  O62  1  0.400791  0.316277  0.250000  1
  O  O63  1  0.599209  0.683724  0.750000  1
  O  O64  1  0.411385  0.973091  0.867313  1
  O  O65  1  0.588614  0.026909  0.367313  1
  O  O66  1  0.411385  0.526909  0.132687  1
  O  O67  1  0.588614  0.473091  0.632687  1
  O  O68  1  0.588615  0.026909  0.132687  1
  O  O69  1  0.411387  0.973090  0.632687  1
  O  O70  1  0.588615  0.473091  0.867313  1
  O  O71  1  0.411387  0.526910  0.367313  1
  O  O72  1  0.151841  0.641111  0.884091  1
  O  O73  1  0.848160  0.358889  0.384091  1
  O  O74  1  0.151842  0.858889  0.115909  1
  O  O75  1  0.848160  0.141111  0.615909  1
  O  O76  1  0.848159  0.358888  0.115909  1
  O  O77  1  0.151838  0.641108  0.615911  1
  O  O78  1  0.848159  0.141112  0.884091  1
  O  O79  1  0.151838  0.858892  0.384089  1
