# generated using pymatgen
data_Li4Co3Cu3(WO8)2
_symmetry_space_group_name_H-M   'P 1'
_cell_length_a   5.90675266
_cell_length_b   5.76977508
_cell_length_c   9.59259758
_cell_angle_alpha   90.03060521
_cell_angle_beta   86.30938725
_cell_angle_gamma   119.32664652
_symmetry_Int_Tables_number   1
_chemical_formula_structural   Li4Co3Cu3(WO8)2
_chemical_formula_sum   'Li4 Co3 Cu3 W2 O16'
_cell_volume   284.25241211
_cell_formula_units_Z   1
loop_
 _symmetry_equiv_pos_site_id
 _symmetry_equiv_pos_as_xyz
  1  'x, y, z'
loop_
 _atom_site_type_symbol
 _atom_site_label
 _atom_site_symmetry_multiplicity
 _atom_site_fract_x
 _atom_site_fract_y
 _atom_site_fract_z
 _atom_site_occupancy
  Li  Li0  1  0.342093  0.670634  0.904765  1
  Li  Li1  1  0.990458  0.994843  0.990146  1
  Li  Li2  1  0.987535  0.994031  0.488489  1
  Li  Li3  1  0.687585  0.343944  0.409561  1
  Co  Co4  1  0.658990  0.829458  0.216501  1
  Co  Co5  1  0.826207  0.659651  0.713208  1
  Co  Co6  1  0.826391  0.166877  0.713327  1
  Cu  Cu7  1  0.162201  0.824425  0.213729  1
  Cu  Cu8  1  0.162125  0.337540  0.213734  1
  Cu  Cu9  1  0.333319  0.166341  0.714509  1
  W  W10  1  0.353491  0.677014  0.492443  1
  W  W11  1  0.660883  0.329737  0.985195  1
  O  O12  1  0.159636  0.825465  0.586745  1
  O  O13  1  0.058811  0.530495  0.357089  1
  O  O14  1  0.348599  0.674224  0.123397  1
  O  O15  1  0.983055  0.991294  0.294962  1
  O  O16  1  0.983128  0.991874  0.801164  1
  O  O17  1  0.158364  0.335581  0.586513  1
  O  O18  1  0.523802  0.975709  0.356311  1
  O  O19  1  0.524106  0.548866  0.356874  1
  O  O20  1  0.320710  0.159876  0.075307  1
  O  O21  1  0.657668  0.828442  0.608246  1
  O  O22  1  0.533128  0.495288  0.843749  1
  O  O23  1  0.533838  0.036958  0.844441  1
  O  O24  1  0.676253  0.337839  0.617599  1
  O  O25  1  0.795603  0.646176  0.085011  1
  O  O26  1  0.956641  0.479055  0.829707  1
  O  O27  1  0.795381  0.148665  0.085118  1
