# generated using pymatgen
data_LiVP3HO10
_symmetry_space_group_name_H-M   'P 1'
_cell_length_a   6.39796258
_cell_length_b   6.39796258
_cell_length_c   6.35060410
_cell_angle_alpha   72.44509899
_cell_angle_beta   107.55490101
_cell_angle_gamma   94.66897263
_symmetry_Int_Tables_number   1
_chemical_formula_structural   LiVP3HO10
_chemical_formula_sum   'Li1 V1 P3 H1 O10'
_cell_volume   236.29279586
_cell_formula_units_Z   1
loop_
 _symmetry_equiv_pos_site_id
 _symmetry_equiv_pos_as_xyz
  1  'x, y, z'
loop_
 _atom_site_type_symbol
 _atom_site_label
 _atom_site_symmetry_multiplicity
 _atom_site_fract_x
 _atom_site_fract_y
 _atom_site_fract_z
 _atom_site_occupancy
  Li  Li0  1  0.005195  0.005195  0.500000  1
  V  V1  1  0.664386  0.664386  0.000000  1
  P  P2  1  0.198991  0.555328  0.100405  1
  P  P3  1  0.570397  0.570397  0.500000  1
  P  P4  1  0.555328  0.198991  0.899595  1
  H  H5  1  0.245021  0.245021  0.000000  1
  O  O6  1  0.338339  0.667803  0.940938  1
  O  O7  1  0.673306  0.981945  0.978783  1
  O  O8  1  0.607576  0.720786  0.649296  1
  O  O9  1  0.316254  0.595091  0.353066  1
  O  O10  1  0.304795  0.187720  0.859310  1
  O  O11  1  0.187720  0.304795  0.140690  1
  O  O12  1  0.595091  0.316254  0.646934  1
  O  O13  1  0.720786  0.607576  0.350704  1
  O  O14  1  0.981945  0.673306  0.021217  1
  O  O15  1  0.667803  0.338339  0.059062  1
