# generated using pymatgen
data_K2W3O10
_symmetry_space_group_name_H-M   'P 1'
_cell_length_a   11.29373238
_cell_length_b   3.88825919
_cell_length_c   31.33780691
_cell_angle_alpha   90.00000000
_cell_angle_beta   89.40694786
_cell_angle_gamma   90.00000000
_symmetry_Int_Tables_number   1
_chemical_formula_structural   K2W3O10
_chemical_formula_sum   'K12 W18 O60'
_cell_volume   1376.06210348
_cell_formula_units_Z   6
loop_
 _symmetry_equiv_pos_site_id
 _symmetry_equiv_pos_as_xyz
  1  'x, y, z'
loop_
 _atom_site_type_symbol
 _atom_site_label
 _atom_site_symmetry_multiplicity
 _atom_site_fract_x
 _atom_site_fract_y
 _atom_site_fract_z
 _atom_site_occupancy
  K  K0  1  0.088327  0.483984  0.547459  1
  K  K1  1  0.133688  0.494875  0.152028  1
  K  K2  1  0.234414  0.464344  0.652401  1
  K  K3  1  0.265586  0.464344  0.847599  1
  K  K4  1  0.366312  0.494875  0.347972  1
  K  K5  1  0.411673  0.483984  0.952541  1
  K  K6  1  0.588327  0.516016  0.047459  1
  K  K7  1  0.633688  0.505125  0.652028  1
  K  K8  1  0.734414  0.535656  0.152401  1
  K  K9  1  0.765586  0.535656  0.347599  1
  K  K10  1  0.866312  0.505125  0.847972  1
  K  K11  1  0.911673  0.516016  0.452541  1
  W  W12  1  0.053081  0.033073  0.348886  1
  W  W13  1  0.057546  0.962712  0.948563  1
  W  W14  1  0.082992  0.965080  0.764275  1
  W  W15  1  0.238832  0.969326  0.054306  1
  W  W16  1  0.250000  0.970727  0.250000  1
  W  W17  1  0.261168  0.969326  0.445694  1
  W  W18  1  0.446919  0.033073  0.151114  1
  W  W19  1  0.417008  0.965080  0.735725  1
  W  W20  1  0.442454  0.962712  0.551437  1
  W  W21  1  0.557546  0.037288  0.448563  1
  W  W22  1  0.582992  0.034920  0.264275  1
  W  W23  1  0.553081  0.966927  0.848886  1
  W  W24  1  0.738832  0.030674  0.554306  1
  W  W25  1  0.750000  0.029273  0.750000  1
  W  W26  1  0.761168  0.030674  0.945694  1
  W  W27  1  0.917008  0.034920  0.235725  1
  W  W28  1  0.942454  0.037288  0.051437  1
  W  W29  1  0.946919  0.966927  0.651114  1
  O  O30  1  0.071131  0.003531  0.089535  1
  O  O31  1  0.066914  0.517767  0.348617  1
  O  O32  1  0.056273  0.988711  0.608442  1
  O  O33  1  0.088371  0.006083  0.229599  1
  O  O34  1  0.052906  0.985181  0.697087  1
  O  O35  1  0.111350  0.997431  0.009071  1
  O  O36  1  0.052140  0.480615  0.952864  1
  O  O37  1  0.082680  0.479340  0.759402  1
  O  O38  1  0.104967  0.979508  0.820732  1
  O  O39  1  0.136207  0.985798  0.481790  1
  O  O40  1  0.196564  0.005760  0.307865  1
  O  O41  1  0.188890  0.000243  0.392234  1
  O  O42  1  0.225956  0.485867  0.056026  1
  O  O43  1  0.189790  0.981977  0.917374  1
  O  O44  1  0.250000  0.493295  0.250000  1
  O  O45  1  0.250000  0.989246  0.750000  1
  O  O46  1  0.274044  0.485867  0.443974  1
  O  O47  1  0.311110  0.000243  0.107766  1
  O  O48  1  0.303436  0.005760  0.192135  1
  O  O49  1  0.310210  0.981977  0.582626  1
  O  O50  1  0.363793  0.985798  0.018210  1
  O  O51  1  0.388650  0.997431  0.490929  1
  O  O52  1  0.411629  0.006083  0.270401  1
  O  O53  1  0.433086  0.517767  0.151383  1
  O  O54  1  0.395033  0.979508  0.679268  1
  O  O55  1  0.417320  0.479340  0.740598  1
  O  O56  1  0.428869  0.003531  0.410465  1
  O  O57  1  0.447860  0.480615  0.547136  1
  O  O58  1  0.447094  0.985181  0.802913  1
  O  O59  1  0.443727  0.988711  0.891558  1
  O  O60  1  0.556273  0.011289  0.108442  1
  O  O61  1  0.552906  0.014819  0.197087  1
  O  O62  1  0.552140  0.519385  0.452864  1
  O  O63  1  0.571131  0.996469  0.589535  1
  O  O64  1  0.582680  0.520660  0.259402  1
  O  O65  1  0.604967  0.020492  0.320732  1
  O  O66  1  0.566914  0.482233  0.848617  1
  O  O67  1  0.588371  0.993917  0.729599  1
  O  O68  1  0.611350  0.002569  0.509071  1
  O  O69  1  0.636207  0.014202  0.981790  1
  O  O70  1  0.689790  0.018023  0.417374  1
  O  O71  1  0.696564  0.994240  0.807865  1
  O  O72  1  0.688890  0.999757  0.892234  1
  O  O73  1  0.725956  0.514133  0.556026  1
  O  O74  1  0.750000  0.010754  0.250000  1
  O  O75  1  0.750000  0.506705  0.750000  1
  O  O76  1  0.810210  0.018023  0.082626  1
  O  O77  1  0.774044  0.514133  0.943974  1
  O  O78  1  0.811110  0.999757  0.607766  1
  O  O79  1  0.803436  0.994240  0.692135  1
  O  O80  1  0.863793  0.014202  0.518210  1
  O  O81  1  0.895033  0.020492  0.179268  1
  O  O82  1  0.917320  0.520660  0.240598  1
  O  O83  1  0.947860  0.519385  0.047136  1
  O  O84  1  0.888650  0.002569  0.990929  1
  O  O85  1  0.947094  0.014819  0.302913  1
  O  O86  1  0.911629  0.993917  0.770401  1
  O  O87  1  0.943727  0.011289  0.391558  1
  O  O88  1  0.933086  0.482233  0.651383  1
  O  O89  1  0.928869  0.996469  0.910465  1
