# generated using pymatgen
data_LiSiBiO4
_symmetry_space_group_name_H-M   'P 1'
_cell_length_a   7.96266260
_cell_length_b   18.34674031
_cell_length_c   5.03400632
_cell_angle_alpha   90.00000000
_cell_angle_beta   90.00000000
_cell_angle_gamma   90.00000000
_symmetry_Int_Tables_number   1
_chemical_formula_structural   LiSiBiO4
_chemical_formula_sum   'Li8 Si8 Bi8 O32'
_cell_volume   735.41246047
_cell_formula_units_Z   8
loop_
 _symmetry_equiv_pos_site_id
 _symmetry_equiv_pos_as_xyz
  1  'x, y, z'
loop_
 _atom_site_type_symbol
 _atom_site_label
 _atom_site_symmetry_multiplicity
 _atom_site_fract_x
 _atom_site_fract_y
 _atom_site_fract_z
 _atom_site_occupancy
  Li  Li0  1  0.016137  0.441284  0.720585  1
  Li  Li1  1  0.176187  0.854820  0.232648  1
  Li  Li2  1  0.323813  0.354820  0.732648  1
  Li  Li3  1  0.483863  0.941284  0.220585  1
  Li  Li4  1  0.516137  0.058716  0.720585  1
  Li  Li5  1  0.676187  0.645180  0.232648  1
  Li  Li6  1  0.823813  0.145180  0.732648  1
  Li  Li7  1  0.983863  0.558716  0.220585  1
  Si  Si8  1  0.219223  0.180422  0.715501  1
  Si  Si9  1  0.243652  0.430908  0.224141  1
  Si  Si10  1  0.256348  0.930908  0.724141  1
  Si  Si11  1  0.280777  0.680422  0.215501  1
  Si  Si12  1  0.719223  0.319578  0.715501  1
  Si  Si13  1  0.743652  0.069092  0.224141  1
  Si  Si14  1  0.756348  0.569092  0.724141  1
  Si  Si15  1  0.780777  0.819578  0.215501  1
  Bi  Bi16  1  0.044159  0.265199  0.277039  1
  Bi  Bi17  1  0.185756  0.048300  0.305433  1
  Bi  Bi18  1  0.314244  0.548300  0.805433  1
  Bi  Bi19  1  0.455841  0.765199  0.777039  1
  Bi  Bi20  1  0.544159  0.234801  0.277039  1
  Bi  Bi21  1  0.685756  0.451700  0.305433  1
  Bi  Bi22  1  0.814244  0.951700  0.805433  1
  Bi  Bi23  1  0.955841  0.734801  0.777039  1
  O  O24  1  0.052224  0.145201  0.565293  1
  O  O25  1  0.103591  0.478654  0.060813  1
  O  O26  1  0.076731  0.966536  0.601543  1
  O  O27  1  0.114387  0.639476  0.097552  1
  O  O28  1  0.204577  0.180439  0.041539  1
  O  O29  1  0.236504  0.441169  0.544503  1
  O  O30  1  0.219908  0.265701  0.603803  1
  O  O31  1  0.233235  0.345114  0.125325  1
  O  O32  1  0.266765  0.845114  0.625325  1
  O  O33  1  0.280092  0.765701  0.103803  1
  O  O34  1  0.263496  0.941169  0.044503  1
  O  O35  1  0.295423  0.680439  0.541539  1
  O  O36  1  0.385613  0.139476  0.597552  1
  O  O37  1  0.423269  0.466536  0.101543  1
  O  O38  1  0.396409  0.978654  0.560813  1
  O  O39  1  0.447776  0.645201  0.065293  1
  O  O40  1  0.552224  0.354799  0.565293  1
  O  O41  1  0.603591  0.021346  0.060813  1
  O  O42  1  0.576731  0.533464  0.601543  1
  O  O43  1  0.614387  0.860524  0.097552  1
  O  O44  1  0.704577  0.319561  0.041539  1
  O  O45  1  0.736504  0.058831  0.544503  1
  O  O46  1  0.719908  0.234299  0.603803  1
  O  O47  1  0.733235  0.154886  0.125325  1
  O  O48  1  0.766765  0.654886  0.625325  1
  O  O49  1  0.780092  0.734299  0.103803  1
  O  O50  1  0.763496  0.558831  0.044503  1
  O  O51  1  0.795423  0.819561  0.541539  1
  O  O52  1  0.885613  0.360524  0.597552  1
  O  O53  1  0.923269  0.033464  0.101543  1
  O  O54  1  0.896409  0.521346  0.560813  1
  O  O55  1  0.947776  0.854799  0.065293  1
