# generated using pymatgen
data_VP2(HO)6
_symmetry_space_group_name_H-M   'P 1'
_cell_length_a   7.34086371
_cell_length_b   7.34086371
_cell_length_c   7.68889259
_cell_angle_alpha   63.60039261
_cell_angle_beta   116.39960739
_cell_angle_gamma   112.31349086
_symmetry_Int_Tables_number   1
_chemical_formula_structural   VP2(HO)6
_chemical_formula_sum   'V2 P4 H12 O12'
_cell_volume   323.76382913
_cell_formula_units_Z   2
loop_
 _symmetry_equiv_pos_site_id
 _symmetry_equiv_pos_as_xyz
  1  'x, y, z'
loop_
 _atom_site_type_symbol
 _atom_site_label
 _atom_site_symmetry_multiplicity
 _atom_site_fract_x
 _atom_site_fract_y
 _atom_site_fract_z
 _atom_site_occupancy
  V  V0  1  0.241591  0.241591  0.750000  1
  V  V1  1  0.758409  0.758409  0.250000  1
  P  P2  1  0.567337  0.108689  0.210795  1
  P  P3  1  0.108689  0.567337  0.289205  1
  P  P4  1  0.432663  0.891311  0.789205  1
  P  P5  1  0.891311  0.432663  0.710795  1
  H  H6  1  0.913531  0.860392  0.870800  1
  H  H7  1  0.860392  0.913531  0.629200  1
  H  H8  1  0.086469  0.139608  0.129200  1
  H  H9  1  0.139608  0.086469  0.370800  1
  H  H10  1  0.544599  0.173579  0.346321  1
  H  H11  1  0.173579  0.544599  0.153679  1
  H  H12  1  0.455401  0.826421  0.653679  1
  H  H13  1  0.826421  0.455401  0.846321  1
  H  H14  1  0.701955  0.279753  0.114137  1
  H  H15  1  0.279753  0.701955  0.385863  1
  H  H16  1  0.298045  0.720247  0.885863  1
  H  H17  1  0.720247  0.298045  0.614137  1
  O  O18  1  0.354425  0.062561  0.049092  1
  O  O19  1  0.062561  0.354425  0.450908  1
  O  O20  1  0.645575  0.937439  0.950908  1
  O  O21  1  0.937439  0.645575  0.549092  1
  O  O22  1  0.328482  0.078440  0.652066  1
  O  O23  1  0.078440  0.328482  0.847934  1
  O  O24  1  0.671518  0.921560  0.347934  1
  O  O25  1  0.921560  0.671518  0.152066  1
  O  O26  1  0.956295  0.956295  0.750000  1
  O  O27  1  0.043705  0.043705  0.250000  1
  O  O28  1  0.440902  0.440902  0.750000  1
  O  O29  1  0.559098  0.559098  0.250000  1
