# generated using pymatgen
data_Li4Ti3V3(SbO8)2
_symmetry_space_group_name_H-M   'P 1'
_cell_length_a   6.02620374
_cell_length_b   5.97665967
_cell_length_c   10.53786612
_cell_angle_alpha   89.95510479
_cell_angle_beta   89.67272457
_cell_angle_gamma   119.88007324
_symmetry_Int_Tables_number   1
_chemical_formula_structural   Li4Ti3V3(SbO8)2
_chemical_formula_sum   'Li4 Ti3 V3 Sb2 O16'
_cell_volume   329.07759669
_cell_formula_units_Z   1
loop_
 _symmetry_equiv_pos_site_id
 _symmetry_equiv_pos_as_xyz
  1  'x, y, z'
loop_
 _atom_site_type_symbol
 _atom_site_label
 _atom_site_symmetry_multiplicity
 _atom_site_fract_x
 _atom_site_fract_y
 _atom_site_fract_z
 _atom_site_occupancy
  Li  Li0  1  0.335150  0.668730  0.897776  1
  Li  Li1  1  0.999856  0.999042  0.993268  1
  Li  Li2  1  0.008190  0.002669  0.495163  1
  Li  Li3  1  0.664731  0.332953  0.387327  1
  Ti  Ti4  1  0.176753  0.831831  0.222519  1
  Ti  Ti5  1  0.176430  0.344643  0.222345  1
  Ti  Ti6  1  0.347197  0.171345  0.728440  1
  V  V7  1  0.658507  0.829521  0.212494  1
  V  V8  1  0.833941  0.650680  0.718846  1
  V  V9  1  0.830484  0.170712  0.714559  1
  Sb  Sb10  1  0.339660  0.668414  0.516516  1
  Sb  Sb11  1  0.667750  0.335098  0.013770  1
  O  O12  1  0.154484  0.839605  0.605981  1
  O  O13  1  0.025464  0.512102  0.318443  1
  O  O14  1  0.312418  0.656526  0.109932  1
  O  O15  1  0.008499  0.003782  0.310949  1
  O  O16  1  0.009322  0.998332  0.811217  1
  O  O17  1  0.154582  0.315491  0.607325  1
  O  O18  1  0.481486  0.983765  0.312805  1
  O  O19  1  0.480804  0.497589  0.313249  1
  O  O20  1  0.307432  0.154108  0.104240  1
  O  O21  1  0.696593  0.840545  0.612356  1
  O  O22  1  0.507509  0.487236  0.818927  1
  O  O23  1  0.504230  0.018403  0.818048  1
  O  O24  1  0.650296  0.335680  0.610531  1
  O  O25  1  0.843795  0.687111  0.107274  1
  O  O26  1  0.980290  0.507047  0.816922  1
  O  O27  1  0.844149  0.157340  0.106618  1
