# generated using pymatgen
data_Ba4Sn3O10
_symmetry_space_group_name_H-M   'P 1'
_cell_length_a   5.93575650
_cell_length_b   15.42004588
_cell_length_c   30.26012550
_cell_angle_alpha   11.12917976
_cell_angle_beta   89.99990820
_cell_angle_gamma   89.99983245
_symmetry_Int_Tables_number   1
_chemical_formula_structural   Ba4Sn3O10
_chemical_formula_sum   'Ba8 Sn6 O20'
_cell_volume   534.61187008
_cell_formula_units_Z   2
loop_
 _symmetry_equiv_pos_site_id
 _symmetry_equiv_pos_as_xyz
  1  'x, y, z'
loop_
 _atom_site_type_symbol
 _atom_site_label
 _atom_site_symmetry_multiplicity
 _atom_site_fract_x
 _atom_site_fract_y
 _atom_site_fract_z
 _atom_site_occupancy
  Ba  Ba0  1  0.000004  0.999964  0.569355  1
  Ba  Ba1  1  0.999990  0.000001  0.296797  1
  Ba  Ba2  1  0.999986  0.999983  0.703191  1
  Ba  Ba3  1  -0.000004  0.999973  0.430663  1
  Ba  Ba4  1  0.500004  0.000025  0.069324  1
  Ba  Ba5  1  0.499989  0.000009  0.203177  1
  Ba  Ba6  1  0.499991  0.000019  0.796791  1
  Ba  Ba7  1  0.499999  0.000032  0.930644  1
  Sn  Sn8  1  0.000020  0.999983  0.000005  1
  Sn  Sn9  1  0.999983  -0.000000  0.139251  1
  Sn  Sn10  1  0.999987  -0.000004  0.860738  1
  Sn  Sn11  1  0.500019  0.000015  0.499991  1
  Sn  Sn12  1  0.499985  0.000006  0.360734  1
  Sn  Sn13  1  0.499988  0.000001  0.639254  1
  O  O14  1  0.999998  0.999969  0.069414  1
  O  O15  1  0.999996  0.000025  0.208141  1
  O  O16  1  0.999999  0.000028  0.791816  1
  O  O17  1  0.999999  0.999969  0.930606  1
  O  O18  1  0.221964  0.555383  0.722308  1
  O  O19  1  0.236704  0.473818  0.124610  1
  O  O20  1  0.236704  0.473811  0.401569  1
  O  O21  1  0.263191  0.473923  0.901495  1
  O  O22  1  0.263188  0.473918  0.624579  1
  O  O23  1  0.278212  0.555602  0.222199  1
  O  O24  1  0.499996  0.000024  0.569388  1
  O  O25  1  0.499999  0.999979  0.291841  1
  O  O26  1  0.499993  0.999983  0.708168  1
  O  O27  1  0.499999  0.000023  0.430583  1
  O  O28  1  0.721962  0.444620  0.777689  1
  O  O29  1  0.736707  0.526182  0.098430  1
  O  O30  1  0.736705  0.526179  0.375385  1
  O  O31  1  0.763187  0.526083  0.875416  1
  O  O32  1  0.763190  0.526081  0.598497  1
  O  O33  1  0.778211  0.444395  0.277803  1
