# generated using pymatgen
data_Li2VCrO4
_symmetry_space_group_name_H-M   'P 1'
_cell_length_a   5.14794632
_cell_length_b   5.95693439
_cell_length_c   6.00200732
_cell_angle_alpha   59.74478278
_cell_angle_beta   90.00192659
_cell_angle_gamma   73.67514611
_symmetry_Int_Tables_number   1
_chemical_formula_structural   Li2VCrO4
_chemical_formula_sum   'Li4 V2 Cr2 O8'
_cell_volume   150.33282093
_cell_formula_units_Z   2
loop_
 _symmetry_equiv_pos_site_id
 _symmetry_equiv_pos_as_xyz
  1  'x, y, z'
loop_
 _atom_site_type_symbol
 _atom_site_label
 _atom_site_symmetry_multiplicity
 _atom_site_fract_x
 _atom_site_fract_y
 _atom_site_fract_z
 _atom_site_occupancy
  Li  Li0  1  0.996809  0.003323  0.998339  1
  Li  Li1  1  0.003015  0.996810  0.500032  1
  Li  Li2  1  0.496765  0.003355  0.248333  1
  Li  Li3  1  0.503009  0.996815  0.753060  1
  V  V4  1  0.000212  0.500432  0.498942  1
  V  V5  1  0.500238  0.500440  0.250639  1
  Cr  Cr6  1  0.999981  0.499612  0.998340  1
  Cr  Cr7  1  0.500019  0.499579  0.752080  1
  O  O8  1  0.239470  0.273846  0.361424  1
  O  O9  1  0.242670  0.273354  0.866177  1
  O  O10  1  0.742692  0.273335  0.110533  1
  O  O11  1  0.257785  0.727860  0.391552  1
  O  O12  1  0.260059  0.724778  0.886827  1
  O  O13  1  0.757784  0.727843  0.130587  1
  O  O14  1  0.739456  0.273826  0.614781  1
  O  O15  1  0.760035  0.724791  0.638355  1
