# generated using pymatgen
data_Cr3Sb5O16
_symmetry_space_group_name_H-M   'P 1'
_cell_length_a   6.15206674
_cell_length_b   6.16470206
_cell_length_c   9.90460595
_cell_angle_alpha   90.00083247
_cell_angle_beta   90.14903516
_cell_angle_gamma   120.06875259
_symmetry_Int_Tables_number   1
_chemical_formula_structural   Cr3Sb5O16
_chemical_formula_sum   'Cr3 Sb5 O16'
_cell_volume   325.08557266
_cell_formula_units_Z   1
loop_
 _symmetry_equiv_pos_site_id
 _symmetry_equiv_pos_as_xyz
  1  'x, y, z'
loop_
 _atom_site_type_symbol
 _atom_site_label
 _atom_site_symmetry_multiplicity
 _atom_site_fract_x
 _atom_site_fract_y
 _atom_site_fract_z
 _atom_site_occupancy
  Cr  Cr0  1  0.174175  0.831475  0.195941  1
  Cr  Cr1  1  0.174154  0.342690  0.195934  1
  Cr  Cr2  1  0.332484  0.166251  0.725831  1
  Sb  Sb3  1  0.306067  0.653097  0.462861  1
  Sb  Sb4  1  0.652955  0.326477  0.996092  1
  Sb  Sb5  1  0.665462  0.832731  0.200119  1
  Sb  Sb6  1  0.838877  0.672530  0.727069  1
  Sb  Sb7  1  0.838871  0.166326  0.727069  1
  O  O8  1  0.152793  0.839664  0.625662  1
  O  O9  1  0.040802  0.520465  0.309105  1
  O  O10  1  0.343086  0.671551  0.095616  1
  O  O11  1  -0.000008  0.000009  0.286316  1
  O  O12  1  0.005016  0.002506  0.833993  1
  O  O13  1  0.152797  0.313136  0.625664  1
  O  O14  1  0.482130  0.960202  0.317239  1
  O  O15  1  0.482135  0.521988  0.317269  1
  O  O16  1  0.333826  0.166950  0.090851  1
  O  O17  1  0.673554  0.836759  0.629283  1
  O  O18  1  0.530356  0.480092  0.847963  1
  O  O19  1  0.530344  0.050242  0.847956  1
  O  O20  1  0.674296  0.337135  0.622935  1
  O  O21  1  0.828351  0.661799  0.090360  1
  O  O22  1  0.959112  0.479557  0.854227  1
  O  O23  1  0.828363  0.166569  0.090364  1
