# generated using pymatgen
data_CoSb3(PO4)6
_symmetry_space_group_name_H-M   'P 1'
_cell_length_a   8.82811564
_cell_length_b   8.82811516
_cell_length_c   8.82811538
_cell_angle_alpha   58.00566709
_cell_angle_beta   58.00566575
_cell_angle_gamma   58.00566612
_symmetry_Int_Tables_number   1
_chemical_formula_structural   CoSb3(PO4)6
_chemical_formula_sum   'Co1 Sb3 P6 O24'
_cell_volume   464.25099265
_cell_formula_units_Z   1
loop_
 _symmetry_equiv_pos_site_id
 _symmetry_equiv_pos_as_xyz
  1  'x, y, z'
loop_
 _atom_site_type_symbol
 _atom_site_label
 _atom_site_symmetry_multiplicity
 _atom_site_fract_x
 _atom_site_fract_y
 _atom_site_fract_z
 _atom_site_occupancy
  Co  Co0  1  0.855917  0.855917  0.855917  1
  Sb  Sb1  1  0.143137  0.143137  0.143137  1
  Sb  Sb2  1  0.356474  0.356474  0.356474  1
  Sb  Sb3  1  0.643288  0.643288  0.643288  1
  P  P4  1  0.035117  0.752082  0.470288  1
  P  P5  1  0.470288  0.035117  0.752082  1
  P  P6  1  0.752082  0.470288  0.035117  1
  P  P7  1  0.241694  0.545591  0.959700  1
  P  P8  1  0.545591  0.959700  0.241694  1
  P  P9  1  0.959700  0.241694  0.545591  1
  O  O10  1  0.132071  0.275514  0.514715  1
  O  O11  1  0.275514  0.514715  0.132071  1
  O  O12  1  0.059678  0.923343  0.280506  1
  O  O13  1  0.514715  0.132071  0.275514  1
  O  O14  1  0.218608  0.576508  0.440718  1
  O  O15  1  0.010054  0.776924  0.638601  1
  O  O16  1  0.280506  0.059678  0.923343  1
  O  O17  1  0.440718  0.218608  0.576508  1
  O  O18  1  0.576508  0.440718  0.218608  1
  O  O19  1  0.229191  0.363496  0.985093  1
  O  O20  1  0.070087  0.721774  0.939305  1
  O  O21  1  0.363496  0.985093  0.229191  1
  O  O22  1  0.638601  0.010054  0.776924  1
  O  O23  1  0.923343  0.280506  0.059678  1
  O  O24  1  0.776924  0.638601  0.010054  1
  O  O25  1  0.425753  0.556895  0.782086  1
  O  O26  1  0.556895  0.782086  0.425753  1
  O  O27  1  0.721774  0.939305  0.070087  1
  O  O28  1  0.985093  0.229191  0.363496  1
  O  O29  1  0.782086  0.425753  0.556895  1
  O  O30  1  0.483559  0.867226  0.725009  1
  O  O31  1  0.939305  0.070087  0.721774  1
  O  O32  1  0.725009  0.483559  0.867226  1
  O  O33  1  0.867226  0.725009  0.483559  1
