# generated using pymatgen
data_LiV2O5F
_symmetry_space_group_name_H-M   'P 1'
_cell_length_a   14.06815042
_cell_length_b   5.63665881
_cell_length_c   4.98633020
_cell_angle_alpha   90.00000000
_cell_angle_beta   90.00000000
_cell_angle_gamma   90.00000000
_symmetry_Int_Tables_number   1
_chemical_formula_structural   LiV2O5F
_chemical_formula_sum   'Li4 V8 O20 F4'
_cell_volume   395.40284092
_cell_formula_units_Z   4
loop_
 _symmetry_equiv_pos_site_id
 _symmetry_equiv_pos_as_xyz
  1  'x, y, z'
loop_
 _atom_site_type_symbol
 _atom_site_label
 _atom_site_symmetry_multiplicity
 _atom_site_fract_x
 _atom_site_fract_y
 _atom_site_fract_z
 _atom_site_occupancy
  Li  Li0  1  0.000000  0.200194  0.250000  1
  Li  Li1  1  0.000000  0.820748  0.750000  1
  Li  Li2  1  0.500000  0.299806  0.750000  1
  Li  Li3  1  0.500000  0.679252  0.250000  1
  V  V4  1  0.172302  0.642346  0.270326  1
  V  V5  1  0.157146  0.315117  0.804713  1
  V  V6  1  0.342854  0.184883  0.304713  1
  V  V7  1  0.327698  0.857654  0.770326  1
  V  V8  1  0.657146  0.184883  0.195287  1
  V  V9  1  0.672302  0.857654  0.729674  1
  V  V10  1  0.842854  0.315117  0.695287  1
  V  V11  1  0.827698  0.642346  0.229674  1
  O  O12  1  0.084278  0.116471  0.937185  1
  O  O13  1  0.099771  0.592358  0.994029  1
  O  O14  1  0.103684  0.387926  0.502707  1
  O  O15  1  0.249741  0.643570  0.655346  1
  O  O16  1  0.242712  0.370780  0.161925  1
  O  O17  1  0.257288  0.129220  0.661925  1
  O  O18  1  0.250259  0.856430  0.155346  1
  O  O19  1  0.396316  0.112074  0.002707  1
  O  O20  1  0.400229  0.907642  0.494029  1
  O  O21  1  0.415722  0.383529  0.437185  1
  O  O22  1  0.584278  0.383529  0.062815  1
  O  O23  1  0.603684  0.112074  0.497293  1
  O  O24  1  0.599771  0.907642  0.005971  1
  O  O25  1  0.742712  0.129220  0.838075  1
  O  O26  1  0.749741  0.856430  0.344654  1
  O  O27  1  0.757288  0.370780  0.338075  1
  O  O28  1  0.750259  0.643570  0.844654  1
  O  O29  1  0.896316  0.387926  0.997293  1
  O  O30  1  0.900229  0.592358  0.505971  1
  O  O31  1  0.915722  0.116471  0.562815  1
  F  F32  1  0.088466  0.844458  0.448232  1
  F  F33  1  0.411534  0.655542  0.948232  1
  F  F34  1  0.588466  0.655542  0.551768  1
  F  F35  1  0.911534  0.844458  0.051768  1
