# generated using pymatgen
data_Li2VF6
_symmetry_space_group_name_H-M   'P 1'
_cell_length_a   8.70872895
_cell_length_b   8.76330554
_cell_length_c   4.53017552
_cell_angle_alpha   89.66749416
_cell_angle_beta   90.00000000
_cell_angle_gamma   119.79420101
_symmetry_Int_Tables_number   1
_chemical_formula_structural   Li2VF6
_chemical_formula_sum   'Li6 V3 F18'
_cell_volume   300.02370708
_cell_formula_units_Z   3
loop_
 _symmetry_equiv_pos_site_id
 _symmetry_equiv_pos_as_xyz
  1  'x, y, z'
loop_
 _atom_site_type_symbol
 _atom_site_label
 _atom_site_symmetry_multiplicity
 _atom_site_fract_x
 _atom_site_fract_y
 _atom_site_fract_z
 _atom_site_occupancy
  Li  Li0  1  0.998028  0.655388  0.002172  1
  Li  Li1  1  0.001981  0.344652  0.998227  1
  Li  Li2  1  0.342641  0.344612  0.997828  1
  Li  Li3  1  0.344898  0.000000  1.000000  1
  Li  Li4  1  0.657329  0.655348  0.001773  1
  Li  Li5  1  0.655018  1.000000  0.000000  1
  V  V6  1  0.333280  0.666835  0.497484  1
  V  V7  1  0.000531  0.000000  1.000000  1
  V  V8  1  0.666445  0.333165  0.502516  1
  F  F9  1  0.106492  0.893749  0.213898  1
  F  F10  1  0.130410  0.564058  0.253741  1
  F  F11  1  0.233657  0.767717  0.736276  1
  F  F12  1  0.106432  0.212909  0.211840  1
  F  F13  1  0.231021  0.462050  0.740782  1
  F  F14  1  0.436718  0.873381  0.249400  1
  F  F15  1  0.212744  0.106251  0.786102  1
  F  F16  1  0.534280  0.767904  0.736459  1
  F  F17  1  0.433681  0.564159  0.253715  1
  F  F18  1  0.566352  0.435942  0.746259  1
  F  F19  1  0.465940  0.232283  0.263724  1
  F  F20  1  0.786956  0.893620  0.214193  1
  F  F21  1  0.563337  0.126619  0.750600  1
  F  F22  1  0.893523  0.787091  0.788160  1
  F  F23  1  0.768971  0.537950  0.259218  1
  F  F24  1  0.766376  0.232096  0.263541  1
  F  F25  1  0.869522  0.435841  0.746285  1
  F  F26  1  0.893336  0.106380  0.785807  1
