# generated using pymatgen
data_Li2CoSiO4
_symmetry_space_group_name_H-M   'P 1'
_cell_length_a   4.36746571
_cell_length_b   4.36570836
_cell_length_c   11.96632928
_cell_angle_alpha   24.18811457
_cell_angle_beta   79.43833560
_cell_angle_gamma   89.93574258
_symmetry_Int_Tables_number   1
_chemical_formula_structural   Li2CoSiO4
_chemical_formula_sum   'Li2 Co1 Si1 O4'
_cell_volume   83.72649100
_cell_formula_units_Z   1
loop_
 _symmetry_equiv_pos_site_id
 _symmetry_equiv_pos_as_xyz
  1  'x, y, z'
loop_
 _atom_site_type_symbol
 _atom_site_label
 _atom_site_symmetry_multiplicity
 _atom_site_fract_x
 _atom_site_fract_y
 _atom_site_fract_z
 _atom_site_occupancy
  Li  Li0  1  0.750982  0.261035  0.496092  1
  Li  Li1  1  0.250352  0.761773  0.495763  1
  Co  Co2  1  0.500248  0.509721  0.995731  1
  Si  Si3  1  0.000109  0.008278  0.996702  1
  O  O4  1  0.894473  0.350052  0.773358  1
  O  O5  1  0.673058  0.668845  0.219202  1
  O  O6  1  0.327870  0.785310  0.772478  1
  O  O7  1  0.106002  0.238087  0.218446  1
