# generated using pymatgen
data_Ti3FeSn2(PO4)6
_symmetry_space_group_name_H-M   'P 1'
_cell_length_a   9.15808264
_cell_length_b   9.15808339
_cell_length_c   9.15808296
_cell_angle_alpha   56.40601753
_cell_angle_beta   56.40601470
_cell_angle_gamma   56.40601235
_symmetry_Int_Tables_number   1
_chemical_formula_structural   Ti3FeSn2(PO4)6
_chemical_formula_sum   'Ti3 Fe1 Sn2 P6 O24'
_cell_volume   497.98650190
_cell_formula_units_Z   1
loop_
 _symmetry_equiv_pos_site_id
 _symmetry_equiv_pos_as_xyz
  1  'x, y, z'
loop_
 _atom_site_type_symbol
 _atom_site_label
 _atom_site_symmetry_multiplicity
 _atom_site_fract_x
 _atom_site_fract_y
 _atom_site_fract_z
 _atom_site_occupancy
  Ti  Ti0  1  0.144490  0.144490  0.144490  1
  Ti  Ti1  1  0.352693  0.352693  0.352693  1
  Ti  Ti2  1  0.656650  0.656650  0.656650  1
  Fe  Fe3  1  0.846826  0.846826  0.846826  1
  Sn  Sn4  1  0.982530  0.982530  0.982530  1
  Sn  Sn5  1  0.514446  0.514446  0.514446  1
  P  P6  1  0.257735  0.528474  0.963090  1
  P  P7  1  0.528474  0.963090  0.257735  1
  P  P8  1  0.963090  0.257735  0.528474  1
  P  P9  1  0.046326  0.749441  0.459853  1
  P  P10  1  0.459853  0.046326  0.749441  1
  P  P11  1  0.749441  0.459853  0.046326  1
  O  O12  1  0.121030  0.304621  0.488346  1
  O  O13  1  0.304621  0.488346  0.121030  1
  O  O14  1  0.058952  0.931788  0.285694  1
  O  O15  1  0.488346  0.121030  0.304621  1
  O  O16  1  0.039704  0.751953  0.627218  1
  O  O17  1  0.218505  0.583931  0.403009  1
  O  O18  1  0.285694  0.058952  0.931788  1
  O  O19  1  0.403009  0.218505  0.583931  1
  O  O20  1  0.221404  0.366525  0.993494  1
  O  O21  1  0.583931  0.403009  0.218505  1
  O  O22  1  0.086114  0.713484  0.942722  1
  O  O23  1  0.366525  0.993494  0.221404  1
  O  O24  1  0.627218  0.039704  0.751953  1
  O  O25  1  0.931788  0.285694  0.058952  1
  O  O26  1  0.433442  0.555067  0.777593  1
  O  O27  1  0.751953  0.627218  0.039704  1
  O  O28  1  0.555067  0.777593  0.433442  1
  O  O29  1  0.713484  0.942722  0.086114  1
  O  O30  1  0.777593  0.433442  0.555067  1
  O  O31  1  0.993494  0.221404  0.366525  1
  O  O32  1  0.499225  0.867058  0.726566  1
  O  O33  1  0.942722  0.086114  0.713484  1
  O  O34  1  0.726566  0.499225  0.867058  1
  O  O35  1  0.867058  0.726566  0.499225  1
