# generated using pymatgen
data_LiNiP2O7
_symmetry_space_group_name_H-M   'P 1'
_cell_length_a   5.02363543
_cell_length_b   8.42323864
_cell_length_c   6.92560595
_cell_angle_alpha   90.00000000
_cell_angle_beta   109.20446576
_cell_angle_gamma   90.00000000
_symmetry_Int_Tables_number   1
_chemical_formula_structural   LiNiP2O7
_chemical_formula_sum   'Li2 Ni2 P4 O14'
_cell_volume   276.75043990
_cell_formula_units_Z   2
loop_
 _symmetry_equiv_pos_site_id
 _symmetry_equiv_pos_as_xyz
  1  'x, y, z'
loop_
 _atom_site_type_symbol
 _atom_site_label
 _atom_site_symmetry_multiplicity
 _atom_site_fract_x
 _atom_site_fract_y
 _atom_site_fract_z
 _atom_site_occupancy
  Li  Li0  1  0.231309  0.487128  0.745985  1
  Li  Li1  1  0.768691  0.987128  0.254015  1
  Ni  Ni2  1  0.192599  0.850712  0.681446  1
  Ni  Ni3  1  0.807401  0.350712  0.318554  1
  P  P4  1  0.396360  0.183492  0.538788  1
  P  P5  1  0.185662  0.791560  0.053189  1
  P  P6  1  0.814338  0.291560  0.946811  1
  P  P7  1  0.603640  0.683492  0.461212  1
  O  O8  1  0.054679  0.332903  0.875966  1
  O  O9  1  0.108718  0.687110  0.856233  1
  O  O10  1  0.240495  0.024496  0.514235  1
  O  O11  1  0.203198  0.329564  0.509071  1
  O  O12  1  0.412497  0.684340  0.593242  1
  O  O13  1  0.670317  0.433814  0.018291  1
  O  O14  1  0.584316  0.187672  0.779328  1
  O  O15  1  0.415684  0.687672  0.220672  1
  O  O16  1  0.329683  0.933814  0.981709  1
  O  O17  1  0.587503  0.184340  0.406758  1
  O  O18  1  0.796802  0.829564  0.490929  1
  O  O19  1  0.759505  0.524496  0.485765  1
  O  O20  1  0.891282  0.187110  0.143767  1
  O  O21  1  0.945321  0.832903  0.124034  1
