# generated using pymatgen
data_Li7FeP4O14F
_symmetry_space_group_name_H-M   'P 1'
_cell_length_a   6.37118570
_cell_length_b   6.37118570
_cell_length_c   14.62238105
_cell_angle_alpha   84.22333597
_cell_angle_beta   95.77666403
_cell_angle_gamma   101.29476900
_symmetry_Int_Tables_number   1
_chemical_formula_structural   Li7FeP4O14F
_chemical_formula_sum   'Li14 Fe2 P8 O28 F2'
_cell_volume   577.10428364
_cell_formula_units_Z   2
loop_
 _symmetry_equiv_pos_site_id
 _symmetry_equiv_pos_as_xyz
  1  'x, y, z'
loop_
 _atom_site_type_symbol
 _atom_site_label
 _atom_site_symmetry_multiplicity
 _atom_site_fract_x
 _atom_site_fract_y
 _atom_site_fract_z
 _atom_site_occupancy
  Li  Li0  1  0.011660  0.398115  0.822190  1
  Li  Li1  1  0.635019  0.826934  0.834353  1
  Li  Li2  1  0.601885  0.988340  0.322190  1
  Li  Li3  1  0.173066  0.364981  0.334353  1
  Li  Li4  1  0.895561  0.952893  0.493262  1
  Li  Li5  1  0.525661  0.328085  0.821343  1
  Li  Li6  1  0.047107  0.104439  0.993262  1
  Li  Li7  1  0.878999  0.581453  0.974603  1
  Li  Li8  1  0.671915  0.474339  0.321343  1
  Li  Li9  1  0.418547  0.121001  0.474603  1
  Li  Li10  1  0.525612  0.036132  0.987067  1
  Li  Li11  1  0.963868  0.474388  0.487067  1
  Li  Li12  1  0.693630  0.130012  0.658791  1
  Li  Li13  1  0.869988  0.306370  0.158791  1
  Fe  Fe14  1  0.278425  0.722917  0.656518  1
  Fe  Fe15  1  0.277083  0.721575  0.156518  1
  P  P16  1  0.138773  0.912155  0.830619  1
  P  P17  1  0.087845  0.861227  0.330619  1
  P  P18  1  0.378321  0.528371  0.982479  1
  P  P19  1  0.471629  0.621679  0.482479  1
  P  P20  1  0.160789  0.192417  0.656559  1
  P  P21  1  0.807583  0.839211  0.156559  1
  P  P22  1  0.748797  0.617291  0.655481  1
  P  P23  1  0.382709  0.251203  0.155481  1
  O  O24  1  0.296578  0.793943  0.794489  1
  O  O25  1  0.206057  0.703422  0.294489  1
  O  O26  1  0.143040  0.418918  0.959988  1
  O  O27  1  0.258181  0.616584  0.522283  1
  O  O28  1  0.581082  0.856960  0.459988  1
  O  O29  1  0.383416  0.741819  0.022283  1
  O  O30  1  0.625424  0.781947  0.684218  1
  O  O31  1  0.261099  0.392335  0.707469  1
  O  O32  1  0.540838  0.542481  0.910815  1
  O  O33  1  0.035971  0.039713  0.738686  1
  O  O34  1  0.218053  0.374576  0.184218  1
  O  O35  1  0.607665  0.738901  0.207469  1
  O  O36  1  0.457519  0.459162  0.410815  1
  O  O37  1  0.960287  0.964029  0.238686  1
  O  O38  1  0.940416  0.765598  0.866810  1
  O  O39  1  0.249521  0.081427  0.895085  1
  O  O40  1  0.616916  0.508061  0.565203  1
  O  O41  1  0.959339  0.725158  0.615110  1
  O  O42  1  0.234402  0.059584  0.366810  1
  O  O43  1  0.332212  0.084009  0.621058  1
  O  O44  1  0.918573  0.750479  0.395085  1
  O  O45  1  0.491939  0.383084  0.065203  1
  O  O46  1  0.760328  0.424056  0.726029  1
  O  O47  1  0.274842  0.040661  0.115110  1
  O  O48  1  0.915991  0.667788  0.121058  1
  O  O49  1  0.575944  0.239672  0.226029  1
  O  O50  1  0.971433  0.209549  0.583444  1
  O  O51  1  0.790451  0.028567  0.083444  1
  F  F52  1  0.707762  0.124825  0.883484  1
  F  F53  1  0.875175  0.292238  0.383484  1
