# generated using pymatgen
data_Li14Cr9(P2O7)8
_symmetry_space_group_name_H-M   'P 1'
_cell_length_a   11.22371584
_cell_length_b   9.67784118
_cell_length_c   12.75737637
_cell_angle_alpha   68.74513482
_cell_angle_beta   116.50700632
_cell_angle_gamma   105.79913148
_symmetry_Int_Tables_number   1
_chemical_formula_structural   Li14Cr9(P2O7)8
_chemical_formula_sum   'Li14 Cr9 P16 O56'
_cell_volume   1145.52011587
_cell_formula_units_Z   1
loop_
 _symmetry_equiv_pos_site_id
 _symmetry_equiv_pos_as_xyz
  1  'x, y, z'
loop_
 _atom_site_type_symbol
 _atom_site_label
 _atom_site_symmetry_multiplicity
 _atom_site_fract_x
 _atom_site_fract_y
 _atom_site_fract_z
 _atom_site_occupancy
  Li  Li0  1  0.131893  0.935436  0.593195  1
  Li  Li1  1  0.023715  0.645470  0.394675  1
  Li  Li2  1  0.376694  0.042310  0.913023  1
  Li  Li3  1  0.126941  0.439636  0.082288  1
  Li  Li4  1  0.373990  0.543454  0.409750  1
  Li  Li5  1  0.492650  0.354179  0.827038  1
  Li  Li6  1  0.501721  0.855748  0.317799  1
  Li  Li7  1  0.498279  0.144252  0.682201  1
  Li  Li8  1  0.507350  0.645821  0.172962  1
  Li  Li9  1  0.626010  0.456546  0.590250  1
  Li  Li10  1  0.873059  0.560364  0.917712  1
  Li  Li11  1  0.623306  0.957690  0.086977  1
  Li  Li12  1  0.976285  0.354530  0.605325  1
  Li  Li13  1  0.868107  0.064564  0.406805  1
  Cr  Cr14  1  0.220362  0.698990  0.920785  1
  Cr  Cr15  1  0.255348  0.567123  0.702193  1
  Cr  Cr16  1  0.222492  0.196622  0.422617  1
  Cr  Cr17  1  0.000000  0.000000  0.000000  1
  Cr  Cr18  1  0.729672  0.927317  0.790996  1
  Cr  Cr19  1  0.270328  0.072683  0.209004  1
  Cr  Cr20  1  0.777508  0.803378  0.577383  1
  Cr  Cr21  1  0.744652  0.432877  0.297807  1
  Cr  Cr22  1  0.779638  0.301010  0.079215  1
  P  P23  1  0.062433  0.976520  0.776941  1
  P  P24  1  0.305034  0.360353  0.993201  1
  P  P25  1  0.062099  0.475567  0.272778  1
  P  P26  1  0.460898  0.807918  0.867460  1
  P  P27  1  0.209514  0.235760  0.661535  1
  P  P28  1  0.300831  0.857901  0.491655  1
  P  P29  1  0.205796  0.739859  0.158978  1
  P  P30  1  0.534709  0.685473  0.630930  1
  P  P31  1  0.465291  0.314527  0.369070  1
  P  P32  1  0.794204  0.260141  0.841022  1
  P  P33  1  0.699169  0.142099  0.508345  1
  P  P34  1  0.790486  0.764240  0.338465  1
  P  P35  1  0.539102  0.192082  0.132540  1
  P  P36  1  0.937901  0.524433  0.727222  1
  P  P37  1  0.694966  0.639647  0.006799  1
  P  P38  1  0.937567  0.023480  0.223059  1
  O  O39  1  0.000952  0.581939  0.839955  1
  O  O40  1  0.199405  0.922226  0.863072  1
  O  O41  1  0.029324  0.537525  0.664564  1
  O  O42  1  0.100353  0.158053  0.728274  1
  O  O43  1  0.314061  0.741362  0.796719  1
  O  O44  1  0.467595  0.841010  0.980006  1
  O  O45  1  0.204075  0.715391  0.519259  1
  O  O46  1  0.278148  0.984524  0.523822  1
  O  O47  1  0.301719  0.397679  0.865841  1
  O  O48  1  0.183900  0.397898  0.613677  1
  O  O49  1  0.105131  0.658273  0.230778  1
  O  O50  1  0.003904  0.085845  0.332959  1
  O  O51  1  0.158411  0.159094  0.560133  1
  O  O52  1  0.302256  0.900703  0.365621  1
  O  O53  1  0.198224  0.418260  0.360211  1
  O  O54  1  0.181087  0.905156  0.110037  1
  O  O55  1  0.519499  0.941081  0.788858  1
  O  O56  1  0.540372  0.666945  0.914083  1
  O  O57  1  0.351519  0.202411  0.752601  1
  O  O58  1  0.029146  0.043490  0.157479  1
  O  O59  1  0.154569  0.665804  0.056279  1
  O  O60  1  0.450733  0.822263  0.587634  1
  O  O61  1  0.480002  0.550938  0.710750  1
  O  O62  1  0.349856  0.714487  0.246849  1
  O  O63  1  0.719882  0.510826  0.978463  1
  O  O64  1  0.782973  0.784054  0.968093  1
  O  O65  1  0.319983  0.242136  0.301372  1
  O  O66  1  0.471397  0.343456  0.482780  1
  O  O67  1  0.528603  0.656544  0.517220  1
  O  O68  1  0.680017  0.757864  0.698628  1
  O  O69  1  0.217027  0.215946  0.031907  1
  O  O70  1  0.280118  0.489174  0.021537  1
  O  O71  1  0.650144  0.285513  0.753151  1
  O  O72  1  0.519998  0.449062  0.289250  1
  O  O73  1  0.549267  0.177737  0.412366  1
  O  O74  1  0.845430  0.334196  0.943721  1
  O  O75  1  0.970854  0.956510  0.842521  1
  O  O76  1  0.648481  0.797589  0.247399  1
  O  O77  1  0.459628  0.333055  0.085917  1
  O  O78  1  0.480501  0.058919  0.211142  1
  O  O79  1  0.818913  0.094844  0.889963  1
  O  O80  1  0.801776  0.581740  0.639789  1
  O  O81  1  0.697744  0.099297  0.634379  1
  O  O82  1  0.841589  0.840906  0.439867  1
  O  O83  1  0.996096  0.914155  0.667041  1
  O  O84  1  0.894869  0.341727  0.769222  1
  O  O85  1  0.816100  0.602102  0.386323  1
  O  O86  1  0.698281  0.602321  0.134159  1
  O  O87  1  0.721852  0.015476  0.476178  1
  O  O88  1  0.795925  0.284609  0.480741  1
  O  O89  1  0.532405  0.158990  0.019994  1
  O  O90  1  0.685939  0.258638  0.203281  1
  O  O91  1  0.899647  0.841947  0.271726  1
  O  O92  1  0.970676  0.462475  0.335436  1
  O  O93  1  0.800595  0.077774  0.136928  1
  O  O94  1  0.999048  0.418061  0.160045  1
