# generated using pymatgen
data_CsCa(NO2)3
_symmetry_space_group_name_H-M   'P 1'
_cell_length_a   5.60672683
_cell_length_b   5.60666833
_cell_length_c   5.60667515
_cell_angle_alpha   89.74529149
_cell_angle_beta   89.74468443
_cell_angle_gamma   89.74451703
_symmetry_Int_Tables_number   1
_chemical_formula_structural   CsCa(NO2)3
_chemical_formula_sum   'Cs1 Ca1 N3 O6'
_cell_volume   176.24092927
_cell_formula_units_Z   1
loop_
 _symmetry_equiv_pos_site_id
 _symmetry_equiv_pos_as_xyz
  1  'x, y, z'
loop_
 _atom_site_type_symbol
 _atom_site_label
 _atom_site_symmetry_multiplicity
 _atom_site_fract_x
 _atom_site_fract_y
 _atom_site_fract_z
 _atom_site_occupancy
  Cs  Cs0  1  0.000156  0.000158  0.000157  1
  Ca  Ca1  1  0.532435  0.532431  0.532431  1
  N  N2  1  0.069318  0.483013  0.510266  1
  N  N3  1  0.483014  0.510268  0.069319  1
  N  N4  1  0.510266  0.069318  0.483013  1
  O  O5  1  0.321953  0.944760  0.480523  1
  O  O6  1  0.480523  0.321949  0.944761  1
  O  O7  1  0.491736  0.704201  0.950083  1
  O  O8  1  0.704199  0.950083  0.491737  1
  O  O9  1  0.944762  0.480523  0.321950  1
  O  O10  1  0.950082  0.491736  0.704201  1
