# generated using pymatgen
data_Al2(SeO4)3
_symmetry_space_group_name_H-M   'P 1'
_cell_length_a   8.48268538
_cell_length_b   8.48303713
_cell_length_c   8.97258034
_cell_angle_alpha   61.78693734
_cell_angle_beta   118.20968968
_cell_angle_gamma   120.00075189
_symmetry_Int_Tables_number   1
_chemical_formula_structural   Al2(SeO4)3
_chemical_formula_sum   'Al4 Se6 O24'
_cell_volume   468.50173626
_cell_formula_units_Z   2
loop_
 _symmetry_equiv_pos_site_id
 _symmetry_equiv_pos_as_xyz
  1  'x, y, z'
loop_
 _atom_site_type_symbol
 _atom_site_label
 _atom_site_symmetry_multiplicity
 _atom_site_fract_x
 _atom_site_fract_y
 _atom_site_fract_z
 _atom_site_occupancy
  Al  Al0  1  0.648123  0.351892  0.944377  1
  Al  Al1  1  0.856466  0.143564  0.569387  1
  Al  Al2  1  0.143534  0.856436  0.430613  1
  Al  Al3  1  0.351876  0.648107  0.055623  1
  Se  Se4  1  0.964229  0.459998  0.753007  1
  Se  Se5  1  0.540063  0.751288  0.753050  1
  Se  Se6  1  0.248752  0.035639  0.753026  1
  Se  Se7  1  0.751248  0.964361  0.246974  1
  Se  Se8  1  0.459937  0.248712  0.246950  1
  Se  Se9  1  0.035771  0.540002  0.246993  1
  O  O10  1  0.804722  0.482789  0.792184  1
  O  O11  1  0.881813  0.246115  0.732830  1
  O  O12  1  0.989913  0.630735  0.562502  1
  O  O13  1  0.521457  0.778583  0.916584  1
  O  O14  1  0.753841  0.902862  0.732846  1
  O  O15  1  0.517235  0.529765  0.792190  1
  O  O16  1  0.470282  0.195287  0.792173  1
  O  O17  1  0.221439  0.826289  0.916566  1
  O  O18  1  0.796646  0.989978  0.437494  1
  O  O19  1  0.173720  0.478536  0.916543  1
  O  O20  1  0.902846  0.881853  0.267213  1
  O  O21  1  0.630768  0.203338  0.437514  1
  O  O22  1  0.369232  0.796662  0.562486  1
  O  O23  1  0.097154  0.118148  0.732787  1
  O  O24  1  0.826280  0.521464  0.083458  1
  O  O25  1  0.203355  0.010022  0.562506  1
  O  O26  1  0.778561  0.173711  0.083434  1
  O  O27  1  0.529718  0.804713  0.207827  1
  O  O28  1  0.482765  0.470235  0.207810  1
  O  O29  1  0.246159  0.097138  0.267154  1
  O  O30  1  0.478543  0.221416  0.083416  1
  O  O31  1  0.010087  0.369265  0.437498  1
  O  O32  1  0.118187  0.753885  0.267170  1
  O  O33  1  0.195278  0.517211  0.207816  1
