# generated using pymatgen
data_Na3Mn2P2(CO7)2
_symmetry_space_group_name_H-M   'P 1'
_cell_length_a   8.38495297
_cell_length_b   8.43076483
_cell_length_c   10.57871453
_cell_angle_alpha   70.19350879
_cell_angle_beta   107.97038940
_cell_angle_gamma   76.78946059
_symmetry_Int_Tables_number   1
_chemical_formula_structural   Na3Mn2P2(CO7)2
_chemical_formula_sum   'Na6 Mn4 P4 C4 O28'
_cell_volume   621.18566289
_cell_formula_units_Z   2
loop_
 _symmetry_equiv_pos_site_id
 _symmetry_equiv_pos_as_xyz
  1  'x, y, z'
loop_
 _atom_site_type_symbol
 _atom_site_label
 _atom_site_symmetry_multiplicity
 _atom_site_fract_x
 _atom_site_fract_y
 _atom_site_fract_z
 _atom_site_occupancy
  Na  Na0  1  0.011155  0.024453  0.751959  1
  Na  Na1  1  0.505468  0.492038  0.768631  1
  Na  Na2  1  0.746227  0.741052  0.762348  1
  Na  Na3  1  0.753773  0.758948  0.237652  1
  Na  Na4  1  0.488845  0.475547  0.248041  1
  Na  Na5  1  0.994532  0.007963  0.231369  1
  Mn  Mn6  1  0.585159  0.156398  0.652223  1
  Mn  Mn7  1  0.091039  0.654077  0.651537  1
  Mn  Mn8  1  0.914841  0.343602  0.347777  1
  Mn  Mn9  1  0.408961  0.845923  0.348463  1
  P  P10  1  0.771370  0.486656  0.572649  1
  P  P11  1  0.267520  0.969043  0.572085  1
  P  P12  1  0.728630  0.013344  0.427351  1
  P  P13  1  0.232480  0.530957  0.427915  1
  C  C14  1  0.702216  0.047391  0.921000  1
  C  C15  1  0.198188  0.552162  0.919811  1
  C  C16  1  0.797784  0.452609  0.079000  1
  C  C17  1  0.301812  0.947838  0.080189  1
  O  O18  1  0.247230  0.994333  0.946425  1
  O  O19  1  0.731604  0.511142  0.941488  1
  O  O20  1  0.273995  0.469464  0.855675  1
  O  O21  1  0.773884  0.968056  0.851914  1
  O  O22  1  0.556850  0.192054  0.827354  1
  O  O23  1  0.050313  0.698181  0.816489  1
  O  O24  1  0.939458  0.513102  0.663616  1
  O  O25  1  0.768279  0.308366  0.673594  1
  O  O26  1  0.445132  0.972305  0.666159  1
  O  O27  1  0.250280  0.792312  0.670000  1
  O  O28  1  0.730488  0.011161  0.575020  1
  O  O29  1  0.099585  0.134755  0.531100  1
  O  O30  1  0.598231  0.648604  0.535938  1
  O  O31  1  0.235989  0.530931  0.575562  1
  O  O32  1  0.769512  0.488839  0.424980  1
  O  O33  1  0.901769  0.851396  0.464062  1
  O  O34  1  0.400415  0.365245  0.468900  1
  O  O35  1  0.264011  0.969069  0.424438  1
  O  O36  1  0.560542  0.986898  0.336384  1
  O  O37  1  0.731721  0.191634  0.326406  1
  O  O38  1  0.054868  0.527695  0.333841  1
  O  O39  1  0.249720  0.707688  0.330000  1
  O  O40  1  0.943150  0.307946  0.172646  1
  O  O41  1  0.449687  0.801819  0.183511  1
  O  O42  1  0.726116  0.531944  0.148086  1
  O  O43  1  0.226005  0.030536  0.144325  1
  O  O44  1  0.768396  0.988858  0.058512  1
  O  O45  1  0.252770  0.505667  0.053575  1
