# generated using pymatgen
data_Li4Mn3Nb2Ni3O16
_symmetry_space_group_name_H-M   'P 1'
_cell_length_a   5.93240035
_cell_length_b   5.88477413
_cell_length_c   9.64334583
_cell_angle_alpha   89.99981561
_cell_angle_beta   90.59909328
_cell_angle_gamma   119.73450883
_symmetry_Int_Tables_number   1
_chemical_formula_structural   Li4Mn3Nb2Ni3O16
_chemical_formula_sum   'Li4 Mn3 Nb2 Ni3 O16'
_cell_volume   292.30940790
_cell_formula_units_Z   1
loop_
 _symmetry_equiv_pos_site_id
 _symmetry_equiv_pos_as_xyz
  1  'x, y, z'
loop_
 _atom_site_type_symbol
 _atom_site_label
 _atom_site_symmetry_multiplicity
 _atom_site_fract_x
 _atom_site_fract_y
 _atom_site_fract_z
 _atom_site_occupancy
  Li  Li0  1  0.327879  0.663952  0.898033  1
  Li  Li1  1  0.003697  0.001860  0.989292  1
  Li  Li2  1  0.007266  0.003649  0.495979  1
  Li  Li3  1  0.654588  0.327309  0.401819  1
  Mn  Mn4  1  0.174247  0.834368  0.215563  1
  Mn  Mn5  1  0.174250  0.339901  0.215563  1
  Mn  Mn6  1  0.344900  0.172457  0.719246  1
  Nb  Nb7  1  0.340544  0.670280  0.498301  1
  Nb  Nb8  1  0.696311  0.348170  0.985507  1
  Ni  Ni9  1  0.661549  0.830790  0.214193  1
  Ni  Ni10  1  0.831184  0.662437  0.712621  1
  Ni  Ni11  1  0.831181  0.168765  0.712624  1
  O  O12  1  0.181252  0.844550  0.594714  1
  O  O13  1  0.034855  0.517443  0.330153  1
  O  O14  1  0.314309  0.657168  0.110174  1
  O  O15  1  0.015130  0.007579  0.307684  1
  O  O16  1  0.016006  0.008004  0.804273  1
  O  O17  1  0.181253  0.336723  0.594718  1
  O  O18  1  0.460226  0.958507  0.338779  1
  O  O19  1  0.460229  0.501748  0.338778  1
  O  O20  1  0.322819  0.161421  0.105028  1
  O  O21  1  0.668473  0.834247  0.581216  1
  O  O22  1  0.498985  0.464854  0.844307  1
  O  O23  1  0.498993  0.034145  0.844307  1
  O  O24  1  0.649574  0.324794  0.609812  1
  O  O25  1  0.843074  0.670384  0.095665  1
  O  O26  1  0.964151  0.482082  0.853825  1
  O  O27  1  0.843078  0.172717  0.095665  1
