# generated using pymatgen
data_Li3Fe8(BO3)8
_symmetry_space_group_name_H-M   'P 1'
_cell_length_a   5.30589381
_cell_length_b   9.06074007
_cell_length_c   11.44022013
_cell_angle_alpha   113.96429128
_cell_angle_beta   77.45100130
_cell_angle_gamma   89.53194455
_symmetry_Int_Tables_number   1
_chemical_formula_structural   Li3Fe8(BO3)8
_chemical_formula_sum   'Li3 Fe8 B8 O24'
_cell_volume   487.70129230
_cell_formula_units_Z   1
loop_
 _symmetry_equiv_pos_site_id
 _symmetry_equiv_pos_as_xyz
  1  'x, y, z'
loop_
 _atom_site_type_symbol
 _atom_site_label
 _atom_site_symmetry_multiplicity
 _atom_site_fract_x
 _atom_site_fract_y
 _atom_site_fract_z
 _atom_site_occupancy
  Li  Li0  1  0.595325  0.061924  0.119030  1
  Li  Li1  1  0.923727  0.427825  0.841954  1
  Li  Li2  1  0.417381  0.935896  0.845133  1
  Fe  Fe3  1  0.399069  0.281671  0.873260  1
  Fe  Fe4  1  0.096602  0.232361  0.120030  1
  Fe  Fe5  1  0.839083  0.138688  0.621301  1
  Fe  Fe6  1  0.657943  0.354504  0.370008  1
  Fe  Fe7  1  0.342558  0.640596  0.622026  1
  Fe  Fe8  1  0.152360  0.850236  0.367445  1
  Fe  Fe9  1  0.906461  0.780593  0.873796  1
  Fe  Fe10  1  0.603800  0.720434  0.120946  1
  B  B11  1  0.649791  0.013649  0.364427  1
  B  B12  1  0.898772  0.104051  0.871777  1
  B  B13  1  0.143431  0.519007  0.374383  1
  B  B14  1  0.400442  0.607337  0.871805  1
  B  B15  1  0.847202  0.480248  0.625456  1
  B  B16  1  0.597758  0.392616  0.122105  1
  B  B17  1  0.346491  0.980901  0.623420  1
  B  B18  1  0.112949  0.891485  0.120960  1
  O  O19  1  0.136435  0.120457  0.904197  1
  O  O20  1  0.471502  0.120357  0.660568  1
  O  O21  1  0.245686  0.011973  0.106562  1
  O  O22  1  0.570054  0.142300  0.344579  1
  O  O23  1  0.858965  0.018568  0.422020  1
  O  O24  1  0.811422  0.207652  0.820825  1
  O  O25  1  0.260767  0.482701  0.869226  1
  O  O26  1  0.027028  0.376585  0.334079  1
  O  O27  1  0.697535  0.289157  0.170776  1
  O  O28  1  0.638060  0.476249  0.568500  1
  O  O29  1  0.919837  0.352288  0.648566  1
  O  O30  1  0.383133  0.351803  0.072953  1
  O  O31  1  0.628363  0.631981  0.919777  1
  O  O32  1  0.364189  0.520232  0.425184  1
  O  O33  1  0.320613  0.716924  0.824124  1
  O  O34  1  0.972556  0.620279  0.665495  1
  O  O35  1  0.719017  0.525055  0.121073  1
  O  O36  1  0.217948  0.786677  0.167029  1
  O  O37  1  0.138604  0.976718  0.565379  1
  O  O38  1  0.421143  0.853009  0.646724  1
  O  O39  1  0.053931  0.654843  0.367936  1
  O  O40  1  0.745000  0.989936  0.891789  1
  O  O41  1  0.532205  0.868936  0.323934  1
  O  O42  1  0.870159  0.862531  0.088039  1
