# generated using pymatgen
data_Sr2YI7
_symmetry_space_group_name_H-M   'P 1'
_cell_length_a   8.31070076
_cell_length_b   14.61040858
_cell_length_c   14.91182810
_cell_angle_alpha   90.00000000
_cell_angle_beta   100.62065356
_cell_angle_gamma   90.00000000
_symmetry_Int_Tables_number   1
_chemical_formula_structural   Sr2YI7
_chemical_formula_sum   'Sr8 Y4 I28'
_cell_volume   1779.61690175
_cell_formula_units_Z   4
loop_
 _symmetry_equiv_pos_site_id
 _symmetry_equiv_pos_as_xyz
  1  'x, y, z'
loop_
 _atom_site_type_symbol
 _atom_site_label
 _atom_site_symmetry_multiplicity
 _atom_site_fract_x
 _atom_site_fract_y
 _atom_site_fract_z
 _atom_site_occupancy
  Sr  Sr0  1  0.249055  0.462241  0.771659  1
  Sr  Sr1  1  0.241774  0.872289  0.655248  1
  Sr  Sr2  1  0.228806  0.203482  0.157952  1
  Sr  Sr3  1  0.378823  0.630520  0.266504  1
  Sr  Sr4  1  0.621177  0.130520  0.733496  1
  Sr  Sr5  1  0.771194  0.703482  0.842048  1
  Sr  Sr6  1  0.758226  0.372289  0.344752  1
  Sr  Sr7  1  0.750945  0.962241  0.228341  1
  Y  Y8  1  0.147927  0.154170  0.554163  1
  Y  Y9  1  0.157274  0.925030  0.054009  1
  Y  Y10  1  0.842726  0.425030  0.945991  1
  Y  Y11  1  0.852073  0.654170  0.445837  1
  I  I12  1  0.113615  0.304649  0.904049  1
  I  I13  1  0.074305  0.581188  0.997047  1
  I  I14  1  0.045323  0.487884  0.511628  1
  I  I15  1  0.116220  0.836200  0.866459  1
  I  I16  1  0.155238  0.746871  0.404422  1
  I  I17  1  0.120006  0.250376  0.371258  1
  I  I18  1  0.207610  0.081886  0.749514  1
  I  I19  1  0.165404  0.996631  0.250943  1
  I  I20  1  0.393474  0.659833  0.701189  1
  I  I21  1  0.396400  0.411970  0.199740  1
  I  I22  1  0.385304  0.310205  0.627455  1
  I  I23  1  0.577552  0.283567  0.887967  1
  I  I24  1  0.448800  0.033389  0.539519  1
  I  I25  1  0.556320  0.554568  0.952805  1
  I  I26  1  0.443680  0.054568  0.047195  1
  I  I27  1  0.551200  0.533389  0.460481  1
  I  I28  1  0.422448  0.783567  0.112033  1
  I  I29  1  0.614696  0.810205  0.372545  1
  I  I30  1  0.603600  0.911970  0.800260  1
  I  I31  1  0.606526  0.159833  0.298811  1
  I  I32  1  0.834596  0.496631  0.749057  1
  I  I33  1  0.792390  0.581886  0.250486  1
  I  I34  1  0.879994  0.750376  0.628742  1
  I  I35  1  0.844762  0.246871  0.595578  1
  I  I36  1  0.883780  0.336200  0.133541  1
  I  I37  1  0.954677  0.987884  0.488372  1
  I  I38  1  0.925695  0.081188  0.002953  1
  I  I39  1  0.886385  0.804649  0.095951  1
