# generated using pymatgen
data_Na2MnAsCO7
_symmetry_space_group_name_H-M   'P 1'
_cell_length_a   9.14074724
_cell_length_b   6.79488260
_cell_length_c   5.39254881
_cell_angle_alpha   90.00000000
_cell_angle_beta   87.81460177
_cell_angle_gamma   90.00000000
_symmetry_Int_Tables_number   1
_chemical_formula_structural   Na2MnAsCO7
_chemical_formula_sum   'Na4 Mn2 As2 C2 O14'
_cell_volume   334.68924016
_cell_formula_units_Z   2
loop_
 _symmetry_equiv_pos_site_id
 _symmetry_equiv_pos_as_xyz
  1  'x, y, z'
loop_
 _atom_site_type_symbol
 _atom_site_label
 _atom_site_symmetry_multiplicity
 _atom_site_fract_x
 _atom_site_fract_y
 _atom_site_fract_z
 _atom_site_occupancy
  Na  Na0  1  0.225693  0.500049  0.230970  1
  Na  Na1  1  0.225693  0.999951  0.230970  1
  Na  Na2  1  0.774307  0.499951  0.769030  1
  Na  Na3  1  0.774307  0.000049  0.769030  1
  Mn  Mn4  1  0.349896  0.750000  0.778348  1
  Mn  Mn5  1  0.650104  0.250000  0.221652  1
  As  As6  1  0.426826  0.250000  0.707420  1
  As  As7  1  0.573174  0.750000  0.292580  1
  C  C8  1  0.074346  0.750000  0.719594  1
  C  C9  1  0.925654  0.250000  0.280406  1
  O  O10  1  0.063019  0.250000  0.273507  1
  O  O11  1  0.147606  0.750000  0.929455  1
  O  O12  1  0.158682  0.750000  0.520641  1
  O  O13  1  0.323741  0.048696  0.791293  1
  O  O14  1  0.323741  0.451304  0.791293  1
  O  O15  1  0.405786  0.750000  0.162520  1
  O  O16  1  0.453690  0.250000  0.383301  1
  O  O17  1  0.546310  0.750000  0.616699  1
  O  O18  1  0.594214  0.250000  0.837480  1
  O  O19  1  0.676259  0.548696  0.208707  1
  O  O20  1  0.676259  0.951304  0.208707  1
  O  O21  1  0.841318  0.250000  0.479359  1
  O  O22  1  0.852394  0.250000  0.070545  1
  O  O23  1  0.936981  0.750000  0.726493  1
