# generated using pymatgen
data_Rb2FeH2C5(N3O)2
_symmetry_space_group_name_H-M   'P 1'
_cell_length_a   8.71139344
_cell_length_b   8.71139344
_cell_length_c   18.25351599
_cell_angle_alpha   73.20946487
_cell_angle_beta   106.79053513
_cell_angle_gamma   107.53022343
_symmetry_Int_Tables_number   1
_chemical_formula_structural   Rb2FeH2C5(N3O)2
_chemical_formula_sum   'Rb8 Fe4 H8 C20 N24 O8'
_cell_volume   1233.28065301
_cell_formula_units_Z   4
loop_
 _symmetry_equiv_pos_site_id
 _symmetry_equiv_pos_as_xyz
  1  'x, y, z'
loop_
 _atom_site_type_symbol
 _atom_site_label
 _atom_site_symmetry_multiplicity
 _atom_site_fract_x
 _atom_site_fract_y
 _atom_site_fract_z
 _atom_site_occupancy
  Rb  Rb0  1  0.930411  0.855659  0.125373  1
  Rb  Rb1  1  0.855659  0.930411  0.374627  1
  Rb  Rb2  1  0.069589  0.144341  0.874627  1
  Rb  Rb3  1  0.144341  0.069589  0.625373  1
  Rb  Rb4  1  0.582270  0.251980  0.840619  1
  Rb  Rb5  1  0.251980  0.582270  0.659381  1
  Rb  Rb6  1  0.417730  0.748020  0.159381  1
  Rb  Rb7  1  0.748020  0.417730  0.340619  1
  Fe  Fe8  1  0.753063  0.353564  0.071066  1
  Fe  Fe9  1  0.353564  0.753063  0.428934  1
  Fe  Fe10  1  0.246937  0.646436  0.928934  1
  Fe  Fe11  1  0.646436  0.246937  0.571066  1
  H  H12  1  0.675152  0.924115  0.882942  1
  H  H13  1  0.924115  0.675152  0.617058  1
  H  H14  1  0.324848  0.075885  0.117058  1
  H  H15  1  0.075885  0.324848  0.382942  1
  H  H16  1  0.671229  0.922552  0.796909  1
  H  H17  1  0.922552  0.671229  0.703091  1
  H  H18  1  0.328771  0.077448  0.203091  1
  H  H19  1  0.077448  0.328771  0.296909  1
  C  C20  1  0.850116  0.244185  0.024170  1
  C  C21  1  0.244185  0.850116  0.475830  1
  C  C22  1  0.149884  0.755815  0.975830  1
  C  C23  1  0.755815  0.149884  0.524170  1
  C  C24  1  0.661630  0.437452  0.132029  1
  C  C25  1  0.437452  0.661630  0.367971  1
  C  C26  1  0.338370  0.562548  0.867971  1
  C  C27  1  0.562548  0.338370  0.632029  1
  C  C28  1  0.744581  0.151938  0.151763  1
  C  C29  1  0.151938  0.744581  0.348237  1
  C  C30  1  0.255419  0.848062  0.848237  1
  C  C31  1  0.848062  0.255419  0.651763  1
  C  C32  1  0.967634  0.436683  0.133512  1
  C  C33  1  0.436683  0.967634  0.366488  1
  C  C34  1  0.032366  0.563317  0.866488  1
  C  C35  1  0.563317  0.032366  0.633512  1
  C  C36  1  0.534389  0.239901  0.024971  1
  C  C37  1  0.239901  0.534389  0.475029  1
  C  C38  1  0.465611  0.760099  0.975029  1
  C  C39  1  0.760099  0.465611  0.524971  1
  N  N40  1  0.754129  0.516085  0.995851  1
  N  N41  1  0.516085  0.754129  0.504149  1
  N  N42  1  0.245871  0.483915  0.004149  1
  N  N43  1  0.483915  0.245871  0.495851  1
  N  N44  1  0.908055  0.181154  0.993684  1
  N  N45  1  0.181154  0.908055  0.506316  1
  N  N46  1  0.091945  0.818846  0.006316  1
  N  N47  1  0.818846  0.091945  0.493684  1
  N  N48  1  0.613093  0.499261  0.167089  1
  N  N49  1  0.499261  0.613093  0.332911  1
  N  N50  1  0.386907  0.500739  0.832911  1
  N  N51  1  0.500739  0.386907  0.667089  1
  N  N52  1  0.737554  0.025326  0.197673  1
  N  N53  1  0.025326  0.737554  0.302327  1
  N  N54  1  0.262446  0.974674  0.802327  1
  N  N55  1  0.974674  0.262446  0.697673  1
  N  N56  1  0.095990  0.492475  0.171274  1
  N  N57  1  0.492475  0.095990  0.328726  1
  N  N58  1  0.904010  0.507525  0.828726  1
  N  N59  1  0.507525  0.904010  0.671274  1
  N  N60  1  0.400996  0.175396  0.994924  1
  N  N61  1  0.175396  0.400996  0.505076  1
  N  N62  1  0.599004  0.824604  0.005076  1
  N  N63  1  0.824604  0.599004  0.494924  1
  O  O64  1  0.749712  0.620884  0.940619  1
  O  O65  1  0.620884  0.749712  0.559381  1
  O  O66  1  0.250288  0.379116  0.059381  1
  O  O67  1  0.379116  0.250288  0.440619  1
  O  O68  1  0.721327  0.987384  0.837248  1
  O  O69  1  0.987384  0.721327  0.662752  1
  O  O70  1  0.278673  0.012616  0.162752  1
  O  O71  1  0.012616  0.278673  0.337248  1
