# generated using pymatgen
data_Li3V3P8O29
_symmetry_space_group_name_H-M   'P 1'
_cell_length_a   9.78610096
_cell_length_b   9.79279406
_cell_length_c   14.33745581
_cell_angle_alpha   90.74897725
_cell_angle_beta   89.90412422
_cell_angle_gamma   59.86341412
_symmetry_Int_Tables_number   1
_chemical_formula_structural   Li3V3P8O29
_chemical_formula_sum   'Li6 V6 P16 O58'
_cell_volume   1188.12696429
_cell_formula_units_Z   2
loop_
 _symmetry_equiv_pos_site_id
 _symmetry_equiv_pos_as_xyz
  1  'x, y, z'
loop_
 _atom_site_type_symbol
 _atom_site_label
 _atom_site_symmetry_multiplicity
 _atom_site_fract_x
 _atom_site_fract_y
 _atom_site_fract_z
 _atom_site_occupancy
  Li  Li0  1  0.090479  0.690616  0.445572  1
  Li  Li1  1  0.226776  0.692623  0.937263  1
  Li  Li2  1  0.777726  0.306474  0.059535  1
  Li  Li3  1  0.916916  0.305538  0.558367  1
  Li  Li4  1  0.772213  0.917389  0.560735  1
  Li  Li5  1  0.911504  0.776118  0.052277  1
  V  V6  1  0.998574  0.564195  0.248397  1
  V  V7  1  0.433245  0.997675  0.248915  1
  V  V8  1  0.437184  0.571339  0.743020  1
  V  V9  1  0.562694  0.432294  0.253712  1
  V  V10  1  0.559525  0.004283  0.753940  1
  V  V11  1  0.004591  0.426372  0.753732  1
  P  P12  1  0.089797  0.223636  0.162216  1
  P  P13  1  0.230676  0.080618  0.657119  1
  P  P14  1  0.089165  0.676588  0.660589  1
  P  P15  1  0.328787  0.335791  0.367929  1
  P  P16  1  0.331938  0.342348  0.869218  1
  P  P17  1  0.231368  0.678719  0.156089  1
  P  P18  1  0.311863  0.775658  0.336098  1
  P  P19  1  0.686485  0.083594  0.163645  1
  P  P20  1  0.310727  0.917275  0.841121  1
  P  P21  1  0.685464  0.226190  0.663157  1
  P  P22  1  0.764775  0.321106  0.842944  1
  P  P23  1  0.668983  0.662551  0.131251  1
  P  P24  1  0.676240  0.664179  0.630194  1
  P  P25  1  0.910182  0.320138  0.341294  1
  P  P26  1  0.767732  0.913415  0.343860  1
  P  P27  1  0.908121  0.770789  0.838581  1
  O  O28  1  0.980547  0.259812  0.433173  1
  O  O29  1  0.085197  0.253097  0.664908  1
  O  O30  1  0.209048  0.999162  0.749230  1
  O  O31  1  0.235944  0.998746  0.929130  1
  O  O32  1  0.097589  0.378839  0.179190  1
  O  O33  1  0.260011  0.082142  0.165535  1
  O  O34  1  0.183251  0.339501  0.823814  1
  O  O35  1  0.096848  0.518009  0.677445  1
  O  O36  1  0.995368  0.761544  0.926156  1
  O  O37  1  0.082649  0.659338  0.164743  1
  O  O38  1  0.334410  0.186415  0.323795  1
  O  O39  1  0.179641  0.487028  0.326685  1
  O  O40  1  0.383362  0.090172  0.679714  1
  O  O41  1  0.326845  0.346771  0.471063  1
  O  O42  1  0.323637  0.344555  0.972354  1
  O  O43  1  0.525844  0.090215  0.177715  1
  O  O44  1  0.331636  0.490227  0.829082  1
  O  O45  1  0.478954  0.189389  0.824532  1
  O  O46  1  0.256992  0.654589  0.666257  1
  O  O47  1  0.213601  0.795158  0.241188  1
  O  O48  1  0.236596  0.743515  0.064185  1
  O  O49  1  0.226426  0.767463  0.418916  1
  O  O50  1  0.382373  0.520016  0.178869  1
  O  O51  1  0.478365  0.337581  0.323745  1
  O  O52  1  0.658032  0.083670  0.662160  1
  O  O53  1  0.338857  0.745191  0.832855  1
  O  O54  1  0.523109  0.382298  0.677130  1
  O  O55  1  0.237231  0.998954  0.569303  1
  O  O56  1  0.763858  0.985081  0.436363  1
  O  O57  1  0.475055  0.619180  0.320827  1
  O  O58  1  0.659572  0.254118  0.163006  1
  O  O59  1  0.783413  0.011693  0.259567  1
  O  O60  1  0.342134  0.915498  0.332276  1
  O  O61  1  0.524573  0.664101  0.674811  1
  O  O62  1  0.614498  0.480566  0.819906  1
  O  O63  1  0.759413  0.257235  0.934566  1
  O  O64  1  0.774724  0.232712  0.581477  1
  O  O65  1  0.780371  0.203012  0.759440  1
  O  O66  1  0.742589  0.342955  0.327572  1
  O  O67  1  0.522391  0.812554  0.176056  1
  O  O68  1  0.475165  0.907004  0.820918  1
  O  O69  1  0.667963  0.513702  0.169037  1
  O  O70  1  0.676892  0.657438  0.526735  1
  O  O71  1  0.681203  0.664722  0.028074  1
  O  O72  1  0.616486  0.905655  0.321976  1
  O  O73  1  0.822100  0.513634  0.671483  1
  O  O74  1  0.672638  0.815903  0.670756  1
  O  O75  1  0.910471  0.343266  0.828348  1
  O  O76  1  0.012336  0.202899  0.257672  1
  O  O77  1  0.993979  0.235196  0.080348  1
  O  O78  1  0.900086  0.480870  0.318403  1
  O  O79  1  0.819016  0.665555  0.174529  1
  O  O80  1  0.740617  0.914972  0.833193  1
  O  O81  1  0.901971  0.617216  0.821681  1
  O  O82  1  0.777626  0.988442  0.081061  1
  O  O83  1  0.917030  0.744893  0.334343  1
  O  O84  1  0.003122  0.755217  0.573298  1
  O  O85  1  0.998979  0.789024  0.749885  1
