# generated using pymatgen
data_NaP3H10(NO5)2
_symmetry_space_group_name_H-M   'P 1'
_cell_length_a   13.47897975
_cell_length_b   11.79001628
_cell_length_c   6.89512000
_cell_angle_alpha   90.00000000
_cell_angle_beta   101.89360084
_cell_angle_gamma   90.00000000
_symmetry_Int_Tables_number   1
_chemical_formula_structural   NaP3H10(NO5)2
_chemical_formula_sum   'Na4 P12 H40 N8 O40'
_cell_volume   1072.23083120
_cell_formula_units_Z   4
loop_
 _symmetry_equiv_pos_site_id
 _symmetry_equiv_pos_as_xyz
  1  'x, y, z'
loop_
 _atom_site_type_symbol
 _atom_site_label
 _atom_site_symmetry_multiplicity
 _atom_site_fract_x
 _atom_site_fract_y
 _atom_site_fract_z
 _atom_site_occupancy
  Na  Na0  1  0.282378  0.701566  0.422195  1
  Na  Na1  1  0.782378  0.798434  0.922195  1
  Na  Na2  1  0.717622  0.298434  0.577805  1
  Na  Na3  1  0.217622  0.201566  0.077805  1
  P  P4  1  0.151230  0.960505  0.320131  1
  P  P5  1  0.651230  0.539495  0.820131  1
  P  P6  1  0.848770  0.039495  0.679869  1
  P  P7  1  0.348770  0.460505  0.179869  1
  P  P8  1  0.856960  0.831720  0.450035  1
  P  P9  1  0.356960  0.668280  0.950035  1
  P  P10  1  0.143040  0.168280  0.549965  1
  P  P11  1  0.643040  0.331720  0.049965  1
  P  P12  1  0.019437  0.755066  0.246733  1
  P  P13  1  0.519437  0.744934  0.746733  1
  P  P14  1  0.980563  0.244934  0.753267  1
  P  P15  1  0.480563  0.255066  0.253267  1
  H  H16  1  0.161871  0.867338  0.688772  1
  H  H17  1  0.661871  0.632662  0.188772  1
  H  H18  1  0.838129  0.132662  0.311228  1
  H  H19  1  0.338129  0.367338  0.811228  1
  H  H20  1  0.065685  0.840965  0.810230  1
  H  H21  1  0.565685  0.659035  0.310230  1
  H  H22  1  0.934315  0.159035  0.189770  1
  H  H23  1  0.434315  0.340965  0.689770  1
  H  H24  1  0.186947  0.801488  0.914419  1
  H  H25  1  0.686947  0.698512  0.414419  1
  H  H26  1  0.813053  0.198512  0.085581  1
  H  H27  1  0.313053  0.301488  0.585581  1
  H  H28  1  0.345638  0.437751  0.596093  1
  H  H29  1  0.845638  0.062249  0.096093  1
  H  H30  1  0.654362  0.562249  0.403907  1
  H  H31  1  0.154362  0.937751  0.903907  1
  H  H32  1  0.434049  0.893124  0.386397  1
  H  H33  1  0.934049  0.606876  0.886397  1
  H  H34  1  0.565951  0.106876  0.613603  1
  H  H35  1  0.065951  0.393124  0.113603  1
  H  H36  1  0.009319  0.457691  0.283921  1
  H  H37  1  0.509319  0.042309  0.783921  1
  H  H38  1  0.990681  0.542309  0.716079  1
  H  H39  1  0.490681  0.957691  0.216079  1
  H  H40  1  0.383806  0.014426  0.261466  1
  H  H41  1  0.883806  0.485574  0.761466  1
  H  H42  1  0.616194  0.985574  0.738534  1
  H  H43  1  0.116194  0.514426  0.238534  1
  H  H44  1  0.123170  0.387503  0.351190  1
  H  H45  1  0.623170  0.112497  0.851190  1
  H  H46  1  0.876830  0.612497  0.648810  1
  H  H47  1  0.376830  0.887503  0.148810  1
  H  H48  1  0.322308  0.056333  0.788394  1
  H  H49  1  0.822308  0.443667  0.288394  1
  H  H50  1  0.677692  0.943667  0.211606  1
  H  H51  1  0.177692  0.556333  0.711606  1
  H  H52  1  0.343714  0.946991  0.682658  1
  H  H53  1  0.843714  0.553009  0.182659  1
  H  H54  1  0.656286  0.053009  0.317341  1
  H  H55  1  0.156286  0.446991  0.817342  1
  N  N56  1  0.140804  0.861288  0.827068  1
  N  N57  1  0.640804  0.638712  0.327068  1
  N  N58  1  0.859196  0.138712  0.172932  1
  N  N59  1  0.359196  0.361288  0.672932  1
  N  N60  1  0.078588  0.438791  0.245928  1
  N  N61  1  0.578588  0.061209  0.745928  1
  N  N62  1  0.921412  0.561209  0.754072  1
  N  N63  1  0.421412  0.938791  0.254072  1
  O  O64  1  0.303919  0.509829  0.342108  1
  O  O65  1  0.803919  0.990171  0.842108  1
  O  O66  1  0.696081  0.490171  0.657892  1
  O  O67  1  0.196081  0.009829  0.157892  1
  O  O68  1  0.282147  0.393698  0.016099  1
  O  O69  1  0.782147  0.106302  0.516099  1
  O  O70  1  0.717853  0.606302  0.983901  1
  O  O71  1  0.217853  0.893698  0.483901  1
  O  O72  1  0.092384  0.059559  0.418516  1
  O  O73  1  0.592384  0.440441  0.918516  1
  O  O74  1  0.907616  0.940441  0.581484  1
  O  O75  1  0.407616  0.559559  0.081484  1
  O  O76  1  0.446886  0.386462  0.282886  1
  O  O77  1  0.946886  0.113538  0.782886  1
  O  O78  1  0.553114  0.613538  0.717114  1
  O  O79  1  0.053114  0.886462  0.217114  1
  O  O80  1  0.195057  0.243330  0.424338  1
  O  O81  1  0.695057  0.256670  0.924338  1
  O  O82  1  0.804943  0.756670  0.575662  1
  O  O83  1  0.304943  0.743330  0.075662  1
  O  O84  1  0.201102  0.130043  0.748372  1
  O  O85  1  0.701102  0.369957  0.248372  1
  O  O86  1  0.798898  0.869957  0.251628  1
  O  O87  1  0.298898  0.630043  0.751628  1
  O  O88  1  0.461648  0.731565  0.932440  1
  O  O89  1  0.961648  0.768435  0.432440  1
  O  O90  1  0.538352  0.268435  0.067560  1
  O  O91  1  0.038352  0.231565  0.567560  1
  O  O92  1  0.054188  0.274572  0.941203  1
  O  O93  1  0.554188  0.225428  0.441203  1
  O  O94  1  0.945812  0.725428  0.058797  1
  O  O95  1  0.445812  0.774572  0.558797  1
  O  O96  1  0.109007  0.680960  0.318247  1
  O  O97  1  0.609007  0.819040  0.818247  1
  O  O98  1  0.890993  0.319040  0.681753  1
  O  O99  1  0.390993  0.180960  0.181753  1
  O  O100  1  0.124018  0.499049  0.711877  1
  O  O101  1  0.624018  0.000951  0.211877  1
  O  O102  1  0.875982  0.500951  0.288123  1
  O  O103  1  0.375982  0.999049  0.788123  1
