# generated using pymatgen
data_Na2NiPCO7
_symmetry_space_group_name_H-M   'P 1'
_cell_length_a   8.87409325
_cell_length_b   8.39991931
_cell_length_c   8.36596558
_cell_angle_alpha   75.61468540
_cell_angle_beta   89.45996355
_cell_angle_gamma   91.20628176
_symmetry_Int_Tables_number   1
_chemical_formula_structural   Na2NiPCO7
_chemical_formula_sum   'Na8 Ni4 P4 C4 O28'
_cell_volume   603.85777396
_cell_formula_units_Z   4
loop_
 _symmetry_equiv_pos_site_id
 _symmetry_equiv_pos_as_xyz
  1  'x, y, z'
loop_
 _atom_site_type_symbol
 _atom_site_label
 _atom_site_symmetry_multiplicity
 _atom_site_fract_x
 _atom_site_fract_y
 _atom_site_fract_z
 _atom_site_occupancy
  Na  Na0  1  0.734227  0.114902  0.867434  1
  Na  Na1  1  0.748871  0.616351  0.371801  1
  Na  Na2  1  0.734347  0.383570  0.136999  1
  Na  Na3  1  0.748524  0.877395  0.634661  1
  Na  Na4  1  0.256424  0.625581  0.862395  1
  Na  Na5  1  0.249597  0.385297  0.616137  1
  Na  Na6  1  0.268503  0.882670  0.148090  1
  Na  Na7  1  0.087653  0.229917  0.036910  1
  Ni  Ni8  1  0.649256  0.014367  0.237690  1
  Ni  Ni9  1  0.652838  0.511677  0.734925  1
  Ni  Ni10  1  0.346275  0.984546  0.760355  1
  Ni  Ni11  1  0.346817  0.482753  0.263636  1
  P  P12  1  0.575333  0.234480  0.513777  1
  P  P13  1  0.577788  0.734718  0.016455  1
  P  P14  1  0.418684  0.270961  0.978101  1
  P  P15  1  0.423773  0.763788  0.485347  1
  C  C16  1  0.927115  0.477317  0.772889  1
  C  C17  1  0.924628  0.981832  0.265402  1
  C  C18  1  0.074323  0.017587  0.730809  1
  C  C19  1  0.074171  0.521195  0.231459  1
  O  O20  1  0.934220  0.034539  0.723001  1
  O  O21  1  0.934458  0.534246  0.213446  1
  O  O22  1  0.866144  0.590361  0.659635  1
  O  O23  1  0.858234  0.097738  0.155131  1
  O  O24  1  0.830962  0.379846  0.871847  1
  O  O25  1  0.832003  0.884593  0.366798  1
  O  O26  1  0.672052  0.674836  0.888139  1
  O  O27  1  0.672052  0.175052  0.386838  1
  O  O28  1  0.676833  0.359061  0.574656  1
  O  O29  1  0.674903  0.862621  0.075972  1
  O  O30  1  0.567380  0.199234  0.053520  1
  O  O31  1  0.576994  0.692877  0.552169  1
  O  O32  1  0.539015  0.085832  0.665516  1
  O  O33  1  0.541898  0.584115  0.166926  1
  O  O34  1  0.456650  0.415562  0.822569  1
  O  O35  1  0.460819  0.911761  0.334747  1
  O  O36  1  0.426098  0.807496  0.947031  1
  O  O37  1  0.426591  0.309115  0.443026  1
  O  O38  1  0.317025  0.141571  0.924485  1
  O  O39  1  0.331768  0.817349  0.618303  1
  O  O40  1  0.319965  0.343279  0.094183  1
  O  O41  1  0.325045  0.637922  0.424517  1
  O  O42  1  0.171658  0.112392  0.634037  1
  O  O43  1  0.173681  0.617390  0.136487  1
  O  O44  1  0.134549  0.406348  0.343395  1
  O  O45  1  0.137119  0.902506  0.842462  1
  O  O46  1  0.068046  0.460298  0.788676  1
  O  O47  1  0.065020  0.973108  0.265108  1
