# generated using pymatgen
data_Li3Fe8O3F13
_symmetry_space_group_name_H-M   'P 1'
_cell_length_a   6.25132509
_cell_length_b   10.41211620
_cell_length_c   6.31931616
_cell_angle_alpha   107.29740638
_cell_angle_beta   60.19057776
_cell_angle_gamma   107.53716845
_symmetry_Int_Tables_number   1
_chemical_formula_structural   Li3Fe8O3F13
_chemical_formula_sum   'Li3 Fe8 O3 F13'
_cell_volume   334.85420809
_cell_formula_units_Z   1
loop_
 _symmetry_equiv_pos_site_id
 _symmetry_equiv_pos_as_xyz
  1  'x, y, z'
loop_
 _atom_site_type_symbol
 _atom_site_label
 _atom_site_symmetry_multiplicity
 _atom_site_fract_x
 _atom_site_fract_y
 _atom_site_fract_z
 _atom_site_occupancy
  Li  Li0  1  0.996734  0.989450  0.001947  1
  Li  Li1  1  0.819260  0.429980  0.796226  1
  Li  Li2  1  0.198276  0.571841  0.179506  1
  Fe  Fe3  1  0.004518  0.991567  0.505794  1
  Fe  Fe4  1  0.479900  0.991925  0.508800  1
  Fe  Fe5  1  0.264235  0.249724  0.248028  1
  Fe  Fe6  1  0.257875  0.265578  0.748608  1
  Fe  Fe7  1  0.733594  0.248552  0.255332  1
  Fe  Fe8  1  0.254450  0.752803  0.737647  1
  Fe  Fe9  1  0.753973  0.754078  0.741327  1
  Fe  Fe10  1  0.738072  0.733682  0.255139  1
  O  O11  1  0.358096  0.123519  0.405125  1
  O  O12  1  0.105158  0.877509  0.663988  1
  O  O13  1  0.642944  0.880771  0.594821  1
  F  F14  1  0.340139  0.134591  0.895603  1
  F  F15  1  0.885896  0.121570  0.349705  1
  F  F16  1  0.904101  0.134238  0.903365  1
  F  F17  1  0.134442  0.365008  0.601153  1
  F  F18  1  0.120467  0.367728  0.125105  1
  F  F19  1  0.627839  0.363171  0.114570  1
  F  F20  1  0.629898  0.366180  0.607644  1
  F  F21  1  0.383342  0.650798  0.876530  1
  F  F22  1  0.374200  0.630440  0.373535  1
  F  F23  1  0.876937  0.627014  0.873497  1
  F  F24  1  0.890047  0.635650  0.371789  1
  F  F25  1  0.091567  0.870515  0.124699  1
  F  F26  1  0.643913  0.871696  0.130731  1
