# generated using pymatgen
data_Li5TiV3O8
_symmetry_space_group_name_H-M   'P 1'
_cell_length_a   4.19968288
_cell_length_b   6.59019250
_cell_length_c   6.74913707
_cell_angle_alpha   72.85662427
_cell_angle_beta   90.00403425
_cell_angle_gamma   71.44967199
_symmetry_Int_Tables_number   1
_chemical_formula_structural   Li5TiV3O8
_chemical_formula_sum   'Li5 Ti1 V3 O8'
_cell_volume   168.31054745
_cell_formula_units_Z   1
loop_
 _symmetry_equiv_pos_site_id
 _symmetry_equiv_pos_as_xyz
  1  'x, y, z'
loop_
 _atom_site_type_symbol
 _atom_site_label
 _atom_site_symmetry_multiplicity
 _atom_site_fract_x
 _atom_site_fract_y
 _atom_site_fract_z
 _atom_site_occupancy
  Li  Li0  1  0.061665  0.889010  0.366200  1
  Li  Li1  1  0.191731  0.629393  0.993884  1
  Li  Li2  1  0.828305  0.357764  0.998274  1
  Li  Li3  1  0.502159  0.008187  0.989742  1
  Li  Li4  1  0.947946  0.117432  0.630970  1
  Ti  Ti5  1  0.720764  0.570529  0.310987  1
  V  V6  1  0.616282  0.778983  0.679224  1
  V  V7  1  0.289143  0.437255  0.673005  1
  V  V8  1  0.396552  0.220373  0.318049  1
  O  O9  1  0.117376  0.777498  0.679805  1
  O  O10  1  0.569565  0.873392  0.340957  1
  O  O11  1  0.223969  0.565307  0.324922  1
  O  O12  1  0.665618  0.681727  0.014120  1
  O  O13  1  0.779949  0.455203  0.647425  1
  O  O14  1  0.454300  0.104803  0.659828  1
  O  O15  1  0.351407  0.311100  0.992750  1
  O  O16  1  0.883112  0.247350  0.319415  1
