# generated using pymatgen
data_MnH30C8(N13O9)2
_symmetry_space_group_name_H-M   'P 1'
_cell_length_a   9.57163334
_cell_length_b   13.07879272
_cell_length_c   14.65708581
_cell_angle_alpha   106.36005516
_cell_angle_beta   104.05025058
_cell_angle_gamma   104.28839475
_symmetry_Int_Tables_number   1
_chemical_formula_structural   MnH30C8(N13O9)2
_chemical_formula_sum   'Mn2 H60 C16 N52 O36'
_cell_volume   1606.99671177
_cell_formula_units_Z   2
loop_
 _symmetry_equiv_pos_site_id
 _symmetry_equiv_pos_as_xyz
  1  'x, y, z'
loop_
 _atom_site_type_symbol
 _atom_site_label
 _atom_site_symmetry_multiplicity
 _atom_site_fract_x
 _atom_site_fract_y
 _atom_site_fract_z
 _atom_site_occupancy
  Mn  Mn0  1  0.730510  0.667875  0.866277  1
  Mn  Mn1  1  0.269490  0.332125  0.133723  1
  H  H2  1  0.985390  0.725763  0.832550  1
  H  H3  1  0.014610  0.274237  0.167450  1
  H  H4  1  0.084006  0.671184  0.710675  1
  H  H5  1  0.915994  0.328817  0.289325  1
  H  H6  1  0.965476  0.568109  0.594929  1
  H  H7  1  0.034524  0.431891  0.405071  1
  H  H8  1  0.729033  0.468468  0.571484  1
  H  H9  1  0.270967  0.531532  0.428516  1
  H  H10  1  0.472256  0.514993  0.749100  1
  H  H11  1  0.527744  0.485007  0.250900  1
  H  H12  1  0.365660  0.399014  0.590520  1
  H  H13  1  0.634340  0.600986  0.409480  1
  H  H14  1  0.482197  0.375370  0.515057  1
  H  H15  1  0.517803  0.624630  0.484943  1
  H  H16  1  0.812278  0.491706  0.881633  1
  H  H17  1  0.187722  0.508294  0.118367  1
  H  H18  1  0.886362  0.433552  0.014052  1
  H  H19  1  0.113638  0.566448  0.985948  1
  H  H20  1  0.855299  0.495934  0.126204  1
  H  H21  1  0.144701  0.504066  0.873796  1
  H  H22  1  0.746843  0.624729  0.143649  1
  H  H23  1  0.253157  0.375271  0.856351  1
  H  H24  1  0.479382  0.670246  0.911678  1
  H  H25  1  0.520618  0.329754  0.088322  1
  H  H26  1  0.448640  0.715226  0.065155  1
  H  H27  1  0.551361  0.284774  0.934845  1
  H  H28  1  0.548856  0.673318  0.155837  1
  H  H29  1  0.451144  0.326682  0.844163  1
  H  H30  1  0.608906  0.766840  0.754122  1
  H  H31  1  0.391094  0.233160  0.245878  1
  H  H32  1  0.505290  0.908082  0.794015  1
  H  H33  1  0.494710  0.091918  0.205985  1
  H  H34  1  0.593415  0.019167  0.912255  1
  H  H35  1  0.406585  0.980833  0.087745  1
  H  H36  1  0.753114  0.996549  0.037033  1
  H  H37  1  0.246886  0.003451  0.962967  1
  H  H38  1  0.988157  0.780137  0.014547  1
  H  H39  1  0.011843  0.219863  0.985453  1
  H  H40  1  0.072188  0.944947  0.150208  1
  H  H41  1  0.927812  0.055053  0.849792  1
  H  H42  1  0.979708  0.040933  0.151086  1
  H  H43  1  0.020292  0.959067  0.848914  1
  H  H44  1  0.986872  0.160205  0.403339  1
  H  H45  1  0.013128  0.839795  0.596661  1
  H  H46  1  0.809499  0.176735  0.397283  1
  H  H47  1  0.190501  0.823265  0.602717  1
  H  H48  1  0.138945  0.154030  0.545125  1
  H  H49  1  0.861055  0.845970  0.454875  1
  H  H50  1  0.078923  0.143631  0.647576  1
  H  H51  1  0.921077  0.856369  0.352424  1
  H  H52  1  0.846021  0.174207  0.647994  1
  H  H53  1  0.153979  0.825793  0.352006  1
  H  H54  1  0.475070  0.074622  0.396812  1
  H  H55  1  0.524930  0.925378  0.603188  1
  H  H56  1  0.624033  0.018635  0.387392  1
  H  H57  1  0.375967  0.981365  0.612608  1
  H  H58  1  0.478608  0.174306  0.556434  1
  H  H59  1  0.521392  0.825694  0.443566  1
  H  H60  1  0.655207  0.240461  0.659724  1
  H  H61  1  0.344793  0.759539  0.340276  1
  C  C62  1  0.862172  0.604553  0.702107  1
  C  C63  1  0.137828  0.395447  0.297893  1
  C  C64  1  0.590831  0.496381  0.657841  1
  C  C65  1  0.409169  0.503619  0.342159  1
  C  C66  1  0.796126  0.559416  0.014988  1
  C  C67  1  0.203874  0.440584  0.985012  1
  C  C68  1  0.610276  0.653331  0.028778  1
  C  C69  1  0.389724  0.346669  0.971222  1
  C  C70  1  0.882847  0.893032  0.027639  1
  C  C71  1  0.117153  0.106968  0.972361  1
  C  C72  1  0.669189  0.881236  0.891530  1
  C  C73  1  0.330811  0.118764  0.108470  1
  C  C74  1  0.921904  0.153073  0.524738  1
  C  C75  1  0.078096  0.846927  0.475262  1
  C  C76  1  0.660688  0.139632  0.525369  1
  C  C77  1  0.339312  0.860368  0.474631  1
  N  N78  1  0.878740  0.664835  0.795299  1
  N  N79  1  0.121260  0.335165  0.204701  1
  N  N80  1  0.976033  0.621051  0.663972  1
  N  N81  1  0.023967  0.378949  0.336028  1
  N  N82  1  0.725696  0.522646  0.637914  1
  N  N83  1  0.274304  0.477354  0.362086  1
  N  N84  1  0.578510  0.549732  0.744818  1
  N  N85  1  0.421490  0.450268  0.255182  1
  N  N86  1  0.472336  0.411994  0.583988  1
  N  N87  1  0.527664  0.588006  0.416012  1
  N  N88  1  0.787853  0.557701  0.923681  1
  N  N89  1  0.212147  0.442299  0.076319  1
  N  N90  1  0.863833  0.498853  0.058781  1
  N  N91  1  0.136167  0.501147  0.941219  1
  N  N92  1  0.734744  0.627051  0.072050  1
  N  N93  1  0.265256  0.372949  0.927950  1
  N  N94  1  0.579972  0.655811  0.937277  1
  N  N95  1  0.420028  0.344189  0.062723  1
  N  N96  1  0.519659  0.672360  0.084142  1
  N  N97  1  0.480341  0.327640  0.915858  1
  N  N98  1  0.669147  0.786245  0.828640  1
  N  N99  1  0.330853  0.213755  0.171360  1
  N  N100  1  0.588259  0.943249  0.863048  1
  N  N101  1  0.411741  0.056751  0.136952  1
  N  N102  1  0.757284  0.921882  0.992081  1
  N  N103  1  0.242716  0.078118  0.007919  1
  N  N104  1  0.890276  0.793636  0.981253  1
  N  N105  1  0.109724  0.206364  0.018747  1
  N  N106  1  0.997269  0.971854  0.108994  1
  N  N107  1  0.002731  0.028146  0.891006  1
  N  N108  1  0.899088  0.156740  0.433143  1
  N  N109  1  0.100912  0.843260  0.566857  1
  N  N110  1  0.054523  0.150505  0.577183  1
  N  N111  1  0.945477  0.849495  0.422817  1
  N  N112  1  0.811416  0.152149  0.570155  1
  N  N113  1  0.188584  0.847851  0.429845  1
  N  N114  1  0.586868  0.079383  0.428241  1
  N  N115  1  0.413132  0.920617  0.571759  1
  N  N116  1  0.593548  0.189328  0.585348  1
  N  N117  1  0.406452  0.810672  0.414652  1
  N  N118  1  0.288006  0.790087  0.920464  1
  N  N119  1  0.711994  0.209913  0.079536  1
  N  N120  1  0.344726  0.686607  0.603098  1
  N  N121  1  0.655274  0.313393  0.396902  1
  N  N122  1  0.166553  0.416962  0.689085  1
  N  N123  1  0.833447  0.583038  0.310915  1
  N  N124  1  0.224188  0.117681  0.372214  1
  N  N125  1  0.775812  0.882319  0.627786  1
  N  N126  1  0.831665  0.263146  0.833493  1
  N  N127  1  0.168335  0.736854  0.166507  1
  N  N128  1  0.728418  0.922227  0.257046  1
  N  N129  1  0.271582  0.077773  0.742954  1
  O  O130  1  0.269873  0.691965  0.862853  1
  O  O131  1  0.730127  0.308035  0.137147  1
  O  O132  1  0.402983  0.841258  0.000841  1
  O  O133  1  0.597017  0.158742  0.999159  1
  O  O134  1  0.190133  0.837618  0.897728  1
  O  O135  1  0.809867  0.162382  0.102272  1
  O  O136  1  0.324340  0.751534  0.676981  1
  O  O137  1  0.675660  0.248466  0.323019  1
  O  O138  1  0.231629  0.624290  0.523530  1
  O  O139  1  0.768371  0.375710  0.476470  1
  O  O140  1  0.478966  0.685388  0.607855  1
  O  O141  1  0.521034  0.314612  0.392145  1
  O  O142  1  0.289939  0.421658  0.753952  1
  O  O143  1  0.710061  0.578342  0.246048  1
  O  O144  1  0.047415  0.407659  0.712283  1
  O  O145  1  0.952585  0.592341  0.287717  1
  O  O146  1  0.170885  0.422148  0.605327  1
  O  O147  1  0.829115  0.577852  0.394673  1
  O  O148  1  0.287134  0.063607  0.319302  1
  O  O149  1  0.712866  0.936393  0.680698  1
  O  O150  1  0.114745  0.145470  0.331018  1
  O  O151  1  0.885255  0.854530  0.668982  1
  O  O152  1  0.271291  0.144417  0.468201  1
  O  O153  1  0.728709  0.855583  0.531799  1
  O  O154  1  0.758078  0.318086  0.794929  1
  O  O155  1  0.241922  0.681914  0.205071  1
  O  O156  1  0.871351  0.189433  0.779574  1
  O  O157  1  0.128649  0.810567  0.220426  1
  O  O158  1  0.865262  0.282663  0.927647  1
  O  O159  1  0.134738  0.717337  0.072353  1
  O  O160  1  0.826860  0.876378  0.239387  1
  O  O161  1  0.173140  0.123622  0.760613  1
  O  O162  1  0.664376  0.900637  0.320119  1
  O  O163  1  0.335624  0.099363  0.679881  1
  O  O164  1  0.694729  0.987389  0.213750  1
  O  O165  1  0.305271  0.012611  0.786250  1
