# generated using pymatgen
data_Li24Mn5Cr7O36
_symmetry_space_group_name_H-M   'P 1'
_cell_length_a   5.00204893
_cell_length_b   13.29953344
_cell_length_c   9.73985975
_cell_angle_alpha   97.06281073
_cell_angle_beta   94.47931919
_cell_angle_gamma   100.40374703
_symmetry_Int_Tables_number   1
_chemical_formula_structural   Li24Mn5Cr7O36
_chemical_formula_sum   'Li24 Mn5 Cr7 O36'
_cell_volume   629.10708090
_cell_formula_units_Z   1
loop_
 _symmetry_equiv_pos_site_id
 _symmetry_equiv_pos_as_xyz
  1  'x, y, z'
loop_
 _atom_site_type_symbol
 _atom_site_label
 _atom_site_symmetry_multiplicity
 _atom_site_fract_x
 _atom_site_fract_y
 _atom_site_fract_z
 _atom_site_occupancy
  Li  Li0  1  0.834059  0.166275  0.000889  1
  Li  Li1  1  0.952847  0.385618  0.998659  1
  Li  Li2  1  0.000105  0.750377  0.249997  1
  Li  Li3  1  0.665829  0.083771  0.249889  1
  Li  Li4  1  0.953443  0.888054  0.500414  1
  Li  Li5  1  0.620352  0.220406  0.501123  1
  Li  Li6  1  0.835709  0.667161  0.499634  1
  Li  Li7  1  0.499741  0.000269  0.499634  1
  Li  Li8  1  0.715039  0.445327  0.500513  1
  Li  Li9  1  0.663764  0.584115  0.750306  1
  Li  Li10  1  0.501829  0.499856  0.999624  1
  Li  Li11  1  0.712556  0.946265  0.000341  1
  Li  Li12  1  0.381296  0.278349  0.999098  1
  Li  Li13  1  0.615361  0.719519  0.998291  1
  Li  Li14  1  0.290087  0.055286  0.001677  1
  Li  Li15  1  0.330176  0.416484  0.250251  1
  Li  Li16  1  0.283737  0.552754  0.498554  1
  Li  Li17  1  0.164959  0.332771  0.501047  1
  Li  Li18  1  0.384104  0.780660  0.501463  1
  Li  Li19  1  0.045261  0.112366  0.498584  1
  Li  Li20  1  0.333877  0.916732  0.749854  1
  Li  Li21  1  0.164298  0.833994  0.999555  1
  Li  Li22  1  0.998070  0.250327  0.749607  1
  Li  Li23  1  0.051263  0.614307  0.001634  1
  Mn  Mn24  1  0.890845  0.527636  0.251106  1
  Mn  Mn25  1  0.775937  0.804669  0.748902  1
  Mn  Mn26  1  0.555900  0.360944  0.749329  1
  Mn  Mn27  1  0.221980  0.194161  0.248925  1
  Mn  Mn28  1  0.225486  0.695512  0.751519  1
  Cr  Cr29  1  0.891077  0.024759  0.749184  1
  Cr  Cr30  1  0.771605  0.306924  0.250082  1
  Cr  Cr31  1  0.441196  0.141292  0.750601  1
  Cr  Cr32  1  0.557971  0.858589  0.250364  1
  Cr  Cr33  1  0.439800  0.636967  0.249119  1
  Cr  Cr34  1  0.105479  0.474367  0.750314  1
  Cr  Cr35  1  0.110455  0.974802  0.250483  1
  O  O36  1  0.001067  0.072305  0.138230  1
  O  O37  1  0.930858  0.215416  0.363453  1
  O  O38  1  0.006598  0.571681  0.639299  1
  O  O39  1  0.851961  0.355584  0.636700  1
  O  O40  1  0.731502  0.116954  0.635412  1
  O  O41  1  0.671652  0.404487  0.138955  1
  O  O42  1  0.929731  0.714643  0.863410  1
  O  O43  1  0.812261  0.474981  0.861266  1
  O  O44  1  0.601171  0.049085  0.864302  1
  O  O45  1  0.849827  0.857727  0.137257  1
  O  O46  1  0.741668  0.617848  0.135850  1
  O  O47  1  0.519112  0.188841  0.136837  1
  O  O48  1  0.669462  0.264422  0.862381  1
  O  O49  1  0.817780  0.975923  0.362555  1
  O  O50  1  0.597989  0.548764  0.364010  1
  O  O51  1  0.478646  0.308236  0.361077  1
  O  O52  1  0.662455  0.761456  0.362166  1
  O  O53  1  0.335159  0.097482  0.362043  1
  O  O54  1  0.664167  0.901945  0.637467  1
  O  O55  1  0.334840  0.238449  0.638774  1
  O  O56  1  0.524789  0.690155  0.638629  1
  O  O57  1  0.403222  0.451427  0.636420  1
  O  O58  1  0.180965  0.023888  0.637131  1
  O  O59  1  0.336186  0.735731  0.137780  1
  O  O60  1  0.475711  0.810124  0.861035  1
  O  O61  1  0.264353  0.382478  0.863828  1
  O  O62  1  0.151192  0.142022  0.862408  1
  O  O63  1  0.397538  0.950766  0.135229  1
  O  O64  1  0.189218  0.523402  0.138105  1
  O  O65  1  0.069675  0.284805  0.136386  1
  O  O66  1  0.336101  0.598127  0.863355  1
  O  O67  1  0.268609  0.882766  0.364764  1
  O  O68  1  0.138661  0.642675  0.361827  1
  O  O69  1  0.003318  0.430918  0.363434  1
  O  O70  1  0.071139  0.785386  0.636519  1
  O  O71  1  0.995927  0.927437  0.861138  1
