# generated using pymatgen
data_Cr4OF11
_symmetry_space_group_name_H-M   'P 1'
_cell_length_a   5.06494074
_cell_length_b   5.33361757
_cell_length_c   16.90602190
_cell_angle_alpha   91.03389752
_cell_angle_beta   97.96394743
_cell_angle_gamma   62.08000813
_symmetry_Int_Tables_number   1
_chemical_formula_structural   Cr4OF11
_chemical_formula_sum   'Cr8 O2 F22'
_cell_volume   399.08262315
_cell_formula_units_Z   2
loop_
 _symmetry_equiv_pos_site_id
 _symmetry_equiv_pos_as_xyz
  1  'x, y, z'
loop_
 _atom_site_type_symbol
 _atom_site_label
 _atom_site_symmetry_multiplicity
 _atom_site_fract_x
 _atom_site_fract_y
 _atom_site_fract_z
 _atom_site_occupancy
  Cr  Cr0  1  0.743843  0.614939  0.128997  1
  Cr  Cr1  1  0.756157  0.135061  0.621003  1
  Cr  Cr2  1  0.501928  0.753308  0.749614  1
  Cr  Cr3  1  0.507923  0.259925  0.247310  1
  Cr  Cr4  1  0.250000  0.875000  0.375000  1
  Cr  Cr5  1  0.250000  0.375000  0.875000  1
  Cr  Cr6  1  0.992077  0.490075  0.502690  1
  Cr  Cr7  1  0.998072  0.996692  0.000386  1
  O  O8  1  0.686276  0.467725  0.218148  1
  O  O9  1  0.813724  0.282275  0.531852  1
  F  F10  1  0.813959  0.778827  0.034914  1
  F  F11  1  0.743293  0.937039  0.186954  1
  F  F12  1  0.756707  0.812961  0.563046  1
  F  F13  1  0.751819  0.312227  0.062503  1
  F  F14  1  0.686041  0.971173  0.715086  1
  F  F15  1  0.685162  0.658866  0.408650  1
  F  F16  1  0.814363  0.592400  0.842588  1
  F  F17  1  0.814838  0.091134  0.341350  1
  F  F18  1  0.314663  0.841631  0.093046  1
  F  F19  1  0.748181  0.437773  0.687497  1
  F  F20  1  0.257392  0.561281  0.311902  1
  F  F21  1  0.685637  0.157600  0.907412  1
  F  F22  1  0.185337  0.908369  0.656954  1
  F  F23  1  0.183079  0.408277  0.156762  1
  F  F24  1  0.181099  0.713222  0.467644  1
  F  F25  1  0.314068  0.533095  0.781460  1
  F  F26  1  0.316921  0.341723  0.593238  1
  F  F27  1  0.318901  0.036777  0.282356  1
  F  F28  1  0.244839  0.687696  0.937373  1
  F  F29  1  0.242608  0.188719  0.438098  1
  F  F30  1  0.255161  0.062304  0.812627  1
  F  F31  1  0.185932  0.216905  0.968540  1
