# generated using pymatgen
data_Li2Fe3TeO8
_symmetry_space_group_name_H-M   'P 1'
_cell_length_a   6.02815192
_cell_length_b   6.02781834
_cell_length_c   9.88862443
_cell_angle_alpha   89.99815443
_cell_angle_beta   89.99716823
_cell_angle_gamma   119.99384572
_symmetry_Int_Tables_number   1
_chemical_formula_structural   Li2Fe3TeO8
_chemical_formula_sum   'Li4 Fe6 Te2 O16'
_cell_volume   311.19870874
_cell_formula_units_Z   2
loop_
 _symmetry_equiv_pos_site_id
 _symmetry_equiv_pos_as_xyz
  1  'x, y, z'
loop_
 _atom_site_type_symbol
 _atom_site_label
 _atom_site_symmetry_multiplicity
 _atom_site_fract_x
 _atom_site_fract_y
 _atom_site_fract_z
 _atom_site_occupancy
  Li  Li0  1  0.333308  0.666670  0.908392  1
  Li  Li1  1  0.000056  0.000031  0.987936  1
  Li  Li2  1  0.000018  0.000053  0.488146  1
  Li  Li3  1  0.666697  0.333326  0.408691  1
  Fe  Fe4  1  0.169242  0.830754  0.212961  1
  Fe  Fe5  1  0.169250  0.338481  0.212948  1
  Fe  Fe6  1  0.661522  0.830771  0.212920  1
  Fe  Fe7  1  0.338522  0.169286  0.712971  1
  Fe  Fe8  1  0.830737  0.661507  0.712949  1
  Fe  Fe9  1  0.830747  0.169265  0.712978  1
  Te  Te10  1  0.333343  0.666685  0.484840  1
  Te  Te11  1  0.666654  0.333363  0.984767  1
  O  O12  1  0.164023  0.835995  0.595223  1
  O  O13  1  0.035851  0.517952  0.345121  1
  O  O14  1  0.333358  0.666679  0.109202  1
  O  O15  1  0.999945  0.000002  0.303376  1
  O  O16  1  0.000006  0.000010  0.803274  1
  O  O17  1  0.164023  0.328040  0.595218  1
  O  O18  1  0.482027  0.964182  0.345085  1
  O  O19  1  0.482078  0.517872  0.345082  1
  O  O20  1  0.327912  0.163963  0.095237  1
  O  O21  1  0.671973  0.835984  0.595215  1
  O  O22  1  0.517939  0.482090  0.845172  1
  O  O23  1  0.517966  0.035902  0.845200  1
  O  O24  1  0.666669  0.333338  0.609232  1
  O  O25  1  0.836029  0.672049  0.095254  1
  O  O26  1  0.964093  0.482049  0.845187  1
  O  O27  1  0.836008  0.164006  0.095262  1
