# generated using pymatgen
data_Ca3V10O25
_symmetry_space_group_name_H-M   'P 1'
_cell_length_a   6.30581814
_cell_length_b   18.10158857
_cell_length_c   9.17301558
_cell_angle_alpha   86.11053584
_cell_angle_beta   101.15653167
_cell_angle_gamma   91.82240470
_symmetry_Int_Tables_number   1
_chemical_formula_structural   Ca3V10O25
_chemical_formula_sum   'Ca6 V20 O50'
_cell_volume   1024.71718880
_cell_formula_units_Z   2
loop_
 _symmetry_equiv_pos_site_id
 _symmetry_equiv_pos_as_xyz
  1  'x, y, z'
loop_
 _atom_site_type_symbol
 _atom_site_label
 _atom_site_symmetry_multiplicity
 _atom_site_fract_x
 _atom_site_fract_y
 _atom_site_fract_z
 _atom_site_occupancy
  Ca  Ca0  1  0.206929  0.847696  0.493280  1
  Ca  Ca1  1  0.047805  0.658624  0.496229  1
  Ca  Ca2  1  0.589041  0.948111  0.506943  1
  Ca  Ca3  1  0.853867  0.462857  0.500077  1
  Ca  Ca4  1  0.597254  0.278842  0.495871  1
  Ca  Ca5  1  0.809042  0.124568  0.506388  1
  V  V6  1  0.173184  0.980939  0.161995  1
  V  V7  1  0.381300  0.957516  0.842835  1
  V  V8  1  0.174818  0.756331  0.849925  1
  V  V9  1  0.032360  0.442533  0.153108  1
  V  V10  1  0.221613  0.641127  0.156802  1
  V  V11  1  0.416782  0.841616  0.156685  1
  V  V12  1  0.436700  0.618759  0.841571  1
  V  V13  1  0.625394  0.817601  0.838984  1
  V  V14  1  0.034284  0.219123  0.839968  1
  V  V15  1  0.236522  0.420037  0.844272  1
  V  V16  1  0.571982  0.383148  0.151635  1
  V  V17  1  0.761182  0.581791  0.153920  1
  V  V18  1  0.364904  0.181792  0.161294  1
  V  V19  1  0.954521  0.782108  0.141502  1
  V  V20  1  0.977640  0.557663  0.845003  1
  V  V21  1  0.581313  0.159005  0.841899  1
  V  V22  1  0.780657  0.358442  0.847981  1
  V  V23  1  0.818299  0.241988  0.157339  1
  V  V24  1  0.621419  0.043041  0.147956  1
  V  V25  1  0.845353  0.015756  0.862064  1
  O  O26  1  0.114624  0.987477  0.899949  1
  O  O27  1  0.228267  0.968600  0.352205  1
  O  O28  1  0.004151  0.770310  0.336087  1
  O  O29  1  0.092785  0.762116  0.658637  1
  O  O30  1  0.305482  0.956267  0.654489  1
  O  O31  1  0.113699  0.872919  0.138330  1
  O  O32  1  0.146169  0.648265  0.893558  1
  O  O33  1  0.345791  0.849779  0.892056  1
  O  O34  1  0.255364  0.748552  0.106514  1
  O  O35  1  0.451759  0.950412  0.107740  1
  O  O36  1  0.054101  0.546644  0.106493  1
  O  O37  1  0.475560  0.721540  0.865552  1
  O  O38  1  0.279827  0.523531  0.869555  1
  O  O39  1  0.684624  0.926449  0.864567  1
  O  O40  1  0.078577  0.324316  0.866625  1
  O  O41  1  0.086702  0.434399  0.337301  1
  O  O42  1  0.491512  0.843480  0.345162  1
  O  O43  1  0.286287  0.633493  0.341672  1
  O  O44  1  0.566846  0.831187  0.648529  1
  O  O45  1  0.378306  0.623018  0.657794  1
  O  O46  1  0.184845  0.423739  0.659783  1
  O  O47  1  0.913819  0.785808  0.914487  1
  O  O48  1  0.301282  0.189206  0.886850  1
  O  O49  1  0.506153  0.388485  0.904396  1
  O  O50  1  0.706525  0.587966  0.896198  1
  O  O51  1  0.274176  0.413794  0.102364  1
  O  O52  1  0.495002  0.611206  0.105405  1
  O  O53  1  0.097528  0.211984  0.112452  1
  O  O54  1  0.685948  0.811584  0.102495  1
  O  O55  1  0.813931  0.574623  0.344178  1
  O  O56  1  0.615013  0.382004  0.343364  1
  O  O57  1  0.435972  0.179145  0.349187  1
  O  O58  1  0.532073  0.173210  0.652665  1
  O  O59  1  0.703584  0.370183  0.657969  1
  O  O60  1  0.909035  0.565278  0.655086  1
  O  O61  1  0.324491  0.078912  0.138184  1
  O  O62  1  0.916337  0.672066  0.132163  1
  O  O63  1  0.517836  0.274995  0.133119  1
  O  O64  1  0.723481  0.478251  0.128988  1
  O  O65  1  0.750121  0.251614  0.895681  1
  O  O66  1  0.542398  0.052166  0.890793  1
  O  O67  1  0.945642  0.450225  0.888171  1
  O  O68  1  0.651131  0.150839  0.102771  1
  O  O69  1  0.856503  0.351732  0.108809  1
  O  O70  1  0.882952  0.126931  0.865794  1
  O  O71  1  0.869074  0.229271  0.346624  1
  O  O72  1  0.711129  0.033462  0.339419  1
  O  O73  1  0.798899  0.024336  0.665126  1
  O  O74  1  0.967233  0.224199  0.651693  1
  O  O75  1  0.884583  0.014425  0.084510  1
