# generated using pymatgen
data_LiMn3(BO3)3
_symmetry_space_group_name_H-M   'P 1'
_cell_length_a   5.75930832
_cell_length_b   8.12849556
_cell_length_c   9.35975350
_cell_angle_alpha   65.24440955
_cell_angle_beta   101.38212312
_cell_angle_gamma   79.34878203
_symmetry_Int_Tables_number   1
_chemical_formula_structural   LiMn3(BO3)3
_chemical_formula_sum   'Li2 Mn6 B6 O18'
_cell_volume   372.05735360
_cell_formula_units_Z   2
loop_
 _symmetry_equiv_pos_site_id
 _symmetry_equiv_pos_as_xyz
  1  'x, y, z'
loop_
 _atom_site_type_symbol
 _atom_site_label
 _atom_site_symmetry_multiplicity
 _atom_site_fract_x
 _atom_site_fract_y
 _atom_site_fract_z
 _atom_site_occupancy
  Li  Li0  1  0.732253  0.948245  0.565045  1
  Li  Li1  1  0.601081  0.718421  0.101621  1
  Mn  Mn2  1  0.792948  0.959337  0.204379  1
  Mn  Mn3  1  0.926886  0.334535  0.154786  1
  Mn  Mn4  1  0.540385  0.707329  0.462288  1
  Mn  Mn5  1  0.406447  0.332132  0.511881  1
  Mn  Mn6  1  0.114953  0.625034  0.887633  1
  Mn  Mn7  1  0.218381  0.041633  0.779034  1
  B  B8  1  0.869286  0.377083  0.436718  1
  B  B9  1  0.763553  0.974074  0.864426  1
  B  B10  1  0.569780  0.692592  0.802240  1
  B  B11  1  0.464047  0.289584  0.229948  1
  B  B12  1  0.239194  0.022771  0.106549  1
  B  B13  1  0.094139  0.643896  0.560118  1
  O  O14  1  0.822606  0.873142  0.029517  1
  O  O15  1  0.877818  0.793495  0.463795  1
  O  O16  1  0.929491  0.939323  0.778054  1
  O  O17  1  0.805447  0.471034  0.267903  1
  O  O18  1  0.705808  0.415838  0.518004  1
  O  O19  1  0.804703  0.565806  0.904835  1
  O  O20  1  0.455515  0.873171  0.202872  1
  O  O21  1  0.627525  0.250829  0.148663  1
  O  O22  1  0.510728  0.793524  0.637150  1
  O  O23  1  0.527886  0.195633  0.398764  1
  O  O24  1  0.403842  0.727343  0.888613  1
  O  O25  1  0.528630  0.100861  0.761832  1
  O  O26  1  0.228815  0.419914  0.136348  1
  O  O27  1  0.240358  0.584420  0.477176  1
  O  O28  1  0.170338  0.552527  0.727196  1
  O  O29  1  0.092975  0.082246  0.189491  1
  O  O30  1  0.104518  0.246753  0.530318  1
  O  O31  1  0.162995  0.114140  0.939470  1
