# generated using pymatgen
data_Li4V5Co3O16
_symmetry_space_group_name_H-M   'P 1'
_cell_length_a   5.92239640
_cell_length_b   5.92930375
_cell_length_c   9.57752475
_cell_angle_alpha   89.80343214
_cell_angle_beta   89.25530098
_cell_angle_gamma   120.15551625
_symmetry_Int_Tables_number   1
_chemical_formula_structural   Li4V5Co3O16
_chemical_formula_sum   'Li4 V5 Co3 O16'
_cell_volume   290.76148075
_cell_formula_units_Z   1
loop_
 _symmetry_equiv_pos_site_id
 _symmetry_equiv_pos_as_xyz
  1  'x, y, z'
loop_
 _atom_site_type_symbol
 _atom_site_label
 _atom_site_symmetry_multiplicity
 _atom_site_fract_x
 _atom_site_fract_y
 _atom_site_fract_z
 _atom_site_occupancy
  Li  Li0  1  0.324188  0.658500  0.901312  1
  Li  Li1  1  0.001840  0.002554  0.993684  1
  Li  Li2  1  0.001775  0.001756  0.487240  1
  Li  Li3  1  0.666874  0.334619  0.400218  1
  V  V4  1  0.805919  0.647439  0.719692  1
  V  V5  1  0.294398  0.647685  0.488088  1
  V  V6  1  0.642974  0.823172  0.229392  1
  V  V7  1  0.676674  0.341118  0.001518  1
  V  V8  1  0.801225  0.149602  0.721106  1
  Co  Co9  1  0.181016  0.836297  0.210321  1
  Co  Co10  1  0.180085  0.345559  0.210338  1
  Co  Co11  1  0.340152  0.170772  0.707503  1
  O  O12  1  0.167334  0.820548  0.589817  1
  O  O13  1  0.046658  0.523843  0.356007  1
  O  O14  1  0.368532  0.684733  0.104887  1
  O  O15  1  0.983773  0.991983  0.295212  1
  O  O16  1  -0.010378  -0.008538  0.802477  1
  O  O17  1  0.162846  0.346969  0.592068  1
  O  O18  1  0.494753  0.961542  0.354893  1
  O  O19  1  0.493260  0.535038  0.355913  1
  O  O20  1  0.354270  0.177118  0.080139  1
  O  O21  1  0.664658  0.831610  0.602516  1
  O  O22  1  0.531718  0.492583  0.844698  1
  O  O23  1  0.531224  0.032941  0.841846  1
  O  O24  1  0.693996  0.349675  0.603249  1
  O  O25  1  0.822867  0.645959  0.087813  1
  O  O26  1  0.954370  0.476985  0.839299  1
  O  O27  1  0.822998  0.178239  0.086594  1
