# generated using pymatgen
data_Mn12O7F17
_symmetry_space_group_name_H-M   'P 1'
_cell_length_a   4.80046522
_cell_length_b   5.79388317
_cell_length_c   15.85539299
_cell_angle_alpha   90.54072903
_cell_angle_beta   90.21045452
_cell_angle_gamma   86.13894237
_symmetry_Int_Tables_number   1
_chemical_formula_structural   Mn12O7F17
_chemical_formula_sum   'Mn12 O7 F17'
_cell_volume   439.96878972
_cell_formula_units_Z   1
loop_
 _symmetry_equiv_pos_site_id
 _symmetry_equiv_pos_as_xyz
  1  'x, y, z'
loop_
 _atom_site_type_symbol
 _atom_site_label
 _atom_site_symmetry_multiplicity
 _atom_site_fract_x
 _atom_site_fract_y
 _atom_site_fract_z
 _atom_site_occupancy
  Mn  Mn0  1  0.001585  0.178011  0.412926  1
  Mn  Mn1  1  0.036672  0.829546  0.245351  1
  Mn  Mn2  1  0.995556  0.153954  0.084838  1
  Mn  Mn3  1  0.015326  0.155347  0.743823  1
  Mn  Mn4  1  0.998941  0.850386  0.581367  1
  Mn  Mn5  1  0.021806  0.837009  0.905192  1
  Mn  Mn6  1  0.485539  0.311871  0.598108  1
  Mn  Mn7  1  0.524091  0.330154  0.926766  1
  Mn  Mn8  1  0.500843  0.355987  0.257262  1
  Mn  Mn9  1  0.504534  0.660991  0.084040  1
  Mn  Mn10  1  0.509217  0.645341  0.410722  1
  Mn  Mn11  1  0.495373  0.652624  0.750832  1
  O  O12  1  0.205508  0.110713  0.637547  1
  O  O13  1  0.220852  0.884134  0.133944  1
  O  O14  1  0.234449  0.889988  0.796717  1
  O  O15  1  0.285396  0.605861  0.310114  1
  O  O16  1  0.725395  0.390304  0.037615  1
  O  O17  1  0.716212  0.391632  0.358195  1
  O  O18  1  0.712315  0.382003  0.697623  1
  F  F19  1  0.239705  0.107202  0.305344  1
  F  F20  1  0.217896  0.117280  0.973224  1
  F  F21  1  0.244586  0.879887  0.467100  1
  F  F22  1  0.265337  0.382756  0.151156  1
  F  F23  1  0.271017  0.376613  0.486836  1
  F  F24  1  0.254691  0.615536  0.643285  1
  F  F25  1  0.265408  0.400262  0.815105  1
  F  F26  1  0.270231  0.617749  0.979454  1
  F  F27  1  0.729332  0.630004  0.190036  1
  F  F28  1  0.726857  0.618745  0.521596  1
  F  F29  1  0.721111  0.617618  0.861725  1
  F  F30  1  0.766330  0.125607  0.198088  1
  F  F31  1  0.759411  0.110035  0.521695  1
  F  F32  1  0.790469  0.886360  0.354962  1
  F  F33  1  0.760742  0.897479  0.017444  1
  F  F34  1  0.785601  0.123202  0.849973  1
  F  F35  1  0.741665  0.877807  0.689995  1
