# generated using pymatgen
data_Li8Mn5Fe3(BO3)8
_symmetry_space_group_name_H-M   'P 1'
_cell_length_a   6.06155023
_cell_length_b   9.80697955
_cell_length_c   9.72430430
_cell_angle_alpha   65.02311500
_cell_angle_beta   78.19838440
_cell_angle_gamma   79.50366235
_symmetry_Int_Tables_number   1
_chemical_formula_structural   Li8Mn5Fe3(BO3)8
_chemical_formula_sum   'Li8 Mn5 Fe3 B8 O24'
_cell_volume   509.92871662
_cell_formula_units_Z   1
loop_
 _symmetry_equiv_pos_site_id
 _symmetry_equiv_pos_as_xyz
  1  'x, y, z'
loop_
 _atom_site_type_symbol
 _atom_site_label
 _atom_site_symmetry_multiplicity
 _atom_site_fract_x
 _atom_site_fract_y
 _atom_site_fract_z
 _atom_site_occupancy
  Li  Li0  1  0.953809  0.184114  0.532866  1
  Li  Li1  1  0.953887  0.684208  0.033290  1
  Li  Li2  1  0.545520  0.812663  0.966949  1
  Li  Li3  1  0.453759  0.684058  0.532812  1
  Li  Li4  1  0.546388  0.314160  0.466721  1
  Li  Li5  1  0.455917  0.185097  0.034671  1
  Li  Li6  1  0.046009  0.315314  0.966914  1
  Li  Li7  1  0.046537  0.813933  0.466178  1
  Mn  Mn8  1  0.687908  0.375926  0.706243  1
  Mn  Mn9  1  0.688154  0.874412  0.208354  1
  Mn  Mn10  1  0.187175  0.872950  0.706674  1
  Mn  Mn11  1  0.314365  0.126271  0.794317  1
  Mn  Mn12  1  0.188546  0.374877  0.207728  1
  Fe  Fe13  1  0.815495  0.628849  0.789725  1
  Fe  Fe14  1  0.815149  0.129409  0.290594  1
  Fe  Fe15  1  0.314582  0.629327  0.290423  1
  B  B16  1  0.666139  0.960729  0.631804  1
  B  B17  1  0.831930  0.037117  0.867304  1
  B  B18  1  0.834282  0.537985  0.367013  1
  B  B19  1  0.664994  0.462235  0.132723  1
  B  B20  1  0.333976  0.538068  0.867586  1
  B  B21  1  0.166933  0.463997  0.631852  1
  B  B22  1  0.163922  0.962253  0.135267  1
  B  B23  1  0.333948  0.038339  0.367122  1
  O  O24  1  0.821491  0.894508  0.984286  1
  O  O25  1  0.987035  0.438803  0.754375  1
  O  O26  1  0.984110  0.937831  0.256722  1
  O  O27  1  0.835654  0.842555  0.636124  1
  O  O28  1  0.825213  0.394408  0.483225  1
  O  O29  1  0.486465  0.935188  0.753925  1
  O  O30  1  0.832174  0.342961  0.137143  1
  O  O31  1  0.660603  0.153240  0.864233  1
  O  O32  1  0.661368  0.652610  0.365013  1
  O  O33  1  0.515292  0.566465  0.746804  1
  O  O34  1  0.678644  0.101716  0.514094  1
  O  O35  1  0.678959  0.602472  0.013254  1
  O  O36  1  0.324295  0.394746  0.984083  1
  O  O37  1  0.323980  0.894754  0.483141  1
  O  O38  1  0.485863  0.439252  0.255009  1
  O  O39  1  0.338018  0.347371  0.635683  1
  O  O40  1  0.331545  0.843896  0.137430  1
  O  O41  1  0.160431  0.652417  0.865520  1
  O  O42  1  0.515840  0.066038  0.246789  1
  O  O43  1  0.176582  0.604697  0.512696  1
  O  O44  1  0.161213  0.153160  0.364808  1
  O  O45  1  0.013498  0.064227  0.746463  1
  O  O46  1  0.015627  0.566060  0.246140  1
  O  O47  1  0.176776  0.104330  0.017911  1
