# generated using pymatgen
data_Li2V3Si3O10
_symmetry_space_group_name_H-M   'P 1'
_cell_length_a   4.86851104
_cell_length_b   8.29112999
_cell_length_c   10.64030770
_cell_angle_alpha   92.65780813
_cell_angle_beta   90.00000000
_cell_angle_gamma   72.92654375
_symmetry_Int_Tables_number   1
_chemical_formula_structural   Li2V3Si3O10
_chemical_formula_sum   'Li4 V6 Si6 O20'
_cell_volume   410.08907430
_cell_formula_units_Z   2
loop_
 _symmetry_equiv_pos_site_id
 _symmetry_equiv_pos_as_xyz
  1  'x, y, z'
loop_
 _atom_site_type_symbol
 _atom_site_label
 _atom_site_symmetry_multiplicity
 _atom_site_fract_x
 _atom_site_fract_y
 _atom_site_fract_z
 _atom_site_occupancy
  Li  Li0  1  0.255140  0.885663  0.025061  1
  Li  Li1  1  0.859197  0.885663  0.525061  1
  Li  Li2  1  0.140803  0.114337  0.474939  1
  Li  Li3  1  0.744860  0.114337  0.974939  1
  V  V4  1  0.388988  0.697918  0.285878  1
  V  V5  1  0.913095  0.697918  0.785878  1
  V  V6  1  0.500000  0.500000  0.000000  1
  V  V7  1  0.000000  0.500000  0.500000  1
  V  V8  1  0.086905  0.302082  0.214122  1
  V  V9  1  0.611012  0.302082  0.714122  1
  Si  Si10  1  0.839203  0.688927  0.099008  1
  Si  Si11  1  0.471870  0.688927  0.599008  1
  Si  Si12  1  0.528130  0.311073  0.400992  1
  Si  Si13  1  0.160797  0.311073  0.900992  1
  Si  Si14  1  0.801537  1.000000  0.250000  1
  Si  Si15  1  0.198463  0.000000  0.750000  1
  O  O16  1  0.023354  0.917522  0.360216  1
  O  O17  1  0.642466  0.860387  0.185339  1
  O  O18  1  0.059124  0.917522  0.860216  1
  O  O19  1  0.497147  0.860387  0.685339  1
  O  O20  1  0.170593  0.691715  0.104519  1
  O  O21  1  0.608019  0.702911  0.460826  1
  O  O22  1  0.137692  0.691715  0.604519  1
  O  O23  1  0.689070  0.702911  0.960826  1
  O  O24  1  0.758876  0.530816  0.164339  1
  O  O25  1  0.710308  0.530816  0.664339  1
  O  O26  1  0.289692  0.469184  0.335661  1
  O  O27  1  0.241124  0.469184  0.835661  1
  O  O28  1  0.310930  0.297089  0.039174  1
  O  O29  1  0.862308  0.308285  0.395481  1
  O  O30  1  0.391981  0.297089  0.539174  1
  O  O31  1  0.829407  0.308285  0.895481  1
  O  O32  1  0.502853  0.139613  0.314661  1
  O  O33  1  0.940876  0.082478  0.139784  1
  O  O34  1  0.357534  0.139613  0.814661  1
  O  O35  1  0.976646  0.082478  0.639784  1
