# generated using pymatgen
data_Li6MnV3(PO4)6
_symmetry_space_group_name_H-M   'P 1'
_cell_length_a   8.59625034
_cell_length_b   12.24814219
_cell_length_c   8.81058031
_cell_angle_alpha   90.00000000
_cell_angle_beta   90.00000000
_cell_angle_gamma   90.95395255
_symmetry_Int_Tables_number   1
_chemical_formula_structural   Li6MnV3(PO4)6
_chemical_formula_sum   'Li12 Mn2 V6 P12 O48'
_cell_volume   927.52065557
_cell_formula_units_Z   2
loop_
 _symmetry_equiv_pos_site_id
 _symmetry_equiv_pos_as_xyz
  1  'x, y, z'
loop_
 _atom_site_type_symbol
 _atom_site_label
 _atom_site_symmetry_multiplicity
 _atom_site_fract_x
 _atom_site_fract_y
 _atom_site_fract_z
 _atom_site_occupancy
  Li  Li0  1  0.062735  0.345658  0.512910  1
  Li  Li1  1  0.081236  0.691174  0.085757  1
  Li  Li2  1  0.177563  0.177451  0.780630  1
  Li  Li3  1  0.322437  0.322548  0.280630  1
  Li  Li4  1  0.418764  0.808826  0.585757  1
  Li  Li5  1  0.437265  0.154342  0.012910  1
  Li  Li6  1  0.563661  0.846473  0.985832  1
  Li  Li7  1  0.580417  0.192533  0.413190  1
  Li  Li8  1  0.682111  0.676637  0.717494  1
  Li  Li9  1  0.817889  0.823363  0.217494  1
  Li  Li10  1  0.919583  0.307467  0.913190  1
  Li  Li11  1  0.936339  0.653527  0.485832  1
  Mn  Mn12  1  0.741696  0.395747  0.474711  1
  Mn  Mn13  1  0.758304  0.104253  0.974711  1
  V  V14  1  0.244253  0.895647  0.025979  1
  V  V15  1  0.245362  0.108925  0.463924  1
  V  V16  1  0.255747  0.604353  0.525979  1
  V  V17  1  0.254638  0.391074  0.963924  1
  V  V18  1  0.745163  0.606494  0.035481  1
  V  V19  1  0.754837  0.893506  0.535481  1
  P  P20  1  0.042280  0.490229  0.246605  1
  P  P21  1  0.115132  0.849755  0.382740  1
  P  P22  1  0.116340  0.145239  0.112352  1
  P  P23  1  0.384868  0.650245  0.882740  1
  P  P24  1  0.383660  0.354761  0.612352  1
  P  P25  1  0.457720  0.009771  0.746605  1
  P  P26  1  0.536510  0.991594  0.252165  1
  P  P27  1  0.616026  0.650066  0.390289  1
  P  P28  1  0.612303  0.351478  0.116831  1
  P  P29  1  0.883974  0.849934  0.890289  1
  P  P30  1  0.887697  0.148522  0.616831  1
  P  P31  1  0.963490  0.508406  0.752165  1
  O  O32  1  0.051220  0.894600  0.894219  1
  O  O33  1  0.055154  0.445704  0.873894  1
  O  O34  1  0.056718  0.598170  0.665871  1
  O  O35  1  0.060016  0.182715  0.573240  1
  O  O36  1  0.103667  0.581241  0.356228  1
  O  O37  1  0.127035  0.833698  0.206858  1
  O  O38  1  0.141598  0.970529  0.421808  1
  O  O39  1  0.128667  0.245239  0.998345  1
  O  O40  1  0.179573  0.184626  0.270222  1
  O  O41  1  0.188278  0.438363  0.169509  1
  O  O42  1  0.227665  0.776073  0.471245  1
  O  O43  1  0.236212  0.062159  0.047610  1
  O  O44  1  0.263788  0.437841  0.547610  1
  O  O45  1  0.272335  0.723927  0.971245  1
  O  O46  1  0.311722  0.061637  0.669509  1
  O  O47  1  0.320428  0.315374  0.770222  1
  O  O48  1  0.358402  0.529471  0.921808  1
  O  O49  1  0.371333  0.254761  0.498345  1
  O  O50  1  0.372965  0.666302  0.706858  1
  O  O51  1  0.396333  0.918759  0.856228  1
  O  O52  1  0.443282  0.901830  0.165871  1
  O  O53  1  0.439984  0.317285  0.073240  1
  O  O54  1  0.448780  0.605400  0.394219  1
  O  O55  1  0.444846  0.054296  0.373894  1
  O  O56  1  0.552472  0.944983  0.628809  1
  O  O57  1  0.548574  0.398560  0.618949  1
  O  O58  1  0.559019  0.685051  0.919969  1
  O  O59  1  0.547942  0.101093  0.828690  1
  O  O60  1  0.594929  0.082672  0.144167  1
  O  O61  1  0.614727  0.333485  0.291084  1
  O  O62  1  0.626209  0.751149  0.503657  1
  O  O63  1  0.638544  0.475720  0.081684  1
  O  O64  1  0.669166  0.688055  0.228957  1
  O  O65  1  0.680137  0.935976  0.326856  1
  O  O66  1  0.728420  0.283636  0.027745  1
  O  O67  1  0.736709  0.569416  0.453493  1
  O  O68  1  0.763291  0.930584  0.953493  1
  O  O69  1  0.771580  0.216364  0.527745  1
  O  O70  1  0.819863  0.564024  0.826856  1
  O  O71  1  0.830834  0.811945  0.728957  1
  O  O72  1  0.873791  0.748851  0.003657  1
  O  O73  1  0.861456  0.024280  0.581684  1
  O  O74  1  0.885273  0.166515  0.791084  1
  O  O75  1  0.905071  0.417328  0.644167  1
  O  O76  1  0.940981  0.814949  0.419969  1
  O  O77  1  0.952058  0.398907  0.328690  1
  O  O78  1  0.947528  0.555017  0.128809  1
  O  O79  1  0.951426  0.101440  0.118949  1
