# generated using pymatgen
data_Ta2PbO6
_symmetry_space_group_name_H-M   'P 1'
_cell_length_a   11.19548217
_cell_length_b   7.73606446
_cell_length_c   5.74436537
_cell_angle_alpha   90.00000000
_cell_angle_beta   90.00000000
_cell_angle_gamma   90.00000000
_symmetry_Int_Tables_number   1
_chemical_formula_structural   Ta2PbO6
_chemical_formula_sum   'Ta8 Pb4 O24'
_cell_volume   497.51357793
_cell_formula_units_Z   4
loop_
 _symmetry_equiv_pos_site_id
 _symmetry_equiv_pos_as_xyz
  1  'x, y, z'
loop_
 _atom_site_type_symbol
 _atom_site_label
 _atom_site_symmetry_multiplicity
 _atom_site_fract_x
 _atom_site_fract_y
 _atom_site_fract_z
 _atom_site_occupancy
  Ta  Ta0  1  0.142517  0.503143  0.038373  1
  Ta  Ta1  1  0.142517  0.996857  0.038373  1
  Ta  Ta2  1  0.357483  0.003143  0.538373  1
  Ta  Ta3  1  0.357483  0.496857  0.538373  1
  Ta  Ta4  1  0.642517  0.503143  0.461627  1
  Ta  Ta5  1  0.642517  0.996857  0.461627  1
  Ta  Ta6  1  0.857483  0.003143  0.961627  1
  Ta  Ta7  1  0.857483  0.496857  0.961627  1
  Pb  Pb8  1  0.038123  0.250000  0.539981  1
  Pb  Pb9  1  0.461877  0.750000  0.039981  1
  Pb  Pb10  1  0.538123  0.250000  0.960019  1
  Pb  Pb11  1  0.961877  0.750000  0.460019  1
  O  O12  1  0.023205  0.534398  0.785814  1
  O  O13  1  0.023205  0.965602  0.785814  1
  O  O14  1  0.130752  0.750000  0.134882  1
  O  O15  1  0.146434  0.250000  0.973722  1
  O  O16  1  0.216732  0.045857  0.353857  1
  O  O17  1  0.216732  0.454143  0.353857  1
  O  O18  1  0.283268  0.954143  0.853857  1
  O  O19  1  0.283268  0.545857  0.853857  1
  O  O20  1  0.353566  0.750000  0.473722  1
  O  O21  1  0.369248  0.250000  0.634882  1
  O  O22  1  0.476795  0.034398  0.285814  1
  O  O23  1  0.476795  0.465602  0.285814  1
  O  O24  1  0.523205  0.534398  0.714186  1
  O  O25  1  0.523205  0.965602  0.714186  1
  O  O26  1  0.630752  0.750000  0.365118  1
  O  O27  1  0.646434  0.250000  0.526278  1
  O  O28  1  0.716732  0.045857  0.146143  1
  O  O29  1  0.716732  0.454143  0.146143  1
  O  O30  1  0.783268  0.545857  0.646143  1
  O  O31  1  0.783268  0.954143  0.646143  1
  O  O32  1  0.853566  0.750000  0.026278  1
  O  O33  1  0.869248  0.250000  0.865118  1
  O  O34  1  0.976795  0.034398  0.214186  1
  O  O35  1  0.976795  0.465602  0.214186  1
