# generated using pymatgen
data_FeOF
_symmetry_space_group_name_H-M   'P 1'
_cell_length_a   4.74337011
_cell_length_b   4.75743217
_cell_length_c   12.29049064
_cell_angle_alpha   90.00000000
_cell_angle_beta   89.99775779
_cell_angle_gamma   90.00000000
_symmetry_Int_Tables_number   1
_chemical_formula_structural   FeOF
_chemical_formula_sum   'Fe8 O8 F8'
_cell_volume   277.35042602
_cell_formula_units_Z   8
loop_
 _symmetry_equiv_pos_site_id
 _symmetry_equiv_pos_as_xyz
  1  'x, y, z'
loop_
 _atom_site_type_symbol
 _atom_site_label
 _atom_site_symmetry_multiplicity
 _atom_site_fract_x
 _atom_site_fract_y
 _atom_site_fract_z
 _atom_site_occupancy
  Fe  Fe0  1  0.046888  0.006147  0.749416  1
  Fe  Fe1  1  0.020658  0.017583  0.000379  1
  Fe  Fe2  1  0.028131  0.025496  0.250841  1
  Fe  Fe3  1  0.982260  0.943553  0.499589  1
  Fe  Fe4  1  0.517740  0.443553  0.125411  1
  Fe  Fe5  1  0.479342  0.517583  0.624621  1
  Fe  Fe6  1  0.453112  0.506147  0.875584  1
  Fe  Fe7  1  0.471869  0.525496  0.374159  1
  O  O8  1  0.190958  0.817769  0.877469  1
  O  O9  1  0.180260  0.808394  0.372368  1
  O  O10  1  0.186080  0.804507  0.624412  1
  O  O11  1  0.313920  0.304507  0.000588  1
  O  O12  1  0.319740  0.308394  0.252632  1
  O  O13  1  0.309042  0.317769  0.747531  1
  O  O14  1  0.674030  0.680442  0.499295  1
  O  O15  1  0.825970  0.180442  0.125705  1
  F  F16  1  0.215440  0.797008  0.125676  1
  F  F17  1  0.284560  0.297008  0.499324  1
  F  F18  1  0.703109  0.694055  0.001167  1
  F  F19  1  0.703452  0.696411  0.248043  1
  F  F20  1  0.695484  0.708637  0.751877  1
  F  F21  1  0.796548  0.196410  0.376957  1
  F  F22  1  0.796891  0.194055  0.623833  1
  F  F23  1  0.804516  0.208637  0.873123  1
