# generated using pymatgen
data_Mn6O5F7
_symmetry_space_group_name_H-M   'P 1'
_cell_length_a   5.36521102
_cell_length_b   5.28192791
_cell_length_c   14.83199619
_cell_angle_alpha   91.76796859
_cell_angle_beta   93.87400921
_cell_angle_gamma   91.58135963
_symmetry_Int_Tables_number   1
_chemical_formula_structural   Mn6O5F7
_chemical_formula_sum   'Mn12 O10 F14'
_cell_volume   418.97312479
_cell_formula_units_Z   2
loop_
 _symmetry_equiv_pos_site_id
 _symmetry_equiv_pos_as_xyz
  1  'x, y, z'
loop_
 _atom_site_type_symbol
 _atom_site_label
 _atom_site_symmetry_multiplicity
 _atom_site_fract_x
 _atom_site_fract_y
 _atom_site_fract_z
 _atom_site_occupancy
  Mn  Mn0  1  0.026415  0.015176  0.998148  1
  Mn  Mn1  1  0.843187  0.520421  0.169977  1
  Mn  Mn2  1  0.107333  0.013251  0.334935  1
  Mn  Mn3  1  0.053327  0.469723  0.507093  1
  Mn  Mn4  1  0.015039  0.057105  0.667851  1
  Mn  Mn5  1  0.052399  0.560190  0.820891  1
  Mn  Mn6  1  0.519378  0.023362  0.166648  1
  Mn  Mn7  1  0.384186  0.478402  0.012110  1
  Mn  Mn8  1  0.508310  0.384006  0.658507  1
  Mn  Mn9  1  0.562235  0.006913  0.506808  1
  Mn  Mn10  1  0.467050  0.587784  0.326224  1
  Mn  Mn11  1  0.411301  0.083479  0.838046  1
  O  O12  1  0.301863  0.160131  0.580629  1
  O  O13  1  0.331064  0.818517  0.415301  1
  O  O14  1  0.164485  0.292643  0.911602  1
  O  O15  1  0.186200  0.868486  0.761721  1
  O  O16  1  0.307547  0.176694  0.075764  1
  O  O17  1  0.308499  0.854640  0.248714  1
  O  O18  1  0.213027  0.346477  0.735867  1
  O  O19  1  0.785531  0.257340  0.588567  1
  O  O20  1  0.590908  0.353514  0.235021  1
  O  O21  1  0.584380  0.687103  0.099990  1
  F  F22  1  0.082909  0.353093  0.254577  1
  F  F23  1  0.065844  0.665122  0.077924  1
  F  F24  1  0.371491  0.662680  0.580910  1
  F  F25  1  0.361931  0.777855  0.931377  1
  F  F26  1  0.336823  0.315400  0.410846  1
  F  F27  1  0.643093  0.265839  0.923170  1
  F  F28  1  0.795550  0.589710  0.406236  1
  F  F29  1  0.717051  0.585530  0.743060  1
  F  F30  1  0.864314  0.094935  0.425854  1
  F  F31  1  0.806576  0.161629  0.094870  1
  F  F32  1  0.681165  0.089168  0.751007  1
  F  F33  1  0.878347  0.784464  0.582475  1
  F  F34  1  0.869056  0.769130  0.904529  1
  F  F35  1  0.802185  0.870089  0.252750  1
