# generated using pymatgen
data_Mg11(Fe15O28)2
_symmetry_space_group_name_H-M   'P 1'
_cell_length_a   6.02469962
_cell_length_b   6.02406843
_cell_length_c   42.18868909
_cell_angle_alpha   59.92459385
_cell_angle_beta   59.93187553
_cell_angle_gamma   59.94654088
_symmetry_Int_Tables_number   1
_chemical_formula_structural   Mg11(Fe15O28)2
_chemical_formula_sum   'Mg11 Fe30 O56'
_cell_volume   1081.08288152
_cell_formula_units_Z   1
loop_
 _symmetry_equiv_pos_site_id
 _symmetry_equiv_pos_as_xyz
  1  'x, y, z'
loop_
 _atom_site_type_symbol
 _atom_site_label
 _atom_site_symmetry_multiplicity
 _atom_site_fract_x
 _atom_site_fract_y
 _atom_site_fract_z
 _atom_site_occupancy
  Mg  Mg0  1  0.000750  0.501076  0.213794  1
  Mg  Mg1  1  0.501168  0.000724  0.213771  1
  Mg  Mg2  1  0.999816  0.500461  0.500014  1
  Mg  Mg3  1  0.500465  0.999814  0.500013  1
  Mg  Mg4  1  0.500108  0.000437  0.357078  1
  Mg  Mg5  1  0.000412  0.500090  0.357080  1
  Mg  Mg6  1  0.999587  0.499725  0.643034  1
  Mg  Mg7  1  0.999959  0.499865  0.785742  1
  Mg  Mg8  1  0.499687  0.999536  0.643048  1
  Mg  Mg9  1  0.999665  0.496109  0.929873  1
  Mg  Mg10  1  0.500006  0.999384  0.785804  1
  Fe  Fe11  1  0.492991  0.494221  0.002663  1
  Fe  Fe12  1  0.127663  0.127657  0.161401  1
  Fe  Fe13  1  0.499310  0.500436  0.069648  1
  Fe  Fe14  1  0.499214  0.011736  0.069556  1
  Fe  Fe15  1  0.500198  0.500603  0.142608  1
  Fe  Fe16  1  0.132879  0.132919  0.302567  1
  Fe  Fe17  1  0.010238  0.500272  0.069629  1
  Fe  Fe18  1  0.501009  0.501001  0.214159  1
  Fe  Fe19  1  0.132802  0.132895  0.445487  1
  Fe  Fe20  1  0.875888  0.876136  0.124037  1
  Fe  Fe21  1  0.501574  0.501626  0.285370  1
  Fe  Fe22  1  0.499786  0.499790  0.357134  1
  Fe  Fe23  1  0.132375  0.132471  0.588544  1
  Fe  Fe24  1  0.499476  0.499478  0.428626  1
  Fe  Fe25  1  0.867727  0.867567  0.268770  1
  Fe  Fe26  1  0.500330  0.500315  0.499823  1
  Fe  Fe27  1  0.867815  0.867908  0.411407  1
  Fe  Fe28  1  0.499849  0.499816  0.571506  1
  Fe  Fe29  1  0.132130  0.132602  0.731345  1
  Fe  Fe30  1  0.499717  0.499756  0.643112  1
  Fe  Fe31  1  0.137933  0.125311  0.873603  1
  Fe  Fe32  1  0.499778  0.499520  0.714438  1
  Fe  Fe33  1  0.867263  0.867170  0.554495  1
  Fe  Fe34  1  0.499565  0.499672  0.785694  1
  Fe  Fe35  1  0.867095  0.867075  0.697459  1
  Fe  Fe36  1  0.500023  0.500164  0.857194  1
  Fe  Fe37  1  0.494576  0.492608  0.930120  1
  Fe  Fe38  1  0.866373  0.867511  0.840603  1
  Fe  Fe39  1  0.494316  0.002625  0.930286  1
  Fe  Fe40  1  0.864818  0.878332  0.982671  1
  O  O41  1  0.257529  0.259693  0.039008  1
  O  O42  1  0.252924  0.252837  0.105974  1
  O  O43  1  0.257464  0.708170  0.039162  1
  O  O44  1  0.706620  0.260190  0.038915  1
  O  O45  1  0.271424  0.741391  0.106776  1
  O  O46  1  0.261865  0.262027  0.178312  1
  O  O47  1  0.740825  0.271631  0.106789  1
  O  O48  1  0.739807  0.741653  0.039374  1
  O  O49  1  0.260818  0.260778  0.247081  1
  O  O50  1  0.263227  0.731559  0.179030  1
  O  O51  1  0.731438  0.263391  0.179005  1
  O  O52  1  0.740297  0.741242  0.106386  1
  O  O53  1  0.268929  0.739412  0.249213  1
  O  O54  1  0.262050  0.262179  0.321357  1
  O  O55  1  0.739446  0.268727  0.249231  1
  O  O56  1  0.742508  0.742327  0.180159  1
  O  O57  1  0.260323  0.260411  0.389919  1
  O  O58  1  0.262161  0.733185  0.321786  1
  O  O59  1  0.733059  0.262139  0.321796  1
  O  O60  1  0.740507  0.740430  0.249367  1
  O  O61  1  0.267521  0.738996  0.392169  1
  O  O62  1  0.261056  0.261167  0.464342  1
  O  O63  1  0.738923  0.267398  0.392183  1
  O  O64  1  0.740235  0.740173  0.324146  1
  O  O65  1  0.260773  0.260829  0.532826  1
  O  O66  1  0.262403  0.732511  0.464453  1
  O  O67  1  0.739082  0.738969  0.392542  1
  O  O68  1  0.732385  0.262386  0.464466  1
  O  O69  1  0.268576  0.738059  0.535135  1
  O  O70  1  0.260854  0.260930  0.607283  1
  O  O71  1  0.738047  0.268446  0.535151  1
  O  O72  1  0.740202  0.740131  0.466811  1
  O  O73  1  0.260499  0.260598  0.675781  1
  O  O74  1  0.261928  0.731786  0.607663  1
  O  O75  1  0.731655  0.261890  0.607681  1
  O  O76  1  0.739237  0.739131  0.535600  1
  O  O77  1  0.268261  0.738004  0.678141  1
  O  O78  1  0.260921  0.260796  0.750078  1
  O  O79  1  0.738118  0.268161  0.678132  1
  O  O80  1  0.739334  0.739279  0.610069  1
  O  O81  1  0.261646  0.731870  0.750419  1
  O  O82  1  0.262123  0.260464  0.818127  1
  O  O83  1  0.739084  0.738919  0.678561  1
  O  O84  1  0.731574  0.261783  0.750429  1
  O  O85  1  0.267518  0.736516  0.821124  1
  O  O86  1  0.264413  0.254949  0.892818  1
  O  O87  1  0.738286  0.267845  0.820787  1
  O  O88  1  0.280812  0.263705  0.956203  1
  O  O89  1  0.738896  0.739544  0.752923  1
  O  O90  1  0.263823  0.732405  0.892410  1
  O  O91  1  0.739899  0.737989  0.821614  1
  O  O92  1  0.737911  0.255701  0.892659  1
  O  O93  1  0.265829  0.745705  0.963277  1
  O  O94  1  0.738125  0.270199  0.963887  1
  O  O95  1  0.737504  0.743432  0.896406  1
  O  O96  1  0.737992  0.744551  0.964000  1
