# generated using pymatgen
data_PrAl22O34
_symmetry_space_group_name_H-M   'P 1'
_cell_length_a   11.87346503
_cell_length_b   5.65509123
_cell_length_c   9.78334162
_cell_angle_alpha   89.99733534
_cell_angle_beta   74.08284366
_cell_angle_gamma   89.99974168
_symmetry_Int_Tables_number   1
_chemical_formula_structural   PrAl22O34
_chemical_formula_sum   'Pr1 Al22 O34'
_cell_volume   631.72129533
_cell_formula_units_Z   1
loop_
 _symmetry_equiv_pos_site_id
 _symmetry_equiv_pos_as_xyz
  1  'x, y, z'
loop_
 _atom_site_type_symbol
 _atom_site_label
 _atom_site_symmetry_multiplicity
 _atom_site_fract_x
 _atom_site_fract_y
 _atom_site_fract_z
 _atom_site_occupancy
  Pr  Pr0  1  0.520801  0.499719  0.306703  1
  Al  Al1  1  0.783335  0.999984  0.904172  1
  Al  Al2  1  0.951173  0.500003  0.849460  1
  Al  Al3  1  0.646627  0.499985  0.951127  1
  Al  Al4  1  0.785401  0.248516  0.655970  1
  Al  Al5  1  0.216138  0.252402  0.844421  1
  Al  Al6  1  0.216136  0.747665  0.844421  1
  Al  Al7  1  0.050742  0.000002  0.649384  1
  Al  Al8  1  0.951540  0.000006  0.350134  1
  Al  Al9  1  0.350325  -0.000003  0.549336  1
  Al  Al10  1  0.647394  0.999967  0.451195  1
  Al  Al11  1  0.785413  0.751479  0.655964  1
  Al  Al12  1  0.212784  0.500032  0.598225  1
  Al  Al13  1  0.791173  0.499982  0.403103  1
  Al  Al14  1  0.211629  0.246411  0.344786  1
  Al  Al15  1  0.999991  0.499998  0.500267  1
  Al  Al16  1  0.791800  0.249235  0.152218  1
  Al  Al17  1  0.791804  0.750726  0.152218  1
  Al  Al18  1  0.215660  0.000028  0.095719  1
  Al  Al19  1  0.211644  0.753628  0.344779  1
  Al  Al20  1  0.351727  0.500018  0.051172  1
  Al  Al21  1  0.052563  0.500000  0.149591  1
  Al  Al22  1  0.001805  0.999997  0.998375  1
  O  O23  1  0.900189  0.237404  0.956494  1
  O  O24  1  0.900189  0.762588  0.956491  1
  O  O25  1  0.889146  0.999993  0.703330  1
  O  O26  1  0.282306  0.000028  0.905662  1
  O  O27  1  0.709945  0.250995  0.846767  1
  O  O28  1  0.098280  0.000003  0.809655  1
  O  O29  1  0.712091  -0.000001  0.594327  1
  O  O30  1  0.709942  0.748992  0.846763  1
  O  O31  1  0.291665  0.500026  0.903206  1
  O  O32  1  0.901629  0.499994  0.689425  1
  O  O33  1  0.499064  0.000117  0.473093  1
  O  O34  1  0.900876  0.265525  0.452004  1
  O  O35  1  0.289490  0.252226  0.653364  1
  O  O36  1  0.718497  0.500006  0.592581  1
  O  O37  1  0.111287  0.500015  0.796672  1
  O  O38  1  0.900882  0.734478  0.452005  1
  O  O39  1  0.289490  0.747808  0.653374  1
  O  O40  1  0.704147  0.261188  0.344595  1
  O  O41  1  0.286547  0.000031  0.403204  1
  O  O42  1  0.100065  0.266310  0.544087  1
  O  O43  1  0.898890  0.999991  0.192288  1
  O  O44  1  0.890039  0.499985  0.204088  1
  O  O45  1  0.289157  0.500004  0.403073  1
  O  O46  1  0.109893  0.000008  0.296657  1
  O  O47  1  0.718436  0.999973  0.095256  1
  O  O48  1  0.704141  0.738772  0.344590  1
  O  O49  1  0.100070  0.733700  0.544082  1
  O  O50  1  0.100338  0.499998  0.311467  1
  O  O51  1  0.707766  0.500011  0.103997  1
  O  O52  1  0.287724  0.249592  0.155324  1
  O  O53  1  0.499769  0.500013  0.047309  1
  O  O54  1  0.287720  0.750438  0.155316  1
  O  O55  1  0.098423  0.234979  0.046038  1
  O  O56  1  0.098420  0.765025  0.046035  1
