# generated using pymatgen
data_Tm2GeO5
_symmetry_space_group_name_H-M   'P 1'
_cell_length_a   9.21915015
_cell_length_b   6.94201849
_cell_length_c   6.68855813
_cell_angle_alpha   90.00000000
_cell_angle_beta   103.57016959
_cell_angle_gamma   90.00000000
_symmetry_Int_Tables_number   1
_chemical_formula_structural   Tm2GeO5
_chemical_formula_sum   'Tm8 Ge4 O20'
_cell_volume   416.11429887
_cell_formula_units_Z   4
loop_
 _symmetry_equiv_pos_site_id
 _symmetry_equiv_pos_as_xyz
  1  'x, y, z'
loop_
 _atom_site_type_symbol
 _atom_site_label
 _atom_site_symmetry_multiplicity
 _atom_site_fract_x
 _atom_site_fract_y
 _atom_site_fract_z
 _atom_site_occupancy
  Tm  Tm0  1  0.029140  0.127622  0.728567  1
  Tm  Tm1  1  0.029140  0.372378  0.228567  1
  Tm  Tm2  1  0.359886  0.137319  0.530932  1
  Tm  Tm3  1  0.359886  0.362681  0.030932  1
  Tm  Tm4  1  0.640114  0.637319  0.969068  1
  Tm  Tm5  1  0.640114  0.862681  0.469068  1
  Tm  Tm6  1  0.970860  0.627622  0.771433  1
  Tm  Tm7  1  0.970860  0.872378  0.271433  1
  Ge  Ge8  1  0.301431  0.594743  0.521947  1
  Ge  Ge9  1  0.301431  0.905257  0.021947  1
  Ge  Ge10  1  0.698569  0.094743  0.978053  1
  Ge  Ge11  1  0.698569  0.405257  0.478053  1
  O  O12  1  0.105202  0.860870  0.990247  1
  O  O13  1  0.109489  0.386547  0.926299  1
  O  O14  1  0.105202  0.639130  0.490248  1
  O  O15  1  0.109489  0.113453  0.426299  1
  O  O16  1  0.281497  0.084654  0.818755  1
  O  O17  1  0.392010  0.694034  0.985434  1
  O  O18  1  0.281497  0.415346  0.318754  1
  O  O19  1  0.390115  0.429276  0.711756  1
  O  O20  1  0.392010  0.805966  0.485434  1
  O  O21  1  0.390115  0.070724  0.211756  1
  O  O22  1  0.609885  0.929276  0.788244  1
  O  O23  1  0.607990  0.194034  0.514566  1
  O  O24  1  0.609885  0.570724  0.288244  1
  O  O25  1  0.718503  0.584654  0.681245  1
  O  O26  1  0.607990  0.305966  0.014566  1
  O  O27  1  0.718503  0.915346  0.181246  1
  O  O28  1  0.890511  0.886547  0.573701  1
  O  O29  1  0.894798  0.360870  0.509753  1
  O  O30  1  0.890511  0.613453  0.073701  1
  O  O31  1  0.894798  0.139130  0.009753  1
