# generated using pymatgen
data_BaZnGeO4
_symmetry_space_group_name_H-M   'P 1'
_cell_length_a   9.33659691
_cell_length_b   9.33654082
_cell_length_c   9.21648875
_cell_angle_alpha   89.99988841
_cell_angle_beta   90.00041104
_cell_angle_gamma   120.00011292
_symmetry_Int_Tables_number   1
_chemical_formula_structural   BaZnGeO4
_chemical_formula_sum   'Ba6 Zn6 Ge6 O24'
_cell_volume   695.77728192
_cell_formula_units_Z   6
loop_
 _symmetry_equiv_pos_site_id
 _symmetry_equiv_pos_as_xyz
  1  'x, y, z'
loop_
 _atom_site_type_symbol
 _atom_site_label
 _atom_site_symmetry_multiplicity
 _atom_site_fract_x
 _atom_site_fract_y
 _atom_site_fract_z
 _atom_site_occupancy
  Ba  Ba0  1  0.333330  0.666662  0.219676  1
  Ba  Ba1  1  0.000005  0.000003  0.226275  1
  Ba  Ba2  1  0.000005  0.000004  0.726269  1
  Ba  Ba3  1  0.333377  0.666685  0.720953  1
  Ba  Ba4  1  0.666671  0.333332  0.719680  1
  Ba  Ba5  1  0.666684  0.333317  0.220954  1
  Zn  Zn6  1  0.004122  0.671340  0.021343  1
  Zn  Zn7  1  0.328656  0.332778  0.021350  1
  Zn  Zn8  1  0.667222  0.995877  0.021345  1
  Zn  Zn9  1  0.332778  0.004120  0.521347  1
  Zn  Zn10  1  0.671348  0.667218  0.521343  1
  Zn  Zn11  1  0.995885  0.328665  0.521349  1
  Ge  Ge12  1  0.004384  0.667790  0.427132  1
  Ge  Ge13  1  0.663409  0.995618  0.427132  1
  Ge  Ge14  1  0.332205  0.336595  0.427132  1
  Ge  Ge15  1  0.667790  0.663402  0.927133  1
  Ge  Ge16  1  0.336592  0.004387  0.927131  1
  Ge  Ge17  1  0.995616  0.332208  0.927127  1
  O  O18  1  0.126096  0.909224  0.980955  1
  O  O19  1  0.011917  0.673081  0.235531  1
  O  O20  1  0.213224  0.764566  0.485468  1
  O  O21  1  0.114183  0.543084  0.978390  1
  O  O22  1  0.428908  0.885828  0.978393  1
  O  O23  1  0.090775  0.216869  0.980944  1
  O  O24  1  0.235438  0.448664  0.485475  1
  O  O25  1  0.326867  0.338824  0.235535  1
  O  O26  1  0.661180  0.988100  0.235530  1
  O  O27  1  0.216872  0.126097  0.480947  1
  O  O28  1  0.551351  0.786778  0.485462  1
  O  O29  1  0.456917  0.571098  0.978401  1
  O  O30  1  0.543079  0.428901  0.478396  1
  O  O31  1  0.448658  0.213228  0.985470  1
  O  O32  1  0.783128  0.873899  0.980959  1
  O  O33  1  0.338814  0.011923  0.735535  1
  O  O34  1  0.673081  0.661187  0.735534  1
  O  O35  1  0.764565  0.551336  0.985460  1
  O  O36  1  0.909230  0.783131  0.480945  1
  O  O37  1  0.571095  0.114177  0.478403  1
  O  O38  1  0.885817  0.456917  0.478398  1
  O  O39  1  0.786779  0.235434  0.985473  1
  O  O40  1  0.988041  0.326869  0.735533  1
  O  O41  1  0.873905  0.090782  0.480944  1
