# generated using pymatgen
data_ZnFeH4O2F5
_symmetry_space_group_name_H-M   'P 1'
_cell_length_a   6.51500794
_cell_length_b   7.44399886
_cell_length_c   7.44399886
_cell_angle_alpha   118.50721957
_cell_angle_beta   115.95093357
_cell_angle_gamma   64.04906643
_symmetry_Int_Tables_number   1
_chemical_formula_structural   ZnFeH4O2F5
_chemical_formula_sum   'Zn2 Fe2 H8 O4 F10'
_cell_volume   273.04274740
_cell_formula_units_Z   2
loop_
 _symmetry_equiv_pos_site_id
 _symmetry_equiv_pos_as_xyz
  1  'x, y, z'
loop_
 _atom_site_type_symbol
 _atom_site_label
 _atom_site_symmetry_multiplicity
 _atom_site_fract_x
 _atom_site_fract_y
 _atom_site_fract_z
 _atom_site_occupancy
  Zn  Zn0  1  0.012022  0.747813  0.252187  1
  Zn  Zn1  1  0.507648  0.252187  0.747813  1
  Fe  Fe2  1  0.008234  0.249458  0.249458  1
  Fe  Fe3  1  0.008234  0.750542  0.750542  1
  H  H4  1  0.550009  0.735295  0.056123  1
  H  H5  1  0.229181  0.056123  0.735295  1
  H  H6  1  0.470862  0.562244  0.229016  1
  H  H7  1  0.804090  0.229016  0.562244  1
  H  H8  1  0.804090  0.437756  0.770984  1
  H  H9  1  0.470862  0.770984  0.437756  1
  H  H10  1  0.550009  0.943877  0.264705  1
  H  H11  1  0.229181  0.264705  0.943877  1
  O  O12  1  0.270229  0.191680  0.808321  1
  O  O13  1  0.368886  0.685282  0.314718  1
  O  O14  1  0.739450  0.314718  0.685282  1
  O  O15  1  0.653587  0.808321  0.191680  1
  F  F16  1  0.093699  0.000000  0.000000  1
  F  F17  1  0.677172  0.334624  0.080610  1
  F  F18  1  0.931186  0.080610  0.334624  1
  F  F19  1  0.089646  0.416109  0.164982  1
  F  F20  1  0.340774  0.164982  0.416109  1
  F  F21  1  0.928769  0.500000  0.500000  1
  F  F22  1  0.089646  0.835018  0.583891  1
  F  F23  1  0.340774  0.583891  0.835018  1
  F  F24  1  0.677172  0.919390  0.665376  1
  F  F25  1  0.931186  0.665376  0.919390  1
