# generated using pymatgen
data_Fe2O3F
_symmetry_space_group_name_H-M   'P 1'
_cell_length_a   4.69800841
_cell_length_b   4.69800841
_cell_length_c   15.03249091
_cell_angle_alpha   90.00000000
_cell_angle_beta   90.00000000
_cell_angle_gamma   94.27848581
_symmetry_Int_Tables_number   1
_chemical_formula_structural   Fe2O3F
_chemical_formula_sum   'Fe10 O15 F5'
_cell_volume   330.86174531
_cell_formula_units_Z   5
loop_
 _symmetry_equiv_pos_site_id
 _symmetry_equiv_pos_as_xyz
  1  'x, y, z'
loop_
 _atom_site_type_symbol
 _atom_site_label
 _atom_site_symmetry_multiplicity
 _atom_site_fract_x
 _atom_site_fract_y
 _atom_site_fract_z
 _atom_site_occupancy
  Fe  Fe0  1  0.002711  0.997289  0.999405  1
  Fe  Fe1  1  0.002711  0.997289  0.200595  1
  Fe  Fe2  1  0.014970  0.985030  0.400779  1
  Fe  Fe3  1  0.016680  0.983320  0.600000  1
  Fe  Fe4  1  0.014970  0.985030  0.799221  1
  Fe  Fe5  1  0.536689  0.463311  0.100000  1
  Fe  Fe6  1  0.479634  0.520366  0.500311  1
  Fe  Fe7  1  0.474011  0.525989  0.300138  1
  Fe  Fe8  1  0.479634  0.520366  0.699689  1
  Fe  Fe9  1  0.474011  0.525989  0.899862  1
  O  O10  1  0.184495  0.815505  0.297974  1
  O  O11  1  0.190210  0.809790  0.500026  1
  O  O12  1  0.190210  0.809790  0.699974  1
  O  O13  1  0.184495  0.815505  0.902026  1
  O  O14  1  0.311760  0.301664  0.999083  1
  O  O15  1  0.311760  0.301664  0.200917  1
  O  O16  1  0.302039  0.312505  0.400763  1
  O  O17  1  0.307045  0.308227  0.600000  1
  O  O18  1  0.302039  0.312505  0.799237  1
  O  O19  1  0.698336  0.688240  0.999083  1
  O  O20  1  0.698336  0.688240  0.200917  1
  O  O21  1  0.687495  0.697961  0.400763  1
  O  O22  1  0.691773  0.692955  0.600000  1
  O  O23  1  0.687495  0.697961  0.799237  1
  O  O24  1  0.826753  0.173247  0.100000  1
  F  F25  1  0.204515  0.795485  0.100000  1
  F  F26  1  0.808256  0.191744  0.501109  1
  F  F27  1  0.804354  0.195646  0.303124  1
  F  F28  1  0.804354  0.195646  0.896876  1
  F  F29  1  0.808256  0.191744  0.698891  1
