# generated using pymatgen
data_KLi7(H2N)8
_symmetry_space_group_name_H-M   'P 1'
_cell_length_a   23.19346648
_cell_length_b   23.19346648
_cell_length_c   23.19346648
_cell_angle_alpha   161.91411872
_cell_angle_beta   161.91411872
_cell_angle_gamma   25.68579367
_symmetry_Int_Tables_number   1
_chemical_formula_structural   KLi7(H2N)8
_chemical_formula_sum   'K4 Li28 H64 N32'
_cell_volume   1202.04054775
_cell_formula_units_Z   4
loop_
 _symmetry_equiv_pos_site_id
 _symmetry_equiv_pos_as_xyz
  1  'x, y, z'
loop_
 _atom_site_type_symbol
 _atom_site_label
 _atom_site_symmetry_multiplicity
 _atom_site_fract_x
 _atom_site_fract_y
 _atom_site_fract_z
 _atom_site_occupancy
  K  K0  1  0.500000  0.500000  0.500000  1
  K  K1  1  0.500000  0.000000  0.000000  1
  K  K2  1  0.500000  0.000000  0.500000  1
  K  K3  1  0.000000  0.000000  0.000000  1
  Li  Li4  1  0.126680  0.876680  0.250000  1
  Li  Li5  1  0.376680  0.626680  0.750000  1
  Li  Li6  1  0.873320  0.123320  0.750000  1
  Li  Li7  1  0.623320  0.373320  0.250000  1
  Li  Li8  1  0.431441  0.181441  0.250000  1
  Li  Li9  1  0.681441  0.931441  0.750000  1
  Li  Li10  1  0.568559  0.818559  0.750000  1
  Li  Li11  1  0.318559  0.068559  0.250000  1
  Li  Li12  1  0.183778  0.933778  0.250000  1
  Li  Li13  1  0.433778  0.683778  0.750000  1
  Li  Li14  1  0.816222  0.066222  0.750000  1
  Li  Li15  1  0.566222  0.316222  0.250000  1
  Li  Li16  1  0.070386  0.820386  0.250000  1
  Li  Li17  1  0.320386  0.570386  0.750000  1
  Li  Li18  1  0.929614  0.179614  0.750000  1
  Li  Li19  1  0.679614  0.429614  0.250000  1
  Li  Li20  1  0.930399  0.680399  0.250000  1
  Li  Li21  1  0.180399  0.430399  0.750000  1
  Li  Li22  1  0.069601  0.319601  0.750000  1
  Li  Li23  1  0.819601  0.569601  0.250000  1
  Li  Li24  1  0.581484  0.331393  0.771726  1
  Li  Li25  1  0.059667  0.809758  0.728274  1
  Li  Li26  1  0.309758  0.081484  0.750091  1
  Li  Li27  1  0.831393  0.559667  0.749909  1
  Li  Li28  1  0.418516  0.668607  0.228274  1
  Li  Li29  1  0.940333  0.190242  0.271726  1
  Li  Li30  1  0.690242  0.918516  0.249909  1
  Li  Li31  1  0.168607  0.440333  0.250091  1
  H  H32  1  0.324184  0.339057  0.387411  1
  H  H33  1  0.451646  0.936773  0.112589  1
  H  H34  1  0.436773  0.824184  0.485126  1
  H  H35  1  0.839057  0.951646  0.014874  1
  H  H36  1  0.675816  0.660943  0.612589  1
  H  H37  1  0.548354  0.063227  0.887411  1
  H  H38  1  0.563227  0.175816  0.514874  1
  H  H39  1  0.160943  0.048354  0.985126  1
  H  H40  1  0.526508  0.383853  0.595462  1
  H  H41  1  0.288391  0.931045  0.904538  1
  H  H42  1  0.431045  0.026508  0.642654  1
  H  H43  1  0.883853  0.788391  0.857346  1
  H  H44  1  0.473492  0.616147  0.404538  1
  H  H45  1  0.711609  0.068955  0.095462  1
  H  H46  1  0.568955  0.973492  0.357346  1
  H  H47  1  0.116147  0.211609  0.142654  1
  H  H48  1  0.195125  0.294568  0.537810  1
  H  H49  1  0.256758  0.657316  0.962190  1
  H  H50  1  0.157316  0.695125  0.400558  1
  H  H51  1  0.794568  0.756758  0.099442  1
  H  H52  1  0.804875  0.705432  0.462190  1
  H  H53  1  0.743242  0.342684  0.037810  1
  H  H54  1  0.842684  0.304875  0.599442  1
  H  H55  1  0.205432  0.243242  0.900558  1
  H  H56  1  0.339686  0.210554  0.640323  1
  H  H57  1  0.070231  0.699363  0.859677  1
  H  H58  1  0.199363  0.839686  0.629132  1
  H  H59  1  0.710554  0.570231  0.870868  1
  H  H60  1  0.660314  0.789446  0.359677  1
  H  H61  1  0.929769  0.300637  0.140323  1
  H  H62  1  0.800637  0.160314  0.370868  1
  H  H63  1  0.289446  0.429769  0.129132  1
  H  H64  1  0.018564  0.875085  0.591497  1
  H  H65  1  0.783588  0.427066  0.908503  1
  H  H66  1  0.927066  0.518564  0.643479  1
  H  H67  1  0.375085  0.283588  0.856521  1
  H  H68  1  0.981436  0.124915  0.408503  1
  H  H69  1  0.216412  0.572934  0.091497  1
  H  H70  1  0.072934  0.481436  0.356521  1
  H  H71  1  0.624915  0.716412  0.143479  1
  H  H72  1  0.806384  0.838149  0.374259  1
  H  H73  1  0.963890  0.432125  0.125741  1
  H  H74  1  0.932125  0.306384  0.468235  1
  H  H75  1  0.338149  0.463890  0.031765  1
  H  H76  1  0.193616  0.161851  0.625741  1
  H  H77  1  0.036110  0.567875  0.874259  1
  H  H78  1  0.067875  0.693616  0.531765  1
  H  H79  1  0.661851  0.536110  0.968235  1
  H  H80  1  0.758401  0.651547  0.463346  1
  H  H81  1  0.688201  0.295055  0.036654  1
  H  H82  1  0.795055  0.258401  0.606854  1
  H  H83  1  0.151547  0.188201  0.893146  1
  H  H84  1  0.241599  0.348453  0.536654  1
  H  H85  1  0.311799  0.704945  0.963346  1
  H  H86  1  0.204945  0.741599  0.393146  1
  H  H87  1  0.848453  0.811799  0.106854  1
  H  H88  1  0.582592  0.773036  0.426417  1
  H  H89  1  0.846620  0.156175  0.073583  1
  H  H90  1  0.656175  0.082592  0.309555  1
  H  H91  1  0.273036  0.346620  0.190445  1
  H  H92  1  0.417408  0.226964  0.573583  1
  H  H93  1  0.153380  0.843825  0.926417  1
  H  H94  1  0.343825  0.917408  0.690445  1
  H  H95  1  0.726964  0.653380  0.809555  1
  N  N96  1  0.389637  0.418602  0.494123  1
  N  N97  1  0.424479  0.895515  0.005877  1
  N  N98  1  0.395515  0.889637  0.471036  1
  N  N99  1  0.918602  0.924479  0.028964  1
  N  N100  1  0.610363  0.581398  0.505877  1
  N  N101  1  0.575521  0.104485  0.994123  1
  N  N102  1  0.604485  0.110363  0.528964  1
  N  N103  1  0.081398  0.075521  0.971036  1
  N  N104  1  0.199628  0.207749  0.494770  1
  N  N105  1  0.212978  0.704857  0.005230  1
  N  N106  1  0.204857  0.699628  0.491879  1
  N  N107  1  0.707749  0.712978  0.008121  1
  N  N108  1  0.800372  0.792251  0.505230  1
  N  N109  1  0.787022  0.295143  0.994770  1
  N  N110  1  0.795143  0.300372  0.508121  1
  N  N111  1  0.292251  0.287022  0.991879  1
  N  N112  1  0.885902  0.914908  0.494199  1
  N  N113  1  0.920709  0.391703  0.005801  1
  N  N114  1  0.891703  0.385902  0.470994  1
  N  N115  1  0.414908  0.420709  0.029006  1
  N  N116  1  0.114098  0.085092  0.505801  1
  N  N117  1  0.079291  0.608297  0.994199  1
  N  N118  1  0.108297  0.614098  0.529006  1
  N  N119  1  0.585092  0.579291  0.970994  1
  N  N120  1  0.691820  0.709352  0.489589  1
  N  N121  1  0.719763  0.202231  0.010411  1
  N  N122  1  0.702231  0.191820  0.482468  1
  N  N123  1  0.209352  0.219763  0.017532  1
  N  N124  1  0.308180  0.290648  0.510411  1
  N  N125  1  0.280237  0.797769  -0.010411  1
  N  N126  1  0.297769  0.808180  0.517532  1
  N  N127  1  0.790648  0.780237  0.982468  1
