# generated using pymatgen
data_BiH3Ru3(CO)9
_symmetry_space_group_name_H-M   'P 1'
_cell_length_a   8.32366936
_cell_length_b   9.37787432
_cell_length_c   12.68639884
_cell_angle_alpha   87.94482074
_cell_angle_beta   71.88029560
_cell_angle_gamma   68.77323969
_symmetry_Int_Tables_number   1
_chemical_formula_structural   BiH3Ru3(CO)9
_chemical_formula_sum   'Bi2 H6 Ru6 C18 O18'
_cell_volume   874.01856034
_cell_formula_units_Z   2
loop_
 _symmetry_equiv_pos_site_id
 _symmetry_equiv_pos_as_xyz
  1  'x, y, z'
loop_
 _atom_site_type_symbol
 _atom_site_label
 _atom_site_symmetry_multiplicity
 _atom_site_fract_x
 _atom_site_fract_y
 _atom_site_fract_z
 _atom_site_occupancy
  Bi  Bi0  1  0.492845  0.784913  0.402851  1
  Bi  Bi1  1  0.507155  0.215087  0.597149  1
  H  H2  1  0.507489  0.854509  0.141175  1
  H  H3  1  0.492511  0.145491  0.858825  1
  H  H4  1  0.343143  0.685748  0.205280  1
  H  H5  1  0.656857  0.314252  0.794720  1
  H  H6  1  0.662247  0.593909  0.147101  1
  H  H7  1  0.337753  0.406091  0.852899  1
  Ru  Ru8  1  0.298483  0.880216  0.250745  1
  Ru  Ru9  1  0.701517  0.119784  0.749255  1
  Ru  Ru10  1  0.709325  0.759173  0.179092  1
  Ru  Ru11  1  0.290675  0.240827  0.820908  1
  Ru  Ru12  1  0.508537  0.546703  0.265360  1
  Ru  Ru13  1  0.491463  0.453297  0.734640  1
  C  C14  1  0.212746  0.907328  0.124012  1
  C  C15  1  0.787254  0.092672  0.875988  1
  C  C16  1  0.080422  0.889725  0.361775  1
  C  C17  1  0.919578  0.110275  0.638225  1
  C  C18  1  0.264856  0.087464  0.287227  1
  C  C19  1  0.735144  0.912536  0.712773  1
  C  C20  1  0.726197  0.949891  0.207758  1
  C  C21  1  0.273803  0.050109  0.792242  1
  C  C22  1  0.827518  0.728428  0.019175  1
  C  C23  1  0.172482  0.271572  0.980825  1
  C  C24  1  0.916623  0.642856  0.221589  1
  C  C25  1  0.083377  0.357144  0.778411  1
  C  C26  1  0.698663  0.399618  0.310007  1
  C  C27  1  0.301337  0.600382  0.689993  1
  C  C28  1  0.505944  0.420087  0.149579  1
  C  C29  1  0.494056  0.579913  0.850421  1
  C  C30  1  0.320770  0.515949  0.385443  1
  C  C31  1  0.679230  0.484051  0.614557  1
  O  O32  1  0.153292  0.923610  0.051008  1
  O  O33  1  0.846708  0.076390  0.948992  1
  O  O34  1  0.944578  0.892770  0.426552  1
  O  O35  1  0.055422  0.107230  0.573448  1
  O  O36  1  0.245719  0.213538  0.306573  1
  O  O37  1  0.754281  0.786462  0.693427  1
  O  O38  1  0.736646  0.066748  0.223365  1
  O  O39  1  0.263354  0.933253  0.776635  1
  O  O40  1  0.907350  0.709630  0.924458  1
  O  O41  1  0.092649  0.290370  0.075542  1
  O  O42  1  0.043323  0.568888  0.246128  1
  O  O43  1  0.956677  0.431112  0.753872  1
  O  O44  1  0.815238  0.307738  0.334931  1
  O  O45  1  0.184762  0.692262  0.665069  1
  O  O46  1  0.495497  0.345822  0.082881  1
  O  O47  1  0.504503  0.654178  0.917119  1
  O  O48  1  0.205740  0.497132  0.457196  1
  O  O49  1  0.794260  0.502868  0.542804  1
