# generated using pymatgen
data_Li6Cr5(P2O7)4
_symmetry_space_group_name_H-M   'P 1'
_cell_length_a   12.90252225
_cell_length_b   9.17391653
_cell_length_c   10.81002175
_cell_angle_alpha   68.53248409
_cell_angle_beta   89.82521177
_cell_angle_gamma   73.59337625
_symmetry_Int_Tables_number   1
_chemical_formula_structural   Li6Cr5(P2O7)4
_chemical_formula_sum   'Li12 Cr10 P16 O56'
_cell_volume   1135.05579614
_cell_formula_units_Z   2
loop_
 _symmetry_equiv_pos_site_id
 _symmetry_equiv_pos_as_xyz
  1  'x, y, z'
loop_
 _atom_site_type_symbol
 _atom_site_label
 _atom_site_symmetry_multiplicity
 _atom_site_fract_x
 _atom_site_fract_y
 _atom_site_fract_z
 _atom_site_occupancy
  Li  Li0  1  0.018528  0.819306  0.004863  1
  Li  Li1  1  0.182191  0.097513  0.862038  1
  Li  Li2  1  0.069485  0.887446  0.597909  1
  Li  Li3  1  0.250000  0.500000  0.500000  1
  Li  Li4  1  0.430515  0.112554  0.402091  1
  Li  Li5  1  0.317809  0.902487  0.137962  1
  Li  Li6  1  0.481472  0.180694  0.995137  1
  Li  Li7  1  0.677400  0.080027  0.870723  1
  Li  Li8  1  0.580108  0.878175  0.583289  1
  Li  Li9  1  0.750000  0.500000  0.500000  1
  Li  Li10  1  0.919892  0.121825  0.416711  1
  Li  Li11  1  0.822600  0.919973  0.129277  1
  Cr  Cr12  1  0.139964  0.097710  0.285032  1
  Cr  Cr13  1  0.179704  0.484605  0.244659  1
  Cr  Cr14  1  0.320296  0.515395  0.755341  1
  Cr  Cr15  1  0.360036  0.902290  0.714968  1
  Cr  Cr16  1  0.636514  0.096782  0.277870  1
  Cr  Cr17  1  0.507490  0.797849  0.990954  1
  Cr  Cr18  1  0.683294  0.469330  0.249564  1
  Cr  Cr19  1  0.816706  0.530670  0.750436  1
  Cr  Cr20  1  0.992510  0.202151  0.009046  1
  Cr  Cr21  1  0.863486  0.903218  0.722130  1
  P  P22  1  0.146493  0.195918  0.560764  1
  P  P23  1  0.068459  0.555079  0.804098  1
  P  P24  1  0.039844  0.809193  0.297959  1
  P  P25  1  0.216788  0.287927  0.036294  1
  P  P26  1  0.283212  0.712073  0.963706  1
  P  P27  1  0.460156  0.190807  0.702041  1
  P  P28  1  0.431541  0.444921  0.195902  1
  P  P29  1  0.353507  0.804082  0.439236  1
  P  P30  1  0.650257  0.188834  0.562191  1
  P  P31  1  0.565083  0.559971  0.811859  1
  P  P32  1  0.542649  0.798271  0.295050  1
  P  P33  1  0.718902  0.279609  0.037282  1
  P  P34  1  0.781098  0.720391  0.962718  1
  P  P35  1  0.957351  0.201729  0.704950  1
  P  P36  1  0.934917  0.440029  0.188141  1
  P  P37  1  0.849743  0.811166  0.437809  1
  O  O38  1  0.014299  0.116305  0.851344  1
  O  O39  1  0.037475  0.290651  0.610975  1
  O  O40  1  0.014447  0.529450  0.198182  1
  O  O41  1  0.112138  0.094913  0.491231  1
  O  O42  1  0.018733  0.736594  0.783515  1
  O  O43  1  0.165282  0.157008  0.023933  1
  O  O44  1  0.131268  0.467029  0.957357  1
  O  O45  1  0.053653  0.933146  0.357092  1
  O  O46  1  0.217723  0.081283  0.694665  1
  O  O47  1  0.193835  0.325173  0.471655  1
  O  O48  1  0.218144  0.277133  0.183292  1
  O  O49  1  0.145493  0.673720  0.314432  1
  O  O50  1  0.156410  0.534883  0.712101  1
  O  O51  1  0.175881  0.728809  0.019861  1
  O  O52  1  0.324119  0.271191  0.980139  1
  O  O53  1  0.343590  0.465117  0.287899  1
  O  O54  1  0.354507  0.326280  0.685568  1
  O  O55  1  0.281856  0.722867  0.816708  1
  O  O56  1  0.306165  0.674827  0.528345  1
  O  O57  1  0.282277  0.918717  0.305335  1
  O  O58  1  0.446347  0.066854  0.642908  1
  O  O59  1  0.368732  0.532971  0.042643  1
  O  O60  1  0.334718  0.842992  0.976067  1
  O  O61  1  0.481267  0.263406  0.216485  1
  O  O62  1  0.517700  0.102023  0.846515  1
  O  O63  1  0.387862  0.905087  0.508769  1
  O  O64  1  0.485553  0.470550  0.801818  1
  O  O65  1  0.538447  0.283539  0.606379  1
  O  O66  1  0.462525  0.709349  0.389025  1
  O  O67  1  0.516235  0.533395  0.192328  1
  O  O68  1  0.621055  0.083819  0.493057  1
  O  O69  1  0.485701  0.883695  0.148656  1
  O  O70  1  0.509443  0.729899  0.821458  1
  O  O71  1  0.673953  0.146547  0.025977  1
  O  O72  1  0.634580  0.458595  0.958030  1
  O  O73  1  0.553749  0.926432  0.349809  1
  O  O74  1  0.720179  0.081109  0.697911  1
  O  O75  1  0.696853  0.320264  0.473353  1
  O  O76  1  0.719788  0.271509  0.183423  1
  O  O77  1  0.649081  0.663281  0.314090  1
  O  O78  1  0.645069  0.579564  0.706817  1
  O  O79  1  0.673747  0.723082  0.020680  1
  O  O80  1  0.826253  0.276918  0.979320  1
  O  O81  1  0.854931  0.420436  0.293183  1
  O  O82  1  0.850919  0.336719  0.685910  1
  O  O83  1  0.780212  0.728491  0.816577  1
  O  O84  1  0.803147  0.679736  0.526647  1
  O  O85  1  0.779821  0.918891  0.302089  1
  O  O86  1  0.946251  0.073568  0.650191  1
  O  O87  1  0.865420  0.541405  0.041970  1
  O  O88  1  0.826047  0.853453  0.974023  1
  O  O89  1  0.990557  0.270101  0.178542  1
  O  O90  1  0.878945  0.916181  0.506943  1
  O  O91  1  0.983765  0.466605  0.807672  1
  O  O92  1  0.961553  0.716461  0.393621  1
  O  O93  1  0.982300  0.897977  0.153485  1
