# generated using pymatgen
data_LiMn2(BO3)2
_symmetry_space_group_name_H-M   'P 1'
_cell_length_a   5.76890359
_cell_length_b   5.31081953
_cell_length_c   9.14836712
_cell_angle_alpha   90.07294493
_cell_angle_beta   103.21676681
_cell_angle_gamma   114.09217769
_symmetry_Int_Tables_number   1
_chemical_formula_structural   LiMn2(BO3)2
_chemical_formula_sum   'Li2 Mn4 B4 O12'
_cell_volume   247.67572674
_cell_formula_units_Z   2
loop_
 _symmetry_equiv_pos_site_id
 _symmetry_equiv_pos_as_xyz
  1  'x, y, z'
loop_
 _atom_site_type_symbol
 _atom_site_label
 _atom_site_symmetry_multiplicity
 _atom_site_fract_x
 _atom_site_fract_y
 _atom_site_fract_z
 _atom_site_occupancy
  Li  Li0  1  0.669234  0.931014  0.531895  1
  Li  Li1  1  0.330766  0.568986  0.968105  1
  Mn  Mn2  1  0.745229  0.462151  0.698893  1
  Mn  Mn3  1  0.751940  0.964357  0.189449  1
  Mn  Mn4  1  0.254771  0.037849  0.801107  1
  Mn  Mn5  1  0.248060  0.535643  0.310551  1
  B  B6  1  0.746438  0.449672  0.373621  1
  B  B7  1  0.253562  0.050328  0.126379  1
  B  B8  1  0.741318  0.944723  0.861556  1
  B  B9  1  0.258682  0.555277  0.638444  1
  O  O10  1  0.848938  0.382042  0.262616  1
  O  O11  1  0.729339  0.302284  0.495305  1
  O  O12  1  0.646966  0.146364  0.835161  1
  O  O13  1  0.656413  0.661143  0.353466  1
  O  O14  1  0.849206  0.887385  0.747197  1
  O  O15  1  0.270661  0.197716  0.004695  1
  O  O16  1  0.705923  0.790121  0.979054  1
  O  O17  1  0.151062  0.117958  0.237384  1
  O  O18  1  0.353034  0.353636  0.664839  1
  O  O19  1  0.343587  0.838857  0.146534  1
  O  O20  1  0.294077  0.709879  0.520946  1
  O  O21  1  0.150794  0.612615  0.752803  1
