# generated using pymatgen
data_La20S29O
_symmetry_space_group_name_H-M   'P 1'
_cell_length_a   15.05830821
_cell_length_b   15.05830821
_cell_length_c   15.05830821
_cell_angle_alpha   117.83968388
_cell_angle_beta   117.83968388
_cell_angle_gamma   93.78436388
_symmetry_Int_Tables_number   1
_chemical_formula_structural   La20S29O
_chemical_formula_sum   'La40 S58 O2'
_cell_volume   2487.39335724
_cell_formula_units_Z   2
loop_
 _symmetry_equiv_pos_site_id
 _symmetry_equiv_pos_as_xyz
  1  'x, y, z'
loop_
 _atom_site_type_symbol
 _atom_site_label
 _atom_site_symmetry_multiplicity
 _atom_site_fract_x
 _atom_site_fract_y
 _atom_site_fract_z
 _atom_site_occupancy
  La  La0  1  0.763347  0.009283  0.026028  1
  La  La1  1  0.921007  0.075112  0.403906  1
  La  La2  1  0.710157  0.302636  0.116817  1
  La  La3  1  0.983947  0.328763  0.404415  1
  La  La4  1  0.406659  0.289843  0.092478  1
  La  La5  1  0.925722  0.817346  0.126478  1
  La  La6  1  0.802636  0.210157  0.616817  1
  La  La7  1  0.697364  0.314181  0.407522  1
  La  La8  1  0.482899  0.078993  0.654105  1
  La  La9  1  0.424349  0.579533  0.095585  1
  La  La10  1  0.075651  0.171237  0.155185  1
  La  La11  1  0.990717  0.516745  0.754064  1
  La  La12  1  0.509283  0.263347  0.526028  1
  La  La13  1  0.736653  0.762682  0.245936  1
  La  La14  1  0.200755  0.074278  0.391624  1
  La  La15  1  0.685819  0.593341  0.383183  1
  La  La16  1  0.814181  0.197364  0.907522  1
  La  La17  1  0.420467  0.016053  0.844815  1
  La  La18  1  0.328794  0.424888  0.345895  1
  La  La19  1  0.171206  0.517101  0.096094  1
  La  La20  1  0.671237  0.575651  0.655185  1
  La  La21  1  0.578993  0.982899  0.154105  1
  La  La22  1  0.828763  0.483947  0.904415  1
  La  La23  1  0.182654  0.809131  0.108376  1
  La  La24  1  0.789843  0.906659  0.592478  1
  La  La25  1  0.317346  0.425722  0.626478  1
  La  La26  1  0.262682  0.236653  0.745936  1
  La  La27  1  0.483255  0.737318  0.473972  1
  La  La28  1  0.016745  0.490717  0.254064  1
  La  La29  1  0.924888  0.828794  0.845895  1
  La  La30  1  0.516053  0.920467  0.344815  1
  La  La31  1  0.575112  0.421007  0.903906  1
  La  La32  1  0.093342  0.185819  0.883183  1
  La  La33  1  0.190869  0.799245  0.373522  1
  La  La34  1  0.309131  0.682654  0.608376  1
  La  La35  1  0.574278  0.700755  0.891624  1
  La  La36  1  0.017101  0.671206  0.596094  1
  La  La37  1  0.299245  0.690869  0.873522  1
  La  La38  1  0.079533  0.924349  0.595585  1
  La  La39  1  0.237318  0.983255  0.973972  1
  S  S40  1  0.982220  0.062926  0.232843  1
  S  S41  1  0.903644  0.250000  0.153644  1
  S  S42  1  0.794093  0.404504  0.038025  1
  S  S43  1  0.751799  0.167968  0.233966  1
  S  S44  1  0.463384  0.106321  0.082952  1
  S  S45  1  0.904504  0.294093  0.538025  1
  S  S46  1  0.595496  0.133520  0.389588  1
  S  S47  1  0.743756  0.636249  0.034461  1
  S  S48  1  0.893679  0.476630  0.357063  1
  S  S49  1  0.625000  0.375000  0.250000  1
  S  S50  1  0.875000  0.125000  0.750000  1
  S  S51  1  0.880431  0.023370  0.917048  1
  S  S52  1  0.388005  0.031256  0.411362  1
  S  S53  1  0.619569  0.536616  0.142937  1
  S  S54  1  0.243932  0.205907  0.110412  1
  S  S55  1  0.976630  0.393679  0.857063  1
  S  S56  1  0.523370  0.380431  0.417048  1
  S  S57  1  0.968744  0.880107  0.356750  1
  S  S58  1  0.750000  0.403644  0.653644  1
  S  S59  1  0.750000  0.900065  0.150065  1
  S  S60  1  0.517780  0.750624  0.080706  1
  S  S61  1  0.667968  0.251799  0.733966  1
  S  S62  1  0.832032  0.565998  0.583831  1
  S  S63  1  0.250624  0.017780  0.580706  1
  S  S64  1  0.065998  0.332032  0.083831  1
  S  S65  1  0.434002  0.517833  0.266034  1
  S  S66  1  0.866480  0.756068  0.461975  1
  S  S67  1  0.633520  0.095496  0.889588  1
  S  S68  1  0.290706  0.256244  0.392493  1
  S  S69  1  0.400065  0.250000  0.650065  1
  S  S70  1  0.596356  0.750000  0.346356  1
  S  S71  1  0.136249  0.243756  0.534461  1
  S  S72  1  0.705907  0.743932  0.610412  1
  S  S73  1  0.363751  0.898212  0.107507  1
  S  S74  1  0.562926  0.482220  0.732843  1
  S  S75  1  0.937074  0.669917  0.919294  1
  S  S76  1  0.748201  0.982167  0.416169  1
  S  S77  1  0.482167  0.248201  0.916169  1
  S  S78  1  0.330083  0.749376  0.267157  1
  S  S79  1  0.169917  0.437074  0.419294  1
  S  S80  1  0.250000  0.599935  0.349935  1
  S  S81  1  0.250000  0.096356  0.846356  1
  S  S82  1  0.476643  0.619893  0.588638  1
  S  S83  1  0.023357  0.611995  0.143250  1
  S  S84  1  0.036616  0.119569  0.642937  1
  S  S85  1  0.756244  0.790706  0.892493  1
  S  S86  1  0.380107  0.468744  0.856750  1
  S  S87  1  0.606321  0.963384  0.582952  1
  S  S88  1  0.119893  0.976643  0.088638  1
  S  S89  1  0.111995  0.523357  0.643250  1
  S  S90  1  0.256068  0.366480  0.961975  1
  S  S91  1  0.101788  0.709294  0.465539  1
  S  S92  1  0.398212  0.863751  0.607507  1
  S  S93  1  0.531256  0.888005  0.911362  1
  S  S94  1  0.249376  0.830083  0.767157  1
  S  S95  1  0.209294  0.601788  0.965539  1
  S  S96  1  0.099935  0.750000  0.849935  1
  S  S97  1  0.017833  0.934002  0.766034  1
  O  O98  1  0.125000  0.875000  0.250000  1
  O  O99  1  0.375000  0.625000  0.750000  1
