# generated using pymatgen
data_Sb6H3CCl13O10
_symmetry_space_group_name_H-M   'P 1'
_cell_length_a   13.77816534
_cell_length_b   14.98061535
_cell_length_c   14.23424242
_cell_angle_alpha   90.00000000
_cell_angle_beta   97.86746806
_cell_angle_gamma   90.00000000
_symmetry_Int_Tables_number   1
_chemical_formula_structural   Sb6H3CCl13O10
_chemical_formula_sum   'Sb24 H12 C4 Cl52 O40'
_cell_volume   2910.36981590
_cell_formula_units_Z   4
loop_
 _symmetry_equiv_pos_site_id
 _symmetry_equiv_pos_as_xyz
  1  'x, y, z'
loop_
 _atom_site_type_symbol
 _atom_site_label
 _atom_site_symmetry_multiplicity
 _atom_site_fract_x
 _atom_site_fract_y
 _atom_site_fract_z
 _atom_site_occupancy
  Sb  Sb0  1  0.900559  0.844594  0.910431  1
  Sb  Sb1  1  0.400559  0.655406  0.410431  1
  Sb  Sb2  1  0.099441  0.155406  0.089569  1
  Sb  Sb3  1  0.599441  0.344594  0.589569  1
  Sb  Sb4  1  0.838406  0.957117  0.102559  1
  Sb  Sb5  1  0.338406  0.542883  0.602559  1
  Sb  Sb6  1  0.161594  0.042883  0.897441  1
  Sb  Sb7  1  0.661594  0.457117  0.397441  1
  Sb  Sb8  1  0.164498  0.769663  0.940834  1
  Sb  Sb9  1  0.664498  0.730337  0.440834  1
  Sb  Sb10  1  0.835502  0.230337  0.059166  1
  Sb  Sb11  1  0.335502  0.269663  0.559166  1
  Sb  Sb12  1  0.112496  0.908745  0.102818  1
  Sb  Sb13  1  0.612496  0.591255  0.602818  1
  Sb  Sb14  1  0.887504  0.091255  0.897182  1
  Sb  Sb15  1  0.387504  0.408745  0.397182  1
  Sb  Sb16  1  0.048192  0.981707  0.300698  1
  Sb  Sb17  1  0.548192  0.518293  0.800698  1
  Sb  Sb18  1  0.951808  0.018293  0.699302  1
  Sb  Sb19  1  0.451807  0.481707  0.199302  1
  Sb  Sb20  1  0.910467  0.157015  0.270166  1
  Sb  Sb21  1  0.410467  0.342985  0.770166  1
  Sb  Sb22  1  0.089533  0.842985  0.729834  1
  Sb  Sb23  1  0.589533  0.657015  0.229834  1
  H  H24  1  0.712255  0.886964  0.951810  1
  H  H25  1  0.212255  0.613036  0.451810  1
  H  H26  1  0.287745  0.113036  0.048190  1
  H  H27  1  0.787745  0.386964  0.548190  1
  H  H28  1  0.438505  0.822870  0.779742  1
  H  H29  1  0.938505  0.677130  0.279742  1
  H  H30  1  0.561495  0.177130  0.220258  1
  H  H31  1  0.061495  0.322870  0.720258  1
  H  H32  1  0.562986  0.793480  0.762732  1
  H  H33  1  0.062986  0.706520  0.262732  1
  H  H34  1  0.437014  0.206520  0.237268  1
  H  H35  1  0.937014  0.293480  0.737268  1
  C  C36  1  0.514357  0.845174  0.783145  1
  C  C37  1  0.014357  0.654826  0.283145  1
  C  C38  1  0.485643  0.154826  0.216855  1
  C  C39  1  0.985643  0.345174  0.716855  1
  Cl  Cl40  1  0.792731  0.799317  0.777940  1
  Cl  Cl41  1  0.292731  0.700683  0.277940  1
  Cl  Cl42  1  0.207269  0.200683  0.222060  1
  Cl  Cl43  1  0.707269  0.299317  0.722060  1
  Cl  Cl44  1  0.893070  0.706565  0.985632  1
  Cl  Cl45  1  0.393070  0.793435  0.485632  1
  Cl  Cl46  1  0.106930  0.293435  0.014368  1
  Cl  Cl47  1  0.606930  0.206565  0.514368  1
  Cl  Cl48  1  0.679738  0.000030  0.123174  1
  Cl  Cl49  1  0.179738  0.499970  0.623174  1
  Cl  Cl50  1  0.320262  -0.000030  0.876826  1
  Cl  Cl51  1  0.820262  0.500030  0.376826  1
  Cl  Cl52  1  0.828011  0.824414  0.186898  1
  Cl  Cl53  1  0.328011  0.675586  0.686898  1
  Cl  Cl54  1  0.171989  0.175586  0.813102  1
  Cl  Cl55  1  0.671989  0.324414  0.313102  1
  Cl  Cl56  1  0.328865  0.758616  0.004595  1
  Cl  Cl57  1  0.828865  0.741384  0.504595  1
  Cl  Cl58  1  0.671135  0.241384  0.995405  1
  Cl  Cl59  1  0.171135  0.258616  0.495405  1
  Cl  Cl60  1  0.133096  0.619088  0.916088  1
  Cl  Cl61  1  0.633096  0.880912  0.416088  1
  Cl  Cl62  1  0.866904  0.380912  0.083912  1
  Cl  Cl63  1  0.366904  0.119088  0.583912  1
  Cl  Cl64  1  0.277834  0.917193  0.168092  1
  Cl  Cl65  1  0.777834  0.582807  0.668091  1
  Cl  Cl66  1  0.722166  0.082807  0.831909  1
  Cl  Cl67  1  0.222166  0.417193  0.331908  1
  Cl  Cl68  1  0.206504  0.982880  0.382473  1
  Cl  Cl69  1  0.706504  0.517120  0.882473  1
  Cl  Cl70  1  0.793496  0.017120  0.617527  1
  Cl  Cl71  1  0.293496  0.482880  0.117527  1
  Cl  Cl72  1  0.970080  0.907558  0.411556  1
  Cl  Cl73  1  0.470080  0.592442  0.911556  1
  Cl  Cl74  1  0.029920  0.092442  0.588444  1
  Cl  Cl75  1  0.529920  0.407558  0.088444  1
  Cl  Cl76  1  0.952562  0.298935  0.329671  1
  Cl  Cl77  1  0.452562  0.201065  0.829671  1
  Cl  Cl78  1  0.047438  0.701065  0.670329  1
  Cl  Cl79  1  0.547438  0.798935  0.170329  1
  Cl  Cl80  1  0.811181  0.113414  0.382175  1
  Cl  Cl81  1  0.311181  0.386586  0.882175  1
  Cl  Cl82  1  0.188819  0.886586  0.617825  1
  Cl  Cl83  1  0.688819  0.613414  0.117825  1
  Cl  Cl84  1  0.552473  0.871302  0.905854  1
  Cl  Cl85  1  0.052473  0.628698  0.405854  1
  Cl  Cl86  1  0.447527  0.128698  0.094146  1
  Cl  Cl87  1  0.947527  0.371302  0.594146  1
  Cl  Cl88  1  0.517958  0.938466  0.708535  1
  Cl  Cl89  1  0.017958  0.561534  0.208535  1
  Cl  Cl90  1  0.482042  0.061534  0.291465  1
  Cl  Cl91  1  0.982042  0.438466  0.791465  1
  O  O92  1  0.783159  0.895719  0.974434  1
  O  O93  1  0.283159  0.604281  0.474434  1
  O  O94  1  0.216841  0.104281  0.025566  1
  O  O95  1  0.716841  0.395719  0.525566  1
  O  O96  1  0.204715  0.810961  0.820947  1
  O  O97  1  0.704715  0.689039  0.320947  1
  O  O98  1  0.795285  0.189039  0.179053  1
  O  O99  1  0.295285  0.310961  0.679053  1
  O  O100  1  0.112690  0.782548  0.061547  1
  O  O101  1  0.612690  0.717452  0.561547  1
  O  O102  1  0.887310  0.217452  0.938453  1
  O  O103  1  0.387310  0.282548  0.438453  1
  O  O104  1  0.061417  0.876431  0.221573  1
  O  O105  1  0.561417  0.623569  0.721573  1
  O  O106  1  0.938583  0.123569  0.778427  1
  O  O107  1  0.438583  0.376431  0.278427  1
  O  O108  1  0.036004  0.108596  0.331404  1
  O  O109  1  0.536004  0.391404  0.831404  1
  O  O110  1  0.963996  0.891404  0.668596  1
  O  O111  1  0.463996  0.608596  0.168596  1
  O  O112  1  0.959331  0.909145  0.038777  1
  O  O113  1  0.459331  0.590855  0.538777  1
  O  O114  1  0.040669  0.090855  0.961223  1
  O  O115  1  0.540669  0.409145  0.461223  1
  O  O116  1  0.027726  0.809008  0.861211  1
  O  O117  1  0.527726  0.690992  0.361211  1
  O  O118  1  0.972274  0.190992  0.138789  1
  O  O119  1  0.472274  0.309008  0.638789  1
  O  O120  1  0.853053  0.070577  0.028805  1
  O  O121  1  0.353053  0.429423  0.528805  1
  O  O122  1  0.146947  0.929423  0.971195  1
  O  O123  1  0.646947  0.570577  0.471195  1
  O  O124  1  0.910998  0.966181  0.849682  1
  O  O125  1  0.410998  0.533819  0.349682  1
  O  O126  1  0.089002  0.033819  0.150318  1
  O  O127  1  0.589002  0.466181  0.650318  1
  O  O128  1  0.911040  0.018433  0.218969  1
  O  O129  1  0.411040  0.481567  0.718969  1
  O  O130  1  0.088960  0.981567  0.781031  1
  O  O131  1  0.588960  0.518433  0.281031  1
