# generated using pymatgen
data_Li2MnV(PO4)3
_symmetry_space_group_name_H-M   'P 1'
_cell_length_a   9.19031292
_cell_length_b   8.32259297
_cell_length_c   8.32148870
_cell_angle_alpha   61.14885731
_cell_angle_beta   62.22263937
_cell_angle_gamma   92.49859666
_symmetry_Int_Tables_number   1
_chemical_formula_structural   Li2MnV(PO4)3
_chemical_formula_sum   'Li4 Mn2 V2 P6 O24'
_cell_volume   462.69676906
_cell_formula_units_Z   2
loop_
 _symmetry_equiv_pos_site_id
 _symmetry_equiv_pos_as_xyz
  1  'x, y, z'
loop_
 _atom_site_type_symbol
 _atom_site_label
 _atom_site_symmetry_multiplicity
 _atom_site_fract_x
 _atom_site_fract_y
 _atom_site_fract_z
 _atom_site_occupancy
  Li  Li0  1  0.139792  0.748843  0.172325  1
  Li  Li1  1  0.362774  0.189479  0.375463  1
  Li  Li2  1  0.861304  0.924670  0.407742  1
  Li  Li3  1  0.877792  0.242571  0.820409  1
  Mn  Mn4  1  0.569104  0.854026  0.285854  1
  Mn  Mn5  1  0.438130  0.144651  0.710551  1
  V  V6  1  0.046575  0.352136  0.299567  1
  V  V7  1  0.957465  0.647198  0.704274  1
  P  P8  1  0.249966  0.048438  0.206797  1
  P  P9  1  0.246178  0.465042  0.493877  1
  P  P10  1  0.259883  0.748439  0.777750  1
  P  P11  1  0.750051  0.248903  0.215405  1
  P  P12  1  0.759145  0.535965  0.502467  1
  P  P13  1  0.747640  0.956879  0.788924  1
  O  O14  1  0.094414  0.844627  0.371012  1
  O  O15  1  0.272792  0.118217  0.986513  1
  O  O16  1  0.187945  0.188611  0.279610  1
  O  O17  1  0.195120  0.505302  0.324141  1
  O  O18  1  0.089423  0.463836  0.685786  1
  O  O19  1  0.124117  0.777583  0.709717  1
  O  O20  1  0.410039  0.037114  0.216596  1
  O  O21  1  0.267557  0.266068  0.584662  1
  O  O22  1  0.416330  0.629370  0.367477  1
  O  O23  1  0.187582  0.537684  0.983517  1
  O  O24  1  0.266266  0.889347  0.847397  1
  O  O25  1  0.437225  0.792055  0.586265  1
  O  O26  1  0.567392  0.203623  0.405344  1
  O  O27  1  0.740157  0.113354  0.140249  1
  O  O28  1  0.816112  0.463038  0.021175  1
  O  O29  1  0.587186  0.375564  0.627890  1
  O  O30  1  0.749741  0.739791  0.392656  1
  O  O31  1  0.581339  0.967524  0.797706  1
  O  O32  1  0.880565  0.205187  0.288167  1
  O  O33  1  0.913244  0.527412  0.318120  1
  O  O34  1  0.810299  0.505129  0.671112  1
  O  O35  1  0.821764  0.827401  0.706477  1
  O  O36  1  0.733390  0.890624  0.004599  1
  O  O37  1  0.896279  0.170252  0.618096  1
