# generated using pymatgen
data_H3SNO4
_symmetry_space_group_name_H-M   'P 1'
_cell_length_a   6.50176405
_cell_length_b   10.94604086
_cell_length_c   5.11663972
_cell_angle_alpha   90.00000000
_cell_angle_beta   90.16849953
_cell_angle_gamma   90.00000000
_symmetry_Int_Tables_number   1
_chemical_formula_structural   H3SNO4
_chemical_formula_sum   'H12 S4 N4 O16'
_cell_volume   364.14238245
_cell_formula_units_Z   4
loop_
 _symmetry_equiv_pos_site_id
 _symmetry_equiv_pos_as_xyz
  1  'x, y, z'
loop_
 _atom_site_type_symbol
 _atom_site_label
 _atom_site_symmetry_multiplicity
 _atom_site_fract_x
 _atom_site_fract_y
 _atom_site_fract_z
 _atom_site_occupancy
  H  H0  1  0.177129  0.591334  0.634496  1
  H  H1  1  0.677129  0.908666  0.134496  1
  H  H2  1  0.822871  0.408666  0.365504  1
  H  H3  1  0.322871  0.091334  0.865504  1
  H  H4  1  0.129820  0.627801  0.957169  1
  H  H5  1  0.629820  0.872199  0.457169  1
  H  H6  1  0.870180  0.372199  0.042831  1
  H  H7  1  0.370180  0.127801  0.542831  1
  H  H8  1  0.201285  0.739496  0.738966  1
  H  H9  1  0.701285  0.760504  0.238966  1
  H  H10  1  0.798715  0.260504  0.261034  1
  H  H11  1  0.298715  0.239496  0.761034  1
  S  S12  1  0.734112  0.590132  0.807784  1
  S  S13  1  0.234112  0.909868  0.307784  1
  S  S14  1  0.265888  0.409868  0.192216  1
  S  S15  1  0.765888  0.090132  0.692216  1
  N  N16  1  0.121080  0.657525  0.763091  1
  N  N17  1  0.621080  0.842475  0.263091  1
  N  N18  1  0.878920  0.342475  0.236909  1
  N  N19  1  0.378920  0.157525  0.736909  1
  O  O20  1  0.801047  0.469463  0.719150  1
  O  O21  1  0.301047  0.030537  0.219150  1
  O  O22  1  0.198953  0.530536  0.280850  1
  O  O23  1  0.698953  0.969464  0.780850  1
  O  O24  1  0.556888  0.643747  0.681879  1
  O  O25  1  0.056888  0.856253  0.181879  1
  O  O26  1  0.443112  0.356253  0.318121  1
  O  O27  1  0.943112  0.143747  0.818121  1
  O  O28  1  0.915342  0.688559  0.688856  1
  O  O29  1  0.415342  0.811441  0.188856  1
  O  O30  1  0.084658  0.311441  0.311144  1
  O  O31  1  0.584658  0.188559  0.811144  1
  O  O32  1  0.747604  0.603805  0.091028  1
  O  O33  1  0.247604  0.896195  0.591028  1
  O  O34  1  0.252396  0.396195  0.908972  1
  O  O35  1  0.752396  0.103805  0.408972  1
