# generated using pymatgen
data_KH(IO3)2
_symmetry_space_group_name_H-M   'P 1'
_cell_length_a   8.69030695
_cell_length_b   7.59578078
_cell_length_c   19.73455891
_cell_angle_alpha   90.00000000
_cell_angle_beta   90.00000000
_cell_angle_gamma   90.00000000
_symmetry_Int_Tables_number   1
_chemical_formula_structural   KH(IO3)2
_chemical_formula_sum   'K8 H8 I16 O48'
_cell_volume   1302.67165224
_cell_formula_units_Z   8
loop_
 _symmetry_equiv_pos_site_id
 _symmetry_equiv_pos_as_xyz
  1  'x, y, z'
loop_
 _atom_site_type_symbol
 _atom_site_label
 _atom_site_symmetry_multiplicity
 _atom_site_fract_x
 _atom_site_fract_y
 _atom_site_fract_z
 _atom_site_occupancy
  K  K0  1  0.515411  0.520414  0.352931  1
  K  K1  1  0.484589  0.479586  0.852931  1
  K  K2  1  0.984589  0.520414  0.852931  1
  K  K3  1  0.015411  0.479586  0.352931  1
  K  K4  1  0.534958  0.994115  0.157118  1
  K  K5  1  0.465042  0.005885  0.657118  1
  K  K6  1  0.965042  0.994115  0.657118  1
  K  K7  1  0.034958  0.005885  0.157118  1
  H  H8  1  0.508399  0.756139  0.003885  1
  H  H9  1  0.491601  0.243861  0.503885  1
  H  H10  1  0.991601  0.756139  0.503885  1
  H  H11  1  0.008399  0.243861  0.003885  1
  H  H12  1  0.260052  0.730991  0.263118  1
  H  H13  1  0.739948  0.269009  0.763118  1
  H  H14  1  0.239948  0.730991  0.763118  1
  H  H15  1  0.760052  0.269009  0.263118  1
  I  I16  1  0.828140  0.809577  0.000738  1
  I  I17  1  0.171859  0.190423  0.500738  1
  I  I18  1  0.671860  0.809577  0.500738  1
  I  I19  1  0.328141  0.190423  0.000738  1
  I  I20  1  0.725545  0.309953  0.004519  1
  I  I21  1  0.274455  0.690047  0.504519  1
  I  I22  1  0.774455  0.309953  0.504519  1
  I  I23  1  0.225545  0.690047  0.004519  1
  I  I24  1  0.816933  0.947995  0.330781  1
  I  I25  1  0.183067  0.052005  0.830781  1
  I  I26  1  0.683067  0.947995  0.830781  1
  I  I27  1  0.316933  0.052005  0.330781  1
  I  I28  1  0.753696  0.537761  0.188826  1
  I  I29  1  0.246304  0.462239  0.688826  1
  I  I30  1  0.746304  0.537761  0.688826  1
  I  I31  1  0.253696  0.462239  0.188826  1
  O  O32  1  0.649790  0.723619  0.960853  1
  O  O33  1  0.350210  0.276381  0.460853  1
  O  O34  1  0.850210  0.723619  0.460853  1
  O  O35  1  0.149790  0.276381  0.960853  1
  O  O36  1  0.941499  0.605320  0.986486  1
  O  O37  1  0.058501  0.394680  0.486486  1
  O  O38  1  0.558501  0.605320  0.486486  1
  O  O39  1  0.441499  0.394680  0.986486  1
  O  O40  1  0.787182  0.781582  0.091019  1
  O  O41  1  0.212818  0.218418  0.591019  1
  O  O42  1  0.712818  0.781582  0.591019  1
  O  O43  1  0.287182  0.218418  0.091019  1
  O  O44  1  0.624640  0.103201  0.024676  1
  O  O45  1  0.375360  0.896799  0.524676  1
  O  O46  1  0.875360  0.103201  0.524676  1
  O  O47  1  0.124640  0.896799  0.024676  1
  O  O48  1  0.917163  0.210216  0.035470  1
  O  O49  1  0.082837  0.789784  0.535470  1
  O  O50  1  0.582837  0.210216  0.535470  1
  O  O51  1  0.417163  0.789784  0.035470  1
  O  O52  1  0.753519  0.279768  0.914181  1
  O  O53  1  0.246481  0.720232  0.414181  1
  O  O54  1  0.746481  0.279768  0.414181  1
  O  O55  1  0.253519  0.720232  0.914181  1
  O  O56  1  0.771911  0.080427  0.255062  1
  O  O57  1  0.228089  0.919573  0.755062  1
  O  O58  1  0.728089  0.080427  0.755062  1
  O  O59  1  0.271911  0.919573  0.255062  1
  O  O60  1  0.623042  0.876060  0.356342  1
  O  O61  1  0.376958  0.123940  0.856342  1
  O  O62  1  0.876958  0.876060  0.856342  1
  O  O63  1  0.123042  0.123940  0.356342  1
  O  O64  1  0.891528  0.757560  0.285312  1
  O  O65  1  0.108472  0.242440  0.785312  1
  O  O66  1  0.608472  0.757560  0.785312  1
  O  O67  1  0.391528  0.242440  0.285312  1
  O  O68  1  0.690917  0.354021  0.135282  1
  O  O69  1  0.309083  0.645979  0.635282  1
  O  O70  1  0.809083  0.354021  0.635282  1
  O  O71  1  0.190917  0.645979  0.135282  1
  O  O72  1  0.755424  0.407270  0.271738  1
  O  O73  1  0.244576  0.592730  0.771738  1
  O  O74  1  0.744576  0.407270  0.771738  1
  O  O75  1  0.255424  0.592730  0.271738  1
  O  O76  1  0.573273  0.647983  0.204362  1
  O  O77  1  0.426727  0.352017  0.704362  1
  O  O78  1  0.926727  0.647983  0.704362  1
  O  O79  1  0.073273  0.352017  0.204362  1
