# generated using pymatgen
data_Y6O5F8
_symmetry_space_group_name_H-M   'P 1'
_cell_length_a   5.52527159
_cell_length_b   9.18223166
_cell_length_c   5.51818127
_cell_angle_alpha   107.50201850
_cell_angle_beta   89.89461982
_cell_angle_gamma   90.03795442
_symmetry_Int_Tables_number   1
_chemical_formula_structural   Y6O5F8
_chemical_formula_sum   'Y6 O5 F8'
_cell_volume   267.00031774
_cell_formula_units_Z   1
loop_
 _symmetry_equiv_pos_site_id
 _symmetry_equiv_pos_as_xyz
  1  'x, y, z'
loop_
 _atom_site_type_symbol
 _atom_site_label
 _atom_site_symmetry_multiplicity
 _atom_site_fract_x
 _atom_site_fract_y
 _atom_site_fract_z
 _atom_site_occupancy
  Y  Y0  1  0.788443  0.492653  0.229167  1
  Y  Y1  1  0.798069  0.168158  0.582892  1
  Y  Y2  1  0.787190  0.843509  0.941615  1
  Y  Y3  1  0.201778  0.168234  0.085242  1
  Y  Y4  1  0.212871  0.843569  0.401764  1
  Y  Y5  1  0.211783  0.492542  0.763281  1
  O  O6  1  0.000010  0.988734  0.744217  1
  O  O7  1  -0.000005  0.008678  0.254240  1
  O  O8  1  0.999950  0.326495  0.913186  1
  O  O9  1  0.999870  0.347328  0.423609  1
  O  O10  1  0.000066  0.667147  0.083600  1
  F  F11  1  0.500234  0.098063  0.799419  1
  F  F12  1  0.500032  0.676110  0.087549  1
  F  F13  1  0.500099  0.967531  0.233868  1
  F  F14  1  0.499952  0.814068  0.656996  1
  F  F15  1  0.499835  0.382918  0.941705  1
  F  F16  1  0.499575  0.253319  0.377236  1
  F  F17  1  0.500117  0.536736  0.518288  1
  F  F18  1  0.000128  0.668122  0.584086  1
