# generated using pymatgen
data_Ca3W2O9
_symmetry_space_group_name_H-M   'P 1'
_cell_length_a   8.68227858
_cell_length_b   15.84669434
_cell_length_c   7.83319048
_cell_angle_alpha   90.00000000
_cell_angle_beta   90.00000000
_cell_angle_gamma   90.00000000
_symmetry_Int_Tables_number   1
_chemical_formula_structural   Ca3W2O9
_chemical_formula_sum   'Ca12 W8 O36'
_cell_volume   1077.73276165
_cell_formula_units_Z   4
loop_
 _symmetry_equiv_pos_site_id
 _symmetry_equiv_pos_as_xyz
  1  'x, y, z'
loop_
 _atom_site_type_symbol
 _atom_site_label
 _atom_site_symmetry_multiplicity
 _atom_site_fract_x
 _atom_site_fract_y
 _atom_site_fract_z
 _atom_site_occupancy
  Ca  Ca0  1  0.000337  0.001675  0.746128  1
  Ca  Ca1  1  0.212087  0.139422  0.999425  1
  Ca  Ca2  1  0.191301  0.421539  0.494968  1
  Ca  Ca3  1  0.308699  0.921539  0.994968  1
  Ca  Ca4  1  0.287913  0.639422  0.499425  1
  Ca  Ca5  1  0.499663  0.501675  0.246128  1
  Ca  Ca6  1  0.500337  0.498325  0.746128  1
  Ca  Ca7  1  0.712087  0.360578  0.999425  1
  Ca  Ca8  1  0.691301  0.078461  0.494968  1
  Ca  Ca9  1  0.808699  0.578461  0.994968  1
  Ca  Ca10  1  0.787913  0.860578  0.499425  1
  Ca  Ca11  1  0.999663  0.998325  0.246128  1
  W  W12  1  0.156099  0.394607  0.996068  1
  W  W13  1  0.255569  0.667277  0.996544  1
  W  W14  1  0.244431  0.167277  0.496544  1
  W  W15  1  0.343901  0.894607  0.496068  1
  W  W16  1  0.656099  0.105393  0.996068  1
  W  W17  1  0.755569  0.832723  0.996544  1
  W  W18  1  0.744431  0.332723  0.496544  1
  W  W19  1  0.843901  0.605393  0.496068  1
  O  O20  1  0.067324  0.618131  0.994552  1
  O  O21  1  0.048841  0.579586  0.494684  1
  O  O22  1  0.113108  0.013627  0.996668  1
  O  O23  1  0.140983  0.132817  0.304385  1
  O  O24  1  0.145085  0.134504  0.692515  1
  O  O25  1  0.178979  0.282130  0.001300  1
  O  O26  1  0.231889  0.780167  0.994074  1
  O  O27  1  0.247918  0.437006  0.186647  1
  O  O28  1  0.251962  0.933917  0.302783  1
  O  O29  1  0.248037  0.433917  0.802783  1
  O  O30  1  0.252082  0.937006  0.686647  1
  O  O31  1  0.268111  0.280167  0.494074  1
  O  O32  1  0.321021  0.782130  0.501300  1
  O  O33  1  0.354915  0.634504  0.192515  1
  O  O34  1  0.359017  0.632817  0.804385  1
  O  O35  1  0.386892  0.513627  0.496668  1
  O  O36  1  0.451159  0.079586  0.994684  1
  O  O37  1  0.432676  0.118131  0.494552  1
  O  O38  1  0.567324  0.881869  0.994552  1
  O  O39  1  0.548841  0.920414  0.494684  1
  O  O40  1  0.613108  0.486373  0.996668  1
  O  O41  1  0.640983  0.367183  0.304385  1
  O  O42  1  0.645085  0.365496  0.692515  1
  O  O43  1  0.678979  0.217870  0.001300  1
  O  O44  1  0.731889  0.719833  0.994074  1
  O  O45  1  0.747918  0.062994  0.186647  1
  O  O46  1  0.751962  0.566083  0.302783  1
  O  O47  1  0.748038  0.066083  0.802783  1
  O  O48  1  0.752082  0.562994  0.686647  1
  O  O49  1  0.768111  0.219833  0.494074  1
  O  O50  1  0.821021  0.717870  0.501300  1
  O  O51  1  0.854915  0.865496  0.192515  1
  O  O52  1  0.859017  0.867183  0.804385  1
  O  O53  1  0.886892  0.986373  0.496668  1
  O  O54  1  0.951159  0.420414  0.994684  1
  O  O55  1  0.932676  0.381869  0.494552  1
