# generated using pymatgen
data_Li2VSiO5
_symmetry_space_group_name_H-M   'P 1'
_cell_length_a   13.22977949
_cell_length_b   12.69450943
_cell_length_c   5.06846364
_cell_angle_alpha   90.00000000
_cell_angle_beta   90.00000000
_cell_angle_gamma   60.70430340
_symmetry_Int_Tables_number   1
_chemical_formula_structural   Li2VSiO5
_chemical_formula_sum   'Li16 V8 Si8 O40'
_cell_volume   742.35929538
_cell_formula_units_Z   8
loop_
 _symmetry_equiv_pos_site_id
 _symmetry_equiv_pos_as_xyz
  1  'x, y, z'
loop_
 _atom_site_type_symbol
 _atom_site_label
 _atom_site_symmetry_multiplicity
 _atom_site_fract_x
 _atom_site_fract_y
 _atom_site_fract_z
 _atom_site_occupancy
  Li  Li0  1  0.328481  0.823942  0.724278  1
  Li  Li1  1  0.086040  0.568321  0.772048  1
  Li  Li2  1  0.173858  0.649703  0.206756  1
  Li  Li3  1  0.584127  0.845262  0.721330  1
  Li  Li4  1  0.415873  0.654738  0.221330  1
  Li  Li5  1  0.826142  0.850297  0.706755  1
  Li  Li6  1  0.328481  0.323942  0.775722  1
  Li  Li7  1  0.086040  0.068321  0.727952  1
  Li  Li8  1  0.913960  0.931679  0.272048  1
  Li  Li9  1  0.671519  0.676058  0.224278  1
  Li  Li10  1  0.173858  0.149703  0.293244  1
  Li  Li11  1  0.584127  0.345262  0.778670  1
  Li  Li12  1  0.415873  0.154738  0.278670  1
  Li  Li13  1  0.826142  0.350297  0.793245  1
  Li  Li14  1  0.913960  0.431679  0.227952  1
  Li  Li15  1  0.671519  0.176058  0.275722  1
  V  V16  1  0.062139  0.808419  0.736131  1
  V  V17  1  0.437399  0.870766  0.267510  1
  V  V18  1  0.062139  0.308419  0.763869  1
  V  V19  1  0.562601  0.629234  0.767510  1
  V  V20  1  0.437399  0.370766  0.232490  1
  V  V21  1  0.937861  0.691581  0.236131  1
  V  V22  1  0.562601  0.129234  0.732490  1
  V  V23  1  0.937861  0.191581  0.263869  1
  Si  Si24  1  0.161579  0.904581  0.223861  1
  Si  Si25  1  0.661412  0.930096  0.218999  1
  Si  Si26  1  0.161579  0.404581  0.276139  1
  Si  Si27  1  0.338588  0.569904  0.718999  1
  Si  Si28  1  0.661412  0.430096  0.281001  1
  Si  Si29  1  0.838421  0.595419  0.723861  1
  Si  Si30  1  0.338588  0.069904  0.781001  1
  Si  Si31  1  0.838421  0.095419  0.776139  1
  O  O32  1  0.135870  0.902022  0.903837  1
  O  O33  1  0.001250  0.783478  0.025204  1
  O  O34  1  0.119667  0.822206  0.394219  1
  O  O35  1  0.392422  0.943896  0.611596  1
  O  O36  1  0.300772  0.842498  0.279249  1
  O  O37  1  0.094745  0.543781  0.163456  1
  O  O38  1  0.200911  0.644552  0.796608  1
  O  O39  1  0.642423  0.959912  0.898336  1
  O  O40  1  0.488439  0.785768  0.975681  1
  O  O41  1  0.135870  0.402022  0.596163  1
  O  O42  1  0.001250  0.283478  0.474796  1
  O  O43  1  0.597822  0.854055  0.317784  1
  O  O44  1  0.402178  0.645945  0.817784  1
  O  O45  1  0.119667  0.322206  0.105781  1
  O  O46  1  0.511561  0.714232  0.475681  1
  O  O47  1  0.357577  0.540088  0.398336  1
  O  O48  1  0.392422  0.443896  0.888404  1
  O  O49  1  0.300772  0.342498  0.220751  1
  O  O50  1  0.799089  0.855448  0.296608  1
  O  O51  1  0.905255  0.956219  0.663456  1
  O  O52  1  0.094745  0.043781  0.336544  1
  O  O53  1  0.200911  0.144552  0.703392  1
  O  O54  1  0.699228  0.657502  0.779249  1
  O  O55  1  0.607578  0.556104  0.111596  1
  O  O56  1  0.642423  0.459912  0.601664  1
  O  O57  1  0.488439  0.285768  0.524319  1
  O  O58  1  0.880333  0.677794  0.894219  1
  O  O59  1  0.597822  0.354055  0.182216  1
  O  O60  1  0.402178  0.145945  0.682216  1
  O  O61  1  0.998750  0.716522  0.525204  1
  O  O62  1  0.864130  0.597978  0.403837  1
  O  O63  1  0.511561  0.214232  0.024319  1
  O  O64  1  0.357577  0.040088  0.101664  1
  O  O65  1  0.799089  0.355448  0.203392  1
  O  O66  1  0.905255  0.456219  0.836544  1
  O  O67  1  0.699228  0.157502  0.720751  1
  O  O68  1  0.607578  0.056104  0.388404  1
  O  O69  1  0.880333  0.177794  0.605781  1
  O  O70  1  0.998750  0.216522  0.974796  1
  O  O71  1  0.864130  0.097978  0.096163  1
