# generated using pymatgen
data_Li4Cr3FeO8
_symmetry_space_group_name_H-M   'P 1'
_cell_length_a   5.11551503
_cell_length_b   5.87789037
_cell_length_c   5.08819825
_cell_angle_alpha   89.99997506
_cell_angle_beta   70.62822908
_cell_angle_gamma   90.00001408
_symmetry_Int_Tables_number   1
_chemical_formula_structural   Li4Cr3FeO8
_chemical_formula_sum   'Li4 Cr3 Fe1 O8'
_cell_volume   144.33258459
_cell_formula_units_Z   1
loop_
 _symmetry_equiv_pos_site_id
 _symmetry_equiv_pos_as_xyz
  1  'x, y, z'
loop_
 _atom_site_type_symbol
 _atom_site_label
 _atom_site_symmetry_multiplicity
 _atom_site_fract_x
 _atom_site_fract_y
 _atom_site_fract_z
 _atom_site_occupancy
  Li  Li0  1  0.000000  0.000000  0.000000  1
  Li  Li1  1  0.000000  0.500000  0.000000  1
  Li  Li2  1  1.000000  0.248697  0.500000  1
  Li  Li3  1  0.000000  0.751303  0.500000  1
  Cr  Cr4  1  0.500000  0.247983  0.000000  1
  Cr  Cr5  1  0.500000  0.752017  1.000000  1
  Cr  Cr6  1  0.500000  0.500000  0.500000  1
  Fe  Fe7  1  0.500000  0.000000  0.500000  1
  O  O8  1  0.275377  0.000001  0.246364  1
  O  O9  1  0.273111  0.500000  0.241703  1
  O  O10  1  0.724847  0.246427  0.260453  1
  O  O11  1  0.275154  0.246427  0.739545  1
  O  O12  1  0.724847  0.753573  0.260454  1
  O  O13  1  0.724623  1.000000  0.753636  1
  O  O14  1  0.275153  0.753573  0.739547  1
  O  O15  1  0.726888  0.500000  0.758297  1
