# generated using pymatgen
data_Hf2N2O
_symmetry_space_group_name_H-M   'P 1'
_cell_length_a   13.78789619
_cell_length_b   3.26584427
_cell_length_c   8.10978533
_cell_angle_alpha   90.00000000
_cell_angle_beta   98.60845135
_cell_angle_gamma   90.00000000
_symmetry_Int_Tables_number   1
_chemical_formula_structural   Hf2N2O
_chemical_formula_sum   'Hf12 N12 O6'
_cell_volume   361.06254685
_cell_formula_units_Z   6
loop_
 _symmetry_equiv_pos_site_id
 _symmetry_equiv_pos_as_xyz
  1  'x, y, z'
loop_
 _atom_site_type_symbol
 _atom_site_label
 _atom_site_symmetry_multiplicity
 _atom_site_fract_x
 _atom_site_fract_y
 _atom_site_fract_z
 _atom_site_occupancy
  Hf  Hf0  1  0.006604  0.250000  0.179243  1
  Hf  Hf1  1  0.118634  0.250000  0.544070  1
  Hf  Hf2  1  0.221827  0.750000  0.181081  1
  Hf  Hf3  1  0.283859  0.750000  0.819170  1
  Hf  Hf4  1  0.387975  0.250000  0.491323  1
  Hf  Hf5  1  0.433982  0.250000  0.133087  1
  Hf  Hf6  1  0.575047  0.750000  0.884965  1
  Hf  Hf7  1  0.616093  0.750000  0.516952  1
  Hf  Hf8  1  0.719885  0.250000  0.184614  1
  Hf  Hf9  1  0.781597  0.250000  0.822451  1
  Hf  Hf10  1  0.880192  0.750000  0.452897  1
  Hf  Hf11  1  0.982252  0.750000  0.809321  1
  N  N12  1  0.180560  0.250000  0.317811  1
  N  N13  1  0.282835  0.250000  0.651200  1
  N  N14  1  0.267219  0.250000  0.007080  1
  N  N15  1  0.373215  0.750000  0.291308  1
  N  N16  1  0.627626  0.250000  0.699171  1
  N  N17  1  0.569299  0.250000  0.044648  1
  N  N18  1  0.728903  0.750000  0.989423  1
  N  N19  1  0.714947  0.750000  0.351756  1
  N  N20  1  0.818188  0.750000  0.680804  1
  N  N21  1  0.929366  0.250000  0.941626  1
  N  N22  1  0.873239  0.250000  0.277935  1
  N  N23  1  0.975616  0.250000  0.616044  1
  O  O24  1  0.032839  0.750000  0.377027  1
  O  O25  1  0.131294  0.750000  0.715820  1
  O  O26  1  0.071648  0.750000  0.059967  1
  O  O27  1  0.424025  0.750000  0.956882  1
  O  O28  1  0.460251  0.750000  0.622118  1
  O  O29  1  0.530984  0.250000  0.380208  1
