# generated using pymatgen
data_Na5Ni2P2(CO7)2
_symmetry_space_group_name_H-M   'P 1'
_cell_length_a   10.11685453
_cell_length_b   10.38428052
_cell_length_c   8.44879777
_cell_angle_alpha   108.93573775
_cell_angle_beta   72.43714231
_cell_angle_gamma   61.01041275
_symmetry_Int_Tables_number   1
_chemical_formula_structural   Na5Ni2P2(CO7)2
_chemical_formula_sum   'Na10 Ni4 P4 C4 O28'
_cell_volume   610.98782710
_cell_formula_units_Z   2
loop_
 _symmetry_equiv_pos_site_id
 _symmetry_equiv_pos_as_xyz
  1  'x, y, z'
loop_
 _atom_site_type_symbol
 _atom_site_label
 _atom_site_symmetry_multiplicity
 _atom_site_fract_x
 _atom_site_fract_y
 _atom_site_fract_z
 _atom_site_occupancy
  Na  Na0  1  0.755255  0.973702  0.486839  1
  Na  Na1  1  0.998096  0.739018  0.007210  1
  Na  Na2  1  0.744745  0.526298  0.513161  1
  Na  Na3  1  0.501904  0.760982  0.992790  1
  Na  Na4  1  0.775649  0.307978  0.751852  1
  Na  Na5  1  0.724351  0.192022  0.248148  1
  Na  Na6  1  0.479829  0.250986  0.014376  1
  Na  Na7  1  0.243950  0.496419  0.492604  1
  Na  Na8  1  0.020171  0.249014  0.985624  1
  Na  Na9  1  0.256050  0.003581  0.507396  1
  Ni  Ni10  1  0.839865  0.814131  0.751107  1
  Ni  Ni11  1  0.660135  0.685869  0.248893  1
  Ni  Ni12  1  0.342710  0.310878  0.748560  1
  Ni  Ni13  1  0.157290  0.189122  0.251440  1
  P  P14  1  0.474433  0.944169  0.749658  1
  P  P15  1  0.975173  0.443931  0.750357  1
  P  P16  1  0.025567  0.555831  0.250342  1
  P  P17  1  0.524827  0.056069  0.249643  1
  C  C18  1  0.947573  0.988163  0.750133  1
  C  C19  1  0.552427  0.511837  0.249867  1
  C  C20  1  0.450396  0.485175  0.749445  1
  C  C21  1  0.049604  0.014825  0.250555  1
  O  O22  1  0.988052  0.933645  0.252769  1
  O  O23  1  0.702851  0.978604  0.064044  1
  O  O24  1  0.979303  0.590353  0.751475  1
  O  O25  1  0.859844  0.685143  0.248075  1
  O  O26  1  0.640156  0.814857  0.751925  1
  O  O27  1  0.520697  0.909647  0.248525  1
  O  O28  1  0.487290  0.836393  0.561084  1
  O  O29  1  0.797149  0.521396  0.935956  1
  O  O30  1  0.980234  0.338288  0.566235  1
  O  O31  1  0.194111  0.966579  0.250909  1
  O  O32  1  0.699196  0.460162  0.249263  1
  O  O33  1  0.471904  0.652707  0.248228  1
  O  O34  1  0.964845  0.159134  0.252761  1
  O  O35  1  0.511948  0.566355  0.747231  1
  O  O36  1  0.498750  0.422945  0.247127  1
  O  O37  1  0.028096  0.847293  0.751772  1
  O  O38  1  0.535155  0.340866  0.747239  1
  O  O39  1  0.305889  0.533421  0.749091  1
  O  O40  1  0.800804  0.039838  0.750737  1
  O  O41  1  0.012710  0.663607  0.438916  1
  O  O42  1  0.202614  0.473707  0.062729  1
  O  O43  1  0.519766  0.161712  0.433765  1
  O  O44  1  0.481780  0.089348  0.748588  1
  O  O45  1  0.358737  0.187855  0.251800  1
  O  O46  1  0.141263  0.312145  0.748200  1
  O  O47  1  0.018220  0.410652  0.251412  1
  O  O48  1  0.297386  0.026293  0.937271  1
  O  O49  1  0.001250  0.077055  0.752873  1
