# generated using pymatgen
data_ReB3
_symmetry_space_group_name_H-M   'P 1'
_cell_length_a   3.14775800
_cell_length_b   3.14775801
_cell_length_c   7.62392834
_cell_angle_alpha   90.00000000
_cell_angle_beta   90.00000000
_cell_angle_gamma   119.99999994
_symmetry_Int_Tables_number   1
_chemical_formula_structural   ReB3
_chemical_formula_sum   'Re2 B6'
_cell_volume   65.42023669
_cell_formula_units_Z   2
loop_
 _symmetry_equiv_pos_site_id
 _symmetry_equiv_pos_as_xyz
  1  'x, y, z'
loop_
 _atom_site_type_symbol
 _atom_site_label
 _atom_site_symmetry_multiplicity
 _atom_site_fract_x
 _atom_site_fract_y
 _atom_site_fract_z
 _atom_site_occupancy
  B  B0  1  0.000000  0.000000  0.500000  1
  B  B1  1  0.000000  0.000000  0.000000  1
  B  B2  1  0.333333  0.666667  0.557043  1
  B  B3  1  0.666667  0.333333  0.057043  1
  B  B4  1  0.666667  0.333333  0.442957  1
  B  B5  1  0.333333  0.666667  0.942957  1
  Re  Re6  1  0.666667  0.333333  0.750000  1
  Re  Re7  1  0.333333  0.666667  0.250000  1
