# generated using pymatgen
data_Sr3La9Mn11NiO36
_symmetry_space_group_name_H-M   'P 1'
_cell_length_a   5.57836332
_cell_length_b   16.62142412
_cell_length_c   9.58407796
_cell_angle_alpha   54.70947336
_cell_angle_beta   89.95970115
_cell_angle_gamma   89.98030953
_symmetry_Int_Tables_number   1
_chemical_formula_structural   Sr3La9Mn11NiO36
_chemical_formula_sum   'Sr3 La9 Mn11 Ni1 O36'
_cell_volume   725.33639821
_cell_formula_units_Z   1
loop_
 _symmetry_equiv_pos_site_id
 _symmetry_equiv_pos_as_xyz
  1  'x, y, z'
loop_
 _atom_site_type_symbol
 _atom_site_label
 _atom_site_symmetry_multiplicity
 _atom_site_fract_x
 _atom_site_fract_y
 _atom_site_fract_z
 _atom_site_occupancy
  Sr  Sr0  1  0.004935  0.419514  0.749283  1
  Sr  Sr1  1  0.505760  0.415713  0.248851  1
  Sr  Sr2  1  0.505722  0.746676  0.251017  1
  La  La3  1  0.004654  0.085483  0.747226  1
  La  La4  1  0.003803  0.751907  0.750893  1
  La  La5  1  0.493426  0.256189  0.746962  1
  La  La6  1  0.492575  0.583624  0.749672  1
  La  La7  1  0.491202  0.918937  0.748850  1
  La  La8  1  0.505140  0.081560  0.252117  1
  La  La9  1  0.991745  0.248911  0.247791  1
  La  La10  1  0.992466  0.578704  0.254286  1
  La  La11  1  0.990358  0.912620  0.252458  1
  Mn  Mn12  1  0.000419  0.334054  0.498887  1
  Mn  Mn13  1  0.999039  0.666408  0.499226  1
  Mn  Mn14  1  0.001980  0.166397  0.000667  1
  Mn  Mn15  1  0.000176  0.499519  0.000486  1
  Mn  Mn16  1  0.996998  0.833066  0.000567  1
  Mn  Mn17  1  0.500541  0.167223  0.499239  1
  Mn  Mn18  1  0.499764  0.833381  0.500104  1
  Mn  Mn19  1  0.499565  0.500132  0.499837  1
  Mn  Mn20  1  0.499712  0.999809  0.000340  1
  Mn  Mn21  1  0.499354  0.334264  0.999106  1
  Mn  Mn22  1  0.501361  0.665987  0.001550  1
  Ni  Ni23  1  0.999401  -0.000033  0.499858  1
  O  O24  1  0.069628  0.086797  0.243797  1
  O  O25  1  0.053459  0.417697  0.250887  1
  O  O26  1  0.055543  0.754447  0.247526  1
  O  O27  1  0.249695  0.073714  0.540145  1
  O  O28  1  0.248012  0.405784  0.532029  1
  O  O29  1  0.246506  0.740057  0.540071  1
  O  O30  1  0.251160  0.260110  0.968135  1
  O  O31  1  0.244233  0.599642  0.959356  1
  O  O32  1  0.243566  0.933012  0.958372  1
  O  O33  1  0.259177  0.237196  0.541081  1
  O  O34  1  0.261850  0.903779  0.540041  1
  O  O35  1  0.259940  0.576942  0.532373  1
  O  O36  1  0.255636  0.098445  0.959977  1
  O  O37  1  0.263549  0.432021  0.966429  1
  O  O38  1  0.256943  0.765740  0.958783  1
  O  O39  1  0.430113  0.248141  0.250499  1
  O  O40  1  0.430136  0.583914  0.249244  1
  O  O41  1  0.428926  0.919948  0.249673  1
  O  O42  1  0.567912  0.083037  0.749732  1
  O  O43  1  0.553141  0.414401  0.750069  1
  O  O44  1  0.566819  0.748445  0.750782  1
  O  O45  1  0.743421  0.233757  0.040147  1
  O  O46  1  0.749904  0.573039  0.031578  1
  O  O47  1  0.749915  0.907093  0.030884  1
  O  O48  1  0.737698  0.096157  0.460427  1
  O  O49  1  0.749560  0.425489  0.470181  1
  O  O50  1  0.747124  0.761897  0.467929  1
  O  O51  1  0.755824  0.067570  0.041361  1
  O  O52  1  0.763099  0.401648  0.031866  1
  O  O53  1  0.762597  0.734167  0.033255  1
  O  O54  1  0.761447  0.255025  0.467873  1
  O  O55  1  0.749773  0.926210  0.460402  1
  O  O56  1  0.761644  0.590871  0.467780  1
  O  O57  1  0.930636  0.243874  0.753943  1
  O  O58  1  0.933621  0.586650  0.748086  1
  O  O59  1  0.927696  0.913237  0.756011  1
