# generated using pymatgen
data_Be(B3H8)2
_symmetry_space_group_name_H-M   'P 1'
_cell_length_a   11.50295459
_cell_length_b   7.67735295
_cell_length_c   12.23977246
_cell_angle_alpha   90.00000000
_cell_angle_beta   107.83231373
_cell_angle_gamma   90.00000000
_symmetry_Int_Tables_number   1
_chemical_formula_structural   Be(B3H8)2
_chemical_formula_sum   'Be4 B24 H64'
_cell_volume   1028.99084981
_cell_formula_units_Z   4
loop_
 _symmetry_equiv_pos_site_id
 _symmetry_equiv_pos_as_xyz
  1  'x, y, z'
loop_
 _atom_site_type_symbol
 _atom_site_label
 _atom_site_symmetry_multiplicity
 _atom_site_fract_x
 _atom_site_fract_y
 _atom_site_fract_z
 _atom_site_occupancy
  Be  Be0  1  0.508751  0.522818  0.220043  1
  Be  Be1  1  0.008751  0.977182  0.720043  1
  Be  Be2  1  0.491249  0.477182  0.779957  1
  Be  Be3  1  0.991249  0.022818  0.279957  1
  B  B4  1  0.457298  0.725430  0.291419  1
  B  B5  1  0.957298  0.774570  0.791419  1
  B  B6  1  0.542702  0.274570  0.708581  1
  B  B7  1  0.042702  0.225430  0.208581  1
  B  B8  1  0.298597  0.729900  0.202911  1
  B  B9  1  0.798597  0.770100  0.702911  1
  B  B10  1  0.701403  0.270100  0.797089  1
  B  B11  1  0.201403  0.229900  0.297089  1
  B  B12  1  0.424849  0.732896  0.141620  1
  B  B13  1  0.924849  0.767104  0.641620  1
  B  B14  1  0.575151  0.267104  0.858380  1
  B  B15  1  0.075151  0.232896  0.358380  1
  B  B16  1  0.536993  0.285079  0.224598  1
  B  B17  1  0.036993  0.214921  0.724598  1
  B  B18  1  0.463007  0.714921  0.775402  1
  B  B19  1  0.963007  0.785079  0.275402  1
  B  B20  1  0.647655  0.268171  0.374112  1
  B  B21  1  0.147655  0.231829  0.874112  1
  B  B22  1  0.352345  0.731829  0.625888  1
  B  B23  1  0.852345  0.768171  0.125888  1
  B  B24  1  0.667854  0.412063  0.294271  1
  B  B25  1  0.167854  0.087937  0.794271  1
  B  B26  1  0.332146  0.587937  0.705729  1
  B  B27  1  0.832146  0.912063  0.205729  1
  H  H28  1  0.511645  0.847178  0.344054  1
  H  H29  1  0.011645  0.652822  0.844054  1
  H  H30  1  0.488355  0.152822  0.655946  1
  H  H31  1  0.988355  0.347178  0.155946  1
  H  H32  1  0.099159  0.939525  0.053530  1
  H  H33  1  0.599159  0.560475  0.553530  1
  H  H34  1  0.900841  0.060475  0.946470  1
  H  H35  1  0.400841  0.439525  0.446470  1
  H  H36  1  0.462422  0.858967  0.106278  1
  H  H37  1  0.962422  0.641033  0.606278  1
  H  H38  1  0.537578  0.141033  0.893722  1
  H  H39  1  0.037578  0.358967  0.393722  1
  H  H40  1  0.234371  0.603262  0.190728  1
  H  H41  1  0.734371  0.896738  0.690728  1
  H  H42  1  0.765629  0.396738  0.809272  1
  H  H43  1  0.265629  0.103262  0.309272  1
  H  H44  1  0.361283  0.700430  0.319700  1
  H  H45  1  0.861283  0.799570  0.819700  1
  H  H46  1  0.638717  0.299570  0.680300  1
  H  H47  1  0.138717  0.200430  0.180300  1
  H  H48  1  0.310798  0.729839  0.090625  1
  H  H49  1  0.810798  0.770161  0.590625  1
  H  H50  1  0.689202  0.270161  0.909375  1
  H  H51  1  0.189202  0.229839  0.409375  1
  H  H52  1  0.448363  0.596302  0.095248  1
  H  H53  1  0.948363  0.903698  0.595248  1
  H  H54  1  0.551637  0.403698  0.904752  1
  H  H55  1  0.051637  0.096302  0.404752  1
  H  H56  1  0.504661  0.588092  0.338393  1
  H  H57  1  0.004661  0.911908  0.838393  1
  H  H58  1  0.495339  0.411908  0.661607  1
  H  H59  1  0.995339  0.088092  0.161607  1
  H  H60  1  0.528893  0.186538  0.146441  1
  H  H61  1  0.028893  0.313462  0.646441  1
  H  H62  1  0.471107  0.813462  0.853559  1
  H  H63  1  0.971107  0.686538  0.353559  1
  H  H64  1  0.324902  0.814924  0.539049  1
  H  H65  1  0.824902  0.685076  0.039049  1
  H  H66  1  0.675098  0.185076  0.460951  1
  H  H67  1  0.175098  0.314924  0.960951  1
  H  H68  1  0.247197  0.368569  0.293878  1
  H  H69  1  0.747197  0.131431  0.793878  1
  H  H70  1  0.752803  0.631431  0.706122  1
  H  H71  1  0.252803  0.868569  0.206122  1
  H  H72  1  0.391270  0.382763  0.492289  1
  H  H73  1  0.891270  0.117237  0.992289  1
  H  H74  1  0.608730  0.617237  0.507711  1
  H  H75  1  0.108730  0.882763  0.007711  1
  H  H76  1  0.551201  0.171273  0.310339  1
  H  H77  1  0.051201  0.328727  0.810339  1
  H  H78  1  0.448799  0.828727  0.689661  1
  H  H79  1  0.948799  0.671273  0.189661  1
  H  H80  1  0.732147  0.264123  0.312769  1
  H  H81  1  0.232147  0.235877  0.812769  1
  H  H82  1  0.267853  0.735877  0.687231  1
  H  H83  1  0.767853  0.764123  0.187231  1
  H  H84  1  0.725650  0.538900  0.285932  1
  H  H85  1  0.225650  0.961100  0.785932  1
  H  H86  1  0.274350  0.461100  0.714068  1
  H  H87  1  0.774350  0.038900  0.214068  1
  H  H88  1  0.433740  0.353394  0.215015  1
  H  H89  1  0.933740  0.146606  0.715015  1
  H  H90  1  0.566260  0.646606  0.784985  1
  H  H91  1  0.066260  0.853394  0.284985  1
