# generated using pymatgen
data_Li3Co2(PO4)3
_symmetry_space_group_name_H-M   'P 1'
_cell_length_a   8.41007118
_cell_length_b   8.48855379
_cell_length_c   8.48855400
_cell_angle_alpha   62.27185292
_cell_angle_beta   62.38991269
_cell_angle_gamma   62.38991158
_symmetry_Int_Tables_number   1
_chemical_formula_structural   Li3Co2(PO4)3
_chemical_formula_sum   'Li6 Co4 P6 O24'
_cell_volume   450.97120471
_cell_formula_units_Z   2
loop_
 _symmetry_equiv_pos_site_id
 _symmetry_equiv_pos_as_xyz
  1  'x, y, z'
loop_
 _atom_site_type_symbol
 _atom_site_label
 _atom_site_symmetry_multiplicity
 _atom_site_fract_x
 _atom_site_fract_y
 _atom_site_fract_z
 _atom_site_occupancy
  Li  Li0  1  0.021635  0.005078  0.992801  1
  Li  Li1  1  0.750000  0.149998  0.350002  1
  Li  Li2  1  0.478365  0.507199  0.494922  1
  Li  Li3  1  0.250000  0.847286  0.652714  1
  Li  Li4  1  0.655158  0.252521  0.844542  1
  Li  Li5  1  0.844842  0.655458  0.247479  1
  Co  Co6  1  0.145189  0.146857  0.137072  1
  Co  Co7  1  0.354811  0.362928  0.353143  1
  Co  Co8  1  0.647043  0.648331  0.647751  1
  Co  Co9  1  0.852957  0.852249  0.851669  1
  P  P10  1  0.049601  0.751528  0.449816  1
  P  P11  1  0.450399  0.050184  0.748472  1
  P  P12  1  0.750000  0.453215  0.046785  1
  P  P13  1  0.250000  0.543217  0.956783  1
  P  P14  1  0.544719  0.959863  0.250473  1
  P  P15  1  0.955281  0.249527  0.540137  1
  O  O16  1  0.127996  0.299433  0.494500  1
  O  O17  1  0.311143  0.506346  0.117898  1
  O  O18  1  0.045155  0.920793  0.267298  1
  O  O19  1  0.530051  0.117885  0.302904  1
  O  O20  1  0.240687  0.595008  0.430766  1
  O  O21  1  0.016748  0.810546  0.613457  1
  O  O22  1  0.259313  0.069234  0.904992  1
  O  O23  1  0.454846  0.232702  0.579207  1
  O  O24  1  0.594348  0.433300  0.241111  1
  O  O25  1  0.188857  0.382102  0.993654  1
  O  O26  1  0.091243  0.737330  0.936809  1
  O  O27  1  0.372004  0.005500  0.200567  1
  O  O28  1  0.613174  0.012782  0.813555  1
  O  O29  1  0.905652  0.258889  0.066700  1
  O  O30  1  0.813801  0.612620  0.013628  1
  O  O31  1  0.408757  0.563191  0.762670  1
  O  O32  1  0.560966  0.766254  0.410076  1
  O  O33  1  0.736611  0.932267  0.088996  1
  O  O34  1  0.969949  0.197096  0.382115  1
  O  O35  1  0.763389  0.411004  0.567733  1
  O  O36  1  0.483252  0.886543  0.689454  1
  O  O37  1  0.939034  0.089924  0.733746  1
  O  O38  1  0.686199  0.486372  0.887380  1
  O  O39  1  0.886826  0.686445  0.487218  1
