# generated using pymatgen
data_Rb2NaZn2H5(C2O7)2
_symmetry_space_group_name_H-M   'P 1'
_cell_length_a   10.84879823
_cell_length_b   11.58102197
_cell_length_c   5.24723324
_cell_angle_alpha   90.00000000
_cell_angle_beta   91.99945111
_cell_angle_gamma   90.00000000
_symmetry_Int_Tables_number   1
_chemical_formula_structural   Rb2NaZn2H5(C2O7)2
_chemical_formula_sum   'Rb4 Na2 Zn4 H10 C8 O28'
_cell_volume   658.86189499
_cell_formula_units_Z   2
loop_
 _symmetry_equiv_pos_site_id
 _symmetry_equiv_pos_as_xyz
  1  'x, y, z'
loop_
 _atom_site_type_symbol
 _atom_site_label
 _atom_site_symmetry_multiplicity
 _atom_site_fract_x
 _atom_site_fract_y
 _atom_site_fract_z
 _atom_site_occupancy
  Rb  Rb0  1  0.076112  0.165834  0.033284  1
  Rb  Rb1  1  0.423888  0.665834  0.466716  1
  Rb  Rb2  1  0.576112  0.334166  0.533284  1
  Rb  Rb3  1  0.923888  0.834166  0.966716  1
  Na  Na4  1  0.000000  0.500000  0.000000  1
  Na  Na5  1  0.500000  0.000000  0.500000  1
  Zn  Zn6  1  0.202357  0.399019  0.534302  1
  Zn  Zn7  1  0.297643  0.899019  0.965698  1
  Zn  Zn8  1  0.702357  0.100981  0.034303  1
  Zn  Zn9  1  0.797643  0.600981  0.465698  1
  H  H10  1  0.000000  0.000000  0.500000  1
  H  H11  1  0.181377  0.700966  0.121256  1
  H  H12  1  0.226123  0.671569  0.847395  1
  H  H13  1  0.273877  0.171569  0.652605  1
  H  H14  1  0.318623  0.200966  0.378744  1
  H  H15  1  0.500000  0.500000  0.000000  1
  H  H16  1  0.681377  0.799034  0.621256  1
  H  H17  1  0.726123  0.828431  0.347395  1
  H  H18  1  0.773877  0.328431  0.152605  1
  H  H19  1  0.818623  0.299034  0.878744  1
  C  C20  1  0.065432  0.623661  0.495361  1
  C  C21  1  0.180920  0.928060  0.468682  1
  C  C22  1  0.319080  0.428060  0.031318  1
  C  C23  1  0.434568  0.123661  0.004639  1
  C  C24  1  0.565432  0.876339  0.995361  1
  C  C25  1  0.680920  0.571940  0.968682  1
  C  C26  1  0.819080  0.071940  0.531318  1
  C  C27  1  0.934568  0.376339  0.504639  1
  O  O28  1  0.033003  0.384971  0.366280  1
  O  O29  1  0.056324  0.662400  0.266785  1
  O  O30  1  0.089578  0.959304  0.611707  1
  O  O31  1  0.170953  0.590291  0.598159  1
  O  O32  1  0.167985  0.935999  0.223514  1
  O  O33  1  0.218906  0.390244  0.920596  1
  O  O34  1  0.250129  0.219005  0.499124  1
  O  O35  1  0.249871  0.719005  0.000876  1
  O  O36  1  0.281094  0.890244  0.579404  1
  O  O37  1  0.329047  0.090291  0.901841  1
  O  O38  1  0.332015  0.435999  0.276486  1
  O  O39  1  0.410422  0.459304  0.888293  1
  O  O40  1  0.443676  0.162400  0.233215  1
  O  O41  1  0.466997  0.884971  0.133720  1
  O  O42  1  0.533003  0.115029  0.866280  1
  O  O43  1  0.556324  0.837600  0.766785  1
  O  O44  1  0.589578  0.540696  0.111707  1
  O  O45  1  0.667985  0.564001  0.723514  1
  O  O46  1  0.670953  0.909709  0.098159  1
  O  O47  1  0.718906  0.109756  0.420596  1
  O  O48  1  0.750129  0.280995  0.999124  1
  O  O49  1  0.749871  0.780995  0.500876  1
  O  O50  1  0.781094  0.609756  0.079404  1
  O  O51  1  0.832015  0.064001  0.776486  1
  O  O52  1  0.829047  0.409709  0.401841  1
  O  O53  1  0.910422  0.040696  0.388293  1
  O  O54  1  0.943676  0.337600  0.733215  1
  O  O55  1  0.966997  0.615029  0.633720  1
