# generated using pymatgen
data_Sr5Si3
_symmetry_space_group_name_H-M   'P 1'
_cell_length_a   8.09238964
_cell_length_b   8.09238946
_cell_length_c   9.76416017
_cell_angle_alpha   114.48106407
_cell_angle_beta   114.48106351
_cell_angle_gamma   90.00000198
_symmetry_Int_Tables_number   1
_chemical_formula_structural   Sr5Si3
_chemical_formula_sum   'Sr10 Si6'
_cell_volume   518.11351074
_cell_formula_units_Z   2
loop_
 _symmetry_equiv_pos_site_id
 _symmetry_equiv_pos_as_xyz
  1  'x, y, z'
loop_
 _atom_site_type_symbol
 _atom_site_label
 _atom_site_symmetry_multiplicity
 _atom_site_fract_x
 _atom_site_fract_y
 _atom_site_fract_z
 _atom_site_occupancy
  Sr  Sr0  1  0.002128  0.002128  0.004256  1
  Sr  Sr1  1  0.179628  0.041304  0.720931  1
  Sr  Sr2  1  0.461560  0.321229  0.282788  1
  Sr  Sr3  1  0.541304  0.679628  0.720931  1
  Sr  Sr4  1  0.821229  0.961560  0.282788  1
  Sr  Sr5  1  0.679628  0.179628  0.720931  1
  Sr  Sr6  1  0.041304  0.541304  0.720931  1
  Sr  Sr7  1  0.961560  0.461560  0.282788  1
  Sr  Sr8  1  0.502128  0.502128  0.004256  1
  Sr  Sr9  1  0.321229  0.821229  0.282788  1
  Si  Si10  1  0.108516  0.392935  0.001450  1
  Si  Si11  1  0.392935  0.892935  0.001450  1
  Si  Si12  1  0.892935  0.608516  0.001450  1
  Si  Si13  1  0.608516  0.108516  0.001450  1
  Si  Si14  1  0.249702  0.249702  0.499405  1
  Si  Si15  1  0.749702  0.749702  0.499405  1
