# generated using pymatgen
data_LiCuPH2O5
_symmetry_space_group_name_H-M   'P 1'
_cell_length_a   9.82972689
_cell_length_b   6.99025969
_cell_length_c   6.13807451
_cell_angle_alpha   90.00000000
_cell_angle_beta   93.49241449
_cell_angle_gamma   90.00000000
_symmetry_Int_Tables_number   1
_chemical_formula_structural   LiCuPH2O5
_chemical_formula_sum   'Li4 Cu4 P4 H8 O20'
_cell_volume   420.97822041
_cell_formula_units_Z   4
loop_
 _symmetry_equiv_pos_site_id
 _symmetry_equiv_pos_as_xyz
  1  'x, y, z'
loop_
 _atom_site_type_symbol
 _atom_site_label
 _atom_site_symmetry_multiplicity
 _atom_site_fract_x
 _atom_site_fract_y
 _atom_site_fract_z
 _atom_site_occupancy
  Li  Li0  1  0.343413  0.585819  0.596697  1
  Li  Li1  1  0.343413  0.914181  0.096697  1
  Li  Li2  1  0.656587  0.085819  0.903303  1
  Li  Li3  1  0.656587  0.414181  0.403303  1
  Cu  Cu4  1  0.011657  0.797230  0.785718  1
  Cu  Cu5  1  0.011657  0.702770  0.285718  1
  Cu  Cu6  1  0.988343  0.297230  0.714282  1
  Cu  Cu7  1  0.988343  0.202770  0.214282  1
  P  P8  1  0.192568  0.472522  0.998165  1
  P  P9  1  0.192568  0.027478  0.498165  1
  P  P10  1  0.807432  0.972522  0.501835  1
  P  P11  1  0.807432  0.527478  0.001835  1
  H  H12  1  0.414788  0.271443  0.849630  1
  H  H13  1  0.437498  0.105903  0.679598  1
  H  H14  1  0.414788  0.228557  0.349630  1
  H  H15  1  0.437498  0.394097  0.179598  1
  H  H16  1  0.562502  0.605903  0.820402  1
  H  H17  1  0.585212  0.771443  0.650370  1
  H  H18  1  0.562502  0.894097  0.320402  1
  H  H19  1  0.585212  0.728557  0.150370  1
  O  O20  1  0.084362  0.537949  0.808289  1
  O  O21  1  0.084362  0.962051  0.308289  1
  O  O22  1  0.149670  0.233476  0.558132  1
  O  O23  1  0.149670  0.266524  0.058132  1
  O  O24  1  0.188532  0.880136  0.688370  1
  O  O25  1  0.188532  0.619864  0.188370  1
  O  O26  1  0.335142  0.474403  0.910440  1
  O  O27  1  0.335142  0.025597  0.410440  1
  O  O28  1  0.464950  0.149328  0.828448  1
  O  O29  1  0.464950  0.350672  0.328448  1
  O  O30  1  0.535050  0.649328  0.671552  1
  O  O31  1  0.535050  0.850672  0.171552  1
  O  O32  1  0.664858  0.974403  0.589560  1
  O  O33  1  0.664858  0.525597  0.089560  1
  O  O34  1  0.811468  0.380136  0.811630  1
  O  O35  1  0.811468  0.119864  0.311630  1
  O  O36  1  0.850330  0.733476  0.941868  1
  O  O37  1  0.850330  0.766524  0.441868  1
  O  O38  1  0.915638  0.037949  0.691711  1
  O  O39  1  0.915638  0.462051  0.191711  1
