# generated using pymatgen
data_H3Ru3Rh(CO)12
_symmetry_space_group_name_H-M   'P 1'
_cell_length_a   8.39274279
_cell_length_b   9.33865035
_cell_length_c   13.84468477
_cell_angle_alpha   82.57777718
_cell_angle_beta   80.40950014
_cell_angle_gamma   68.86394281
_symmetry_Int_Tables_number   1
_chemical_formula_structural   H3Ru3Rh(CO)12
_chemical_formula_sum   'H6 Ru6 Rh2 C24 O24'
_cell_volume   995.13826116
_cell_formula_units_Z   2
loop_
 _symmetry_equiv_pos_site_id
 _symmetry_equiv_pos_as_xyz
  1  'x, y, z'
loop_
 _atom_site_type_symbol
 _atom_site_label
 _atom_site_symmetry_multiplicity
 _atom_site_fract_x
 _atom_site_fract_y
 _atom_site_fract_z
 _atom_site_occupancy
  H  H0  1  0.614648  0.856608  0.383867  1
  H  H1  1  0.385352  0.143392  0.616133  1
  H  H2  1  0.800992  0.578453  0.361198  1
  H  H3  1  0.199008  0.421547  0.638802  1
  H  H4  1  0.496814  0.683499  0.309613  1
  H  H5  1  0.503186  0.316501  0.690387  1
  Ru  Ru6  1  0.487139  0.879522  0.284157  1
  Ru  Ru7  1  0.512861  0.120478  0.715843  1
  Ru  Ru8  1  0.838104  0.758576  0.340379  1
  Ru  Ru9  1  0.161896  0.241424  0.659621  1
  Ru  Ru10  1  0.702287  0.550175  0.263287  1
  Ru  Ru11  1  0.297713  0.449825  0.736713  1
  Rh  Rh12  1  0.780687  0.789718  0.143657  1
  Rh  Rh13  1  0.219313  0.210282  0.856343  1
  C  C14  1  0.806600  0.987947  0.113472  1
  C  C15  1  0.193400  0.012053  0.886528  1
  C  C16  1  0.655432  0.792446  0.039616  1
  C  C17  1  0.344568  0.207554  0.960384  1
  C  C18  1  0.003874  0.657954  0.090084  1
  C  C19  1  0.996126  0.342046  0.909916  1
  C  C20  1  0.472460  0.089621  0.261323  1
  C  C21  1  0.527540  0.910379  0.738677  1
  C  C22  1  0.341125  0.899820  0.188056  1
  C  C23  1  0.658875  0.100180  0.811944  1
  C  C24  1  0.305189  0.909129  0.390987  1
  C  C25  1  0.694811  0.090871  0.609013  1
  C  C26  1  0.852122  0.723980  0.478298  1
  C  C27  1  0.147878  0.276020  0.521702  1
  C  C28  1  0.073984  0.642901  0.301423  1
  C  C29  1  0.926016  0.357099  0.698577  1
  C  C30  1  0.873245  0.951864  0.323046  1
  C  C31  1  0.126755  0.048136  0.676954  1
  C  C32  1  0.592315  0.514831  0.163195  1
  C  C33  1  0.407685  0.485169  0.836805  1
  C  C34  1  0.622247  0.420055  0.362403  1
  C  C35  1  0.377753  0.579945  0.637597  1
  C  C36  1  0.917173  0.398438  0.219673  1
  C  C37  1  0.082827  0.601562  0.780327  1
  O  O38  1  0.826491  0.104932  0.090742  1
  O  O39  1  0.173509  0.895068  0.909258  1
  O  O40  1  0.586003  0.798556  0.972653  1
  O  O41  1  0.413997  0.201444  0.027347  1
  O  O42  1  0.134845  0.581950  0.050875  1
  O  O43  1  0.865155  0.418050  0.949125  1
  O  O44  1  0.462377  0.217596  0.250002  1
  O  O45  1  0.537623  0.782404  0.749998  1
  O  O46  1  0.246622  0.912224  0.132529  1
  O  O47  1  0.753378  0.087776  0.867471  1
  O  O48  1  0.191829  0.927065  0.454432  1
  O  O49  1  0.808171  0.072935  0.545568  1
  O  O50  1  0.864295  0.700486  0.561716  1
  O  O51  1  0.135705  0.299514  0.438284  1
  O  O52  1  0.218463  0.570364  0.281683  1
  O  O53  1  0.781537  0.429636  0.718317  1
  O  O54  1  0.895870  0.068759  0.314043  1
  O  O55  1  0.104130  0.931241  0.685957  1
  O  O56  1  0.523789  0.491868  0.103945  1
  O  O57  1  0.476211  0.508132  0.896055  1
  O  O58  1  0.567604  0.345577  0.422889  1
  O  O59  1  0.432396  0.654423  0.577111  1
  O  O60  1  0.047602  0.304703  0.194391  1
  O  O61  1  0.952398  0.695297  0.805609  1
