# generated using pymatgen
data_LiFeF4
_symmetry_space_group_name_H-M   'P 1'
_cell_length_a   8.98202741
_cell_length_b   9.93698404
_cell_length_c   8.93590494
_cell_angle_alpha   90.00000000
_cell_angle_beta   90.00000000
_cell_angle_gamma   90.00000000
_symmetry_Int_Tables_number   1
_chemical_formula_structural   LiFeF4
_chemical_formula_sum   'Li8 Fe8 F32'
_cell_volume   797.56760984
_cell_formula_units_Z   8
loop_
 _symmetry_equiv_pos_site_id
 _symmetry_equiv_pos_as_xyz
  1  'x, y, z'
loop_
 _atom_site_type_symbol
 _atom_site_label
 _atom_site_symmetry_multiplicity
 _atom_site_fract_x
 _atom_site_fract_y
 _atom_site_fract_z
 _atom_site_occupancy
  Li  Li0  1  0.142795  0.584518  0.206639  1
  Li  Li1  1  0.142795  0.915482  0.706639  1
  Li  Li2  1  0.357205  0.084518  0.206639  1
  Li  Li3  1  0.357205  0.415482  0.706639  1
  Li  Li4  1  0.642795  0.584518  0.293361  1
  Li  Li5  1  0.642795  0.915482  0.793361  1
  Li  Li6  1  0.857205  0.084518  0.293361  1
  Li  Li7  1  0.857205  0.415482  0.793361  1
  Fe  Fe8  1  0.063884  0.229521  0.577921  1
  Fe  Fe9  1  0.063884  0.270479  0.077921  1
  Fe  Fe10  1  0.436116  0.770479  0.077921  1
  Fe  Fe11  1  0.436116  0.729521  0.577921  1
  Fe  Fe12  1  0.563884  0.270479  0.422079  1
  Fe  Fe13  1  0.563884  0.229521  0.922079  1
  Fe  Fe14  1  0.936116  0.729521  0.922079  1
  Fe  Fe15  1  0.936116  0.770479  0.422079  1
  F  F16  1  0.037480  0.138979  0.398895  1
  F  F17  1  0.037480  0.361021  0.898895  1
  F  F18  1  0.121148  0.699828  0.374613  1
  F  F19  1  0.121148  0.800172  0.874613  1
  F  F20  1  0.120925  0.396149  0.218892  1
  F  F21  1  0.120925  0.103851  0.718892  1
  F  F22  1  0.194030  0.127002  0.082030  1
  F  F23  1  0.194030  0.372998  0.582030  1
  F  F24  1  0.305970  0.627002  0.082030  1
  F  F25  1  0.305970  0.872998  0.582030  1
  F  F26  1  0.379075  0.896149  0.218892  1
  F  F27  1  0.379075  0.603851  0.718892  1
  F  F28  1  0.378852  0.199828  0.374613  1
  F  F29  1  0.378852  0.300172  0.874613  1
  F  F30  1  0.462520  0.638979  0.398895  1
  F  F31  1  0.462520  0.861021  0.898895  1
  F  F32  1  0.537480  0.138979  0.101105  1
  F  F33  1  0.537480  0.361021  0.601105  1
  F  F34  1  0.621148  0.699828  0.125387  1
  F  F35  1  0.621148  0.800172  0.625387  1
  F  F36  1  0.620925  0.396149  0.281108  1
  F  F37  1  0.620925  0.103851  0.781108  1
  F  F38  1  0.694030  0.127002  0.417970  1
  F  F39  1  0.694030  0.372998  0.917970  1
  F  F40  1  0.805970  0.627002  0.417970  1
  F  F41  1  0.805970  0.872998  0.917970  1
  F  F42  1  0.879075  0.896149  0.281108  1
  F  F43  1  0.879075  0.603851  0.781108  1
  F  F44  1  0.878852  0.199828  0.125387  1
  F  F45  1  0.878852  0.300172  0.625387  1
  F  F46  1  0.962520  0.638979  0.101105  1
  F  F47  1  0.962520  0.861021  0.601105  1
