# generated using pymatgen
data_Na6Cu2C4SO16
_symmetry_space_group_name_H-M   'P 1'
_cell_length_a   9.87146547
_cell_length_b   9.87146547
_cell_length_c   9.87146599
_cell_angle_alpha   119.99999844
_cell_angle_beta   60.00000156
_cell_angle_gamma   120.00000057
_symmetry_Int_Tables_number   1
_chemical_formula_structural   Na6Cu2C4SO16
_chemical_formula_sum   'Na12 Cu4 C8 S2 O32'
_cell_volume   680.18950245
_cell_formula_units_Z   2
loop_
 _symmetry_equiv_pos_site_id
 _symmetry_equiv_pos_as_xyz
  1  'x, y, z'
loop_
 _atom_site_type_symbol
 _atom_site_label
 _atom_site_symmetry_multiplicity
 _atom_site_fract_x
 _atom_site_fract_y
 _atom_site_fract_z
 _atom_site_occupancy
  Na  Na0  1  0.339358  0.160642  0.910642  1
  Na  Na1  1  0.089358  0.410642  0.660642  1
  Na  Na2  1  0.339358  0.589358  0.339358  1
  Na  Na3  1  0.089358  0.839358  0.089358  1
  Na  Na4  1  0.339358  0.589358  0.910642  1
  Na  Na5  1  0.089358  0.839358  0.660642  1
  Na  Na6  1  0.910642  0.160642  0.339358  1
  Na  Na7  1  0.910642  0.160642  0.910642  1
  Na  Na8  1  0.660642  0.410642  0.089358  1
  Na  Na9  1  0.660642  0.410642  0.660642  1
  Na  Na10  1  0.910642  0.589358  0.339358  1
  Na  Na11  1  0.660642  0.839358  0.089358  1
  Cu  Cu12  1  0.000000  0.000000  0.500000  1
  Cu  Cu13  1  0.500000  0.000000  0.500000  1
  Cu  Cu14  1  0.500000  0.000000  0.000000  1
  Cu  Cu15  1  0.500000  0.500000  0.500000  1
  C  C16  1  0.279740  0.220260  0.660779  1
  C  C17  1  0.279740  0.220260  0.279740  1
  C  C18  1  0.660779  0.220260  0.279740  1
  C  C19  1  0.720260  0.160779  0.720260  1
  C  C20  1  0.339221  0.779740  0.720260  1
  C  C21  1  0.279740  0.839221  0.279740  1
  C  C22  1  0.720260  0.779740  0.339221  1
  C  C23  1  0.720260  0.779740  0.720260  1
  S  S24  1  0.125000  0.375000  0.125000  1
  S  S25  1  0.875000  0.625000  0.875000  1
  O  O26  1  0.138917  0.100130  0.662927  1
  O  O27  1  0.063214  0.189643  0.063214  1
  O  O28  1  0.138917  0.201713  0.399870  1
  O  O29  1  0.298287  0.100130  0.138917  1
  O  O30  1  0.063214  0.436786  0.310357  1
  O  O31  1  0.063214  0.436786  0.063214  1
  O  O32  1  0.399870  0.201713  0.662927  1
  O  O33  1  0.298287  0.361083  0.662927  1
  O  O34  1  0.310357  0.436786  0.063214  1
  O  O35  1  0.662927  0.100130  0.298287  1
  O  O36  1  0.600130  0.162927  0.861083  1
  O  O37  1  0.399870  0.361083  0.298287  1
  O  O38  1  0.662927  0.201713  0.138917  1
  O  O39  1  0.701713  0.162927  0.600130  1
  O  O40  1  0.138917  0.837073  0.298287  1
  O  O41  1  0.337073  0.638917  0.600130  1
  O  O42  1  0.861083  0.162927  0.701713  1
  O  O43  1  0.662927  0.361083  0.399870  1
  O  O44  1  0.298287  0.837073  0.399870  1
  O  O45  1  0.337073  0.798287  0.861083  1
  O  O46  1  0.600130  0.638917  0.701713  1
  O  O47  1  0.399870  0.837073  0.138917  1
  O  O48  1  0.337073  0.899870  0.701713  1
  O  O49  1  0.689643  0.563214  0.936786  1
  O  O50  1  0.701713  0.638917  0.337073  1
  O  O51  1  0.600130  0.798287  0.337073  1
  O  O52  1  0.936786  0.563214  0.936786  1
  O  O53  1  0.936786  0.563214  0.689643  1
  O  O54  1  0.701713  0.899870  0.861083  1
  O  O55  1  0.861083  0.798287  0.600130  1
  O  O56  1  0.936786  0.810357  0.936786  1
  O  O57  1  0.861083  0.899870  0.337073  1
