# generated using pymatgen
data_Li6AlCrO6
_symmetry_space_group_name_H-M   'P 1'
_cell_length_a   9.32692891
_cell_length_b   5.38435236
_cell_length_c   9.73250281
_cell_angle_alpha   90.01086850
_cell_angle_beta   90.01185964
_cell_angle_gamma   30.00466753
_symmetry_Int_Tables_number   1
_chemical_formula_structural   Li6AlCrO6
_chemical_formula_sum   'Li12 Al2 Cr2 O12'
_cell_volume   244.41505038
_cell_formula_units_Z   2
loop_
 _symmetry_equiv_pos_site_id
 _symmetry_equiv_pos_as_xyz
  1  'x, y, z'
loop_
 _atom_site_type_symbol
 _atom_site_label
 _atom_site_symmetry_multiplicity
 _atom_site_fract_x
 _atom_site_fract_y
 _atom_site_fract_z
 _atom_site_occupancy
  Li  Li0  1  0.381311  0.555902  0.422960  1
  Li  Li1  1  0.318056  0.744828  0.923012  1
  Li  Li2  1  0.062799  0.561164  0.924455  1
  Li  Li3  1  0.684949  0.253243  0.078608  1
  Li  Li4  1  0.941231  0.743297  0.424364  1
  Li  Li5  1  0.623534  0.438363  0.578585  1
  Li  Li6  1  0.319222  0.301906  0.578560  1
  Li  Li7  1  0.687245  0.689506  0.424296  1
  Li  Li8  1  0.622959  0.693567  0.923180  1
  Li  Li9  1  0.380855  0.302837  0.078528  1
  Li  Li10  1  0.939672  0.438936  0.078336  1
  Li  Li11  1  0.065192  0.250930  0.578476  1
  Al  Al12  1  0.669148  0.997332  0.750690  1
  Al  Al13  1  0.335212  0.998518  0.250767  1
  Cr  Cr14  1  0.001953  0.998279  0.250487  1
  Cr  Cr15  1  0.002264  0.997736  0.750535  1
  O  O16  1  0.297484  0.755778  0.134506  1
  O  O17  1  0.351244  0.595544  0.634589  1
  O  O18  1  0.054701  0.597102  0.134522  1
  O  O19  1  0.653877  0.398760  0.366378  1
  O  O20  1  0.706072  0.241400  0.866146  1
  O  O21  1  0.949672  0.754525  0.634559  1
  O  O22  1  0.706937  0.641422  0.634519  1
  O  O23  1  0.350317  0.354248  0.866296  1
  O  O24  1  0.653132  0.642639  0.134456  1
  O  O25  1  0.298401  0.352641  0.366318  1
  O  O26  1  0.055286  0.240569  0.366435  1
  O  O27  1  0.948701  0.400570  0.866455  1
