# generated using pymatgen
data_Cr2Fe3Co(PO4)6
_symmetry_space_group_name_H-M   'P 1'
_cell_length_a   8.36256338
_cell_length_b   8.36256320
_cell_length_c   8.36256273
_cell_angle_alpha   61.68307094
_cell_angle_beta   61.68307096
_cell_angle_gamma   61.68306953
_symmetry_Int_Tables_number   1
_chemical_formula_structural   Cr2Fe3Co(PO4)6
_chemical_formula_sum   'Cr2 Fe3 Co1 P6 O24'
_cell_volume   429.12951117
_cell_formula_units_Z   1
loop_
 _symmetry_equiv_pos_site_id
 _symmetry_equiv_pos_as_xyz
  1  'x, y, z'
loop_
 _atom_site_type_symbol
 _atom_site_label
 _atom_site_symmetry_multiplicity
 _atom_site_fract_x
 _atom_site_fract_y
 _atom_site_fract_z
 _atom_site_occupancy
  Cr  Cr0  1  0.000106  0.000106  0.000106  1
  Cr  Cr1  1  0.499410  0.499410  0.499410  1
  Fe  Fe2  1  0.145055  0.145055  0.145055  1
  Fe  Fe3  1  0.353402  0.353402  0.353402  1
  Fe  Fe4  1  0.646367  0.646367  0.646367  1
  Co  Co5  1  0.859661  0.859661  0.859661  1
  P  P6  1  0.045152  0.750075  0.459954  1
  P  P7  1  0.459954  0.045152  0.750075  1
  P  P8  1  0.750075  0.459954  0.045152  1
  P  P9  1  0.246268  0.548950  0.949638  1
  P  P10  1  0.548950  0.949638  0.246268  1
  P  P11  1  0.949638  0.246268  0.548950  1
  O  O12  1  0.106538  0.315454  0.511461  1
  O  O13  1  0.315454  0.511461  0.106538  1
  O  O14  1  0.057325  0.906635  0.254020  1
  O  O15  1  0.511461  0.106538  0.315454  1
  O  O16  1  0.008486  0.816623  0.617756  1
  O  O17  1  0.251208  0.594804  0.438737  1
  O  O18  1  0.254020  0.057325  0.906635  1
  O  O19  1  0.438737  0.251208  0.594804  1
  O  O20  1  0.173967  0.393425  0.992662  1
  O  O21  1  0.594804  0.438737  0.251208  1
  O  O22  1  0.086972  0.753388  0.937303  1
  O  O23  1  0.393425  0.992662  0.173967  1
  O  O24  1  0.617756  0.008486  0.816623  1
  O  O25  1  0.906635  0.254020  0.057325  1
  O  O26  1  0.402305  0.565227  0.746721  1
  O  O27  1  0.816623  0.617756  0.008486  1
  O  O28  1  0.565227  0.746721  0.402305  1
  O  O29  1  0.753388  0.937303  0.086972  1
  O  O30  1  0.746721  0.402305  0.565227  1
  O  O31  1  0.992662  0.173967  0.393425  1
  O  O32  1  0.497503  0.894286  0.673156  1
  O  O33  1  0.937303  0.086972  0.753388  1
  O  O34  1  0.673156  0.497503  0.894286  1
  O  O35  1  0.894286  0.673156  0.497503  1
