# generated using pymatgen
data_LiTi2P3O11
_symmetry_space_group_name_H-M   'P 1'
_cell_length_a   7.34190890
_cell_length_b   7.34190890
_cell_length_c   8.86025702
_cell_angle_alpha   69.68985237
_cell_angle_beta   110.31014763
_cell_angle_gamma   106.46665482
_symmetry_Int_Tables_number   1
_chemical_formula_structural   LiTi2P3O11
_chemical_formula_sum   'Li2 Ti4 P6 O22'
_cell_volume   412.78410633
_cell_formula_units_Z   2
loop_
 _symmetry_equiv_pos_site_id
 _symmetry_equiv_pos_as_xyz
  1  'x, y, z'
loop_
 _atom_site_type_symbol
 _atom_site_label
 _atom_site_symmetry_multiplicity
 _atom_site_fract_x
 _atom_site_fract_y
 _atom_site_fract_z
 _atom_site_occupancy
  Li  Li0  1  0.484678  0.986886  0.011017  1
  Li  Li1  1  0.986886  0.484678  0.488983  1
  Ti  Ti2  1  0.110192  0.359198  0.955991  1
  Ti  Ti3  1  0.640822  0.888711  0.457283  1
  Ti  Ti4  1  0.359198  0.110192  0.544009  1
  Ti  Ti5  1  0.888711  0.640822  0.042717  1
  P  P6  1  0.451537  0.674103  0.786992  1
  P  P7  1  0.045877  0.045877  0.750000  1
  P  P8  1  0.323607  0.548267  0.285796  1
  P  P9  1  0.674103  0.451537  0.713008  1
  P  P10  1  0.954739  0.954739  0.250000  1
  P  P11  1  0.548267  0.323607  0.214204  1
  O  O12  1  0.008181  0.880302  0.907112  1
  O  O13  1  0.120500  0.993485  0.406390  1
  O  O14  1  0.245407  0.608177  0.811860  1
  O  O15  1  0.462723  0.844166  0.624376  1
  O  O16  1  0.611300  0.726684  0.938309  1
  O  O17  1  0.040115  0.254085  0.753053  1
  O  O18  1  0.391801  0.757309  0.305348  1
  O  O19  1  0.491032  0.491032  0.750000  1
  O  O20  1  0.153686  0.536429  0.123306  1
  O  O21  1  0.269889  0.390678  0.437301  1
  O  O22  1  0.746739  0.959490  0.254669  1
  O  O23  1  0.254085  0.040115  0.746947  1
  O  O24  1  0.726684  0.611300  0.561691  1
  O  O25  1  0.844166  0.462723  0.875624  1
  O  O26  1  0.506237  0.506237  0.250000  1
  O  O27  1  0.608177  0.245407  0.688140  1
  O  O28  1  0.959490  0.746739  0.245331  1
  O  O29  1  0.390678  0.269889  0.062699  1
  O  O30  1  0.536429  0.153686  0.376694  1
  O  O31  1  0.757309  0.391801  0.194652  1
  O  O32  1  0.880302  0.008181  0.592888  1
  O  O33  1  0.993485  0.120500  0.093610  1
