# generated using pymatgen
data_LiMnPO4
_symmetry_space_group_name_H-M   'P 1'
_cell_length_a   15.41883262
_cell_length_b   15.41873206
_cell_length_c   7.85145418
_cell_angle_alpha   90.00189333
_cell_angle_beta   89.99819774
_cell_angle_gamma   120.00187855
_symmetry_Int_Tables_number   1
_chemical_formula_structural   LiMnPO4
_chemical_formula_sum   'Li18 Mn18 P18 O72'
_cell_volume   1616.48867512
_cell_formula_units_Z   18
loop_
 _symmetry_equiv_pos_site_id
 _symmetry_equiv_pos_as_xyz
  1  'x, y, z'
loop_
 _atom_site_type_symbol
 _atom_site_label
 _atom_site_symmetry_multiplicity
 _atom_site_fract_x
 _atom_site_fract_y
 _atom_site_fract_z
 _atom_site_occupancy
  Li  Li0  1  0.004642  0.687038  0.493053  1
  Li  Li1  1  0.341173  0.993174  0.577391  1
  Li  Li2  1  0.006843  0.348011  0.577369  1
  Li  Li3  1  0.333344  0.666682  0.703076  1
  Li  Li4  1  0.000019  0.000012  0.872360  1
  Li  Li5  1  0.999998  0.999997  0.372389  1
  Li  Li6  1  0.333337  0.666652  0.197304  1
  Li  Li7  1  0.312967  0.317604  0.493009  1
  Li  Li8  1  0.348001  0.341159  0.077408  1
  Li  Li9  1  0.682409  0.995378  0.493035  1
  Li  Li10  1  0.317600  0.004645  0.992994  1
  Li  Li11  1  0.652014  0.658823  0.577413  1
  Li  Li12  1  0.687025  0.682408  0.993042  1
  Li  Li13  1  0.666651  0.333315  0.203067  1
  Li  Li14  1  0.666666  0.333327  0.697291  1
  Li  Li15  1  0.993145  0.651989  0.077400  1
  Li  Li16  1  0.658790  0.006779  0.077366  1
  Li  Li17  1  0.995361  0.312959  0.993047  1
  Mn  Mn18  1  0.093930  0.870868  0.795774  1
  Mn  Mn19  1  0.106331  0.576333  0.763913  1
  Mn  Mn20  1  0.247923  0.801765  0.275190  1
  Mn  Mn21  1  0.198215  0.446124  0.275213  1
  Mn  Mn22  1  0.470007  0.893690  0.763881  1
  Mn  Mn23  1  0.129144  0.223079  0.795730  1
  Mn  Mn24  1  0.423687  0.530039  0.763910  1
  Mn  Mn25  1  0.223023  0.093911  0.295713  1
  Mn  Mn26  1  0.553882  0.752087  0.275274  1
  Mn  Mn27  1  0.446145  0.247932  0.775166  1
  Mn  Mn28  1  0.776978  0.906093  0.795743  1
  Mn  Mn29  1  0.576307  0.469981  0.263930  1
  Mn  Mn30  1  0.870875  0.776945  0.295718  1
  Mn  Mn31  1  0.529977  0.106298  0.263893  1
  Mn  Mn32  1  0.801769  0.553845  0.775202  1
  Mn  Mn33  1  0.752097  0.198214  0.775254  1
  Mn  Mn34  1  0.893660  0.423671  0.263886  1
  Mn  Mn35  1  0.906059  0.129126  0.295727  1
  P  P36  1  0.094681  0.869316  0.205148  1
  P  P37  1  0.106471  0.579364  0.360157  1
  P  P38  1  0.246009  0.801951  0.861756  1
  P  P39  1  0.198062  0.444062  0.861753  1
  P  P40  1  0.472884  0.893497  0.360135  1
  P  P41  1  0.130649  0.225344  0.205152  1
  P  P42  1  0.420582  0.527085  0.360200  1
  P  P43  1  0.555945  0.754022  0.861797  1
  P  P44  1  0.225369  0.094698  0.705112  1
  P  P45  1  0.774664  0.905314  0.205164  1
  P  P46  1  0.444054  0.245990  0.361729  1
  P  P47  1  0.579377  0.472907  0.860175  1
  P  P48  1  0.869339  0.774637  0.705138  1
  P  P49  1  0.527104  0.106498  0.860152  1
  P  P50  1  0.801933  0.555948  0.361740  1
  P  P51  1  0.754007  0.198066  0.361781  1
  P  P52  1  0.893531  0.420618  0.860156  1
  P  P53  1  0.905324  0.130679  0.705128  1
  O  O54  1  0.021320  0.896020  0.297335  1
  O  O55  1  0.044247  0.810568  0.039439  1
  O  O56  1  0.194070  0.967351  0.160545  1
  O  O57  1  0.115844  0.801415  0.325301  1
  O  O58  1  0.019407  0.564129  0.240463  1
  O  O59  1  0.227450  0.875289  0.750038  1
  O  O60  1  0.146241  0.703944  0.899789  1
  O  O61  1  0.099987  0.631273  0.525997  1
  O  O62  1  0.296318  0.857466  0.029808  1
  O  O63  1  0.209034  0.648820  0.272967  1
  O  O64  1  0.096516  0.475737  0.401580  1
  O  O65  1  0.379221  0.903445  0.401590  1
  O  O66  1  0.032620  0.226698  0.160576  1
  O  O67  1  0.319365  0.776801  0.764074  1
  O  O68  1  0.223225  0.542597  0.764126  1
  O  O69  1  0.142534  0.438819  0.029783  1
  O  O70  1  0.124770  0.352186  0.749963  1
  O  O71  1  0.198582  0.314427  0.325275  1
  O  O72  1  0.544719  0.980577  0.240488  1
  O  O73  1  0.531291  0.899983  0.525981  1
  O  O74  1  0.189400  0.233652  0.039404  1
  O  O75  1  0.103968  0.125286  0.297326  1
  O  O76  1  0.439809  0.790950  0.272956  1
  O  O77  1  0.351156  0.560186  0.272964  1
  O  O78  1  0.296093  0.442323  0.899801  1
  O  O79  1  0.226707  0.194067  0.660560  1
  O  O80  1  0.557739  0.853842  0.899792  1
  O  O81  1  0.125303  0.021317  0.797316  1
  O  O82  1  0.457460  0.680694  0.764157  1
  O  O83  1  0.368691  0.468723  0.526029  1
  O  O84  1  0.233666  0.044264  0.539401  1
  O  O85  1  0.561193  0.703772  0.029817  1
  O  O86  1  0.524237  0.620779  0.401618  1
  O  O87  1  0.435850  0.455246  0.240535  1
  O  O88  1  0.352159  0.227406  0.249988  1
  O  O89  1  0.685582  0.884174  0.325331  1
  O  O90  1  0.314435  0.115851  0.825260  1
  O  O91  1  0.647837  0.772588  0.750025  1
  O  O92  1  0.564137  0.544722  0.740512  1
  O  O93  1  0.475734  0.379216  0.901612  1
  O  O94  1  0.438830  0.296292  0.529765  1
  O  O95  1  0.766338  0.955744  0.039434  1
  O  O96  1  0.631267  0.531293  0.026034  1
  O  O97  1  0.542552  0.319342  0.264061  1
  O  O98  1  0.874718  0.978688  0.297318  1
  O  O99  1  0.442290  0.146215  0.399784  1
  O  O100  1  0.773281  0.805922  0.160585  1
  O  O101  1  0.703914  0.557699  0.399820  1
  O  O102  1  0.648835  0.439794  0.773001  1
  O  O103  1  0.560192  0.209046  0.772958  1
  O  O104  1  0.896035  0.874707  0.797369  1
  O  O105  1  0.810614  0.766345  0.539450  1
  O  O106  1  0.468707  0.100001  0.025977  1
  O  O107  1  0.455285  0.019424  0.740447  1
  O  O108  1  0.801411  0.685559  0.825278  1
  O  O109  1  0.875233  0.647812  0.249977  1
  O  O110  1  0.857460  0.561175  0.529783  1
  O  O111  1  0.776764  0.457422  0.264108  1
  O  O112  1  0.680616  0.223201  0.264163  1
  O  O113  1  0.967381  0.773297  0.660591  1
  O  O114  1  0.620792  0.096555  0.901580  1
  O  O115  1  0.903463  0.524240  0.901575  1
  O  O116  1  0.790964  0.351161  0.772899  1
  O  O117  1  0.703726  0.142548  0.529867  1
  O  O118  1  0.899972  0.368697  0.025967  1
  O  O119  1  0.853764  0.296071  0.399776  1
  O  O120  1  0.772546  0.124729  0.250023  1
  O  O121  1  0.980595  0.435863  0.740496  1
  O  O122  1  0.884184  0.198581  0.825324  1
  O  O123  1  0.805929  0.032625  0.660579  1
  O  O124  1  0.955727  0.189416  0.539436  1
  O  O125  1  0.978708  0.103978  0.797263  1
