# generated using pymatgen
data_Ca3Be2P4(HO2)10
_symmetry_space_group_name_H-M   'P 1'
_cell_length_a   7.38045585
_cell_length_b   7.79562006
_cell_length_c   7.10583727
_cell_angle_alpha   94.41046430
_cell_angle_beta   96.33705930
_cell_angle_gamma   102.38396077
_symmetry_Int_Tables_number   1
_chemical_formula_structural   Ca3Be2P4(HO2)10
_chemical_formula_sum   'Ca3 Be2 P4 H10 O20'
_cell_volume   394.74768817
_cell_formula_units_Z   1
loop_
 _symmetry_equiv_pos_site_id
 _symmetry_equiv_pos_as_xyz
  1  'x, y, z'
loop_
 _atom_site_type_symbol
 _atom_site_label
 _atom_site_symmetry_multiplicity
 _atom_site_fract_x
 _atom_site_fract_y
 _atom_site_fract_z
 _atom_site_occupancy
  Ca  Ca0  1  0.290245  0.606443  0.022725  1
  Ca  Ca1  1  0.709755  0.393557  0.977275  1
  Ca  Ca2  1  0.000000  0.000000  0.000000  1
  Be  Be3  1  0.268457  0.581779  0.516338  1
  Be  Be4  1  0.731543  0.418221  0.483662  1
  P  P5  1  0.958436  0.698020  0.318054  1
  P  P6  1  0.041564  0.301980  0.681946  1
  P  P7  1  0.644991  0.698261  0.728320  1
  P  P8  1  0.355009  0.301739  0.271680  1
  H  H9  1  0.848291  0.876393  0.506726  1
  H  H10  1  0.151709  0.123607  0.493274  1
  H  H11  1  0.487069  0.825185  0.365721  1
  H  H12  1  0.512931  0.174815  0.634279  1
  H  H13  1  0.363027  0.949548  0.279277  1
  H  H14  1  0.636973  0.050452  0.720723  1
  H  H15  1  0.186037  0.822241  0.716761  1
  H  H16  1  0.813963  0.177759  0.283239  1
  H  H17  1  0.353007  0.961588  0.828715  1
  H  H18  1  0.646993  0.038412  0.171285  1
  O  O19  1  0.014947  0.713710  0.117561  1
  O  O20  1  0.985053  0.286290  0.882439  1
  O  O21  1  0.867754  0.860128  0.367798  1
  O  O22  1  0.132246  0.139872  0.632202  1
  O  O23  1  0.805180  0.525244  0.307131  1
  O  O24  1  0.194820  0.474756  0.692869  1
  O  O25  1  0.124497  0.711722  0.473855  1
  O  O26  1  0.875503  0.288278  0.526145  1
  O  O27  1  0.586615  0.669108  0.926548  1
  O  O28  1  0.413385  0.330892  0.073452  1
  O  O29  1  0.737752  0.540516  0.678557  1
  O  O30  1  0.262248  0.459484  0.321443  1
  O  O31  1  0.790109  0.875712  0.728735  1
  O  O32  1  0.209891  0.124288  0.271265  1
  O  O33  1  0.478551  0.702009  0.576500  1
  O  O34  1  0.521449  0.297991  0.423500  1
  O  O35  1  0.449823  0.874306  0.246303  1
  O  O36  1  0.550177  0.125694  0.753697  1
  O  O37  1  0.241878  0.870696  0.848892  1
  O  O38  1  0.758122  0.129304  0.151108  1
