# generated using pymatgen
data_Fe3P6WO24
_symmetry_space_group_name_H-M   'P 1'
_cell_length_a   8.95292223
_cell_length_b   8.95292199
_cell_length_c   8.95292179
_cell_angle_alpha   58.36571621
_cell_angle_beta   58.36572072
_cell_angle_gamma   58.36571595
_symmetry_Int_Tables_number   1
_chemical_formula_structural   Fe3P6WO24
_chemical_formula_sum   'Fe3 P6 W1 O24'
_cell_volume   488.44886606
_cell_formula_units_Z   1
loop_
 _symmetry_equiv_pos_site_id
 _symmetry_equiv_pos_as_xyz
  1  'x, y, z'
loop_
 _atom_site_type_symbol
 _atom_site_label
 _atom_site_symmetry_multiplicity
 _atom_site_fract_x
 _atom_site_fract_y
 _atom_site_fract_z
 _atom_site_occupancy
  Fe  Fe0  1  0.143928  0.143928  0.143928  1
  Fe  Fe1  1  0.358251  0.358251  0.358251  1
  Fe  Fe2  1  0.641681  0.641681  0.641681  1
  P  P3  1  0.034143  0.752763  0.460341  1
  P  P4  1  0.460341  0.034143  0.752763  1
  P  P5  1  0.752763  0.460341  0.034143  1
  P  P6  1  0.254178  0.529345  0.967742  1
  P  P7  1  0.529345  0.967742  0.254178  1
  P  P8  1  0.967742  0.254178  0.529345  1
  W  W9  1  0.857993  0.857993  0.857993  1
  O  O10  1  0.138514  0.268952  0.511603  1
  O  O11  1  0.268952  0.511603  0.138514  1
  O  O12  1  0.060323  0.922759  0.286385  1
  O  O13  1  0.511603  0.138514  0.268952  1
  O  O14  1  0.207827  0.578123  0.447784  1
  O  O15  1  0.993913  0.789576  0.635592  1
  O  O16  1  0.286385  0.060323  0.922759  1
  O  O17  1  0.447784  0.207827  0.578123  1
  O  O18  1  0.578123  0.447784  0.207827  1
  O  O19  1  0.223656  0.365286  0.991491  1
  O  O20  1  0.076186  0.712344  0.930477  1
  O  O21  1  0.365286  0.991491  0.223656  1
  O  O22  1  0.635592  0.993913  0.789576  1
  O  O23  1  0.922759  0.286385  0.060323  1
  O  O24  1  0.789576  0.635592  0.993913  1
  O  O25  1  0.422628  0.562155  0.793174  1
  O  O26  1  0.562155  0.793174  0.422628  1
  O  O27  1  0.712344  0.930477  0.076186  1
  O  O28  1  0.991491  0.223656  0.365286  1
  O  O29  1  0.793174  0.422628  0.562155  1
  O  O30  1  0.493687  0.864675  0.722525  1
  O  O31  1  0.930477  0.076186  0.712344  1
  O  O32  1  0.722525  0.493687  0.864675  1
  O  O33  1  0.864675  0.722525  0.493687  1
