# generated using pymatgen
data_LiY3WO8
_symmetry_space_group_name_H-M   'P 1'
_cell_length_a   6.29210792
_cell_length_b   6.29205500
_cell_length_c   6.15228708
_cell_angle_alpha   89.99699117
_cell_angle_beta   89.99726335
_cell_angle_gamma   54.47750063
_symmetry_Int_Tables_number   1
_chemical_formula_structural   LiY3WO8
_chemical_formula_sum   'Li1 Y3 W1 O8'
_cell_volume   198.23922948
_cell_formula_units_Z   1
loop_
 _symmetry_equiv_pos_site_id
 _symmetry_equiv_pos_as_xyz
  1  'x, y, z'
loop_
 _atom_site_type_symbol
 _atom_site_label
 _atom_site_symmetry_multiplicity
 _atom_site_fract_x
 _atom_site_fract_y
 _atom_site_fract_z
 _atom_site_occupancy
  Li  Li0  1  0.499978  0.500023  0.000004  1
  Y  Y1  1  0.000028  0.499995  0.741608  1
  Y  Y2  1  0.500001  0.999978  0.258388  1
  Y  Y3  1  0.500084  0.499914  0.500005  1
  W  W4  1  0.000009  -0.000001  0.000003  1
  O  O5  1  0.176045  0.176243  0.000113  1
  O  O6  1  0.304587  0.304156  0.500174  1
  O  O7  1  0.217671  0.724788  0.785538  1
  O  O8  1  0.275205  0.782331  0.214468  1
  O  O9  1  0.724687  0.217628  0.214447  1
  O  O10  1  0.782375  0.275313  0.785561  1
  O  O11  1  0.695846  0.695408  0.499823  1
  O  O12  1  0.823750  0.823958  0.999885  1
