# generated using pymatgen
data_Li2Y14Ti14(S2O5)7
_symmetry_space_group_name_H-M   'P 1'
_cell_length_a   11.69432127
_cell_length_b   12.15842787
_cell_length_c   8.59754465
_cell_angle_alpha   81.87314352
_cell_angle_beta   77.26098776
_cell_angle_gamma   84.03522194
_symmetry_Int_Tables_number   1
_chemical_formula_structural   Li2Y14Ti14(S2O5)7
_chemical_formula_sum   'Li2 Y14 Ti14 S14 O35'
_cell_volume   1177.01873889
_cell_formula_units_Z   1
loop_
 _symmetry_equiv_pos_site_id
 _symmetry_equiv_pos_as_xyz
  1  'x, y, z'
loop_
 _atom_site_type_symbol
 _atom_site_label
 _atom_site_symmetry_multiplicity
 _atom_site_fract_x
 _atom_site_fract_y
 _atom_site_fract_z
 _atom_site_occupancy
  Li  Li0  1  0.000000  0.214286  0.357143  1
  Li  Li1  1  0.000000  0.714286  0.357143  1
  Y  Y2  1  0.666478  0.238052  0.952586  1
  Y  Y3  1  0.333522  0.190520  0.761700  1
  Y  Y4  1  0.333726  0.477480  0.901876  1
  Y  Y5  1  0.666274  0.951092  0.812410  1
  Y  Y6  1  0.668581  0.666381  0.666919  1
  Y  Y7  1  0.667952  0.380545  0.524432  1
  Y  Y8  1  0.668716  0.095543  0.379041  1
  Y  Y9  1  0.331284  0.333029  0.335245  1
  Y  Y10  1  0.330796  0.619150  0.477737  1
  Y  Y11  1  0.333193  0.903403  0.621778  1
  Y  Y12  1  0.332048  0.048027  0.189853  1
  Y  Y13  1  0.669204  0.809422  0.236549  1
  Y  Y14  1  0.666807  0.525169  0.092508  1
  Y  Y15  1  0.331419  0.762190  0.047366  1
  Ti  Ti16  1  0.836166  0.153961  0.626390  1
  Ti  Ti17  1  0.840000  0.725735  0.902801  1
  Ti  Ti18  1  0.839911  0.441373  0.758362  1
  Ti  Ti19  1  0.159976  0.418520  0.667042  1
  Ti  Ti20  1  0.160089  0.987199  0.955924  1
  Ti  Ti21  1  0.160000  0.702836  0.811484  1
  Ti  Ti22  1  0.163797  0.130477  0.532759  1
  Ti  Ti23  1  0.835717  0.578895  0.329296  1
  Ti  Ti24  1  0.836017  0.873094  0.478989  1
  Ti  Ti25  1  0.836203  0.298094  0.181526  1
  Ti  Ti26  1  0.840024  0.010052  0.047244  1
  Ti  Ti27  1  0.163834  0.274611  0.087896  1
  Ti  Ti28  1  0.164283  0.849677  0.384990  1
  Ti  Ti29  1  0.163983  0.555478  0.235297  1
  S  S30  1  0.592102  0.172144  0.686205  1
  S  S31  1  0.588158  0.743553  0.975349  1
  S  S32  1  0.588399  0.457722  0.832311  1
  S  S33  1  0.411839  0.399231  0.595805  1
  S  S34  1  0.411601  0.970850  0.881974  1
  S  S35  1  0.411842  0.685019  0.738936  1
  S  S36  1  0.408064  0.113920  0.453572  1
  S  S37  1  0.592593  0.601751  0.402266  1
  S  S38  1  0.592452  0.885505  0.543602  1
  S  S39  1  0.591936  0.314651  0.260714  1
  S  S40  1  0.588161  0.029340  0.118481  1
  S  S41  1  0.407898  0.256428  0.028081  1
  S  S42  1  0.407407  0.826820  0.312020  1
  S  S43  1  0.407548  0.543066  0.170683  1
  O  O44  1  0.799197  0.085031  0.845560  1
  O  O45  1  0.799356  0.372232  0.983470  1
  O  O46  1  0.799452  0.015415  0.559026  1
  O  O47  1  0.200644  0.056340  0.730815  1
  O  O48  1  0.799382  0.586160  0.841978  1
  O  O49  1  0.799460  0.871067  0.987017  1
  O  O50  1  0.200803  0.343540  0.868726  1
  O  O51  1  0.798757  0.300134  0.701528  1
  O  O52  1  0.200540  0.557505  0.727269  1
  O  O53  1  0.200618  0.842411  0.872308  1
  O  O54  1  0.201150  0.271423  0.586536  1
  O  O55  1  0.999961  0.145156  0.566571  1
  O  O56  1  0.812106  0.227675  0.410774  1
  O  O57  1  0.000000  0.714286  0.857143  1
  O  O58  1  0.798785  0.800592  0.701280  1
  O  O59  1  0.798935  0.513537  0.556613  1
  O  O60  1  0.999956  0.428928  0.712750  1
  O  O61  1  0.187894  0.200896  0.303511  1
  O  O62  1  0.798850  0.157148  0.127750  1
  O  O63  1  0.200805  0.484757  0.441799  1
  O  O64  1  0.812821  0.727756  0.410538  1
  O  O65  1  0.799485  0.441830  0.269676  1
  O  O66  1  0.200942  0.771815  0.586463  1
  O  O67  1  0.000044  0.999644  0.001535  1
  O  O68  1  0.000039  0.283415  0.147715  1
  O  O69  1  0.200515  0.986742  0.444610  1
  O  O70  1  0.000044  0.854139  0.426965  1
  O  O71  1  0.187179  0.700816  0.303748  1
  O  O72  1  0.799195  0.943814  0.272487  1
  O  O73  1  0.999956  0.574432  0.287321  1
  O  O74  1  0.201243  0.128437  0.012757  1
  O  O75  1  0.200548  0.413157  0.155259  1
  O  O76  1  0.799058  0.656757  0.127822  1
  O  O77  1  0.201215  0.627980  0.013006  1
  O  O78  1  0.201065  0.915034  0.157673  1
