# generated using pymatgen
data_BaGa4O7
_symmetry_space_group_name_H-M   'P 1'
_cell_length_a   8.39577444
_cell_length_b   8.39577444
_cell_length_c   5.85965470
_cell_angle_alpha   77.98475985
_cell_angle_beta   102.01524015
_cell_angle_gamma   111.03602318
_symmetry_Int_Tables_number   1
_chemical_formula_structural   BaGa4O7
_chemical_formula_sum   'Ba2 Ga8 O14'
_cell_volume   373.01805986
_cell_formula_units_Z   2
loop_
 _symmetry_equiv_pos_site_id
 _symmetry_equiv_pos_as_xyz
  1  'x, y, z'
loop_
 _atom_site_type_symbol
 _atom_site_label
 _atom_site_symmetry_multiplicity
 _atom_site_fract_x
 _atom_site_fract_y
 _atom_site_fract_z
 _atom_site_occupancy
  Ba  Ba0  1  0.689982  0.689982  0.750000  1
  Ba  Ba1  1  0.310018  0.310018  0.250000  1
  Ga  Ga2  1  0.184616  0.944329  0.768364  1
  Ga  Ga3  1  0.055671  0.815384  0.268364  1
  Ga  Ga4  1  0.239676  0.587006  0.698970  1
  Ga  Ga5  1  0.412994  0.760324  0.198970  1
  Ga  Ga6  1  0.587006  0.239676  0.801030  1
  Ga  Ga7  1  0.760324  0.412994  0.301030  1
  Ga  Ga8  1  0.944329  0.184616  0.731636  1
  Ga  Ga9  1  0.815384  0.055671  0.231636  1
  O  O10  1  0.128425  0.756041  0.597395  1
  O  O11  1  0.243959  0.871575  0.097395  1
  O  O12  1  0.416234  0.660639  0.946911  1
  O  O13  1  0.117691  0.370325  0.833072  1
  O  O14  1  0.339361  0.583766  0.446911  1
  O  O15  1  0.629675  0.882309  0.333072  1
  O  O16  1  0.976575  0.976575  0.750000  1
  O  O17  1  0.023425  0.023425  0.250000  1
  O  O18  1  0.370325  0.117691  0.666928  1
  O  O19  1  0.660639  0.416234  0.553089  1
  O  O20  1  0.882309  0.629675  0.166928  1
  O  O21  1  0.583766  0.339361  0.053089  1
  O  O22  1  0.756041  0.128425  0.902605  1
  O  O23  1  0.871575  0.243959  0.402605  1
