# generated using pymatgen
data_Na2InPCO7
_symmetry_space_group_name_H-M   'P 1'
_cell_length_a   9.13950751
_cell_length_b   6.82775288
_cell_length_c   5.27396637
_cell_angle_alpha   90.00000000
_cell_angle_beta   90.43282415
_cell_angle_gamma   90.00000000
_symmetry_Int_Tables_number   1
_chemical_formula_structural   Na2InPCO7
_chemical_formula_sum   'Na4 In2 P2 C2 O14'
_cell_volume   329.09823425
_cell_formula_units_Z   2
loop_
 _symmetry_equiv_pos_site_id
 _symmetry_equiv_pos_as_xyz
  1  'x, y, z'
loop_
 _atom_site_type_symbol
 _atom_site_label
 _atom_site_symmetry_multiplicity
 _atom_site_fract_x
 _atom_site_fract_y
 _atom_site_fract_z
 _atom_site_occupancy
  Na  Na0  1  0.220925  0.497662  0.232452  1
  Na  Na1  1  0.220925  0.002338  0.232452  1
  Na  Na2  1  0.779075  0.502338  0.767548  1
  Na  Na3  1  0.779075  0.997662  0.767548  1
  In  In4  1  0.359560  0.750000  0.773477  1
  In  In5  1  0.640440  0.250000  0.226523  1
  P  P6  1  0.421428  0.250000  0.712537  1
  P  P7  1  0.578572  0.750000  0.287463  1
  C  C8  1  0.069733  0.750000  0.730990  1
  C  C9  1  0.930267  0.250000  0.269010  1
  O  O10  1  0.066701  0.250000  0.297253  1
  O  O11  1  0.135608  0.750000  0.953364  1
  O  O12  1  0.160169  0.750000  0.533224  1
  O  O13  1  0.336855  0.067104  0.801847  1
  O  O14  1  0.336855  0.432896  0.801847  1
  O  O15  1  0.418715  0.750000  0.179002  1
  O  O16  1  0.432338  0.250000  0.413990  1
  O  O17  1  0.567662  0.750000  0.586010  1
  O  O18  1  0.581285  0.250000  0.820998  1
  O  O19  1  0.663145  0.567104  0.198153  1
  O  O20  1  0.663145  0.932896  0.198153  1
  O  O21  1  0.839831  0.250000  0.466776  1
  O  O22  1  0.864392  0.250000  0.046636  1
  O  O23  1  0.933299  0.750000  0.702747  1
