# generated using pymatgen
data_Li5Mn3(NiO5)2
_symmetry_space_group_name_H-M   'P 1'
_cell_length_a   5.04554945
_cell_length_b   5.14504952
_cell_length_c   7.86087211
_cell_angle_alpha   107.34734512
_cell_angle_beta   102.97296690
_cell_angle_gamma   99.46297247
_symmetry_Int_Tables_number   1
_chemical_formula_structural   Li5Mn3(NiO5)2
_chemical_formula_sum   'Li5 Mn3 Ni2 O10'
_cell_volume   183.84688794
_cell_formula_units_Z   1
loop_
 _symmetry_equiv_pos_site_id
 _symmetry_equiv_pos_as_xyz
  1  'x, y, z'
loop_
 _atom_site_type_symbol
 _atom_site_label
 _atom_site_symmetry_multiplicity
 _atom_site_fract_x
 _atom_site_fract_y
 _atom_site_fract_z
 _atom_site_occupancy
  Li  Li0  1  0.197491  0.933198  0.424358  1
  Li  Li1  1  0.391470  0.280506  0.764637  1
  Li  Li2  1  0.500000  0.500000  0.500000  1
  Li  Li3  1  0.608530  0.719494  0.235363  1
  Li  Li4  1  0.802509  0.066802  0.575642  1
  Mn  Mn5  1  0.000000  0.500000  0.000000  1
  Mn  Mn6  1  0.690625  0.897591  0.894249  1
  Mn  Mn7  1  0.309375  0.102409  0.105751  1
  Ni  Ni8  1  0.099645  0.687752  0.683591  1
  Ni  Ni9  1  0.900355  0.312248  0.316409  1
  O  O10  1  0.038864  0.111853  0.871891  1
  O  O11  1  0.361849  0.738740  0.955839  1
  O  O12  1  0.142200  0.307090  0.551492  1
  O  O13  1  0.235991  0.459976  0.218282  1
  O  O14  1  0.473658  0.905989  0.673399  1
  O  O15  1  0.526342  0.094011  0.326601  1
  O  O16  1  0.764009  0.540024  0.781718  1
  O  O17  1  0.857800  0.692910  0.448508  1
  O  O18  1  0.638151  0.261260  0.044161  1
  O  O19  1  0.961136  0.888147  0.128109  1
