# generated using pymatgen
data_CoH4C4(NCl2)2
_symmetry_space_group_name_H-M   'P 1'
_cell_length_a   7.68652140
_cell_length_b   11.37294214
_cell_length_c   14.96249771
_cell_angle_alpha   90.00000000
_cell_angle_beta   94.35076709
_cell_angle_gamma   90.00000000
_symmetry_Int_Tables_number   1
_chemical_formula_structural   CoH4C4(NCl2)2
_chemical_formula_sum   'Co4 H16 C16 N8 Cl16'
_cell_volume   1304.22781254
_cell_formula_units_Z   4
loop_
 _symmetry_equiv_pos_site_id
 _symmetry_equiv_pos_as_xyz
  1  'x, y, z'
loop_
 _atom_site_type_symbol
 _atom_site_label
 _atom_site_symmetry_multiplicity
 _atom_site_fract_x
 _atom_site_fract_y
 _atom_site_fract_z
 _atom_site_occupancy
  Co  Co0  1  0.273429  0.830161  0.032597  1
  Co  Co1  1  0.773429  0.669839  0.532597  1
  Co  Co2  1  0.726571  0.169839  0.967403  1
  Co  Co3  1  0.226571  0.330161  0.467403  1
  H  H4  1  0.920514  0.730106  0.023378  1
  H  H5  1  0.420514  0.769894  0.523378  1
  H  H6  1  0.079486  0.269894  0.976622  1
  H  H7  1  0.579486  0.230106  0.476622  1
  H  H8  1  0.494872  0.762423  0.899263  1
  H  H9  1  0.994872  0.737577  0.399263  1
  H  H10  1  0.505128  0.237577  0.100737  1
  H  H11  1  0.005128  0.262423  0.600737  1
  H  H12  1  0.605398  0.835435  0.151297  1
  H  H13  1  0.105398  0.664565  0.651297  1
  H  H14  1  0.394602  0.164565  0.848703  1
  H  H15  1  0.894602  0.335435  0.348703  1
  H  H16  1  0.607419  0.084644  0.005314  1
  H  H17  1  0.107419  0.415356  0.505314  1
  H  H18  1  0.392581  0.915356  0.994686  1
  H  H19  1  0.892581  0.584644  0.494686  1
  C  C20  1  0.833240  0.713466  0.848781  1
  C  C21  1  0.333240  0.786534  0.348781  1
  C  C22  1  0.166760  0.286534  0.151219  1
  C  C23  1  0.666760  0.213466  0.651219  1
  C  C24  1  0.726944  0.544459  0.937450  1
  C  C25  1  0.226944  0.955541  0.437450  1
  C  C26  1  0.273056  0.455541  0.062550  1
  C  C27  1  0.773056  0.044459  0.562550  1
  C  C28  1  0.606658  0.000612  0.262122  1
  C  C29  1  0.106658  0.499388  0.762122  1
  C  C30  1  0.393342  -0.000612  0.737878  1
  C  C31  1  0.893342  0.500612  0.237878  1
  C  C32  1  0.901734  0.976800  0.203571  1
  C  C33  1  0.401734  0.523200  0.703571  1
  C  C34  1  0.098266  0.023200  0.796429  1
  C  C35  1  0.598266  0.476800  0.296429  1
  N  N36  1  0.778745  0.628972  0.893484  1
  N  N37  1  0.278745  0.871028  0.393484  1
  N  N38  1  0.221255  0.371028  0.106516  1
  N  N39  1  0.721255  0.128972  0.606516  1
  N  N40  1  0.754777  0.989832  0.232671  1
  N  N41  1  0.254777  0.510168  0.732671  1
  N  N42  1  0.245223  0.010168  0.767329  1
  N  N43  1  0.745223  0.489832  0.267329  1
  Cl  Cl44  1  0.268095  0.020323  0.057821  1
  Cl  Cl45  1  0.768095  0.479677  0.557821  1
  Cl  Cl46  1  0.731905  0.979677  0.942179  1
  Cl  Cl47  1  0.231905  0.520323  0.442179  1
  Cl  Cl48  1  0.333598  0.728204  0.899736  1
  Cl  Cl49  1  0.833598  0.771796  0.399736  1
  Cl  Cl50  1  0.666402  0.271796  0.100264  1
  Cl  Cl51  1  0.166402  0.228204  0.600264  1
  Cl  Cl52  1  0.524527  0.741016  0.122001  1
  Cl  Cl53  1  0.024527  0.758984  0.622001  1
  Cl  Cl54  1  0.475473  0.258984  0.877999  1
  Cl  Cl55  1  0.975473  0.241016  0.377999  1
  Cl  Cl56  1  0.034294  0.717088  0.091430  1
  Cl  Cl57  1  0.534294  0.782912  0.591430  1
  Cl  Cl58  1  0.965706  0.282912  0.908570  1
  Cl  Cl59  1  0.465706  0.217088  0.408570  1
