# generated using pymatgen
data_Fe5(OF4)2
_symmetry_space_group_name_H-M   'P 1'
_cell_length_a   4.81939059
_cell_length_b   7.98772798
_cell_length_c   10.08367206
_cell_angle_alpha   108.05289715
_cell_angle_beta   90.00000000
_cell_angle_gamma   90.00000000
_symmetry_Int_Tables_number   1
_chemical_formula_structural   Fe5(OF4)2
_chemical_formula_sum   'Fe10 O4 F16'
_cell_volume   369.07102289
_cell_formula_units_Z   2
loop_
 _symmetry_equiv_pos_site_id
 _symmetry_equiv_pos_as_xyz
  1  'x, y, z'
loop_
 _atom_site_type_symbol
 _atom_site_label
 _atom_site_symmetry_multiplicity
 _atom_site_fract_x
 _atom_site_fract_y
 _atom_site_fract_z
 _atom_site_occupancy
  Fe  Fe0  1  0.463475  0.308712  0.887945  1
  Fe  Fe1  1  0.522212  0.101604  0.294464  1
  Fe  Fe2  1  0.493007  0.915633  0.701511  1
  Fe  Fe3  1  0.484848  0.687285  0.089800  1
  Fe  Fe4  1  0.525455  0.506965  0.496750  1
  Fe  Fe5  1  0.022212  0.598396  0.805536  1
  Fe  Fe6  1  0.025455  0.193035  0.603250  1
  Fe  Fe7  1  0.993007  0.784367  0.398489  1
  Fe  Fe8  1  0.963475  0.391288  0.212055  1
  Fe  Fe9  1  0.984848  0.012715  0.010200  1
  O  O10  1  0.810622  0.550919  0.368492  1
  O  O11  1  0.792422  0.168937  0.190808  1
  O  O12  1  0.310622  0.149081  0.731508  1
  O  O13  1  0.292422  0.531063  0.909192  1
  F  F14  1  0.801696  0.751777  0.974385  1
  F  F15  1  0.813376  0.957977  0.574537  1
  F  F16  1  0.795254  0.376766  0.780195  1
  F  F17  1  0.701650  0.081611  0.888906  1
  F  F18  1  0.711196  0.668707  0.691497  1
  F  F19  1  0.706887  0.443709  0.064923  1
  F  F20  1  0.685447  0.865543  0.273290  1
  F  F21  1  0.692451  0.244377  0.479728  1
  F  F22  1  0.313376  0.742023  0.525463  1
  F  F23  1  0.295254  0.323234  0.319805  1
  F  F24  1  0.301696  0.948223  0.125615  1
  F  F25  1  0.192451  0.455623  0.620272  1
  F  F26  1  0.211196  0.031293  0.408503  1
  F  F27  1  0.185447  0.834457  0.826710  1
  F  F28  1  0.206887  0.256291  0.035077  1
  F  F29  1  0.201650  0.618389  0.211094  1
