# generated using pymatgen
data_Sr4(RuO4)3
_symmetry_space_group_name_H-M   'P 1'
_cell_length_a   5.57647931
_cell_length_b   9.79350388
_cell_length_c   18.33263495
_cell_angle_alpha   90.06101937
_cell_angle_beta   89.99980662
_cell_angle_gamma   89.99873971
_symmetry_Int_Tables_number   1
_chemical_formula_structural   Sr4(RuO4)3
_chemical_formula_sum   'Sr16 Ru12 O48'
_cell_volume   1001.20460676
_cell_formula_units_Z   4
loop_
 _symmetry_equiv_pos_site_id
 _symmetry_equiv_pos_as_xyz
  1  'x, y, z'
loop_
 _atom_site_type_symbol
 _atom_site_label
 _atom_site_symmetry_multiplicity
 _atom_site_fract_x
 _atom_site_fract_y
 _atom_site_fract_z
 _atom_site_occupancy
  Sr  Sr0  1  0.000025  0.334845  0.245386  1
  Sr  Sr1  1  0.000034  0.999131  0.989978  1
  Sr  Sr2  1  0.000004  0.000624  0.491809  1
  Sr  Sr3  1  0.999988  0.348514  0.634484  1
  Sr  Sr4  1  0.999985  0.664936  0.745968  1
  Sr  Sr5  1  0.000046  0.315207  0.862282  1
  Sr  Sr6  1  0.000011  0.651309  0.134690  1
  Sr  Sr7  1  0.999987  0.686014  0.361662  1
  Sr  Sr8  1  0.500017  0.827304  0.245846  1
  Sr  Sr9  1  0.500024  0.501261  0.004718  1
  Sr  Sr10  1  0.500007  0.171448  0.746004  1
  Sr  Sr11  1  0.500013  0.500146  0.504376  1
  Sr  Sr12  1  0.499986  0.818653  0.631227  1
  Sr  Sr13  1  0.500001  0.851894  0.857301  1
  Sr  Sr14  1  0.500034  0.182589  0.131986  1
  Sr  Sr15  1  0.500009  0.147568  0.356580  1
  Ru  Ru16  1  0.000036  0.334954  0.059806  1
  Ru  Ru17  1  0.000058  0.332759  0.434158  1
  Ru  Ru18  1  0.000030  0.999260  0.189882  1
  Ru  Ru19  1  0.000006  0.999710  0.690365  1
  Ru  Ru20  1  0.999998  0.664895  0.559965  1
  Ru  Ru21  1  0.000012  0.667210  0.934461  1
  Ru  Ru22  1  0.500036  0.832864  0.059052  1
  Ru  Ru23  1  0.500020  0.834752  0.434142  1
  Ru  Ru24  1  0.500024  0.167911  0.559024  1
  Ru  Ru25  1  0.500035  0.165387  0.933768  1
  Ru  Ru26  1  0.499975  0.501179  0.805867  1
  Ru  Ru27  1  0.500048  0.498469  0.306023  1
  O  O28  1  0.000001  0.831526  0.238593  1
  O  O29  1  0.999957  0.166098  0.120989  1
  O  O30  1  0.000321  0.177543  0.375031  1
  O  O31  1  0.000256  0.498461  0.999599  1
  O  O32  1  0.249230  0.749306  0.997858  1
  O  O33  1  0.249335  0.251396  0.497686  1
  O  O34  1  0.241837  0.408672  0.118896  1
  O  O35  1  0.241108  0.591974  0.619159  1
  O  O36  1  0.250063  0.079325  0.241037  1
  O  O37  1  0.250680  0.919593  0.740817  1
  O  O38  1  0.258056  0.091075  0.875493  1
  O  O39  1  0.257489  0.908574  0.375617  1
  O  O40  1  0.248458  0.418602  0.375446  1
  O  O41  1  0.248277  0.581990  0.875445  1
  O  O42  1  0.250750  0.579075  0.253400  1
  O  O43  1  0.250266  0.420577  0.753487  1
  O  O44  1  0.251907  0.081022  0.618106  1
  O  O45  1  0.252575  0.918972  0.118595  1
  O  O46  1  0.249862  0.250336  0.997081  1
  O  O47  1  0.250602  0.749767  0.497294  1
  O  O48  1  0.499891  0.999364  0.494471  1
  O  O49  1  0.499728  0.333127  0.873082  1
  O  O50  1  0.500072  0.321013  0.620076  1
  O  O51  1  0.500131  0.667060  0.754888  1
  O  O52  1  0.499949  0.332211  0.254799  1
  O  O53  1  0.499964  0.679312  0.119812  1
  O  O54  1  0.500277  0.666840  0.373194  1
  O  O55  1  0.500196  0.001361  0.994655  1
  O  O56  1  0.750147  0.250471  0.997053  1
  O  O57  1  0.749512  0.749872  0.497297  1
  O  O58  1  0.747507  0.918939  0.118604  1
  O  O59  1  0.748144  0.081006  0.618100  1
  O  O60  1  0.749437  0.578984  0.253392  1
  O  O61  1  0.749610  0.420467  0.753499  1
  O  O62  1  0.751497  0.418378  0.375421  1
  O  O63  1  0.751834  0.581774  0.875487  1
  O  O64  1  0.742427  0.908723  0.375624  1
  O  O65  1  0.742080  0.091212  0.875473  1
  O  O66  1  0.750023  0.079354  0.241044  1
  O  O67  1  0.749289  0.919634  0.740810  1
  O  O68  1  0.758244  0.408741  0.118868  1
  O  O69  1  0.758837  0.592027  0.619157  1
  O  O70  1  0.750835  0.251254  0.497667  1
  O  O71  1  0.750792  0.749154  0.997899  1
  O  O72  1  0.999862  0.501664  0.499530  1
  O  O73  1  0.999748  0.822361  0.875495  1
  O  O74  1  0.000039  0.835593  0.620049  1
  O  O75  1  0.000045  0.167223  0.738913  1
