# generated using pymatgen
data_Mg7VFeMo15O56
_symmetry_space_group_name_H-M   'P 1'
_cell_length_a   8.51046903
_cell_length_b   17.41165469
_cell_length_c   9.24221534
_cell_angle_alpha   90.14522160
_cell_angle_beta   89.82467871
_cell_angle_gamma   112.20294598
_symmetry_Int_Tables_number   1
_chemical_formula_structural   Mg7VFeMo15O56
_chemical_formula_sum   'Mg7 V1 Fe1 Mo15 O56'
_cell_volume   1267.96797091
_cell_formula_units_Z   1
loop_
 _symmetry_equiv_pos_site_id
 _symmetry_equiv_pos_as_xyz
  1  'x, y, z'
loop_
 _atom_site_type_symbol
 _atom_site_label
 _atom_site_symmetry_multiplicity
 _atom_site_fract_x
 _atom_site_fract_y
 _atom_site_fract_z
 _atom_site_occupancy
  Mg  Mg0  1  0.000929  0.593609  0.506898  1
  Mg  Mg1  1  0.504393  0.845173  0.992070  1
  Mg  Mg2  1  0.003679  0.096343  0.500027  1
  Mg  Mg3  1  0.498653  0.655863  0.006930  1
  Mg  Mg4  1  0.493372  0.339143  0.996712  1
  Mg  Mg5  1  0.000236  0.907131  0.492938  1
  Mg  Mg6  1  0.997327  0.405026  0.493546  1
  V  V7  1  0.135713  0.171945  0.139778  1
  Fe  Fe8  1  0.493928  0.157743  0.008379  1
  Mo  Mo9  1  0.204064  0.947454  0.117827  1
  Mo  Mo10  1  0.134474  0.672711  0.138907  1
  Mo  Mo11  1  0.298518  0.802965  0.618545  1
  Mo  Mo12  1  0.200527  0.445834  0.118760  1
  Mo  Mo13  1  0.365057  0.576837  0.639361  1
  Mo  Mo14  1  0.635865  0.923471  0.361087  1
  Mo  Mo15  1  0.298518  0.302711  0.618580  1
  Mo  Mo16  1  0.701726  0.697193  0.381205  1
  Mo  Mo17  1  0.866752  0.828161  0.861061  1
  Mo  Mo18  1  0.366755  0.078734  0.641713  1
  Mo  Mo19  1  0.634051  0.423051  0.360328  1
  Mo  Mo20  1  0.796737  0.550737  0.882117  1
  Mo  Mo21  1  0.697015  0.196473  0.377821  1
  Mo  Mo22  1  0.865326  0.325703  0.861091  1
  Mo  Mo23  1  0.800053  0.056979  0.885808  1
  O  O24  1  0.016547  0.909542  0.990345  1
  O  O25  1  0.137560  0.930366  0.299341  1
  O  O26  1  0.049951  0.747846  0.165047  1
  O  O27  1  0.151822  0.847972  0.571166  1
  O  O28  1  0.133711  0.627254  0.309311  1
  O  O29  1  0.347688  0.900827  0.071896  1
  O  O30  1  0.201183  0.693911  0.593836  1
  O  O31  1  0.010924  0.406274  0.991142  1
  O  O32  1  0.366943  0.823948  0.799177  1
  O  O33  1  0.149459  0.523404  0.573471  1
  O  O34  1  0.551183  0.998559  0.335917  1
  O  O35  1  0.350086  0.726247  0.072633  1
  O  O36  1  0.132300  0.426190  0.299833  1
  O  O37  1  0.487513  0.842486  0.491134  1
  O  O38  1  0.064339  0.247073  0.159597  1
  O  O39  1  0.296807  0.554827  0.092955  1
  O  O40  1  0.149075  0.346284  0.572348  1
  O  O41  1  0.366425  0.622813  0.809778  1
  O  O42  1  0.633717  0.877045  0.191161  1
  O  O43  1  0.701669  0.947588  0.910379  1
  O  O44  1  0.512646  0.657854  0.509003  1
  O  O45  1  0.126929  0.124864  0.302089  1
  O  O46  1  0.350193  0.402855  0.071689  1
  O  O47  1  0.204473  0.193443  0.594903  1
  O  O48  1  0.651186  0.774861  0.927240  1
  O  O49  1  0.449495  0.501722  0.664107  1
  O  O50  1  0.850613  0.976056  0.429073  1
  O  O51  1  0.633586  0.676494  0.200357  1
  O  O52  1  0.367574  0.323860  0.798799  1
  O  O53  1  0.152403  0.025281  0.577780  1
  O  O54  1  0.550706  0.498622  0.335467  1
  O  O55  1  0.351320  0.220213  0.067661  1
  O  O56  1  0.799596  0.806243  0.406186  1
  O  O57  1  0.650388  0.596248  0.928556  1
  O  O58  1  0.867545  0.873355  0.690728  1
  O  O59  1  0.487885  0.342352  0.491285  1
  O  O60  1  0.311682  0.056046  0.089085  1
  O  O61  1  0.373132  0.126784  0.813297  1
  O  O62  1  0.633252  0.376738  0.190361  1
  O  O63  1  0.849047  0.652623  0.428220  1
  O  O64  1  0.699327  0.441609  0.907479  1
  O  O65  1  0.950437  0.752773  0.835742  1
  O  O66  1  0.512586  0.157716  0.508959  1
  O  O67  1  0.865782  0.572097  0.701297  1
  O  O68  1  0.648238  0.270816  0.928903  1
  O  O69  1  0.451144  0.003979  0.666713  1
  O  O70  1  0.849439  0.475246  0.427487  1
  O  O71  1  0.621756  0.176404  0.196660  1
  O  O72  1  0.986270  0.591622  0.008737  1
  O  O73  1  0.795612  0.304782  0.403954  1
  O  O74  1  0.646979  0.101222  0.934151  1
  O  O75  1  0.862670  0.370580  0.691168  1
  O  O76  1  0.842304  0.151330  0.422858  1
  O  O77  1  0.949746  0.251152  0.833873  1
  O  O78  1  0.868251  0.076346  0.703827  1
  O  O79  1  0.983238  0.094367  0.010347  1
