# generated using pymatgen
data_Sr3Fe2(HO)12
_symmetry_space_group_name_H-M   'P 1'
_cell_length_a   12.59460220
_cell_length_b   12.59460220
_cell_length_c   12.59460220
_cell_angle_alpha   109.47122063
_cell_angle_beta   109.47122063
_cell_angle_gamma   109.47122063
_symmetry_Int_Tables_number   1
_chemical_formula_structural   Sr3Fe2(HO)12
_chemical_formula_sum   'Sr12 Fe8 H48 O48'
_cell_volume   1537.91195798
_cell_formula_units_Z   4
loop_
 _symmetry_equiv_pos_site_id
 _symmetry_equiv_pos_as_xyz
  1  'x, y, z'
loop_
 _atom_site_type_symbol
 _atom_site_label
 _atom_site_symmetry_multiplicity
 _atom_site_fract_x
 _atom_site_fract_y
 _atom_site_fract_z
 _atom_site_occupancy
  Sr  Sr0  1  0.125000  0.375000  0.750000  1
  Sr  Sr1  1  0.375000  0.125000  0.250000  1
  Sr  Sr2  1  0.375000  0.750000  0.125000  1
  Sr  Sr3  1  0.125000  0.250000  0.375000  1
  Sr  Sr4  1  0.750000  0.125000  0.375000  1
  Sr  Sr5  1  0.250000  0.375000  0.125000  1
  Sr  Sr6  1  0.875000  0.625000  0.250000  1
  Sr  Sr7  1  0.625000  0.875000  0.750000  1
  Sr  Sr8  1  0.625000  0.250000  0.875000  1
  Sr  Sr9  1  0.875000  0.750000  0.625000  1
  Sr  Sr10  1  0.250000  0.875000  0.625000  1
  Sr  Sr11  1  0.750000  0.625000  0.875000  1
  Fe  Fe12  1  0.000000  0.500000  0.000000  1
  Fe  Fe13  1  0.000000  0.000000  0.500000  1
  Fe  Fe14  1  0.500000  0.000000  0.000000  1
  Fe  Fe15  1  0.500000  0.500000  0.500000  1
  Fe  Fe16  1  0.500000  0.500000  0.000000  1
  Fe  Fe17  1  0.500000  0.000000  0.500000  1
  Fe  Fe18  1  0.000000  0.500000  0.500000  1
  Fe  Fe19  1  0.000000  0.000000  0.000000  1
  H  H20  1  0.034071  0.820041  0.255153  1
  H  H21  1  0.064889  0.778918  0.244847  1
  H  H22  1  0.435111  0.679959  0.714029  1
  H  H23  1  0.465929  0.721082  0.785971  1
  H  H24  1  0.820041  0.255153  0.034071  1
  H  H25  1  0.778918  0.244847  0.064889  1
  H  H26  1  0.679959  0.714029  0.435111  1
  H  H27  1  0.721082  0.785971  0.465929  1
  H  H28  1  0.255153  0.034071  0.820041  1
  H  H29  1  0.244847  0.064889  0.778918  1
  H  H30  1  0.714029  0.435111  0.679959  1
  H  H31  1  0.785971  0.465929  0.721082  1
  H  H32  1  0.965929  0.179959  0.744847  1
  H  H33  1  0.935111  0.221082  0.755153  1
  H  H34  1  0.564889  0.320041  0.285971  1
  H  H35  1  0.534071  0.278918  0.214029  1
  H  H36  1  0.179959  0.744847  0.965929  1
  H  H37  1  0.221082  0.755153  0.935111  1
  H  H38  1  0.320041  0.285971  0.564889  1
  H  H39  1  0.278918  0.214029  0.534071  1
  H  H40  1  0.744847  0.965929  0.179959  1
  H  H41  1  0.755153  0.935111  0.221082  1
  H  H42  1  0.285971  0.564889  0.320041  1
  H  H43  1  0.214029  0.534071  0.278918  1
  H  H44  1  0.534071  0.755153  0.320041  1
  H  H45  1  0.564889  0.744847  0.278918  1
  H  H46  1  0.935111  0.214029  0.179959  1
  H  H47  1  0.965929  0.285971  0.221082  1
  H  H48  1  0.320041  0.534071  0.755153  1
  H  H49  1  0.278918  0.564889  0.744847  1
  H  H50  1  0.179959  0.935111  0.214029  1
  H  H51  1  0.221082  0.965929  0.285971  1
  H  H52  1  0.755153  0.320041  0.534071  1
  H  H53  1  0.744847  0.278918  0.564889  1
  H  H54  1  0.214029  0.179959  0.935111  1
  H  H55  1  0.285971  0.221082  0.965929  1
  H  H56  1  0.465929  0.244847  0.679959  1
  H  H57  1  0.435111  0.255153  0.721082  1
  H  H58  1  0.064889  0.785971  0.820041  1
  H  H59  1  0.034071  0.714029  0.778918  1
  H  H60  1  0.679959  0.465929  0.244847  1
  H  H61  1  0.721082  0.435111  0.255153  1
  H  H62  1  0.820041  0.064889  0.785971  1
  H  H63  1  0.778918  0.034071  0.714029  1
  H  H64  1  0.244847  0.679959  0.465929  1
  H  H65  1  0.255153  0.721082  0.435111  1
  H  H66  1  0.785971  0.820041  0.064889  1
  H  H67  1  0.714029  0.778918  0.034071  1
  O  O68  1  0.993291  0.941404  0.613441  1
  O  O69  1  0.827963  0.379850  0.886559  1
  O  O70  1  0.672037  0.558596  0.551887  1
  O  O71  1  0.506709  0.120150  0.948113  1
  O  O72  1  0.941404  0.613441  0.993291  1
  O  O73  1  0.379850  0.886559  0.827963  1
  O  O74  1  0.558596  0.551887  0.672037  1
  O  O75  1  0.120150  0.948113  0.506709  1
  O  O76  1  0.613441  0.993291  0.941404  1
  O  O77  1  0.886559  0.827963  0.379850  1
  O  O78  1  0.551887  0.672037  0.558596  1
  O  O79  1  0.948113  0.506709  0.120150  1
  O  O80  1  0.006709  0.058596  0.386559  1
  O  O81  1  0.172037  0.620150  0.113441  1
  O  O82  1  0.327963  0.441404  0.448113  1
  O  O83  1  0.493291  0.879850  0.051887  1
  O  O84  1  0.058596  0.386559  0.006709  1
  O  O85  1  0.620150  0.113441  0.172037  1
  O  O86  1  0.441404  0.448113  0.327963  1
  O  O87  1  0.879850  0.051887  0.493291  1
  O  O88  1  0.386559  0.006709  0.058596  1
  O  O89  1  0.113441  0.172037  0.620150  1
  O  O90  1  0.448113  0.327963  0.441404  1
  O  O91  1  0.051887  0.493291  0.879850  1
  O  O92  1  0.493291  0.113441  0.441404  1
  O  O93  1  0.327963  0.386559  0.879850  1
  O  O94  1  0.172037  0.051887  0.058596  1
  O  O95  1  0.006709  0.448113  0.620150  1
  O  O96  1  0.441404  0.493291  0.113441  1
  O  O97  1  0.879850  0.327963  0.386559  1
  O  O98  1  0.058596  0.172037  0.051887  1
  O  O99  1  0.620150  0.006709  0.448113  1
  O  O100  1  0.113441  0.441404  0.493291  1
  O  O101  1  0.386559  0.879850  0.327963  1
  O  O102  1  0.051887  0.058596  0.172037  1
  O  O103  1  0.448113  0.620150  0.006709  1
  O  O104  1  0.506709  0.886559  0.558596  1
  O  O105  1  0.672037  0.613441  0.120150  1
  O  O106  1  0.827963  0.948113  0.941404  1
  O  O107  1  0.993291  0.551887  0.379850  1
  O  O108  1  0.558596  0.506709  0.886559  1
  O  O109  1  0.120150  0.672037  0.613441  1
  O  O110  1  0.941404  0.827963  0.948113  1
  O  O111  1  0.379850  0.993291  0.551887  1
  O  O112  1  0.886559  0.558596  0.506709  1
  O  O113  1  0.613441  0.120150  0.672037  1
  O  O114  1  0.948113  0.941404  0.827963  1
  O  O115  1  0.551887  0.379850  0.993291  1
