# generated using pymatgen
data_LiCuPO4
_symmetry_space_group_name_H-M   'P 1'
_cell_length_a   9.89862392
_cell_length_b   6.97115055
_cell_length_c   4.93742766
_cell_angle_alpha   89.98649184
_cell_angle_beta   89.99825839
_cell_angle_gamma   90.01533036
_symmetry_Int_Tables_number   1
_chemical_formula_structural   LiCuPO4
_chemical_formula_sum   'Li4 Cu4 P4 O16'
_cell_volume   340.70617412
_cell_formula_units_Z   4
loop_
 _symmetry_equiv_pos_site_id
 _symmetry_equiv_pos_as_xyz
  1  'x, y, z'
loop_
 _atom_site_type_symbol
 _atom_site_label
 _atom_site_symmetry_multiplicity
 _atom_site_fract_x
 _atom_site_fract_y
 _atom_site_fract_z
 _atom_site_occupancy
  Li  Li0  1  0.155898  0.213114  0.693974  1
  Li  Li1  1  0.344163  0.713119  0.194125  1
  Li  Li2  1  0.655795  0.213118  0.805955  1
  Li  Li3  1  0.844273  0.713135  0.305801  1
  Cu  Cu4  1  0.148338  0.715029  0.703245  1
  Cu  Cu5  1  0.351753  0.215009  0.203285  1
  Cu  Cu6  1  0.648358  0.714897  0.796723  1
  Cu  Cu7  1  0.851738  0.214908  0.296763  1
  P  P8  1  0.093015  0.963035  0.189188  1
  P  P9  1  0.406986  0.463404  0.689246  1
  P  P10  1  0.593177  0.962972  0.310853  1
  P  P11  1  0.906840  0.463312  0.810793  1
  O  O12  1  0.060495  0.465373  0.743536  1
  O  O13  1  0.117446  0.965020  0.877754  1
  O  O14  1  0.159750  0.145294  0.310574  1
  O  O15  1  0.154125  0.775105  0.304916  1
  O  O16  1  0.345822  0.274981  0.804737  1
  O  O17  1  0.340166  0.645179  0.810427  1
  O  O18  1  0.382561  0.465209  0.377646  1
  O  O19  1  0.439448  0.965157  0.243598  1
  O  O20  1  0.560532  0.465358  0.756426  1
  O  O21  1  0.617487  0.964874  0.622248  1
  O  O22  1  0.659865  0.145260  0.189581  1
  O  O23  1  0.654195  0.775115  0.195001  1
  O  O24  1  0.845776  0.274990  0.695160  1
  O  O25  1  0.840075  0.645118  0.689722  1
  O  O26  1  0.882523  0.465030  0.122346  1
  O  O27  1  0.939400  0.965182  0.256379  1
