# generated using pymatgen
data_Li5V3P8O29
_symmetry_space_group_name_H-M   'P 1'
_cell_length_a   9.83815178
_cell_length_b   9.79849304
_cell_length_c   14.01483091
_cell_angle_alpha   89.97889338
_cell_angle_beta   89.82522059
_cell_angle_gamma   59.89776607
_symmetry_Int_Tables_number   1
_chemical_formula_structural   Li5V3P8O29
_chemical_formula_sum   'Li10 V6 P16 O58'
_cell_volume   1168.80097718
_cell_formula_units_Z   2
loop_
 _symmetry_equiv_pos_site_id
 _symmetry_equiv_pos_as_xyz
  1  'x, y, z'
loop_
 _atom_site_type_symbol
 _atom_site_label
 _atom_site_symmetry_multiplicity
 _atom_site_fract_x
 _atom_site_fract_y
 _atom_site_fract_z
 _atom_site_occupancy
  Li  Li0  1  0.770168  0.904494  0.561739  1
  Li  Li1  1  0.914262  0.313033  0.562058  1
  Li  Li2  1  0.765511  0.328123  0.055751  1
  Li  Li3  1  0.333614  0.897328  0.058213  1
  Li  Li4  1  0.683572  0.225411  0.444255  1
  Li  Li5  1  0.324226  0.771605  0.561367  1
  Li  Li6  1  0.336296  0.327812  0.110862  1
  Li  Li7  1  0.092772  0.679204  0.440011  1
  Li  Li8  1  0.092135  0.233259  0.936710  1
  Li  Li9  1  0.970720  0.962056  0.998926  1
  V  V10  1  0.569022  0.436656  0.249762  1
  V  V11  1  0.430371  0.568825  0.753704  1
  V  V12  1  0.564788  0.003500  0.754918  1
  V  V13  1  0.433121  0.001566  0.252044  1
  V  V14  1  0.997314  0.572434  0.247713  1
  V  V15  1  0.999108  0.434904  0.748937  1
  P  P16  1  0.913815  0.774482  0.841340  1
  P  P17  1  0.765838  0.914635  0.342269  1
  P  P18  1  0.914232  0.318897  0.342002  1
  P  P19  1  0.665002  0.670230  0.128367  1
  P  P20  1  0.665233  0.668652  0.629597  1
  P  P21  1  0.772287  0.316068  0.842821  1
  P  P22  1  0.680605  0.231925  0.660790  1
  P  P23  1  0.314291  0.914769  0.842188  1
  P  P24  1  0.689323  0.088210  0.157012  1
  P  P25  1  0.314696  0.772630  0.343743  1
  P  P26  1  0.224617  0.688130  0.159579  1
  P  P27  1  0.335436  0.336172  0.370752  1
  P  P28  1  0.329095  0.334463  0.872158  1
  P  P29  1  0.088134  0.681028  0.658004  1
  P  P30  1  0.231722  0.085545  0.657530  1
  P  P31  1  0.089469  0.226734  0.157285  1
  O  O32  1  0.999734  0.753602  0.566979  1
  O  O33  1  0.918182  0.751213  0.339380  1
  O  O34  1  0.790172  0.006195  0.074231  1
  O  O35  1  0.740590  0.914809  0.830894  1
  O  O36  1  0.915396  0.618719  0.831596  1
  O  O37  1  0.807873  0.671565  0.171209  1
  O  O38  1  0.908334  0.476566  0.320403  1
  O  O39  1  0.996602  0.235201  0.069628  1
  O  O40  1  0.918231  0.338652  0.835232  1
  O  O41  1  0.668249  0.817635  0.672182  1
  O  O42  1  0.621788  0.897202  0.323881  1
  O  O43  1  0.813260  0.515281  0.669867  1
  O  O44  1  0.656631  0.656643  0.023048  1
  O  O45  1  0.671365  0.670049  0.523023  1
  O  O46  1  0.667596  0.515897  0.173146  1
  O  O47  1  0.473633  0.909325  0.827838  1
  O  O48  1  0.511881  0.818692  0.168201  1
  O  O49  1  0.743987  0.341378  0.336680  1
  O  O50  1  0.791941  0.206591  0.750783  1
  O  O51  1  0.759296  0.240651  0.570608  1
  O  O52  1  0.784796  0.228398  0.932994  1
  O  O53  1  0.620852  0.472592  0.829232  1
  O  O54  1  0.513291  0.672576  0.667979  1
  O  O55  1  0.658863  0.263084  0.161346  1
  O  O56  1  0.473829  0.619115  0.318769  1
  O  O57  1  0.338697  0.913288  0.339243  1
  O  O58  1  0.783940  0.011855  0.255140  1
  O  O59  1  0.753280  0.001158  0.433657  1
  O  O60  1  0.241565  0.990159  0.573389  1
  O  O61  1  0.660197  0.084688  0.660540  1
  O  O62  1  0.522473  0.382880  0.678493  1
  O  O63  1  0.341583  0.746357  0.836433  1
  O  O64  1  0.486523  0.335142  0.325020  1
  O  O65  1  0.378273  0.523762  0.169627  1
  O  O66  1  0.219711  0.785428  0.076821  1
  O  O67  1  0.249055  0.749039  0.434794  1
  O  O68  1  0.201454  0.786602  0.256952  1
  O  O69  1  0.252844  0.663420  0.658787  1
  O  O70  1  0.480829  0.184245  0.826944  1
  O  O71  1  0.526535  0.099955  0.165003  1
  O  O72  1  0.326481  0.480509  0.830048  1
  O  O73  1  0.338246  0.321531  0.978940  1
  O  O74  1  0.351415  0.328016  0.476141  1
  O  O75  1  0.186255  0.487440  0.334081  1
  O  O76  1  0.383251  0.092560  0.677840  1
  O  O77  1  0.339633  0.188465  0.321833  1
  O  O78  1  0.087085  0.654115  0.162246  1
  O  O79  1  0.995533  0.795396  0.745327  1
  O  O80  1  0.991615  0.794969  0.925722  1
  O  O81  1  0.099695  0.520024  0.677756  1
  O  O82  1  0.185563  0.322592  0.836100  1
  O  O83  1  0.109526  0.372220  0.170851  1
  O  O84  1  0.253358  0.078132  0.156708  1
  O  O85  1  0.233883  0.997972  0.933469  1
  O  O86  1  0.203997  0.008476  0.754326  1
  O  O87  1  0.086667  0.253731  0.657324  1
  O  O88  1  0.988278  0.246586  0.433956  1
  O  O89  1  0.002093  0.208395  0.250904  1
