# generated using pymatgen
data_Fe10O19F
_symmetry_space_group_name_H-M   'P 1'
_cell_length_a   4.64038104
_cell_length_b   4.64038104
_cell_length_c   14.81546694
_cell_angle_alpha   90.00000000
_cell_angle_beta   90.00000000
_cell_angle_gamma   90.85860962
_symmetry_Int_Tables_number   1
_chemical_formula_structural   Fe10O19F
_chemical_formula_sum   'Fe10 O19 F1'
_cell_volume   318.98764687
_cell_formula_units_Z   1
loop_
 _symmetry_equiv_pos_site_id
 _symmetry_equiv_pos_as_xyz
  1  'x, y, z'
loop_
 _atom_site_type_symbol
 _atom_site_label
 _atom_site_symmetry_multiplicity
 _atom_site_fract_x
 _atom_site_fract_y
 _atom_site_fract_z
 _atom_site_occupancy
  Fe  Fe0  1  0.006359  0.993641  0.004778  1
  Fe  Fe1  1  0.001577  0.998423  0.201937  1
  Fe  Fe2  1  0.000517  0.999483  0.400000  1
  Fe  Fe3  1  0.001577  0.998423  0.598063  1
  Fe  Fe4  1  0.006359  0.993641  0.795222  1
  Fe  Fe5  1  0.501726  0.498274  0.100533  1
  Fe  Fe6  1  0.500859  0.499141  0.499936  1
  Fe  Fe7  1  0.500859  0.499141  0.300064  1
  Fe  Fe8  1  0.501726  0.498274  0.699467  1
  Fe  Fe9  1  0.479635  0.520365  0.900000  1
  O  O10  1  0.194743  0.805257  0.106312  1
  O  O11  1  0.189394  0.810606  0.301109  1
  O  O12  1  0.189394  0.810606  0.498891  1
  O  O13  1  0.194743  0.805257  0.693688  1
  O  O14  1  0.181707  0.818293  0.900000  1
  O  O15  1  0.305616  0.310351  0.000406  1
  O  O16  1  0.312232  0.306994  0.200704  1
  O  O17  1  0.309970  0.309422  0.400000  1
  O  O18  1  0.312232  0.306994  0.599296  1
  O  O19  1  0.305616  0.310351  0.799594  1
  O  O20  1  0.689649  0.694384  0.000406  1
  O  O21  1  0.693006  0.687768  0.200704  1
  O  O22  1  0.690578  0.690030  0.400000  1
  O  O23  1  0.693006  0.687768  0.599296  1
  O  O24  1  0.689649  0.694384  0.799594  1
  O  O25  1  0.811746  0.188254  0.104045  1
  O  O26  1  0.812717  0.187283  0.499296  1
  O  O27  1  0.812717  0.187283  0.300704  1
  O  O28  1  0.811746  0.188254  0.695955  1
  F  F29  1  0.798346  0.201654  0.900000  1
