# generated using pymatgen
data_Ta2Pb2O7
_symmetry_space_group_name_H-M   'P 1'
_cell_length_a   7.65489309
_cell_length_b   7.65968460
_cell_length_c   7.65960725
_cell_angle_alpha   60.00311804
_cell_angle_beta   59.97477888
_cell_angle_gamma   59.97668345
_symmetry_Int_Tables_number   1
_chemical_formula_structural   Ta2Pb2O7
_chemical_formula_sum   'Ta4 Pb4 O14'
_cell_volume   317.46243242
_cell_formula_units_Z   2
loop_
 _symmetry_equiv_pos_site_id
 _symmetry_equiv_pos_as_xyz
  1  'x, y, z'
loop_
 _atom_site_type_symbol
 _atom_site_label
 _atom_site_symmetry_multiplicity
 _atom_site_fract_x
 _atom_site_fract_y
 _atom_site_fract_z
 _atom_site_occupancy
  Ta  Ta0  1  0.499916  0.000075  0.500042  1
  Ta  Ta1  1  0.499945  0.500078  -0.000025  1
  Ta  Ta2  1  0.999978  0.499948  0.500003  1
  Ta  Ta3  1  0.500038  0.499987  0.500018  1
  Pb  Pb4  1  -0.000050  0.000011  0.999968  1
  Pb  Pb5  1  0.500159  0.999890  0.000048  1
  Pb  Pb6  1  0.999950  0.499951  0.000015  1
  Pb  Pb7  1  0.000041  -0.000109  0.500016  1
  O  O8  1  0.125189  0.124972  0.124991  1
  O  O9  1  0.559281  0.190849  0.190573  1
  O  O10  1  0.559286  0.190393  0.559397  1
  O  O11  1  0.190929  0.559269  0.190472  1
  O  O12  1  0.559283  0.559407  0.190276  1
  O  O13  1  0.190786  0.190672  0.559163  1
  O  O14  1  0.809461  0.440693  0.440724  1
  O  O15  1  0.190458  0.559360  0.559290  1
  O  O16  1  0.440676  0.809630  0.440628  1
  O  O17  1  0.440743  0.440630  0.809720  1
  O  O18  1  0.809224  0.809365  0.440774  1
  O  O19  1  0.809086  0.440750  0.809511  1
  O  O20  1  0.440744  0.809149  0.809431  1
  O  O21  1  0.874878  0.875031  0.874963  1
