# generated using pymatgen
data_Li4MnV3(P2O7)4
_symmetry_space_group_name_H-M   'P 1'
_cell_length_a   9.60425136
_cell_length_b   9.64822971
_cell_length_c   7.05813783
_cell_angle_alpha   99.93165645
_cell_angle_beta   98.82487270
_cell_angle_gamma   119.12948340
_symmetry_Int_Tables_number   1
_chemical_formula_structural   Li4MnV3(P2O7)4
_chemical_formula_sum   'Li4 Mn1 V3 P8 O28'
_cell_volume   540.91405475
_cell_formula_units_Z   1
loop_
 _symmetry_equiv_pos_site_id
 _symmetry_equiv_pos_as_xyz
  1  'x, y, z'
loop_
 _atom_site_type_symbol
 _atom_site_label
 _atom_site_symmetry_multiplicity
 _atom_site_fract_x
 _atom_site_fract_y
 _atom_site_fract_z
 _atom_site_occupancy
  Li  Li0  1  0.158930  0.019605  0.675045  1
  Li  Li1  1  0.730634  0.090238  0.326800  1
  Li  Li2  1  0.232850  0.592752  0.328026  1
  Li  Li3  1  0.655680  0.516610  0.671417  1
  Mn  Mn4  1  0.393193  0.391757  0.267114  1
  V  V5  1  0.856641  0.356119  0.726989  1
  V  V6  1  0.357944  0.857165  0.727701  1
  V  V7  1  0.893455  0.893052  0.272471  1
  P  P8  1  0.111388  0.290581  0.522309  1
  P  P9  1  0.751255  0.035396  0.914439  1
  P  P10  1  0.249284  0.537687  0.912216  1
  P  P11  1  0.460178  0.141392  0.482147  1
  P  P12  1  0.610811  0.788998  0.522272  1
  P  P13  1  0.714798  0.499048  0.087381  1
  P  P14  1  0.216776  0.000176  0.088689  1
  P  P15  1  0.959644  0.640628  0.477539  1
  O  O16  1  0.075114  0.113085  0.483551  1
  O  O17  1  0.358312  0.033657  0.604462  1
  O  O18  1  0.583100  0.015918  0.916280  1
  O  O19  1  0.080225  0.517637  0.909664  1
  O  O20  1  0.220958  0.375634  0.753104  1
  O  O21  1  0.376862  0.032370  0.249226  1
  O  O22  1  0.234457  0.167205  0.085643  1
  O  O23  1  0.212466  0.388325  0.391529  1
  O  O24  1  0.455367  0.298204  0.504777  1
  O  O25  1  0.136852  0.676005  0.515105  1
  O  O26  1  0.636808  0.174111  0.517824  1
  O  O27  1  0.861745  0.187349  0.852470  1
  O  O28  1  0.359544  0.685830  0.843733  1
  O  O29  1  0.219606  0.914591  0.888031  1
  O  O30  1  0.721412  0.417684  0.887265  1
  O  O31  1  0.331963  0.538663  0.113835  1
  O  O32  1  0.833753  0.030748  0.113538  1
  O  O33  1  0.063994  0.888967  0.150273  1
  O  O34  1  0.559145  0.383219  0.142871  1
  O  O35  1  0.575443  0.611466  0.479686  1
  O  O36  1  0.453670  0.795123  0.507242  1
  O  O37  1  0.952738  0.294659  0.506317  1
  O  O38  1  0.859034  0.536887  0.603734  1
  O  O39  1  0.722524  0.874448  0.752129  1
  O  O40  1  0.874516  0.528277  0.247096  1
  O  O41  1  0.732502  0.666120  0.088519  1
  O  O42  1  0.714294  0.890152  0.396044  1
  O  O43  1  0.954560  0.798051  0.493496  1
