# generated using pymatgen
data_LiFe8(BO3)8
_symmetry_space_group_name_H-M   'P 1'
_cell_length_a   5.33296654
_cell_length_b   9.01100317
_cell_length_c   10.13165912
_cell_angle_alpha   90.63451626
_cell_angle_beta   90.02050496
_cell_angle_gamma   89.62360868
_symmetry_Int_Tables_number   1
_chemical_formula_structural   LiFe8(BO3)8
_chemical_formula_sum   'Li1 Fe8 B8 O24'
_cell_volume   486.84033176
_cell_formula_units_Z   1
loop_
 _symmetry_equiv_pos_site_id
 _symmetry_equiv_pos_as_xyz
  1  'x, y, z'
loop_
 _atom_site_type_symbol
 _atom_site_label
 _atom_site_symmetry_multiplicity
 _atom_site_fract_x
 _atom_site_fract_y
 _atom_site_fract_z
 _atom_site_occupancy
  Li  Li0  1  0.354651  0.003885  0.844206  1
  Fe  Fe1  1  0.157121  0.165860  0.120633  1
  Fe  Fe2  1  0.839584  0.165849  0.370307  1
  Fe  Fe3  1  0.338954  0.341320  0.872779  1
  Fe  Fe4  1  0.659490  0.333616  0.623368  1
  Fe  Fe5  1  0.340784  0.666518  0.372391  1
  Fe  Fe6  1  0.146429  0.829396  0.623435  1
  Fe  Fe7  1  0.662109  0.666683  0.123824  1
  Fe  Fe8  1  0.845535  0.829281  0.877318  1
  B  B9  1  0.162469  0.171367  0.628872  1
  B  B10  1  0.331760  0.328225  0.371538  1
  B  B11  1  0.826016  0.171635  0.870556  1
  B  B12  1  0.661962  0.328887  0.121854  1
  B  B13  1  0.337171  0.671603  0.873855  1
  B  B14  1  0.661157  0.670176  0.620434  1
  B  B15  1  0.168087  0.830956  0.123663  1
  B  B16  1  0.832143  0.830040  0.373078  1
  O  O17  1  0.242853  0.030911  0.652091  1
  O  O18  1  0.079552  0.186443  0.915597  1
  O  O19  1  0.706707  0.041347  0.872476  1
  O  O20  1  0.195787  0.207340  0.319626  1
  O  O21  1  0.304116  0.291865  0.674064  1
  O  O22  1  0.799507  0.206636  0.169064  1
  O  O23  1  0.935276  0.199839  0.565482  1
  O  O24  1  0.424116  0.301126  0.066333  1
  O  O25  1  0.243792  0.467680  0.365873  1
  O  O26  1  0.565160  0.296037  0.428870  1
  O  O27  1  0.702827  0.300352  0.824035  1
  O  O28  1  0.227786  0.536160  0.865249  1
  O  O29  1  0.754588  0.466339  0.129651  1
  O  O30  1  0.307855  0.714194  0.177469  1
  O  O31  1  0.422143  0.697703  0.567183  1
  O  O32  1  0.752410  0.530292  0.623774  1
  O  O33  1  0.564763  0.691385  0.934961  1
  O  O34  1  0.071759  0.805617  0.426487  1
  O  O35  1  0.223769  0.799310  0.820531  1
  O  O36  1  0.698981  0.706986  0.327146  1
  O  O37  1  0.798258  0.789419  0.668063  1
  O  O38  1  0.267278  0.969188  0.110549  1
  O  O39  1  0.929361  0.802508  0.079002  1
  O  O40  1  0.737557  0.969178  0.367471  1
