# generated using pymatgen
data_Mn2OF2
_symmetry_space_group_name_H-M   'P 1'
_cell_length_a   8.90951405
_cell_length_b   8.83524515
_cell_length_c   8.92245227
_cell_angle_alpha   109.41351970
_cell_angle_beta   109.55191104
_cell_angle_gamma   109.19499165
_symmetry_Int_Tables_number   1
_chemical_formula_structural   Mn2OF2
_chemical_formula_sum   'Mn16 O8 F16'
_cell_volume   542.35252836
_cell_formula_units_Z   8
loop_
 _symmetry_equiv_pos_site_id
 _symmetry_equiv_pos_as_xyz
  1  'x, y, z'
loop_
 _atom_site_type_symbol
 _atom_site_label
 _atom_site_symmetry_multiplicity
 _atom_site_fract_x
 _atom_site_fract_y
 _atom_site_fract_z
 _atom_site_occupancy
  Mn  Mn0  1  0.810387  0.272912  0.045422  1
  Mn  Mn1  1  0.037956  0.033069  0.038748  1
  Mn  Mn2  1  0.518113  0.011602  0.491334  1
  Mn  Mn3  1  0.483953  0.511015  0.996768  1
  Mn  Mn4  1  0.522600  0.277622  0.263531  1
  Mn  Mn5  1  0.958274  0.205914  0.750085  1
  Mn  Mn6  1  0.738412  0.464817  0.688734  1
  Mn  Mn7  1  0.751782  0.960999  0.231659  1
  Mn  Mn8  1  0.270136  0.222106  0.502556  1
  Mn  Mn9  1  0.718138  0.750192  0.474181  1
  Mn  Mn10  1  0.265154  0.044585  0.807935  1
  Mn  Mn11  1  0.224082  0.518594  0.269155  1
  Mn  Mn12  1  0.977320  0.516080  0.482457  1
  Mn  Mn13  1  0.025719  0.777270  0.248305  1
  Mn  Mn14  1  0.468798  0.720564  0.764730  1
  Mn  Mn15  1  0.241164  0.771627  0.978936  1
  O  O16  1  0.744455  0.999049  0.478544  1
  O  O17  1  0.283438  0.039259  0.043771  1
  O  O18  1  0.999212  0.545503  0.268514  1
  O  O19  1  0.486758  0.224046  0.463961  1
  O  O20  1  0.042311  0.268259  0.023636  1
  O  O21  1  0.755163  0.537703  0.491733  1
  O  O22  1  0.472129  0.745216  0.008983  1
  O  O23  1  0.020721  0.018825  0.266735  1
  F  F24  1  0.758496  0.219722  0.261371  1
  F  F25  1  0.756363  0.697805  0.227904  1
  F  F26  1  0.439046  0.495331  0.219138  1
  F  F27  1  0.727413  0.252277  0.779324  1
  F  F28  1  0.977556  0.945127  0.733134  1
  F  F29  1  0.546585  0.284832  0.990573  1
  F  F30  1  0.228559  0.452444  0.501589  1
  F  F31  1  0.279798  0.771683  0.232689  1
  F  F32  1  0.549311  0.514040  0.777699  1
  F  F33  1  0.956137  0.711199  0.954455  1
  F  F34  1  0.491099  0.760483  0.543756  1
  F  F35  1  0.226899  0.266988  0.755412  1
  F  F36  1  0.015101  0.465197  0.730998  1
  F  F37  1  0.724886  0.971181  0.940057  1
  F  F38  1  0.274781  0.987321  0.557263  1
  F  F39  1  0.231796  0.767544  0.714223  1
