# generated using pymatgen
data_LiVF5
_symmetry_space_group_name_H-M   'P 1'
_cell_length_a   5.77766124
_cell_length_b   7.71136520
_cell_length_c   17.28556681
_cell_angle_alpha   89.80014352
_cell_angle_beta   90.00008891
_cell_angle_gamma   89.88777935
_symmetry_Int_Tables_number   1
_chemical_formula_structural   LiVF5
_chemical_formula_sum   'Li8 V8 F40'
_cell_volume   770.12903206
_cell_formula_units_Z   8
loop_
 _symmetry_equiv_pos_site_id
 _symmetry_equiv_pos_as_xyz
  1  'x, y, z'
loop_
 _atom_site_type_symbol
 _atom_site_label
 _atom_site_symmetry_multiplicity
 _atom_site_fract_x
 _atom_site_fract_y
 _atom_site_fract_z
 _atom_site_occupancy
  Li  Li0  1  0.265105  0.381515  0.645912  1
  Li  Li1  1  0.265560  0.881200  0.854293  1
  Li  Li2  1  0.459290  0.264848  0.030612  1
  Li  Li3  1  0.458864  0.763758  0.469380  1
  Li  Li4  1  0.763371  0.618698  0.354064  1
  Li  Li5  1  0.764426  0.118969  0.145722  1
  Li  Li6  1  0.958475  0.236372  0.530503  1
  Li  Li7  1  0.959955  0.735295  0.969557  1
  V  V8  1  0.255838  0.438791  0.855907  1
  V  V9  1  0.252491  0.390954  0.374408  1
  V  V10  1  0.255822  0.938422  0.643903  1
  V  V11  1  0.253070  0.891040  0.125487  1
  V  V12  1  0.753394  0.109041  0.874507  1
  V  V13  1  0.757061  0.061554  0.356139  1
  V  V14  1  0.753210  0.609119  0.625598  1
  V  V15  1  0.757047  0.561331  0.144121  1
  F  F16  1  0.001742  0.736156  0.163615  1
  F  F17  1  0.001777  0.236630  0.336369  1
  F  F18  1  0.017503  0.536088  0.412027  1
  F  F19  1  0.018214  0.036712  0.087742  1
  F  F20  1  0.031774  0.107182  0.621665  1
  F  F21  1  0.032137  0.607477  0.878388  1
  F  F22  1  0.237235  0.263585  0.465266  1
  F  F23  1  0.251505  0.990570  0.217031  1
  F  F24  1  0.253541  0.359633  0.956581  1
  F  F25  1  0.246162  0.464436  0.750618  1
  F  F26  1  0.254079  0.859758  0.543408  1
  F  F27  1  0.246987  0.962801  0.749142  1
  F  F28  1  0.251601  0.491814  0.282922  1
  F  F29  1  0.237865  0.764163  0.034985  1
  F  F30  1  0.468458  0.110054  0.631381  1
  F  F31  1  0.469133  0.610047  0.867674  1
  F  F32  1  0.485210  0.545999  0.412325  1
  F  F33  1  0.485896  0.046634  0.087563  1
  F  F34  1  0.505692  0.737934  0.160188  1
  F  F35  1  0.504795  0.237692  0.340047  1
  F  F36  1  0.501502  0.263885  0.836200  1
  F  F37  1  0.501988  0.763562  0.663783  1
  F  F38  1  0.518525  0.464247  0.588146  1
  F  F39  1  0.518986  0.963546  0.911953  1
  F  F40  1  0.533691  0.892463  0.378252  1
  F  F41  1  0.533629  0.392964  0.121464  1
  F  F42  1  0.754234  0.140184  0.456627  1
  F  F43  1  0.737244  0.235702  0.964967  1
  F  F44  1  0.747847  0.037042  0.250853  1
  F  F45  1  0.752195  0.507826  0.717216  1
  F  F46  1  0.737199  0.736174  0.534848  1
  F  F47  1  0.747118  0.535766  0.249372  1
  F  F48  1  0.752844  0.009731  0.782776  1
  F  F49  1  0.754744  0.640553  0.043488  1
  F  F50  1  0.970251  0.889951  0.368654  1
  F  F51  1  0.970392  0.389430  0.132230  1
  F  F52  1  0.986299  0.453708  0.587714  1
  F  F53  1  0.986741  0.953306  0.912403  1
  F  F54  1  0.005611  0.262109  0.839976  1
  F  F55  1  0.004824  0.762006  0.660019  1
