# generated using pymatgen
data_NiP2(H8O5)2
_symmetry_space_group_name_H-M   'P 1'
_cell_length_a   7.26666881
_cell_length_b   7.26666881
_cell_length_c   10.41016147
_cell_angle_alpha   88.21788147
_cell_angle_beta   91.78211853
_cell_angle_gamma   89.94145066
_symmetry_Int_Tables_number   1
_chemical_formula_structural   NiP2(H8O5)2
_chemical_formula_sum   'Ni2 P4 H32 O20'
_cell_volume   549.17039122
_cell_formula_units_Z   2
loop_
 _symmetry_equiv_pos_site_id
 _symmetry_equiv_pos_as_xyz
  1  'x, y, z'
loop_
 _atom_site_type_symbol
 _atom_site_label
 _atom_site_symmetry_multiplicity
 _atom_site_fract_x
 _atom_site_fract_y
 _atom_site_fract_z
 _atom_site_occupancy
  Ni  Ni0  1  0.734170  0.734170  0.750000  1
  Ni  Ni1  1  0.265830  0.265830  0.250000  1
  P  P2  1  0.220978  0.749526  0.509805  1
  P  P3  1  0.250474  0.779022  0.009805  1
  P  P4  1  0.749526  0.220978  0.990195  1
  P  P5  1  0.779022  0.250474  0.490195  1
  H  H6  1  0.045049  0.934431  0.696234  1
  H  H7  1  0.065569  0.954951  0.196234  1
  H  H8  1  0.249158  0.946257  0.936745  1
  H  H9  1  0.053743  0.750842  0.436745  1
  H  H10  1  0.048465  0.540486  0.695292  1
  H  H11  1  0.426689  0.938417  0.693676  1
  H  H12  1  0.459514  0.951535  0.195292  1
  H  H13  1  0.061583  0.573311  0.193676  1
  H  H14  1  0.242558  0.641076  0.917274  1
  H  H15  1  0.358924  0.757442  0.417274  1
  H  H16  1  0.638449  0.732557  0.996294  1
  H  H17  1  0.424844  0.541050  0.692855  1
  H  H18  1  0.739676  0.861240  0.505144  1
  H  H19  1  0.267443  0.361551  0.496294  1
  H  H20  1  0.458950  0.575156  0.192855  1
  H  H21  1  0.138760  0.260324  0.005144  1
  H  H22  1  0.861240  0.739676  0.994856  1
  H  H23  1  0.541050  0.424844  0.807145  1
  H  H24  1  0.732557  0.638449  0.503706  1
  H  H25  1  0.260324  0.138760  0.494856  1
  H  H26  1  0.575156  0.458950  0.307145  1
  H  H27  1  0.361551  0.267443  0.003706  1
  H  H28  1  0.641076  0.242558  0.582726  1
  H  H29  1  0.757442  0.358924  0.082726  1
  H  H30  1  0.938417  0.426689  0.806324  1
  H  H31  1  0.540486  0.048465  0.804708  1
  H  H32  1  0.573311  0.061583  0.306324  1
  H  H33  1  0.951535  0.459514  0.304708  1
  H  H34  1  0.946257  0.249158  0.563255  1
  H  H35  1  0.750842  0.053743  0.063255  1
  H  H36  1  0.934431  0.045049  0.803766  1
  H  H37  1  0.954951  0.065569  0.303766  1
  O  O38  1  0.229803  0.924635  0.588655  1
  O  O39  1  0.075365  0.770197  0.088655  1
  O  O40  1  0.530623  0.932730  0.757636  1
  O  O41  1  0.067270  0.469377  0.257636  1
  O  O42  1  0.235067  0.566140  0.586984  1
  O  O43  1  0.433860  0.764933  0.086984  1
  O  O44  1  0.702088  0.748312  0.552783  1
  O  O45  1  0.536179  0.536179  0.750000  1
  O  O46  1  0.934881  0.934881  0.750000  1
  O  O47  1  0.251688  0.297912  0.052783  1
  O  O48  1  0.748312  0.702088  0.947217  1
  O  O49  1  0.065119  0.065119  0.250000  1
  O  O50  1  0.463821  0.463821  0.250000  1
  O  O51  1  0.297912  0.251688  0.447217  1
  O  O52  1  0.566140  0.235067  0.913016  1
  O  O53  1  0.764933  0.433860  0.413016  1
  O  O54  1  0.932730  0.530623  0.742364  1
  O  O55  1  0.469377  0.067270  0.242364  1
  O  O56  1  0.924635  0.229803  0.911345  1
  O  O57  1  0.770197  0.075365  0.411345  1
