# generated using pymatgen
data_Li2MnFe(BO3)2
_symmetry_space_group_name_H-M   'P 1'
_cell_length_a   5.21556730
_cell_length_b   5.23788580
_cell_length_c   10.48582523
_cell_angle_alpha   89.12954067
_cell_angle_beta   90.99526976
_cell_angle_gamma   60.25051633
_symmetry_Int_Tables_number   1
_chemical_formula_structural   Li2MnFe(BO3)2
_chemical_formula_sum   'Li4 Mn2 Fe2 B4 O12'
_cell_volume   248.57225641
_cell_formula_units_Z   2
loop_
 _symmetry_equiv_pos_site_id
 _symmetry_equiv_pos_as_xyz
  1  'x, y, z'
loop_
 _atom_site_type_symbol
 _atom_site_label
 _atom_site_symmetry_multiplicity
 _atom_site_fract_x
 _atom_site_fract_y
 _atom_site_fract_z
 _atom_site_occupancy
  Li  Li0  1  0.322631  0.652059  0.333461  1
  Li  Li1  1  0.347567  0.675158  0.830564  1
  Li  Li2  1  0.647391  0.341810  0.583137  1
  Li  Li3  1  0.663997  0.345197  0.082715  1
  Mn  Mn4  1  0.331669  0.003884  0.114572  1
  Mn  Mn5  1  0.998322  0.326933  0.367804  1
  Fe  Fe6  1  0.684403  0.001752  0.867268  1
  Fe  Fe7  1  0.981674  0.674530  0.620540  1
  B  B8  1  0.004111  0.336624  0.871842  1
  B  B9  1  0.331269  0.005805  0.626000  1
  B  B10  1  0.659915  0.997911  0.375804  1
  B  B11  1  0.998276  0.665204  0.122337  1
  O  O12  1  0.070785  0.256661  0.585469  1
  O  O13  1  0.259334  0.067833  0.900518  1
  O  O14  1  0.023747  0.581758  0.834299  1
  O  O15  1  0.582892  0.030511  0.654979  1
  O  O16  1  0.273045  0.640754  0.138489  1
  O  O17  1  0.346488  0.736417  0.639258  1
  O  O18  1  0.630160  0.273402  0.390385  1
  O  O19  1  0.729215  0.358654  0.885375  1
  O  O20  1  0.421373  0.968151  0.332948  1
  O  O21  1  0.963560  0.422811  0.153069  1
  O  O22  1  0.756125  0.928927  0.078927  1
  O  O23  1  0.931451  0.747853  0.406438  1
