# generated using pymatgen
data_Li2VOF4
_symmetry_space_group_name_H-M   'P 1'
_cell_length_a   3.63802243
_cell_length_b   10.30715709
_cell_length_c   5.34217590
_cell_angle_alpha   90.00000000
_cell_angle_beta   70.09265091
_cell_angle_gamma   90.00000000
_symmetry_Int_Tables_number   1
_chemical_formula_structural   Li2VOF4
_chemical_formula_sum   'Li4 V2 O2 F8'
_cell_volume   188.34896366
_cell_formula_units_Z   2
loop_
 _symmetry_equiv_pos_site_id
 _symmetry_equiv_pos_as_xyz
  1  'x, y, z'
loop_
 _atom_site_type_symbol
 _atom_site_label
 _atom_site_symmetry_multiplicity
 _atom_site_fract_x
 _atom_site_fract_y
 _atom_site_fract_z
 _atom_site_occupancy
  Li  Li0  1  0.133851  0.925818  0.732300  1
  Li  Li1  1  0.181679  0.249757  0.636641  1
  Li  Li2  1  0.818321  0.749757  0.363359  1
  Li  Li3  1  0.866149  0.425818  0.267700  1
  V  V4  1  0.140401  0.558189  0.719198  1
  V  V5  1  0.859599  0.058189  0.280802  1
  O  O6  1  0.664008  0.564858  0.671984  1
  O  O7  1  0.335992  0.064858  0.328016  1
  F  F8  1  0.035331  0.125327  0.929338  1
  F  F9  1  0.054371  0.391900  0.891258  1
  F  F10  1  0.692754  0.949226  0.614493  1
  F  F11  1  0.230868  0.734924  0.538263  1
  F  F12  1  0.769132  0.234924  0.461737  1
  F  F13  1  0.307246  0.449226  0.385507  1
  F  F14  1  0.964669  0.625327  0.070662  1
  F  F15  1  0.945629  0.891900  0.108742  1
