# generated using pymatgen
data_Na2FePCO7
_symmetry_space_group_name_H-M   'P 1'
_cell_length_a   10.35602841
_cell_length_b   10.50723899
_cell_length_c   6.52654130
_cell_angle_alpha   90.00000000
_cell_angle_beta   90.00000000
_cell_angle_gamma   59.83160045
_symmetry_Int_Tables_number   1
_chemical_formula_structural   Na2FePCO7
_chemical_formula_sum   'Na8 Fe4 P4 C4 O28'
_cell_volume   613.98265948
_cell_formula_units_Z   4
loop_
 _symmetry_equiv_pos_site_id
 _symmetry_equiv_pos_as_xyz
  1  'x, y, z'
loop_
 _atom_site_type_symbol
 _atom_site_label
 _atom_site_symmetry_multiplicity
 _atom_site_fract_x
 _atom_site_fract_y
 _atom_site_fract_z
 _atom_site_occupancy
  Na  Na0  1  0.919842  0.421720  0.742043  1
  Na  Na1  1  0.919842  0.921720  0.757957  1
  Na  Na2  1  0.736503  0.258525  0.987165  1
  Na  Na3  1  0.736503  0.758525  0.512835  1
  Na  Na4  1  0.263497  0.241475  0.012835  1
  Na  Na5  1  0.263497  0.741475  0.487165  1
  Na  Na6  1  0.080158  0.078280  0.257957  1
  Na  Na7  1  0.080158  0.578280  0.242043  1
  Fe  Fe8  1  0.653935  0.064803  0.253405  1
  Fe  Fe9  1  0.653935  0.564803  0.246595  1
  Fe  Fe10  1  0.346065  0.435197  0.746595  1
  Fe  Fe11  1  0.346065  0.935197  0.753405  1
  P  P12  1  0.575660  0.066943  0.750338  1
  P  P13  1  0.575660  0.566943  0.749662  1
  P  P14  1  0.424340  0.433057  0.249662  1
  P  P15  1  0.424340  0.933057  0.250338  1
  C  C16  1  0.934811  0.397945  0.248402  1
  C  C17  1  0.934811  0.897945  0.251598  1
  C  C18  1  0.065189  0.102055  0.751598  1
  C  C19  1  0.065189  0.602055  0.748402  1
  O  O20  1  0.924940  0.185054  0.761552  1
  O  O21  1  0.924940  0.685054  0.738448  1
  O  O22  1  0.870904  0.041686  0.232407  1
  O  O23  1  0.870904  0.541686  0.267593  1
  O  O24  1  0.841984  0.347421  0.240239  1
  O  O25  1  0.841984  0.847421  0.259761  1
  O  O26  1  0.674725  0.052148  0.938184  1
  O  O27  1  0.676554  0.040348  0.561135  1
  O  O28  1  0.676554  0.540348  0.938865  1
  O  O29  1  0.674725  0.552148  0.561816  1
  O  O30  1  0.568931  0.280417  0.248170  1
  O  O31  1  0.568931  0.780417  0.251830  1
  O  O32  1  0.531144  0.445288  0.749504  1
  O  O33  1  0.531144  0.945288  0.750496  1
  O  O34  1  0.468856  0.054712  0.250496  1
  O  O35  1  0.468856  0.554712  0.249504  1
  O  O36  1  0.431069  0.219583  0.751830  1
  O  O37  1  0.431069  0.719583  0.748170  1
  O  O38  1  0.323446  0.459652  0.438865  1
  O  O39  1  0.325275  0.447852  0.061816  1
  O  O40  1  0.323446  0.959652  0.061135  1
  O  O41  1  0.325275  0.947852  0.438184  1
  O  O42  1  0.158016  0.152579  0.759761  1
  O  O43  1  0.158016  0.652579  0.740239  1
  O  O44  1  0.129096  0.458314  0.767593  1
  O  O45  1  0.129096  0.958314  0.732407  1
  O  O46  1  0.075060  0.314946  0.238448  1
  O  O47  1  0.075060  0.814946  0.261552  1
