# generated using pymatgen
data_Na3Li3Fe2P2(CO7)2
_symmetry_space_group_name_H-M   'P 1'
_cell_length_a   8.71772356
_cell_length_b   6.71015967
_cell_length_c   10.17790951
_cell_angle_alpha   89.57761704
_cell_angle_beta   87.93336658
_cell_angle_gamma   89.91919109
_symmetry_Int_Tables_number   1
_chemical_formula_structural   Na3Li3Fe2P2(CO7)2
_chemical_formula_sum   'Na6 Li6 Fe4 P4 C4 O28'
_cell_volume   594.97658445
_cell_formula_units_Z   2
loop_
 _symmetry_equiv_pos_site_id
 _symmetry_equiv_pos_as_xyz
  1  'x, y, z'
loop_
 _atom_site_type_symbol
 _atom_site_label
 _atom_site_symmetry_multiplicity
 _atom_site_fract_x
 _atom_site_fract_y
 _atom_site_fract_z
 _atom_site_occupancy
  Na  Na0  1  0.085842  0.250267  0.380071  1
  Na  Na1  1  0.255585  0.998746  0.631174  1
  Na  Na2  1  0.262004  0.000111  0.119090  1
  Na  Na3  1  0.261375  0.502274  0.120883  1
  Na  Na4  1  0.743250  0.500339  0.875804  1
  Na  Na5  1  0.740982  0.502346  0.374591  1
  Li  Li6  1  0.085990  0.248636  0.876587  1
  Li  Li7  1  0.276132  0.477154  0.624576  1
  Li  Li8  1  0.728263  0.980619  0.881365  1
  Li  Li9  1  0.721363  0.978025  0.384752  1
  Li  Li10  1  0.904621  0.754822  0.624126  1
  Li  Li11  1  0.906008  0.765513  0.125013  1
  Fe  Fe12  1  0.353494  0.748137  0.884030  1
  Fe  Fe13  1  0.352412  0.746037  0.394180  1
  Fe  Fe14  1  0.650677  0.242357  0.614438  1
  Fe  Fe15  1  0.651728  0.245041  0.108303  1
  P  P16  1  0.407026  0.248397  0.849694  1
  P  P17  1  0.419373  0.243321  0.356726  1
  P  P18  1  0.593171  0.746868  0.647875  1
  P  P19  1  0.595425  0.754449  0.141513  1
  C  C20  1  0.045788  0.757490  0.863805  1
  C  C21  1  0.044539  0.760599  0.364566  1
  C  C22  1  0.946535  0.256045  0.643827  1
  C  C23  1  0.949375  0.249044  0.131318  1
  O  O24  1  0.092780  0.277617  0.661013  1
  O  O25  1  0.094115  0.250629  0.152657  1
  O  O26  1  0.080919  0.753301  0.986576  1
  O  O27  1  0.082232  0.756850  0.486814  1
  O  O28  1  0.155462  0.742682  0.772817  1
  O  O29  1  0.152426  0.745482  0.272329  1
  O  O30  1  0.300650  0.067568  0.883491  1
  O  O31  1  0.314215  0.433385  0.897147  1
  O  O32  1  0.318080  0.059436  0.395562  1
  O  O33  1  0.327187  0.429993  0.406564  1
  O  O34  1  0.432025  0.264031  0.696272  1
  O  O35  1  0.431029  0.728969  0.590042  1
  O  O36  1  0.439738  0.255021  0.203868  1
  O  O37  1  0.437989  0.751609  0.075916  1
  O  O38  1  0.566157  0.230015  0.911647  1
  O  O39  1  0.572122  0.771505  0.800110  1
  O  O40  1  0.579784  0.230511  0.416166  1
  O  O41  1  0.568763  0.774454  0.293625  1
  O  O42  1  0.695959  0.562243  0.617361  1
  O  O43  1  0.686523  0.926212  0.589599  1
  O  O44  1  0.692428  0.564118  0.111174  1
  O  O45  1  0.697472  0.930035  0.087704  1
  O  O46  1  0.852265  0.233494  0.744498  1
  O  O47  1  0.849526  0.242016  0.230489  1
  O  O48  1  0.890371  0.255236  0.527251  1
  O  O49  1  0.900708  0.253438  0.012301  1
  O  O50  1  0.905404  0.775383  0.827535  1
  O  O51  1  0.902717  0.778130  0.331166  1
