# generated using pymatgen
data_Be3Fe4Si3TeO12
_symmetry_space_group_name_H-M   'P 1'
_cell_length_a   8.44335314
_cell_length_b   8.44803389
_cell_length_c   8.44397934
_cell_angle_alpha   90.22997378
_cell_angle_beta   90.41410714
_cell_angle_gamma   89.85736249
_symmetry_Int_Tables_number   1
_chemical_formula_structural   Be3Fe4Si3TeO12
_chemical_formula_sum   'Be6 Fe8 Si6 Te2 O24'
_cell_volume   602.28438917
_cell_formula_units_Z   2
loop_
 _symmetry_equiv_pos_site_id
 _symmetry_equiv_pos_as_xyz
  1  'x, y, z'
loop_
 _atom_site_type_symbol
 _atom_site_label
 _atom_site_symmetry_multiplicity
 _atom_site_fract_x
 _atom_site_fract_y
 _atom_site_fract_z
 _atom_site_occupancy
  Be  Be0  1  0.999397  0.750173  0.501506  1
  Be  Be1  1  0.250713  0.501146  0.999974  1
  Be  Be2  1  0.500176  0.999745  0.750130  1
  Be  Be3  1  0.498963  0.000508  0.249618  1
  Be  Be4  1  0.999819  0.250567  0.499875  1
  Be  Be5  1  0.750170  0.499608  0.998918  1
  Fe  Fe6  1  0.815685  0.810749  0.183973  1
  Fe  Fe7  1  0.683249  0.311030  0.315510  1
  Fe  Fe8  1  0.186343  0.812364  0.817067  1
  Fe  Fe9  1  0.811285  0.184457  0.815942  1
  Fe  Fe10  1  0.310720  0.682347  0.313602  1
  Fe  Fe11  1  0.684269  0.689130  0.684912  1
  Fe  Fe12  1  0.184467  0.184882  0.189132  1
  Fe  Fe13  1  0.316126  0.311111  0.684492  1
  Si  Si14  1  0.001316  0.499612  0.249897  1
  Si  Si15  1  0.500172  0.250853  0.000404  1
  Si  Si16  1  0.500996  0.750615  0.999834  1
  Si  Si17  1  0.999365  0.500135  0.749909  1
  Si  Si18  1  0.750479  0.000441  0.500640  1
  Si  Si19  1  0.250088  0.998091  0.498589  1
  Te  Te20  1  0.499695  0.499413  0.500171  1
  Te  Te21  1  -0.000128  -0.000083  0.000382  1
  O  O22  1  0.422310  0.858137  0.856100  1
  O  O23  1  0.356214  0.357225  0.921900  1
  O  O24  1  0.144978  0.423363  0.143168  1
  O  O25  1  0.644345  0.643690  0.921884  1
  O  O26  1  0.144548  0.857232  0.577142  1
  O  O27  1  0.857761  0.144163  0.578085  1
  O  O28  1  0.922029  0.643921  0.644503  1
  O  O29  1  0.856775  0.421920  0.855456  1
  O  O30  1  0.358181  0.078208  0.641448  1
  O  O31  1  0.854976  0.856856  0.422597  1
  O  O32  1  0.142593  0.579283  0.857329  1
  O  O33  1  0.642641  0.922654  0.641904  1
  O  O34  1  0.078154  0.356690  0.644074  1
  O  O35  1  0.422353  0.145093  0.142790  1
  O  O36  1  0.578411  0.142510  0.857950  1
  O  O37  1  0.356661  0.921965  0.355116  1
  O  O38  1  0.077869  0.642336  0.358865  1
  O  O39  1  0.142149  0.142627  0.421465  1
  O  O40  1  0.644439  0.357704  0.077706  1
  O  O41  1  0.858752  0.578456  0.141406  1
  O  O42  1  0.922054  0.357136  0.355145  1
  O  O43  1  0.358517  0.644704  0.077382  1
  O  O44  1  0.641674  0.079048  0.358241  1
  O  O45  1  0.578250  0.858182  0.143866  1
