# generated using pymatgen
data_Na(FeO2)2
_symmetry_space_group_name_H-M   'P 1'
_cell_length_a   9.23973988
_cell_length_b   10.83727498
_cell_length_c   2.99806098
_cell_angle_alpha   90.00009213
_cell_angle_beta   89.99999368
_cell_angle_gamma   89.99871078
_symmetry_Int_Tables_number   1
_chemical_formula_structural   Na(FeO2)2
_chemical_formula_sum   'Na4 Fe8 O16'
_cell_volume   300.20664438
_cell_formula_units_Z   4
loop_
 _symmetry_equiv_pos_site_id
 _symmetry_equiv_pos_as_xyz
  1  'x, y, z'
loop_
 _atom_site_type_symbol
 _atom_site_label
 _atom_site_symmetry_multiplicity
 _atom_site_fract_x
 _atom_site_fract_y
 _atom_site_fract_z
 _atom_site_occupancy
  Na  Na0  1  0.242406  0.342717  0.750000  1
  Na  Na1  1  0.257165  0.842297  0.249998  1
  Na  Na2  1  0.742189  0.157585  0.750000  1
  Na  Na3  1  0.757368  0.657640  0.249999  1
  Fe  Fe4  1  0.062763  0.112138  0.750000  1
  Fe  Fe5  1  0.083320  0.602896  0.750001  1
  Fe  Fe6  1  0.417170  0.102893  0.250001  1
  Fe  Fe7  1  0.436427  0.611792  0.250001  1
  Fe  Fe8  1  0.563911  0.388635  0.749998  1
  Fe  Fe9  1  0.583419  0.896757  0.750000  1
  Fe  Fe10  1  0.916758  0.397757  0.250001  1
  Fe  Fe11  1  0.935630  0.888085  0.249998  1
  O  O12  1  0.023492  0.714698  0.250001  1
  O  O13  1  0.075171  0.926195  0.749998  1
  O  O14  1  0.113966  0.480320  0.250000  1
  O  O15  1  0.204913  0.150826  0.250000  1
  O  O16  1  0.294838  0.650495  0.750000  1
  O  O17  1  0.386989  0.980374  0.750002  1
  O  O18  1  0.423859  0.426855  0.250000  1
  O  O19  1  0.478079  0.214205  0.750000  1
  O  O20  1  0.524396  0.784387  0.250001  1
  O  O21  1  0.576169  0.574329  0.750001  1
  O  O22  1  0.615726  0.017485  0.249998  1
  O  O23  1  0.705500  0.350740  0.250000  1
  O  O24  1  0.794242  0.848431  0.749999  1
  O  O25  1  0.885843  0.519814  0.750001  1
  O  O26  1  0.922846  0.073984  0.250000  1
  O  O27  1  0.975447  0.285667  0.750001  1
