# generated using pymatgen
data_Li4VNi3O8
_symmetry_space_group_name_H-M   'P 1'
_cell_length_a   10.18398357
_cell_length_b   10.18661785
_cell_length_c   14.40678567
_cell_angle_alpha   19.46017816
_cell_angle_beta   19.45136057
_cell_angle_gamma   33.51697664
_symmetry_Int_Tables_number   1
_chemical_formula_structural   Li4VNi3O8
_chemical_formula_sum   'Li4 V1 Ni3 O8'
_cell_volume   143.71134106
_cell_formula_units_Z   1
loop_
 _symmetry_equiv_pos_site_id
 _symmetry_equiv_pos_as_xyz
  1  'x, y, z'
loop_
 _atom_site_type_symbol
 _atom_site_label
 _atom_site_symmetry_multiplicity
 _atom_site_fract_x
 _atom_site_fract_y
 _atom_site_fract_z
 _atom_site_occupancy
  Li  Li0  1  0.993492  0.003357  0.500193  1
  Li  Li1  1  0.999712  0.494127  0.502207  1
  Li  Li2  1  0.498599  0.993104  0.505472  1
  Li  Li3  1  0.497515  0.498359  0.503384  1
  V  V4  1  0.005249  0.004401  -0.006737  1
  Ni  Ni5  1  0.001226  0.496171  0.001232  1
  Ni  Ni6  1  0.506157  0.000395  0.994973  1
  Ni  Ni7  1  0.502361  0.499369  -0.002345  1
  O  O8  1  0.007365  -0.001408  0.256358  1
  O  O9  1  0.002248  0.531753  0.232845  1
  O  O10  1  0.539179  -0.002381  0.231425  1
  O  O11  1  0.000988  0.999177  0.738140  1
  O  O12  1  0.468088  0.461729  0.302249  1
  O  O13  1  0.003454  0.464921  0.763846  1
  O  O14  1  0.464905  0.996723  0.768585  1
  O  O15  1  0.539124  0.535540  0.693157  1
