# generated using pymatgen
data_LiMn2OF3
_symmetry_space_group_name_H-M   'P 1'
_cell_length_a   8.43380424
_cell_length_b   8.43380424
_cell_length_c   6.19112464
_cell_angle_alpha   68.47490136
_cell_angle_beta   111.52509864
_cell_angle_gamma   115.87349603
_symmetry_Int_Tables_number   1
_chemical_formula_structural   LiMn2OF3
_chemical_formula_sum   'Li4 Mn8 O4 F12'
_cell_volume   357.16539499
_cell_formula_units_Z   4
loop_
 _symmetry_equiv_pos_site_id
 _symmetry_equiv_pos_as_xyz
  1  'x, y, z'
loop_
 _atom_site_type_symbol
 _atom_site_label
 _atom_site_symmetry_multiplicity
 _atom_site_fract_x
 _atom_site_fract_y
 _atom_site_fract_z
 _atom_site_occupancy
  Li  Li0  1  0.756630  0.533355  0.111624  1
  Li  Li1  1  0.033355  0.256630  0.388376  1
  Li  Li2  1  0.985520  0.744350  0.620594  1
  Li  Li3  1  0.244350  0.485520  0.879406  1
  Mn  Mn4  1  0.984495  0.985802  0.999336  1
  Mn  Mn5  1  0.380738  0.117000  0.389767  1
  Mn  Mn6  1  0.617000  0.880738  0.110233  1
  Mn  Mn7  1  0.219860  0.719860  0.250000  1
  Mn  Mn8  1  0.485802  0.484495  0.500664  1
  Mn  Mn9  1  0.783051  0.283051  0.750000  1
  Mn  Mn10  1  0.380751  0.117000  0.874013  1
  Mn  Mn11  1  0.617000  0.880751  0.625987  1
  O  O12  1  0.740182  0.781118  0.979486  1
  O  O13  1  0.281118  0.240182  0.520514  1
  O  O14  1  0.542880  0.042880  0.750000  1
  O  O15  1  0.461561  0.961561  0.250000  1
  F  F16  1  0.887051  0.134477  0.120895  1
  F  F17  1  0.992569  0.492569  0.250000  1
  F  F18  1  0.634477  0.387051  0.379105  1
  F  F19  1  0.368910  0.617531  0.133102  1
  F  F20  1  0.887131  0.134455  0.631770  1
  F  F21  1  0.723319  0.741298  0.490984  1
  F  F22  1  0.117531  0.868910  0.366898  1
  F  F23  1  0.368860  0.617589  0.618248  1
  F  F24  1  0.634455  0.387131  0.868230  1
  F  F25  1  0.012515  0.512515  0.750000  1
  F  F26  1  0.241298  0.223319  0.009016  1
  F  F27  1  0.117589  0.868860  0.881752  1
