# generated using pymatgen
data_Li4MnCrO6
_symmetry_space_group_name_H-M   'P 1'
_cell_length_a   5.00526589
_cell_length_b   5.00526545
_cell_length_c   19.45712339
_cell_angle_alpha   85.30799913
_cell_angle_beta   94.69200138
_cell_angle_gamma   60.52720606
_symmetry_Int_Tables_number   1
_chemical_formula_structural   Li4MnCrO6
_chemical_formula_sum   'Li16 Mn4 Cr4 O24'
_cell_volume   418.74453132
_cell_formula_units_Z   4
loop_
 _symmetry_equiv_pos_site_id
 _symmetry_equiv_pos_as_xyz
  1  'x, y, z'
loop_
 _atom_site_type_symbol
 _atom_site_label
 _atom_site_symmetry_multiplicity
 _atom_site_fract_x
 _atom_site_fract_y
 _atom_site_fract_z
 _atom_site_occupancy
  Li  Li0  1  0.999590  0.500318  0.499985  1
  Li  Li1  1  0.251640  0.251640  0.875000  1
  Li  Li2  1  0.158625  0.661818  0.749956  1
  Li  Li3  1  0.000867  0.499712  0.999825  1
  Li  Li4  1  0.247328  0.247328  0.375000  1
  Li  Li5  1  0.499712  0.000867  0.750175  1
  Li  Li6  1  0.152442  0.669778  0.249726  1
  Li  Li7  1  0.500318  0.999590  0.250015  1
  Li  Li8  1  0.335461  0.841128  0.999605  1
  Li  Li9  1  0.669778  0.152442  0.500274  1
  Li  Li10  1  0.330445  0.847379  0.499689  1
  Li  Li11  1  0.661818  0.158625  0.000044  1
  Li  Li12  1  0.841128  0.335461  0.750395  1
  Li  Li13  1  0.752938  0.752031  0.625052  1
  Li  Li14  1  0.847379  0.330445  0.250311  1
  Li  Li15  1  0.752031  0.752938  0.124948  1
  Mn  Mn16  1  0.082720  0.082310  0.625065  1
  Mn  Mn17  1  0.082310  0.082720  0.124935  1
  Mn  Mn18  1  0.582521  0.582521  0.875000  1
  Mn  Mn19  1  0.917410  0.917410  0.375000  1
  Cr  Cr20  1  0.421446  0.420433  0.624995  1
  Cr  Cr21  1  0.420433  0.421446  0.125005  1
  Cr  Cr22  1  0.579006  0.579006  0.375000  1
  Cr  Cr23  1  0.920342  0.920342  0.875000  1
  O  O24  1  0.145864  0.353045  0.682048  1
  O  O25  1  0.353076  0.146879  0.568097  1
  O  O26  1  0.146879  0.353076  0.181903  1
  O  O27  1  0.292106  0.565990  0.931554  1
  O  O28  1  0.065568  0.792567  0.568375  1
  O  O29  1  0.353045  0.145864  0.067952  1
  O  O30  1  0.212816  0.926071  0.819316  1
  O  O31  1  0.287968  0.573777  0.430778  1
  O  O32  1  0.065496  0.793120  0.068187  1
  O  O33  1  0.565990  0.292106  0.818446  1
  O  O34  1  0.425875  0.712101  0.680707  1
  O  O35  1  0.207382  0.934472  0.318400  1
  O  O36  1  0.793120  0.065496  0.681813  1
  O  O37  1  0.573777  0.287968  0.319222  1
  O  O38  1  0.426263  0.712305  0.180769  1
  O  O39  1  0.926071  0.212816  0.930684  1
  O  O40  1  0.712305  0.426263  0.569231  1
  O  O41  1  0.792567  0.065568  0.181625  1
  O  O42  1  0.646007  0.853146  0.931987  1
  O  O43  1  0.934472  0.207382  0.431600  1
  O  O44  1  0.712101  0.425875  0.069293  1
  O  O45  1  0.853146  0.646007  0.818013  1
  O  O46  1  0.646682  0.853734  0.431935  1
  O  O47  1  0.853734  0.646682  0.318065  1
