# generated using pymatgen
data_YH8C2S2NO9
_symmetry_space_group_name_H-M   'P 1'
_cell_length_a   9.13538210
_cell_length_b   19.53054502
_cell_length_c   5.59063101
_cell_angle_alpha   90.00000000
_cell_angle_beta   90.07222517
_cell_angle_gamma   90.00000000
_symmetry_Int_Tables_number   1
_chemical_formula_structural   YH8C2S2NO9
_chemical_formula_sum   'Y4 H32 C8 S8 N4 O36'
_cell_volume   997.47395460
_cell_formula_units_Z   4
loop_
 _symmetry_equiv_pos_site_id
 _symmetry_equiv_pos_as_xyz
  1  'x, y, z'
loop_
 _atom_site_type_symbol
 _atom_site_label
 _atom_site_symmetry_multiplicity
 _atom_site_fract_x
 _atom_site_fract_y
 _atom_site_fract_z
 _atom_site_occupancy
  Y  Y0  1  0.663324  0.489646  0.237184  1
  Y  Y1  1  0.163324  0.010354  0.737184  1
  Y  Y2  1  0.336676  0.510354  0.762816  1
  Y  Y3  1  0.836676  0.989646  0.262816  1
  H  H4  1  0.612231  0.304707  0.264895  1
  H  H5  1  0.112231  0.195293  0.764895  1
  H  H6  1  0.387769  0.695293  0.735105  1
  H  H7  1  0.887769  0.804707  0.235105  1
  H  H8  1  0.649916  0.264983  0.513121  1
  H  H9  1  0.149916  0.235017  0.013121  1
  H  H10  1  0.350084  0.735017  0.486879  1
  H  H11  1  0.850084  0.764983  0.986879  1
  H  H12  1  0.858122  0.204659  0.290874  1
  H  H13  1  0.358122  0.295341  0.790874  1
  H  H14  1  0.141878  0.795341  0.709126  1
  H  H15  1  0.641878  0.704659  0.209126  1
  H  H16  1  0.453584  0.213152  0.254921  1
  H  H17  1  0.953584  0.286848  0.754921  1
  H  H18  1  0.546416  0.786848  0.745079  1
  H  H19  1  0.046416  0.713152  0.245079  1
  H  H20  1  0.601291  0.190273  0.056874  1
  H  H21  1  0.101291  0.309727  0.556874  1
  H  H22  1  0.398709  0.809727  0.943126  1
  H  H23  1  0.898709  0.690273  0.443126  1
  H  H24  1  0.595550  0.155566  0.352053  1
  H  H25  1  0.095550  0.344434  0.852053  1
  H  H26  1  0.404450  0.844434  0.647947  1
  H  H27  1  0.904450  0.655566  0.147947  1
  H  H28  1  0.878177  0.293154  0.367459  1
  H  H29  1  0.378177  0.206846  0.867459  1
  H  H30  1  0.121823  0.706846  0.632541  1
  H  H31  1  0.621823  0.793154  0.132541  1
  H  H32  1  0.824657  0.269381  0.071282  1
  H  H33  1  0.324657  0.230619  0.571282  1
  H  H34  1  0.175343  0.730619  0.928718  1
  H  H35  1  0.675343  0.769381  0.428718  1
  C  C36  1  0.816066  0.256263  0.260102  1
  C  C37  1  0.316066  0.243737  0.760102  1
  C  C38  1  0.183934  0.743737  0.739898  1
  C  C39  1  0.683934  0.756263  0.239898  1
  C  C40  1  0.570020  0.200291  0.242200  1
  C  C41  1  0.070020  0.299709  0.742200  1
  C  C42  1  0.429980  0.799709  0.757800  1
  C  C43  1  0.929980  0.700291  0.257800  1
  S  S44  1  0.670252  0.604264  0.737270  1
  S  S45  1  0.170252  0.895736  0.237270  1
  S  S46  1  0.329748  0.395736  0.262730  1
  S  S47  1  0.829748  0.104264  0.762730  1
  S  S48  1  0.676212  0.401118  0.760880  1
  S  S49  1  0.176212  0.098882  0.260880  1
  S  S50  1  0.323788  0.598882  0.239120  1
  S  S51  1  0.823788  0.901118  0.739120  1
  N  N52  1  0.658149  0.259838  0.329106  1
  N  N53  1  0.158149  0.240162  0.829106  1
  N  N54  1  0.341851  0.740162  0.670894  1
  N  N55  1  0.841851  0.759838  0.170894  1
  O  O56  1  0.713453  0.676035  0.737089  1
  O  O57  1  0.213453  0.823965  0.237089  1
  O  O58  1  0.286547  0.323965  0.262911  1
  O  O59  1  0.786547  0.176035  0.762911  1
  O  O60  1  0.726434  0.569530  0.958723  1
  O  O61  1  0.226434  0.930470  0.458723  1
  O  O62  1  0.273566  0.430470  0.041277  1
  O  O63  1  0.773566  0.069530  0.541277  1
  O  O64  1  0.729447  0.567624  0.522142  1
  O  O65  1  0.229447  0.932376  0.022142  1
  O  O66  1  0.270553  0.432376  0.477858  1
  O  O67  1  0.770553  0.067624  0.977858  1
  O  O68  1  0.505305  0.598108  0.731112  1
  O  O69  1  0.005305  0.901892  0.231112  1
  O  O70  1  0.494695  0.401892  0.268888  1
  O  O71  1  0.994695  0.098108  0.768888  1
  O  O72  1  0.768834  0.410551  0.980176  1
  O  O73  1  0.268834  0.089449  0.480176  1
  O  O74  1  0.231166  0.589449  0.019824  1
  O  O75  1  0.731166  0.910551  0.519824  1
  O  O76  1  0.762089  0.418244  0.542051  1
  O  O77  1  0.262089  0.081756  0.042051  1
  O  O78  1  0.237911  0.581756  0.457949  1
  O  O79  1  0.737911  0.918244  0.957949  1
  O  O80  1  0.554835  0.454350  0.783839  1
  O  O81  1  0.054835  0.045650  0.283839  1
  O  O82  1  0.445165  0.545650  0.216161  1
  O  O83  1  0.945165  0.954350  0.716161  1
  O  O84  1  0.617554  0.331739  0.753025  1
  O  O85  1  0.117554  0.168261  0.253025  1
  O  O86  1  0.382446  0.668261  0.246975  1
  O  O87  1  0.882446  0.831739  0.746975  1
  O  O88  1  0.982078  0.499927  0.105901  1
  O  O89  1  0.482078  0.000073  0.605901  1
  O  O90  1  0.017922  0.500073  0.894099  1
  O  O91  1  0.517922  0.999927  0.394099  1
