# generated using pymatgen
data_Li12MnCo3P4(CO7)4
_symmetry_space_group_name_H-M   'P 1'
_cell_length_a   8.46067113
_cell_length_b   10.02954956
_cell_length_c   6.49318925
_cell_angle_alpha   90.00000000
_cell_angle_beta   90.00000000
_cell_angle_gamma   85.11513487
_symmetry_Int_Tables_number   1
_chemical_formula_structural   Li12MnCo3P4(CO7)4
_chemical_formula_sum   'Li12 Mn1 Co3 P4 C4 O28'
_cell_volume   548.98944961
_cell_formula_units_Z   1
loop_
 _symmetry_equiv_pos_site_id
 _symmetry_equiv_pos_as_xyz
  1  'x, y, z'
loop_
 _atom_site_type_symbol
 _atom_site_label
 _atom_site_symmetry_multiplicity
 _atom_site_fract_x
 _atom_site_fract_y
 _atom_site_fract_z
 _atom_site_occupancy
  Li  Li0  1  0.099282  0.382655  0.250000  1
  Li  Li1  1  0.093825  0.882142  0.250000  1
  Li  Li2  1  0.277580  0.125894  0.023251  1
  Li  Li3  1  0.277580  0.125894  0.476749  1
  Li  Li4  1  0.275257  0.623550  0.021742  1
  Li  Li5  1  0.275257  0.623550  0.478258  1
  Li  Li6  1  0.722400  0.373743  0.523180  1
  Li  Li7  1  0.722400  0.373743  0.976820  1
  Li  Li8  1  0.723886  0.877645  0.523492  1
  Li  Li9  1  0.723886  0.877645  0.976508  1
  Li  Li10  1  0.901837  0.116715  0.750000  1
  Li  Li11  1  0.901214  0.616242  0.750000  1
  Mn  Mn12  1  0.660750  0.611495  0.250000  1
  Co  Co13  1  0.331981  0.394580  0.750000  1
  Co  Co14  1  0.331138  0.895519  0.750000  1
  Co  Co15  1  0.668451  0.104788  0.250000  1
  P  P16  1  0.414099  0.358642  0.250000  1
  P  P17  1  0.410147  0.863710  0.250000  1
  P  P18  1  0.586585  0.138966  0.750000  1
  P  P19  1  0.587102  0.638023  0.750000  1
  C  C20  1  0.037793  0.350650  0.750000  1
  C  C21  1  0.037162  0.850835  0.750000  1
  C  C22  1  0.961735  0.150041  0.250000  1
  C  C23  1  0.967802  0.649067  0.250000  1
  O  O24  1  0.072465  0.473890  0.750000  1
  O  O25  1  0.107549  0.180939  0.250000  1
  O  O26  1  0.071650  0.973881  0.750000  1
  O  O27  1  0.155055  0.256922  0.750000  1
  O  O28  1  0.114528  0.679616  0.250000  1
  O  O29  1  0.154767  0.757101  0.750000  1
  O  O30  1  0.310229  0.410892  0.063291  1
  O  O31  1  0.310229  0.410892  0.436709  1
  O  O32  1  0.308331  0.916383  0.062790  1
  O  O33  1  0.308331  0.916383  0.437210  1
  O  O34  1  0.420245  0.086110  0.750000  1
  O  O35  1  0.433147  0.202350  0.250000  1
  O  O36  1  0.419952  0.585328  0.750000  1
  O  O37  1  0.425577  0.707682  0.250000  1
  O  O38  1  0.566814  0.294845  0.750000  1
  O  O39  1  0.580470  0.410090  0.250000  1
  O  O40  1  0.565860  0.794497  0.750000  1
  O  O41  1  0.579775  0.911462  0.250000  1
  O  O42  1  0.690755  0.087085  0.936632  1
  O  O43  1  0.690755  0.087085  0.563368  1
  O  O44  1  0.690999  0.585415  0.565730  1
  O  O45  1  0.690999  0.585415  0.934270  1
  O  O46  1  0.845024  0.243880  0.250000  1
  O  O47  1  0.892299  0.318562  0.750000  1
  O  O48  1  0.854405  0.745705  0.250000  1
  O  O49  1  0.925978  0.026850  0.250000  1
  O  O50  1  0.891704  0.818706  0.750000  1
  O  O51  1  0.932955  0.526299  0.250000  1
