# generated using pymatgen
data_Sr5W3O14
_symmetry_space_group_name_H-M   'P 1'
_cell_length_a   10.91244064
_cell_length_b   7.68831996
_cell_length_c   11.07539212
_cell_angle_alpha   90.07833776
_cell_angle_beta   90.11038520
_cell_angle_gamma   44.79139607
_symmetry_Int_Tables_number   1
_chemical_formula_structural   Sr5W3O14
_chemical_formula_sum   'Sr10 W6 O28'
_cell_volume   654.65077963
_cell_formula_units_Z   2
loop_
 _symmetry_equiv_pos_site_id
 _symmetry_equiv_pos_as_xyz
  1  'x, y, z'
loop_
 _atom_site_type_symbol
 _atom_site_label
 _atom_site_symmetry_multiplicity
 _atom_site_fract_x
 _atom_site_fract_y
 _atom_site_fract_z
 _atom_site_occupancy
  Sr  Sr0  1  0.007259  0.993390  0.505476  1
  Sr  Sr1  1  0.500650  0.006610  0.005476  1
  Sr  Sr2  1  0.752452  0.496300  0.226012  1
  Sr  Sr3  1  0.748752  0.503700  0.726012  1
  Sr  Sr4  1  0.727699  0.026119  0.261148  1
  Sr  Sr5  1  0.253818  0.973881  0.761148  1
  Sr  Sr6  1  0.762494  0.974080  0.749906  1
  Sr  Sr7  1  0.236574  0.025920  0.249906  1
  Sr  Sr8  1  0.247350  0.506758  0.276189  1
  Sr  Sr9  1  0.254108  0.493242  0.776189  1
  W  W10  1  0.997025  0.999232  0.001256  1
  W  W11  1  0.496258  0.000768  0.501256  1
  W  W12  1  0.497427  0.503233  0.001415  1
  W  W13  1  0.500660  0.496767  0.501415  1
  W  W14  1  0.002723  0.493831  0.002584  1
  W  W15  1  0.996554  0.506169  0.502584  1
  O  O16  1  0.549747  0.910696  0.333752  1
  O  O17  1  0.960444  0.089304  0.833752  1
  O  O18  1  0.502994  0.246249  0.457031  1
  O  O19  1  0.249243  0.753751  0.957031  1
  O  O20  1  0.005167  0.243676  0.043928  1
  O  O21  1  0.748843  0.756324  0.543928  1
  O  O22  1  0.470859  0.358750  0.128307  1
  O  O23  1  0.329609  0.641250  0.628307  1
  O  O24  1  0.970548  0.363638  0.374661  1
  O  O25  1  0.834185  0.636362  0.874661  1
  O  O26  1  0.303248  0.726538  0.393143  1
  O  O27  1  0.529785  0.273462  0.893143  1
  O  O28  1  0.808010  0.721449  0.111875  1
  O  O29  1  0.029459  0.278551  0.611875  1
  O  O30  1  0.697089  0.277925  0.611125  1
  O  O31  1  0.475014  0.722075  0.111125  1
  O  O32  1  0.201173  0.273659  0.893465  1
  O  O33  1  0.974832  0.726341  0.393465  1
  O  O34  1  0.532070  0.638293  0.875531  1
  O  O35  1  0.670364  0.361707  0.375531  1
  O  O36  1  0.031662  0.644340  0.627519  1
  O  O37  1  0.176002  0.355660  0.127519  1
  O  O38  1  0.753277  0.242570  0.044119  1
  O  O39  1  0.495848  0.757430  0.544119  1
  O  O40  1  0.252417  0.245094  0.458416  1
  O  O41  1  0.997512  0.754906  0.958416  1
  O  O42  1  0.051417  0.912387  0.168252  1
  O  O43  1  0.463806  0.087613  0.668252  1
