# generated using pymatgen
data_Li3Fe8(BO3)8
_symmetry_space_group_name_H-M   'P 1'
_cell_length_a   5.23345583
_cell_length_b   9.16713935
_cell_length_c   11.33130246
_cell_angle_alpha   66.98395130
_cell_angle_beta   76.70159259
_cell_angle_gamma   89.41619858
_symmetry_Int_Tables_number   1
_chemical_formula_structural   Li3Fe8(BO3)8
_chemical_formula_sum   'Li3 Fe8 B8 O24'
_cell_volume   485.00259801
_cell_formula_units_Z   1
loop_
 _symmetry_equiv_pos_site_id
 _symmetry_equiv_pos_as_xyz
  1  'x, y, z'
loop_
 _atom_site_type_symbol
 _atom_site_label
 _atom_site_symmetry_multiplicity
 _atom_site_fract_x
 _atom_site_fract_y
 _atom_site_fract_z
 _atom_site_occupancy
  Li  Li0  1  0.709736  0.724219  0.914134  1
  Li  Li1  1  0.514349  0.495540  0.655272  1
  Li  Li2  1  0.023648  0.999821  0.649527  1
  Fe  Fe3  1  0.978469  0.650899  0.370391  1
  Fe  Fe4  1  0.741797  0.068973  0.882352  1
  Fe  Fe5  1  0.534976  0.843930  0.623735  1
  Fe  Fe6  1  0.756279  0.433473  0.139754  1
  Fe  Fe7  1  0.228926  0.557210  0.886324  1
  Fe  Fe8  1  0.479930  0.146187  0.374328  1
  Fe  Fe9  1  0.024646  0.350862  0.627258  1
  Fe  Fe10  1  0.262809  0.935803  0.124765  1
  B  B11  1  0.968231  0.306836  0.387673  1
  B  B12  1  0.743895  0.409237  0.865092  1
  B  B13  1  0.522325  0.186558  0.625786  1
  B  B14  1  0.761955  0.100376  0.133459  1
  B  B15  1  0.472492  0.812602  0.377054  1
  B  B16  1  0.231121  0.885916  0.877868  1
  B  B17  1  0.029711  0.680582  0.631724  1
  B  B18  1  0.272226  0.612948  0.120770  1
  O  O19  1  0.981680  0.903494  0.857496  1
  O  O20  1  0.889270  0.304678  0.820223  1
  O  O21  1  0.855223  0.503488  0.914335  1
  O  O22  1  0.901773  0.807779  0.636550  1
  O  O23  1  0.928327  0.575826  0.584255  1
  O  O24  1  0.769613  0.169622  0.659190  1
  O  O25  1  0.733619  0.319814  0.349350  1
  O  O26  1  0.490124  0.425948  0.852582  1
  O  O27  1  0.383054  0.773706  0.841615  1
  O  O28  1  0.537200  0.925067  0.421771  1
  O  O29  1  0.623923  0.689538  0.383575  1
  O  O30  1  0.348336  0.973143  0.929958  1
  O  O31  1  0.630556  0.013359  0.084705  1
  O  O32  1  0.384032  0.313963  0.630524  1
  O  O33  1  0.420753  0.073987  0.590992  1
  O  O34  1  0.618439  0.204788  0.180312  1
  O  O35  1  0.535357  0.619905  0.103295  1
  O  O36  1  0.261457  0.646141  0.674233  1
  O  O37  1  0.240318  0.824737  0.332471  1
  O  O38  1  0.039672  0.424200  0.430181  1
  O  O39  1  0.125280  0.188295  0.389827  1
  O  O40  1  0.141088  0.515990  0.078564  1
  O  O41  1  0.115909  0.709020  0.175683  1
  O  O42  1  0.020505  0.083199  0.132444  1
