# generated using pymatgen
data_Fe8O9
_symmetry_space_group_name_H-M   'P 1'
_cell_length_a   6.19122704
_cell_length_b   27.52185838
_cell_length_c   8.06025931
_cell_angle_alpha   19.27779571
_cell_angle_beta   55.46892693
_cell_angle_gamma   60.01669133
_symmetry_Int_Tables_number   1
_chemical_formula_structural   Fe8O9
_chemical_formula_sum   'Fe16 O18'
_cell_volume   370.38316875
_cell_formula_units_Z   2
loop_
 _symmetry_equiv_pos_site_id
 _symmetry_equiv_pos_as_xyz
  1  'x, y, z'
loop_
 _atom_site_type_symbol
 _atom_site_label
 _atom_site_symmetry_multiplicity
 _atom_site_fract_x
 _atom_site_fract_y
 _atom_site_fract_z
 _atom_site_occupancy
  Fe  Fe0  1  0.509952  0.002075  -0.012696  1
  Fe  Fe1  1  0.505652  0.109674  0.998778  1
  Fe  Fe2  1  0.496821  0.222395  0.002147  1
  Fe  Fe3  1  0.486202  0.336355  -0.001381  1
  Fe  Fe4  1  0.999578  0.112021  0.992636  1
  Fe  Fe5  1  0.002533  0.552940  -0.002794  1
  Fe  Fe6  1  0.999437  0.225342  0.986381  1
  Fe  Fe7  1  0.502829  0.442617  0.009673  1
  Fe  Fe8  1  0.000295  0.328711  0.013952  1
  Fe  Fe9  1  0.514576  0.554502  0.993789  1
  Fe  Fe10  1  0.493820  0.660595  0.022505  1
  Fe  Fe11  1  0.508507  0.781838  0.984398  1
  Fe  Fe12  1  0.003487  0.664582  0.010186  1
  Fe  Fe13  1  0.478045  0.891732  0.005638  1
  Fe  Fe14  1  0.995983  0.782101  0.985171  1
  Fe  Fe15  1  0.998569  0.890593  0.004224  1
  O  O16  1  0.253133  0.061532  0.455665  1
  O  O17  1  0.268140  0.181140  0.457883  1
  O  O18  1  0.755103  0.056821  0.487339  1
  O  O19  1  0.277393  0.267424  0.517776  1
  O  O20  1  0.723841  0.176260  0.482411  1
  O  O21  1  0.251176  0.391314  0.492103  1
  O  O22  1  0.724973  0.262554  0.546801  1
  O  O23  1  0.275880  0.505922  0.461072  1
  O  O24  1  0.737397  0.383248  0.545910  1
  O  O25  1  0.273479  0.629175  0.437851  1
  O  O26  1  0.730844  0.500262  0.500750  1
  O  O27  1  0.254645  0.719175  0.499398  1
  O  O28  1  0.731675  0.627934  0.451694  1
  O  O29  1  0.278435  0.821160  0.535841  1
  O  O30  1  0.747462  0.723073  0.510975  1
  O  O31  1  0.272305  0.942848  0.500111  1
  O  O32  1  0.728124  0.810962  0.579009  1
  O  O33  1  0.719709  0.936681  0.544801  1
