# generated using pymatgen
data_CaH4Se2O7
_symmetry_space_group_name_H-M   'P 1'
_cell_length_a   7.03353139
_cell_length_b   7.45717486
_cell_length_c   6.86118476
_cell_angle_alpha   89.04475279
_cell_angle_beta   91.60104817
_cell_angle_gamma   108.29312059
_symmetry_Int_Tables_number   1
_chemical_formula_structural   CaH4Se2O7
_chemical_formula_sum   'Ca2 H8 Se4 O14'
_cell_volume   341.53904754
_cell_formula_units_Z   2
loop_
 _symmetry_equiv_pos_site_id
 _symmetry_equiv_pos_as_xyz
  1  'x, y, z'
loop_
 _atom_site_type_symbol
 _atom_site_label
 _atom_site_symmetry_multiplicity
 _atom_site_fract_x
 _atom_site_fract_y
 _atom_site_fract_z
 _atom_site_occupancy
  Ca  Ca0  1  0.771076  0.074873  0.874505  1
  Ca  Ca1  1  0.228924  0.925127  0.125495  1
  H  H2  1  0.760314  0.264933  0.469493  1
  H  H3  1  0.239686  0.735067  0.530507  1
  H  H4  1  0.545481  0.344963  0.983628  1
  H  H5  1  0.454519  0.655037  0.016372  1
  H  H6  1  0.791566  0.520534  0.301139  1
  H  H7  1  0.208434  0.479466  0.698861  1
  H  H8  1  0.572436  0.398558  0.346088  1
  H  H9  1  0.427564  0.601442  0.653912  1
  Se  Se10  1  0.749792  0.961583  0.340766  1
  Se  Se11  1  0.250208  0.038417  0.659234  1
  Se  Se12  1  0.820611  0.603549  0.869141  1
  Se  Se13  1  0.179389  0.396451  0.130859  1
  O  O14  1  0.957524  0.045797  0.202969  1
  O  O15  1  0.042476  0.954203  0.797031  1
  O  O16  1  0.586196  0.016347  0.185030  1
  O  O17  1  0.413804  0.983653  0.814970  1
  O  O18  1  0.787261  0.143746  0.525650  1
  O  O19  1  0.212739  0.856254  0.474350  1
  O  O20  1  0.082133  0.354772  0.898540  1
  O  O21  1  0.917867  0.645228  0.101460  1
  O  O22  1  0.638238  0.713839  0.859303  1
  O  O23  1  0.361762  0.286161  0.140697  1
  O  O24  1  0.659110  0.359077  0.890076  1
  O  O25  1  0.340890  0.640923  0.109924  1
  O  O26  1  0.708112  0.445419  0.407700  1
  O  O27  1  0.291888  0.554581  0.592300  1
