# generated using pymatgen
data_Na3Li5Mn5O9
_symmetry_space_group_name_H-M   'P 1'
_cell_length_a   5.91144769
_cell_length_b   5.90764997
_cell_length_c   9.04844080
_cell_angle_alpha   101.78919345
_cell_angle_beta   94.85950781
_cell_angle_gamma   59.81276987
_symmetry_Int_Tables_number   1
_chemical_formula_structural   Na3Li5Mn5O9
_chemical_formula_sum   'Na3 Li5 Mn5 O9'
_cell_volume   267.32094012
_cell_formula_units_Z   1
loop_
 _symmetry_equiv_pos_site_id
 _symmetry_equiv_pos_as_xyz
  1  'x, y, z'
loop_
 _atom_site_type_symbol
 _atom_site_label
 _atom_site_symmetry_multiplicity
 _atom_site_fract_x
 _atom_site_fract_y
 _atom_site_fract_z
 _atom_site_occupancy
  Na  Na0  1  0.920980  0.546860  0.566456  1
  Na  Na1  1  0.605969  0.164308  0.573689  1
  Na  Na2  1  0.272450  0.848409  0.559439  1
  Li  Li3  1  0.983749  0.938378  0.818678  1
  Li  Li4  1  0.612453  0.793697  0.347870  1
  Li  Li5  1  0.290762  0.441978  0.363774  1
  Li  Li6  1  0.935555  0.130760  0.374030  1
  Li  Li7  1  0.631404  0.986983  0.965340  1
  Mn  Mn8  1  0.981295  0.701380  0.148324  1
  Mn  Mn9  1  0.585450  0.585455  0.819447  1
  Mn  Mn10  1  0.227596  0.293606  0.818683  1
  Mn  Mn11  1  0.627530  0.395951  0.144831  1
  Mn  Mn12  1  0.254835  0.051392  0.144504  1
  O  O13  1  0.922230  0.244173  0.726198  1
  O  O14  1  0.574870  0.917833  0.755469  1
  O  O15  1  0.260384  0.572087  0.729351  1
  O  O16  1  0.611146  0.467856  0.373577  1
  O  O17  1  0.274553  0.123289  0.373624  1
  O  O18  1  0.948612  0.789975  0.377293  1
  O  O19  1  0.625057  0.710718  0.064321  1
  O  O20  1  0.311527  0.331437  0.060126  1
  O  O21  1  0.935000  0.016175  0.049845  1
