# generated using pymatgen
data_Mn4O7F
_symmetry_space_group_name_H-M   'P 1'
_cell_length_a   7.06521182
_cell_length_b   7.06521182
_cell_length_c   4.95698703
_cell_angle_alpha   89.75306988
_cell_angle_beta   89.75306988
_cell_angle_gamma   101.77802378
_symmetry_Int_Tables_number   1
_chemical_formula_structural   Mn4O7F
_chemical_formula_sum   'Mn8 O14 F2'
_cell_volume   242.22370765
_cell_formula_units_Z   2
loop_
 _symmetry_equiv_pos_site_id
 _symmetry_equiv_pos_as_xyz
  1  'x, y, z'
loop_
 _atom_site_type_symbol
 _atom_site_label
 _atom_site_symmetry_multiplicity
 _atom_site_fract_x
 _atom_site_fract_y
 _atom_site_fract_z
 _atom_site_occupancy
  Mn  Mn0  1  0.429607  0.066397  0.270452  1
  Mn  Mn1  1  0.071924  0.426932  0.743738  1
  Mn  Mn2  1  0.934297  0.079381  0.234159  1
  Mn  Mn3  1  0.579381  0.434297  0.734159  1
  Mn  Mn4  1  0.418881  0.584632  0.252857  1
  Mn  Mn5  1  0.084632  0.918881  0.752857  1
  Mn  Mn6  1  0.566397  0.929607  0.770452  1
  Mn  Mn7  1  0.926933  0.571924  0.243738  1
  O  O8  1  0.060521  0.171882  0.913325  1
  O  O9  1  0.171695  0.060467  0.422208  1
  O  O10  1  0.672988  0.062277  0.089701  1
  O  O11  1  0.060382  0.667544  0.569185  1
  O  O12  1  0.167544  0.560382  0.069185  1
  O  O13  1  0.562277  0.172988  0.589701  1
  O  O14  1  0.328143  0.437002  0.574131  1
  O  O15  1  0.560467  0.671695  0.922208  1
  O  O16  1  0.671882  0.560521  0.413325  1
  O  O17  1  0.334859  0.938084  0.944560  1
  O  O18  1  0.438084  0.834859  0.444560  1
  O  O19  1  0.937040  0.327482  0.414157  1
  O  O20  1  0.827482  0.437040  0.914157  1
  O  O21  1  0.937002  0.828143  0.074131  1
  F  F22  1  0.440374  0.317208  0.071527  1
  F  F23  1  0.817208  0.940374  0.571527  1
