# generated using pymatgen
data_LiMn3(PO4)3
_symmetry_space_group_name_H-M   'P 1'
_cell_length_a   6.72827369
_cell_length_b   9.05897190
_cell_length_c   9.05898541
_cell_angle_alpha   95.69315458
_cell_angle_beta   64.52303232
_cell_angle_gamma   115.47531303
_symmetry_Int_Tables_number   1
_chemical_formula_structural   LiMn3(PO4)3
_chemical_formula_sum   'Li2 Mn6 P6 O24'
_cell_volume   447.49685663
_cell_formula_units_Z   2
loop_
 _symmetry_equiv_pos_site_id
 _symmetry_equiv_pos_as_xyz
  1  'x, y, z'
loop_
 _atom_site_type_symbol
 _atom_site_label
 _atom_site_symmetry_multiplicity
 _atom_site_fract_x
 _atom_site_fract_y
 _atom_site_fract_z
 _atom_site_occupancy
  Li  Li0  1  0.500000  0.500000  0.500000  1
  Li  Li1  1  0.000000  0.500000  0.500000  1
  Mn  Mn2  1  0.804576  0.385127  0.932756  1
  Mn  Mn3  1  0.749996  0.740893  0.740917  1
  Mn  Mn4  1  0.304496  0.067254  0.614857  1
  Mn  Mn5  1  0.695504  0.932746  0.385143  1
  Mn  Mn6  1  0.250004  0.259107  0.259083  1
  Mn  Mn7  1  0.195424  0.614873  0.067244  1
  P  P8  1  0.852304  0.134554  0.649307  1
  P  P9  1  0.750016  0.287562  0.287551  1
  P  P10  1  0.352316  0.350699  0.865448  1
  P  P11  1  0.647684  0.649301  0.134552  1
  P  P12  1  0.249984  0.712438  0.712449  1
  P  P13  1  0.147696  0.865446  0.350693  1
  O  O14  1  0.743590  0.192201  0.818564  1
  O  O15  1  0.864566  0.165994  0.266089  1
  O  O16  1  0.642096  0.044467  0.590393  1
  O  O17  1  0.954673  0.463464  0.273490  1
  O  O18  1  0.937848  0.720697  0.479320  1
  O  O19  1  0.930570  0.002715  0.669327  1
  O  O20  1  0.569440  0.669336  0.002717  1
  O  O21  1  0.562153  0.479331  0.720700  1
  O  O22  1  0.545372  0.273532  0.463445  1
  O  O23  1  0.857909  0.590389  0.044477  1
  O  O24  1  0.635465  0.266085  0.165978  1
  O  O25  1  0.243600  0.181454  0.807786  1
  O  O26  1  0.756400  0.818546  0.192214  1
  O  O27  1  0.364535  0.733915  0.834022  1
  O  O28  1  0.142091  0.409611  0.955523  1
  O  O29  1  0.454628  0.726468  0.536555  1
  O  O30  1  0.437847  0.520669  0.279300  1
  O  O31  1  0.430560  0.330664  0.997283  1
  O  O32  1  0.069430  0.997285  0.330673  1
  O  O33  1  0.062152  0.279303  0.520680  1
  O  O34  1  0.045327  0.536536  0.726510  1
  O  O35  1  0.357904  0.955533  0.409607  1
  O  O36  1  0.135434  0.834006  0.733911  1
  O  O37  1  0.256410  0.807799  0.181436  1
