# generated using pymatgen
data_Li2NiBO4
_symmetry_space_group_name_H-M   'P 1'
_cell_length_a   6.40343428
_cell_length_b   5.11604431
_cell_length_c   10.54040516
_cell_angle_alpha   90.00000000
_cell_angle_beta   95.73974291
_cell_angle_gamma   90.00000000
_symmetry_Int_Tables_number   1
_chemical_formula_structural   Li2NiBO4
_chemical_formula_sum   'Li8 Ni4 B4 O16'
_cell_volume   343.57513026
_cell_formula_units_Z   4
loop_
 _symmetry_equiv_pos_site_id
 _symmetry_equiv_pos_as_xyz
  1  'x, y, z'
loop_
 _atom_site_type_symbol
 _atom_site_label
 _atom_site_symmetry_multiplicity
 _atom_site_fract_x
 _atom_site_fract_y
 _atom_site_fract_z
 _atom_site_occupancy
  Li  Li0  1  0.098695  0.349164  0.793271  1
  Li  Li1  1  0.098695  0.150836  0.293271  1
  Li  Li2  1  0.219999  0.171002  0.569525  1
  Li  Li3  1  0.219999  0.328998  0.069525  1
  Li  Li4  1  0.780001  0.671002  0.930475  1
  Li  Li5  1  0.780001  0.828998  0.430475  1
  Li  Li6  1  0.901305  0.849164  0.706729  1
  Li  Li7  1  0.901305  0.650836  0.206729  1
  Ni  Ni8  1  0.501179  0.144602  0.845806  1
  Ni  Ni9  1  0.498821  0.644602  0.654194  1
  Ni  Ni10  1  0.501179  0.355398  0.345806  1
  Ni  Ni11  1  0.498821  0.855398  0.154194  1
  B  B12  1  0.194571  0.822268  0.939406  1
  B  B13  1  0.194571  0.677732  0.439406  1
  B  B14  1  0.805429  0.322268  0.560594  1
  B  B15  1  0.805429  0.177732  0.060594  1
  O  O16  1  0.051868  0.697230  0.858763  1
  O  O17  1  0.051868  0.802770  0.358763  1
  O  O18  1  0.247052  0.087801  0.921314  1
  O  O19  1  0.247052  0.412199  0.421314  1
  O  O20  1  0.291639  0.807167  0.545691  1
  O  O21  1  0.381908  0.352454  0.714802  1
  O  O22  1  0.291639  0.692833  0.045691  1
  O  O23  1  0.381908  0.147546  0.214802  1
  O  O24  1  0.618092  0.852454  0.785198  1
  O  O25  1  0.708361  0.307167  0.954309  1
  O  O26  1  0.618092  0.647546  0.285198  1
  O  O27  1  0.708361  0.192833  0.454309  1
  O  O28  1  0.752948  0.587801  0.578686  1
  O  O29  1  0.752948  0.912199  0.078686  1
  O  O30  1  0.948132  0.197230  0.641237  1
  O  O31  1  0.948132  0.302770  0.141237  1
