# generated using pymatgen
data_KLi(WO3)3
_symmetry_space_group_name_H-M   'P 1'
_cell_length_a   7.58282490
_cell_length_b   7.64889706
_cell_length_c   7.91890204
_cell_angle_alpha   90.23726372
_cell_angle_beta   89.84257434
_cell_angle_gamma   120.08029437
_symmetry_Int_Tables_number   1
_chemical_formula_structural   KLi(WO3)3
_chemical_formula_sum   'K2 Li2 W6 O18'
_cell_volume   397.43822516
_cell_formula_units_Z   2
loop_
 _symmetry_equiv_pos_site_id
 _symmetry_equiv_pos_as_xyz
  1  'x, y, z'
loop_
 _atom_site_type_symbol
 _atom_site_label
 _atom_site_symmetry_multiplicity
 _atom_site_fract_x
 _atom_site_fract_y
 _atom_site_fract_z
 _atom_site_occupancy
  K  K0  1  0.007863  0.003827  0.269173  1
  K  K1  1  0.003187  0.995937  0.767643  1
  Li  Li2  1  0.407088  0.700613  0.250383  1
  Li  Li3  1  0.701058  0.302991  0.749284  1
  W  W4  1  0.004989  0.501772  0.498173  1
  W  W5  1  0.004654  0.502869  0.002119  1
  W  W6  1  0.502743  0.497828  0.501543  1
  W  W7  1  0.501188  0.496417  0.997763  1
  W  W8  1  0.498752  -0.000414  0.000130  1
  W  W9  1  0.497947  0.999936  0.500181  1
  O  O10  1  0.001775  0.502187  0.749916  1
  O  O11  1  0.212016  0.791824  0.006142  1
  O  O12  1  0.215525  0.795379  0.492709  1
  O  O13  1  0.214143  0.422773  0.495775  1
  O  O14  1  0.500067  0.996966  0.745900  1
  O  O15  1  0.217499  0.423375  0.004245  1
  O  O16  1  0.573627  0.782206  0.013292  1
  O  O17  1  0.573616  0.790951  0.486501  1
  O  O18  1  0.503792  0.502704  0.754414  1
  O  O19  1  0.499601  0.495721  0.246296  1
  O  O20  1  0.419625  0.213602  0.991405  1
  O  O21  1  0.420003  0.204435  0.508328  1
  O  O22  1  0.788557  0.576550  0.504260  1
  O  O23  1  0.501447  0.002883  0.253611  1
  O  O24  1  0.784411  0.576249  0.995349  1
  O  O25  1  0.785458  0.213120  0.988269  1
  O  O26  1  0.781812  0.208779  0.511221  1
  O  O27  1  0.002393  0.498520  0.249758  1
