# generated using pymatgen
data_KLiSb3O8
_symmetry_space_group_name_H-M   'P 1'
_cell_length_a   8.96856292
_cell_length_b   8.96492184
_cell_length_c   8.80678366
_cell_angle_alpha   108.19695359
_cell_angle_beta   107.50424682
_cell_angle_gamma   113.46641473
_symmetry_Int_Tables_number   1
_chemical_formula_structural   KLiSb3O8
_chemical_formula_sum   'K3 Li3 Sb9 O24'
_cell_volume   538.62737524
_cell_formula_units_Z   3
loop_
 _symmetry_equiv_pos_site_id
 _symmetry_equiv_pos_as_xyz
  1  'x, y, z'
loop_
 _atom_site_type_symbol
 _atom_site_label
 _atom_site_symmetry_multiplicity
 _atom_site_fract_x
 _atom_site_fract_y
 _atom_site_fract_z
 _atom_site_occupancy
  K  K0  1  0.190613  0.119681  0.961114  1
  K  K1  1  0.487740  0.504717  0.995131  1
  K  K2  1  0.831943  0.870499  0.990416  1
  Li  Li3  1  0.102339  0.644999  0.795421  1
  Li  Li4  1  0.489160  0.030805  0.795552  1
  Li  Li5  1  0.054455  0.801682  0.518963  1
  Sb  Sb6  1  0.996656  0.163003  0.482653  1
  Sb  Sb7  1  0.488182  0.965957  0.117202  1
  Sb  Sb8  1  0.836624  0.353846  0.188071  1
  Sb  Sb9  1  0.830547  0.322279  0.815077  1
  Sb  Sb10  1  0.351952  0.175750  0.508238  1
  Sb  Sb11  1  0.670625  0.494554  0.508411  1
  Sb  Sb12  1  0.329535  0.647215  0.639262  1
  Sb  Sb13  1  0.657233  0.823721  0.481881  1
  Sb  Sb14  1  0.171554  0.689575  0.187881  1
  O  O15  1  0.821540  0.168186  0.277879  1
  O  O16  1  0.557257  0.192755  0.050056  1
  O  O17  1  0.869343  0.526607  0.058779  1
  O  O18  1  0.834958  0.125141  0.622208  1
  O  O19  1  0.490047  0.211860  0.363742  1
  O  O20  1  0.838495  0.527211  0.394261  1
  O  O21  1  0.825242  0.189771  0.961754  1
  O  O22  1  0.555565  0.195539  0.704186  1
  O  O23  1  0.846290  0.486143  0.703774  1
  O  O24  1  0.815337  0.882352  0.359585  1
  O  O25  1  0.519031  0.543538  0.334081  1
  O  O26  1  0.129215  0.154318  0.335209  1
  O  O27  1  0.829808  0.783106  0.653296  1
  O  O28  1  0.209607  0.163367  0.654294  1
  O  O29  1  0.504724  0.465016  0.631381  1
  O  O30  1  0.123249  0.535158  0.320166  1
  O  O31  1  0.447536  0.795368  0.278530  1
  O  O32  1  0.196085  0.831438  0.050261  1
  O  O33  1  0.123201  0.432292  0.637062  1
  O  O34  1  0.544267  0.851173  0.638238  1
  O  O35  1  0.204774  0.893679  0.394275  1
  O  O36  1  0.488924  0.765586  0.916665  1
  O  O37  1  0.109677  0.474455  0.961810  1
  O  O38  1  0.240469  0.811457  0.713233  1
