# generated using pymatgen
data_Li9Al(NiO4)2
_symmetry_space_group_name_H-M   'P 1'
_cell_length_a   15.82697923
_cell_length_b   6.37031201
_cell_length_c   7.51001506
_cell_angle_alpha   90.00000708
_cell_angle_beta   89.99624221
_cell_angle_gamma   89.99996375
_symmetry_Int_Tables_number   1
_chemical_formula_structural   Li9Al(NiO4)2
_chemical_formula_sum   'Li36 Al4 Ni8 O32'
_cell_volume   757.18071409
_cell_formula_units_Z   4
loop_
 _symmetry_equiv_pos_site_id
 _symmetry_equiv_pos_as_xyz
  1  'x, y, z'
loop_
 _atom_site_type_symbol
 _atom_site_label
 _atom_site_symmetry_multiplicity
 _atom_site_fract_x
 _atom_site_fract_y
 _atom_site_fract_z
 _atom_site_occupancy
  Li  Li0  1  0.069526  0.519277  0.536554  1
  Li  Li1  1  0.069526  0.980723  0.536554  1
  Li  Li2  1  0.138782  0.250000  0.339381  1
  Li  Li3  1  0.119350  0.507028  0.101483  1
  Li  Li4  1  0.119349  0.992972  0.101483  1
  Li  Li5  1  0.161028  0.750000  0.329329  1
  Li  Li6  1  0.193708  0.250000  0.804669  1
  Li  Li7  1  0.211912  0.007930  0.550715  1
  Li  Li8  1  0.211912  0.492070  0.550715  1
  Li  Li9  1  0.288071  0.508039  0.050601  1
  Li  Li10  1  0.288071  0.991961  0.050601  1
  Li  Li11  1  0.306281  0.750000  0.304643  1
  Li  Li12  1  0.338960  0.250001  0.829354  1
  Li  Li13  1  0.380640  0.493022  0.601515  1
  Li  Li14  1  0.380640  0.006979  0.601515  1
  Li  Li15  1  0.361176  0.750000  0.839367  1
  Li  Li16  1  0.430484  0.019227  0.036572  1
  Li  Li17  1  0.430484  0.480774  0.036572  1
  Li  Li18  1  0.569537  0.519246  0.963416  1
  Li  Li19  1  0.569537  0.980754  0.963416  1
  Li  Li20  1  0.638816  0.250000  0.160638  1
  Li  Li21  1  0.619376  0.992976  0.398525  1
  Li  Li22  1  0.619376  0.507024  0.398526  1
  Li  Li23  1  0.661044  0.750000  0.170649  1
  Li  Li24  1  0.693699  0.250000  0.695335  1
  Li  Li25  1  0.711924  0.007956  0.949319  1
  Li  Li26  1  0.711924  0.492044  0.949318  1
  Li  Li27  1  0.788083  0.507994  0.449346  1
  Li  Li28  1  0.788083  0.992006  0.449346  1
  Li  Li29  1  0.806362  0.750000  0.195329  1
  Li  Li30  1  0.838961  0.250001  0.670636  1
  Li  Li31  1  0.880628  0.493006  0.898539  1
  Li  Li32  1  0.880628  0.006994  0.898539  1
  Li  Li33  1  0.861182  0.750000  0.660652  1
  Li  Li34  1  0.930465  0.019158  0.463336  1
  Li  Li35  1  0.930464  0.480842  0.463336  1
  Al  Al36  1  0.005531  0.750000  0.841213  1
  Al  Al37  1  0.494455  0.250001  0.341211  1
  Al  Al38  1  0.505536  0.750000  0.658801  1
  Al  Al39  1  0.994460  0.250000  0.158784  1
  Ni  Ni40  1  0.031380  0.249999  0.766728  1
  Ni  Ni41  1  0.199982  0.750001  0.797972  1
  Ni  Ni42  1  0.300047  0.249998  0.298007  1
  Ni  Ni43  1  0.468559  0.750001  0.266743  1
  Ni  Ni44  1  0.531393  0.249998  0.733241  1
  Ni  Ni45  1  0.699973  0.750002  0.702000  1
  Ni  Ni46  1  0.800017  0.249993  0.202026  1
  Ni  Ni47  1  0.968661  0.749998  0.233269  1
  O  O48  1  0.022330  0.474272  0.289249  1
  O  O49  1  0.022330  0.025726  0.289248  1
  O  O50  1  0.082726  0.250001  0.003182  1
  O  O51  1  0.129020  0.250001  0.592493  1
  O  O52  1  0.142687  0.750000  0.569443  1
  O  O53  1  0.101796  0.750000  0.960960  1
  O  O54  1  0.220998  0.005949  0.276000  1
  O  O55  1  0.220998  0.494050  0.275999  1
  O  O56  1  0.279031  0.505915  0.775985  1
  O  O57  1  0.279030  0.994086  0.775984  1
  O  O58  1  0.398204  0.250000  0.460916  1
  O  O59  1  0.357300  0.250000  0.069464  1
  O  O60  1  0.370961  0.750000  0.092446  1
  O  O61  1  0.417259  0.750000  0.503270  1
  O  O62  1  0.477673  0.974312  0.789239  1
  O  O63  1  0.477673  0.525688  0.789238  1
  O  O64  1  0.522316  0.474293  0.210768  1
  O  O65  1  0.522316  0.025708  0.210768  1
  O  O66  1  0.582748  0.250000  0.496816  1
  O  O67  1  0.629029  0.250000  0.907536  1
  O  O68  1  0.642678  0.750000  0.930519  1
  O  O69  1  0.601818  0.750000  0.539075  1
  O  O70  1  0.720984  0.005921  0.224015  1
  O  O71  1  0.720984  0.494077  0.224015  1
  O  O72  1  0.779021  0.505931  0.724014  1
  O  O73  1  0.779020  0.994070  0.724014  1
  O  O74  1  0.898184  0.250000  0.039073  1
  O  O75  1  0.857319  0.250000  0.430511  1
  O  O76  1  0.870965  0.750000  0.407554  1
  O  O77  1  0.917249  0.750000  0.996852  1
  O  O78  1  0.977685  0.974286  0.710768  1
  O  O79  1  0.977686  0.525714  0.710768  1
