# generated using pymatgen
data_SrCa2I6
_symmetry_space_group_name_H-M   'P 1'
_cell_length_a   7.60823213
_cell_length_b   13.11440895
_cell_length_c   8.64487312
_cell_angle_alpha   95.17343905
_cell_angle_beta   90.00000000
_cell_angle_gamma   73.13776660
_symmetry_Int_Tables_number   1
_chemical_formula_structural   SrCa2I6
_chemical_formula_sum   'Sr2 Ca4 I12'
_cell_volume   821.80524840
_cell_formula_units_Z   2
loop_
 _symmetry_equiv_pos_site_id
 _symmetry_equiv_pos_as_xyz
  1  'x, y, z'
loop_
 _atom_site_type_symbol
 _atom_site_label
 _atom_site_symmetry_multiplicity
 _atom_site_fract_x
 _atom_site_fract_y
 _atom_site_fract_z
 _atom_site_occupancy
  Sr  Sr0  1  0.729992  0.000000  0.750000  1
  Sr  Sr1  1  0.270008  0.000000  0.250000  1
  Ca  Ca2  1  0.397675  0.656907  0.870744  1
  Ca  Ca3  1  0.945418  0.656907  0.370744  1
  Ca  Ca4  1  0.054582  0.343093  0.629256  1
  Ca  Ca5  1  0.602325  0.343093  0.129256  1
  I  I6  1  0.510971  0.861289  0.924721  1
  I  I7  1  0.627739  0.861289  0.424721  1
  I  I8  1  0.116569  0.789789  0.629128  1
  I  I9  1  0.093641  0.789789  0.129128  1
  I  I10  1  0.755529  0.562948  0.639572  1
  I  I11  1  0.681523  0.562948  0.139572  1
  I  I12  1  0.318477  0.437052  0.860428  1
  I  I13  1  0.244471  0.437052  0.360428  1
  I  I14  1  0.906359  0.210211  0.870872  1
  I  I15  1  0.883431  0.210211  0.370872  1
  I  I16  1  0.372261  0.138711  0.575279  1
  I  I17  1  0.489029  0.138711  0.075279  1
