# generated using pymatgen
data_Li7VGeO8
_symmetry_space_group_name_H-M   'P 1'
_cell_length_a   10.84705996
_cell_length_b   6.38425063
_cell_length_c   5.37244599
_cell_angle_alpha   89.28774035
_cell_angle_beta   90.14504763
_cell_angle_gamma   89.65346269
_symmetry_Int_Tables_number   1
_chemical_formula_structural   Li7VGeO8
_chemical_formula_sum   'Li14 V2 Ge2 O16'
_cell_volume   372.00694666
_cell_formula_units_Z   2
loop_
 _symmetry_equiv_pos_site_id
 _symmetry_equiv_pos_as_xyz
  1  'x, y, z'
loop_
 _atom_site_type_symbol
 _atom_site_label
 _atom_site_symmetry_multiplicity
 _atom_site_fract_x
 _atom_site_fract_y
 _atom_site_fract_z
 _atom_site_occupancy
  Li  Li0  1  0.083406  0.235828  0.678692  1
  Li  Li1  1  0.173503  0.484832  0.319182  1
  Li  Li2  1  0.173709  0.982883  0.317491  1
  Li  Li3  1  0.343502  0.982232  0.818177  1
  Li  Li4  1  0.343347  0.481570  0.818740  1
  Li  Li5  1  0.432033  0.729287  0.184531  1
  Li  Li6  1  0.583932  0.254926  0.834242  1
  Li  Li7  1  0.661979  0.490208  0.201329  1
  Li  Li8  1  0.652683  0.951153  0.116414  1
  Li  Li9  1  0.827396  0.618777  0.972718  1
  Li  Li10  1  0.846281  0.989400  0.831584  1
  Li  Li11  1  0.708999  0.091141  0.454774  1
  Li  Li12  1  0.842481  0.452341  0.625180  1
  Li  Li13  1  0.932894  0.761661  0.355915  1
  V  V14  1  0.093669  0.733829  0.831213  1
  V  V15  1  0.423835  0.228140  0.332522  1
  Ge  Ge16  1  0.591532  0.735549  0.674352  1
  Ge  Ge17  1  0.927384  0.241729  0.167826  1
  O  O18  1  0.073438  0.233002  0.307628  1
  O  O19  1  0.095260  0.735074  0.158306  1
  O  O20  1  0.168954  0.515603  0.716253  1
  O  O21  1  0.167407  0.953382  0.715336  1
  O  O22  1  0.348852  0.010317  0.219114  1
  O  O23  1  0.350355  0.449249  0.213441  1
  O  O24  1  0.420795  0.232813  0.658337  1
  O  O25  1  0.444359  0.731223  0.810415  1
  O  O26  1  0.579823  0.221633  0.229072  1
  O  O27  1  0.594306  0.738942  0.344489  1
  O  O28  1  0.680861  0.521375  0.803565  1
  O  O29  1  0.669576  0.973373  0.767301  1
  O  O30  1  0.837629  0.007377  0.229088  1
  O  O31  1  0.843697  0.468665  0.275573  1
  O  O32  1  0.925465  0.254876  0.837072  1
  O  O33  1  0.937280  0.735308  0.728230  1
