# generated using pymatgen
data_Mn2SnC10BrO10
_symmetry_space_group_name_H-M   'P 1'
_cell_length_a   12.60528777
_cell_length_b   16.79421230
_cell_length_c   17.40414997
_cell_angle_alpha   108.10464579
_cell_angle_beta   90.00000000
_cell_angle_gamma   90.00000000
_symmetry_Int_Tables_number   1
_chemical_formula_structural   Mn2SnC10BrO10
_chemical_formula_sum   'Mn16 Sn8 C80 Br8 O80'
_cell_volume   3501.97481239
_cell_formula_units_Z   8
loop_
 _symmetry_equiv_pos_site_id
 _symmetry_equiv_pos_as_xyz
  1  'x, y, z'
loop_
 _atom_site_type_symbol
 _atom_site_label
 _atom_site_symmetry_multiplicity
 _atom_site_fract_x
 _atom_site_fract_y
 _atom_site_fract_z
 _atom_site_occupancy
  Mn  Mn0  1  0.828252  0.605690  0.660474  1
  Mn  Mn1  1  0.056582  0.918225  0.662777  1
  Mn  Mn2  1  0.556582  0.081775  0.837223  1
  Mn  Mn3  1  0.171748  0.394310  0.339526  1
  Mn  Mn4  1  0.671748  0.605690  0.160474  1
  Mn  Mn5  1  0.838391  0.812631  0.921961  1
  Mn  Mn6  1  0.302123  0.705306  0.679561  1
  Mn  Mn7  1  0.197877  0.705306  0.179561  1
  Mn  Mn8  1  0.661609  0.812631  0.421961  1
  Mn  Mn9  1  0.802123  0.294694  0.820439  1
  Mn  Mn10  1  0.161609  0.187369  0.078039  1
  Mn  Mn11  1  0.697877  0.294694  0.320439  1
  Mn  Mn12  1  0.443418  0.918225  0.162777  1
  Mn  Mn13  1  0.328252  0.394310  0.839526  1
  Mn  Mn14  1  0.943418  0.081775  0.337223  1
  Mn  Mn15  1  0.338391  0.187369  0.578039  1
  Sn  Sn16  1  0.376620  0.800137  0.235043  1
  Sn  Sn17  1  0.944909  0.714310  0.786959  1
  Sn  Sn18  1  0.123380  0.800137  0.735043  1
  Sn  Sn19  1  0.876620  0.199863  0.264957  1
  Sn  Sn20  1  0.055091  0.285690  0.213041  1
  Sn  Sn21  1  0.555091  0.714310  0.286959  1
  Sn  Sn22  1  0.623380  0.199863  0.764957  1
  Sn  Sn23  1  0.444909  0.285690  0.713041  1
  C  C24  1  0.945466  0.606541  0.596095  1
  C  C25  1  0.598237  0.909132  0.411011  1
  C  C26  1  0.829608  0.291338  0.713776  1
  C  C27  1  0.807948  0.088163  0.380311  1
  C  C28  1  0.485053  0.997746  0.117721  1
  C  C29  1  0.207195  0.290228  0.071455  1
  C  C30  1  0.246087  0.465801  0.422313  1
  C  C31  1  0.718350  0.613579  0.733908  1
  C  C32  1  0.670392  0.291338  0.213776  1
  C  C33  1  0.292805  0.290228  0.571455  1
  C  C34  1  0.545433  0.802701  0.485283  1
  C  C35  1  0.253913  0.465801  0.922313  1
  C  C36  1  0.485323  0.829069  0.074156  1
  C  C37  1  0.389147  0.479303  0.806051  1
  C  C38  1  0.281650  0.386421  0.266092  1
  C  C39  1  0.364198  0.810501  0.705017  1
  C  C40  1  0.731136  0.812047  0.848923  1
  C  C41  1  0.268864  0.187953  0.151077  1
  C  C42  1  0.400726  0.999454  0.257871  1
  C  C43  1  0.599274  0.000546  0.742129  1
  C  C44  1  0.554534  0.606541  0.096095  1
  C  C45  1  0.610853  0.520697  0.193949  1
  C  C46  1  0.401763  0.090868  0.588989  1
  C  C47  1  0.135802  0.810501  0.205017  1
  C  C48  1  0.170392  0.708662  0.286224  1
  C  C49  1  0.224218  0.300168  0.360752  1
  C  C50  1  0.192052  0.911837  0.619689  1
  C  C51  1  0.781650  0.613579  0.233908  1
  C  C52  1  0.014677  0.829069  0.574156  1
  C  C53  1  0.707195  0.709772  0.428545  1
  C  C54  1  0.225584  0.606512  0.663869  1
  C  C55  1  0.099274  0.999454  0.757871  1
  C  C56  1  0.768864  0.812047  0.348923  1
  C  C57  1  0.258363  0.126326  0.493428  1
  C  C58  1  0.889147  0.520697  0.693949  1
  C  C59  1  0.746087  0.534199  0.077687  1
  C  C60  1  0.725584  0.393488  0.836131  1
  C  C61  1  0.774416  0.393488  0.336131  1
  C  C62  1  0.954567  0.802701  0.985283  1
  C  C63  1  0.426463  0.085485  0.789096  1
  C  C64  1  0.775782  0.699832  0.639248  1
  C  C65  1  0.574939  0.349369  0.359747  1
  C  C66  1  0.045433  0.197299  0.014717  1
  C  C67  1  0.901763  0.909132  0.911011  1
  C  C68  1  0.110853  0.479303  0.306051  1
  C  C69  1  0.514947  0.002254  0.882279  1
  C  C70  1  0.241637  0.126326  0.993428  1
  C  C71  1  0.240608  0.708433  0.078256  1
  C  C72  1  0.926463  0.914515  0.710904  1
  C  C73  1  0.218350  0.386421  0.766092  1
  C  C74  1  0.740608  0.291567  0.421744  1
  C  C75  1  0.900726  0.000546  0.242129  1
  C  C76  1  0.425061  0.650631  0.640253  1
  C  C77  1  0.098237  0.090868  0.088989  1
  C  C78  1  0.454567  0.197299  0.514717  1
  C  C79  1  0.231136  0.187953  0.651077  1
  C  C80  1  0.759392  0.291567  0.921744  1
  C  C81  1  0.925061  0.349369  0.859747  1
  C  C82  1  0.445466  0.393459  0.903905  1
  C  C83  1  0.573537  0.914515  0.210904  1
  C  C84  1  0.864198  0.189499  0.794983  1
  C  C85  1  0.307948  0.911837  0.119689  1
  C  C86  1  0.635802  0.189499  0.294983  1
  C  C87  1  0.329608  0.708662  0.786224  1
  C  C88  1  0.753913  0.534199  0.577687  1
  C  C89  1  0.275782  0.300168  0.860752  1
  C  C90  1  0.073537  0.085485  0.289096  1
  C  C91  1  0.758363  0.873674  0.006572  1
  C  C92  1  0.274416  0.606512  0.163869  1
  C  C93  1  0.054534  0.393459  0.403905  1
  C  C94  1  0.985323  0.170931  0.425844  1
  C  C95  1  0.724218  0.699832  0.139248  1
  C  C96  1  0.792805  0.709772  0.928545  1
  C  C97  1  0.014947  0.997746  0.617721  1
  C  C98  1  0.741637  0.873674  0.506572  1
  C  C99  1  0.074939  0.650631  0.140253  1
  C  C100  1  0.692052  0.088163  0.880311  1
  C  C101  1  0.985053  0.002254  0.382279  1
  C  C102  1  0.514677  0.170931  0.925844  1
  C  C103  1  0.259392  0.708433  0.578256  1
  Br  Br104  1  0.182268  0.882304  0.880938  1
  Br  Br105  1  0.061775  0.621358  0.847716  1
  Br  Br106  1  0.682268  0.117696  0.619062  1
  Br  Br107  1  0.561775  0.378642  0.652284  1
  Br  Br108  1  0.817732  0.117696  0.119062  1
  Br  Br109  1  0.438225  0.621358  0.347716  1
  Br  Br110  1  0.938225  0.378642  0.152284  1
  Br  Br111  1  0.317732  0.882304  0.380938  1
  O  O112  1  0.996088  0.617647  0.114384  1
  O  O113  1  0.274604  0.909305  0.589949  1
  O  O114  1  0.094098  0.875134  0.222826  1
  O  O115  1  0.774604  0.090695  0.910051  1
  O  O116  1  0.513822  0.775482  0.018233  1
  O  O117  1  0.378995  0.053084  0.315567  1
  O  O118  1  0.296366  0.087120  0.942144  1
  O  O119  1  0.983246  0.393986  0.446172  1
  O  O120  1  0.509754  0.049307  0.089917  1
  O  O121  1  0.765488  0.646791  0.936081  1
  O  O122  1  0.352660  0.382199  0.222931  1
  O  O123  1  0.576333  0.466072  0.213206  1
  O  O124  1  0.013822  0.224518  0.481767  1
  O  O125  1  0.405902  0.875134  0.722826  1
  O  O126  1  0.181885  0.543384  0.652835  1
  O  O127  1  0.621005  0.946916  0.684433  1
  O  O128  1  0.594098  0.124866  0.277174  1
  O  O129  1  0.878995  0.946916  0.184433  1
  O  O130  1  0.647340  0.617801  0.777069  1
  O  O131  1  0.234512  0.353209  0.063919  1
  O  O132  1  0.318115  0.543384  0.152835  1
  O  O133  1  0.241222  0.243282  0.876676  1
  O  O134  1  0.905902  0.124866  0.777174  1
  O  O135  1  0.733218  0.290691  0.985138  1
  O  O136  1  0.352302  0.710652  0.850972  1
  O  O137  1  0.344287  0.085856  0.759338  1
  O  O138  1  0.818115  0.456616  0.347165  1
  O  O139  1  0.734512  0.646791  0.436081  1
  O  O140  1  0.852660  0.617801  0.277069  1
  O  O141  1  0.022404  0.797293  0.027907  1
  O  O142  1  0.076333  0.533928  0.286794  1
  O  O143  1  0.839047  0.810687  0.305428  1
  O  O144  1  0.796366  0.912880  0.557856  1
  O  O145  1  0.060987  0.028822  0.091355  1
  O  O146  1  0.016754  0.606014  0.553828  1
  O  O147  1  0.483246  0.606014  0.053828  1
  O  O148  1  0.477596  0.797293  0.527907  1
  O  O149  1  0.293772  0.510362  0.475194  1
  O  O150  1  0.265488  0.353209  0.563919  1
  O  O151  1  0.490246  0.950693  0.910083  1
  O  O152  1  0.923667  0.466072  0.713206  1
  O  O153  1  0.003912  0.382353  0.885616  1
  O  O154  1  0.258778  0.243282  0.376677  1
  O  O155  1  0.681885  0.456616  0.847165  1
  O  O156  1  0.793772  0.489638  0.024806  1
  O  O157  1  0.852302  0.289348  0.649028  1
  O  O158  1  0.990246  0.049307  0.589917  1
  O  O159  1  0.703634  0.912880  0.057856  1
  O  O160  1  0.496088  0.382353  0.385616  1
  O  O161  1  0.009754  0.950693  0.410083  1
  O  O162  1  0.121005  0.053084  0.815567  1
  O  O163  1  0.147340  0.382199  0.722931  1
  O  O164  1  0.203634  0.087120  0.442144  1
  O  O165  1  0.516754  0.393986  0.946172  1
  O  O166  1  0.655713  0.914144  0.240662  1
  O  O167  1  0.758778  0.756718  0.123324  1
  O  O168  1  0.560987  0.971178  0.408645  1
  O  O169  1  0.423667  0.533928  0.786794  1
  O  O170  1  0.266782  0.709309  0.014862  1
  O  O171  1  0.486178  0.224518  0.981767  1
  O  O172  1  0.647698  0.289348  0.149028  1
  O  O173  1  0.206228  0.510362  0.975194  1
  O  O174  1  0.155713  0.085856  0.259338  1
  O  O175  1  0.503912  0.617647  0.614384  1
  O  O176  1  0.977596  0.202707  0.972093  1
  O  O177  1  0.439013  0.028822  0.591355  1
  O  O178  1  0.725396  0.090695  0.410051  1
  O  O179  1  0.522404  0.202707  0.472093  1
  O  O180  1  0.766782  0.290691  0.485138  1
  O  O181  1  0.741222  0.756718  0.623324  1
  O  O182  1  0.339047  0.189313  0.194572  1
  O  O183  1  0.660953  0.810687  0.805428  1
  O  O184  1  0.986178  0.775482  0.518233  1
  O  O185  1  0.844287  0.914144  0.740662  1
  O  O186  1  0.225396  0.909305  0.089949  1
  O  O187  1  0.147698  0.710652  0.350972  1
  O  O188  1  0.939013  0.971178  0.908645  1
  O  O189  1  0.233218  0.709309  0.514862  1
  O  O190  1  0.706228  0.489638  0.524806  1
  O  O191  1  0.160953  0.189313  0.694572  1
