# generated using pymatgen
data_WN2
_symmetry_space_group_name_H-M   'P 1'
_cell_length_a   3.04100049
_cell_length_b   10.21193971
_cell_length_c   10.21122332
_cell_angle_alpha   95.12277338
_cell_angle_beta   72.58286328
_cell_angle_gamma   107.39789904
_symmetry_Int_Tables_number   1
_chemical_formula_structural   WN2
_chemical_formula_sum   'W8 N16'
_cell_volume   288.72360473
_cell_formula_units_Z   8
loop_
 _symmetry_equiv_pos_site_id
 _symmetry_equiv_pos_as_xyz
  1  'x, y, z'
loop_
 _atom_site_type_symbol
 _atom_site_label
 _atom_site_symmetry_multiplicity
 _atom_site_fract_x
 _atom_site_fract_y
 _atom_site_fract_z
 _atom_site_occupancy
  W  W0  1  0.825554  0.246847  0.000001  1
  W  W1  1  0.824010  0.998649  0.253520  1
  W  W2  1  0.332981  0.500460  0.247637  1
  W  W3  1  0.329713  0.252553  0.501559  1
  W  W4  1  0.168635  0.752494  0.001670  1
  W  W5  1  0.170492  0.000086  0.747630  1
  W  W6  1  0.665193  0.499174  0.753527  1
  W  W7  1  0.664198  0.746659  0.500115  1
  N  N8  1  0.413224  0.101675  0.148913  1
  N  N9  1  0.209340  0.351587  0.102838  1
  N  N10  1  0.708595  0.147596  0.398669  1
  N  N11  1  0.504334  0.397399  0.352545  1
  N  N12  1  0.944771  0.598654  0.151474  1
  N  N13  1  0.949048  0.098485  0.651657  1
  N  N14  1  0.748730  0.848295  0.099870  1
  N  N15  1  0.745987  0.348707  0.599233  1
  N  N16  1  0.241441  0.149688  0.902540  1
  N  N17  1  0.250259  0.650190  0.402048  1
  N  N18  1  0.045591  0.900881  0.350209  1
  N  N19  1  0.053960  0.401017  0.850017  1
  N  N20  1  0.488653  0.601526  0.648985  1
  N  N21  1  0.283829  0.851028  0.603201  1
  N  N22  1  0.787635  0.648087  0.898072  1
  N  N23  1  0.581352  0.897354  0.852581  1
