# generated using pymatgen
data_Ti2N2O
_symmetry_space_group_name_H-M   'P 1'
_cell_length_a   8.23576653
_cell_length_b   8.23181711
_cell_length_c   8.22768951
_cell_angle_alpha   109.55984439
_cell_angle_beta   109.50919699
_cell_angle_gamma   109.47548345
_symmetry_Int_Tables_number   1
_chemical_formula_structural   Ti2N2O
_chemical_formula_sum   'Ti16 N16 O8'
_cell_volume   428.69871366
_cell_formula_units_Z   8
loop_
 _symmetry_equiv_pos_site_id
 _symmetry_equiv_pos_as_xyz
  1  'x, y, z'
loop_
 _atom_site_type_symbol
 _atom_site_label
 _atom_site_symmetry_multiplicity
 _atom_site_fract_x
 _atom_site_fract_y
 _atom_site_fract_z
 _atom_site_occupancy
  Ti  Ti0  1  0.493528  0.012109  0.003278  1
  Ti  Ti1  1  0.949644  0.236650  0.205583  1
  Ti  Ti2  1  0.793297  0.044133  0.750194  1
  Ti  Ti3  1  0.696464  0.453017  0.240137  1
  Ti  Ti4  1  0.752758  0.785708  0.053316  1
  Ti  Ti5  1  0.762548  0.298023  0.550551  1
  Ti  Ti6  1  0.998787  0.485202  0.989254  1
  Ti  Ti7  1  0.502238  0.511128  0.504540  1
  Ti  Ti8  1  0.532972  0.737295  0.292182  1
  Ti  Ti9  1  0.013040  0.001774  0.504275  1
  Ti  Ti10  1  0.457686  0.256607  0.712287  1
  Ti  Ti11  1  0.253663  0.718354  0.455089  1
  Ti  Ti12  1  0.241247  0.204966  0.950896  1
  Ti  Ti13  1  0.208148  0.954775  0.248267  1
  Ti  Ti14  1  0.297851  0.545975  0.752022  1
  Ti  Ti15  1  0.056898  0.760394  0.792313  1
  N  N16  1  0.007226  0.050147  0.272320  1
  N  N17  1  0.736734  0.226765  0.276268  1
  N  N18  1  0.450957  0.460397  0.228728  1
  N  N19  1  0.771346  0.720536  0.259536  1
  N  N20  1  0.725920  0.265358  0.772692  1
  N  N21  1  0.276544  0.735475  0.223765  1
  N  N22  1  0.510516  0.235548  0.958758  1
  N  N23  1  0.542015  0.774173  0.551331  1
  N  N24  1  0.222020  0.276307  0.731948  1
  N  N25  1  0.275763  0.006006  0.050974  1
  N  N26  1  0.549423  0.542866  0.774106  1
  N  N27  1  0.234715  0.959350  0.509307  1
  N  N28  1  0.048237  0.274374  0.010487  1
  N  N29  1  0.265412  0.773860  0.725721  1
  N  N30  1  0.037574  0.488928  0.763358  1
  N  N31  1  0.988389  0.945270  0.720771  1
  O  O32  1  0.963946  0.511563  0.239455  1
  O  O33  1  0.949585  0.724908  0.996254  1
  O  O34  1  0.766032  0.041926  0.492985  1
  O  O35  1  0.723408  0.992293  0.948512  1
  O  O36  1  0.455458  0.225304  0.449399  1
  O  O37  1  0.493845  0.766589  0.039052  1
  O  O38  1  0.768402  0.545028  0.543027  1
  O  O39  1  0.225762  0.450920  0.457061  1
