# generated using pymatgen
data_Mn5Cu(PO4)6
_symmetry_space_group_name_H-M   'P 1'
_cell_length_a   8.58600415
_cell_length_b   8.55766987
_cell_length_c   8.55766955
_cell_angle_alpha   59.99999472
_cell_angle_beta   60.10910576
_cell_angle_gamma   60.10911024
_symmetry_Int_Tables_number   1
_chemical_formula_structural   Mn5Cu(PO4)6
_chemical_formula_sum   'Mn5 Cu1 P6 O24'
_cell_volume   445.34992020
_cell_formula_units_Z   1
loop_
 _symmetry_equiv_pos_site_id
 _symmetry_equiv_pos_as_xyz
  1  'x, y, z'
loop_
 _atom_site_type_symbol
 _atom_site_label
 _atom_site_symmetry_multiplicity
 _atom_site_fract_x
 _atom_site_fract_y
 _atom_site_fract_z
 _atom_site_occupancy
  Mn  Mn0  1  0.991970  0.002676  0.002676  1
  Mn  Mn1  1  0.069318  0.643561  0.643561  1
  Mn  Mn2  1  0.499545  0.500151  0.500151  1
  Mn  Mn3  1  0.429175  0.856942  0.856942  1
  Mn  Mn4  1  0.931161  0.356280  0.356280  1
  Cu  Cu5  1  0.566116  0.144628  0.144628  1
  P  P6  1  0.249956  0.249542  0.540579  1
  P  P7  1  0.249956  0.959922  0.249542  1
  P  P8  1  0.249956  0.540579  0.959922  1
  P  P9  1  0.752085  0.460506  0.038087  1
  P  P10  1  0.752085  0.038087  0.749321  1
  P  P11  1  0.752085  0.749321  0.460506  1
  O  O12  1  0.065716  0.121728  0.301255  1
  O  O13  1  0.065716  0.511300  0.121728  1
  O  O14  1  0.065716  0.301255  0.511300  1
  O  O15  1  0.233346  0.084362  0.739488  1
  O  O16  1  0.435377  0.197913  0.384936  1
  O  O17  1  0.257733  0.419158  0.560059  1
  O  O18  1  0.233346  0.942803  0.084362  1
  O  O19  1  0.257733  0.763050  0.419158  1
  O  O20  1  0.567211  0.621509  0.010484  1
  O  O21  1  0.257733  0.560059  0.763050  1
  O  O22  1  0.769715  0.265179  0.052768  1
  O  O23  1  0.567211  0.010484  0.800796  1
  O  O24  1  0.435377  0.981773  0.197913  1
  O  O25  1  0.233346  0.739488  0.942803  1
  O  O26  1  0.738510  0.446671  0.234619  1
  O  O27  1  0.435377  0.384936  0.981773  1
  O  O28  1  0.738510  0.234619  0.580199  1
  O  O29  1  0.769715  0.052768  0.912338  1
  O  O30  1  0.738510  0.580199  0.446671  1
  O  O31  1  0.567211  0.800796  0.621509  1
  O  O32  1  0.769715  0.912338  0.265179  1
  O  O33  1  0.934587  0.692901  0.495385  1
  O  O34  1  0.934587  0.495385  0.877128  1
  O  O35  1  0.934587  0.877128  0.692901  1
