# generated using pymatgen
data_TbPrO4
_symmetry_space_group_name_H-M   'P 1'
_cell_length_a   5.60208575
_cell_length_b   5.63317975
_cell_length_c   6.80456357
_cell_angle_alpha   65.52724041
_cell_angle_beta   65.65108891
_cell_angle_gamma   89.88962317
_symmetry_Int_Tables_number   1
_chemical_formula_structural   TbPrO4
_chemical_formula_sum   'Tb2 Pr2 O8'
_cell_volume   174.32727316
_cell_formula_units_Z   2
loop_
 _symmetry_equiv_pos_site_id
 _symmetry_equiv_pos_as_xyz
  1  'x, y, z'
loop_
 _atom_site_type_symbol
 _atom_site_label
 _atom_site_symmetry_multiplicity
 _atom_site_fract_x
 _atom_site_fract_y
 _atom_site_fract_z
 _atom_site_occupancy
  Tb  Tb0  1  0.126451  0.375286  0.250542  1
  Tb  Tb1  1  0.876145  0.625804  0.748009  1
  Pr  Pr2  1  0.375680  0.126245  0.748288  1
  Pr  Pr3  1  0.623791  0.874682  0.249889  1
  O  O4  1  0.505406  0.261842  0.999050  1
  O  O5  1  0.237686  0.998102  0.501544  1
  O  O6  1  0.762049  0.501889  0.500008  1
  O  O7  1  0.004652  0.260433  0.000165  1
  O  O8  1  0.996159  0.736654  0.001527  1
  O  O9  1  0.239990  0.500054  0.498513  1
  O  O10  1  0.762651  0.003838  0.496858  1
  O  O11  1  0.498351  0.740442  0.996408  1
