# generated using pymatgen
data_Li3CuF6
_symmetry_space_group_name_H-M   'P 1'
_cell_length_a   5.03640825
_cell_length_b   5.20453817
_cell_length_c   7.55647858
_cell_angle_alpha   90.00000000
_cell_angle_beta   90.49950322
_cell_angle_gamma   90.00000000
_symmetry_Int_Tables_number   1
_chemical_formula_structural   Li3CuF6
_chemical_formula_sum   'Li6 Cu2 F12'
_cell_volume   198.06424194
_cell_formula_units_Z   2
loop_
 _symmetry_equiv_pos_site_id
 _symmetry_equiv_pos_as_xyz
  1  'x, y, z'
loop_
 _atom_site_type_symbol
 _atom_site_label
 _atom_site_symmetry_multiplicity
 _atom_site_fract_x
 _atom_site_fract_y
 _atom_site_fract_z
 _atom_site_occupancy
  Li  Li0  1  0.241567  0.941443  0.507402  1
  Li  Li1  1  0.249735  0.487976  0.750285  1
  Li  Li2  1  0.260729  0.036947  0.992675  1
  Li  Li3  1  0.739270  0.536947  0.007325  1
  Li  Li4  1  0.750265  0.987976  0.249715  1
  Li  Li5  1  0.758433  0.441443  0.492598  1
  Cu  Cu6  1  0.248726  0.487864  0.249557  1
  Cu  Cu7  1  0.751274  0.987864  0.750443  1
  F  F8  1  0.068407  0.166871  0.687358  1
  F  F9  1  0.079275  0.178405  0.329148  1
  F  F10  1  0.112206  0.414314  0.014169  1
  F  F11  1  0.385449  0.562675  0.484839  1
  F  F12  1  0.419876  0.796428  0.170416  1
  F  F13  1  0.436112  0.806578  0.814344  1
  F  F14  1  0.563888  0.306578  0.185656  1
  F  F15  1  0.580124  0.296428  0.829584  1
  F  F16  1  0.614551  0.062675  0.515161  1
  F  F17  1  0.887794  0.914314  0.985831  1
  F  F18  1  0.920725  0.678405  0.670852  1
  F  F19  1  0.931593  0.666871  0.312642  1
