# generated using pymatgen
data_Li19Cr4P8O35F
_symmetry_space_group_name_H-M   'P 1'
_cell_length_a   6.87957202
_cell_length_b   10.57014205
_cell_length_c   10.59276959
_cell_angle_alpha   94.70717666
_cell_angle_beta   108.93925599
_cell_angle_gamma   71.05766167
_symmetry_Int_Tables_number   1
_chemical_formula_structural   Li19Cr4P8O35F
_chemical_formula_sum   'Li19 Cr4 P8 O35 F1'
_cell_volume   688.89515320
_cell_formula_units_Z   1
loop_
 _symmetry_equiv_pos_site_id
 _symmetry_equiv_pos_as_xyz
  1  'x, y, z'
loop_
 _atom_site_type_symbol
 _atom_site_label
 _atom_site_symmetry_multiplicity
 _atom_site_fract_x
 _atom_site_fract_y
 _atom_site_fract_z
 _atom_site_occupancy
  Li  Li0  1  0.992928  0.251264  0.239648  1
  Li  Li1  1  0.495494  0.250887  0.239440  1
  Li  Li2  1  0.376572  0.261372  0.484139  1
  Li  Li3  1  0.623300  0.486307  0.254022  1
  Li  Li4  1  0.881603  0.738725  0.005007  1
  Li  Li5  1  0.121868  0.011303  0.752841  1
  Li  Li6  1  0.265907  0.733726  0.260319  1
  Li  Li7  1  0.770031  0.725050  0.268839  1
  Li  Li8  1  0.735884  0.265992  0.736290  1
  Li  Li9  1  0.226460  0.274384  0.728541  1
  Li  Li10  1  0.998585  0.498797  0.499426  1
  Li  Li11  1  0.380057  0.994685  0.251397  1
  Li  Li12  1  0.616825  0.259064  0.995979  1
  Li  Li13  1  0.162469  0.731106  0.513941  1
  Li  Li14  1  0.855215  0.511382  0.744403  1
  Li  Li15  1  0.003014  0.744569  0.764312  1
  Li  Li16  1  0.517607  0.745742  0.765067  1
  Li  Li17  1  0.998998  0.999294  0.000748  1
  Li  Li18  1  0.502384  0.999428  0.000831  1
  Cr  Cr19  1  0.738977  0.004198  0.498662  1
  Cr  Cr20  1  0.248734  0.500566  0.001836  1
  Cr  Cr21  1  0.260528  0.998395  0.496196  1
  Cr  Cr22  1  0.747073  0.498355  0.996580  1
  P  P23  1  0.129935  0.504136  0.273872  1
  P  P24  1  0.868703  0.273999  0.503747  1
  P  P25  1  0.364221  0.774643  0.004115  1
  P  P26  1  0.634231  0.004949  0.772454  1
  P  P27  1  0.866382  0.993065  0.224594  1
  P  P28  1  0.133825  0.224783  0.994357  1
  P  P29  1  0.359687  0.495106  0.723890  1
  P  P30  1  0.640181  0.724302  0.495749  1
  O  O31  1  0.242693  0.096129  0.083049  1
  O  O32  1  0.757942  0.082237  0.096933  1
  O  O33  1  0.923887  0.300241  0.030161  1
  O  O34  1  0.302071  0.301931  0.033801  1
  O  O35  1  0.700201  0.032905  0.303832  1
  O  O36  1  0.076737  0.028709  0.302102  1
  O  O37  1  0.560740  0.442379  0.067681  1
  O  O38  1  0.435644  0.070659  0.439693  1
  O  O39  1  0.224123  0.351155  0.306576  1
  O  O40  1  0.775826  0.307839  0.351778  1
  O  O41  1  0.111771  0.182854  0.541842  1
  O  O42  1  0.265086  0.545350  0.200259  1
  O  O43  1  0.734486  0.198266  0.544817  1
  O  O44  1  0.886383  0.540756  0.186548  1
  O  O45  1  0.425821  0.806104  0.155350  1
  O  O46  1  0.573000  0.155566  0.804485  1
  O  O47  1  0.121887  0.592530  0.395610  1
  O  O48  1  0.877876  0.393927  0.593505  1
  O  O49  1  0.319235  0.406710  0.602541  1
  O  O50  1  0.677429  0.605049  0.405030  1
  O  O51  1  0.074676  0.194157  0.842520  1
  O  O52  1  0.925131  0.841608  0.193766  1
  O  O53  1  0.756485  0.814979  0.459006  1
  O  O54  1  0.388988  0.800954  0.455671  1
  O  O55  1  0.609348  0.454675  0.797979  1
  O  O56  1  0.240006  0.459055  0.811524  1
  O  O57  1  0.267964  0.648846  0.691383  1
  O  O58  1  0.732499  0.689959  0.647530  1
  O  O59  1  0.934933  0.557077  0.930428  1
  O  O60  1  0.570226  0.697307  0.964869  1
  O  O61  1  0.427544  0.965566  0.692470  1
  O  O62  1  0.802742  0.970379  0.694402  1
  O  O63  1  0.193969  0.698971  0.968716  1
  O  O64  1  0.743035  0.912840  0.898321  1
  O  O65  1  0.255356  0.902646  0.914066  1
  F  F66  1  0.066583  0.927621  0.558029  1
