# generated using pymatgen
data_Li4MnV2WO12
_symmetry_space_group_name_H-M   'P 1'
_cell_length_a   5.33598989
_cell_length_b   10.69396563
_cell_length_c   9.42155732
_cell_angle_alpha   28.22886373
_cell_angle_beta   51.24435932
_cell_angle_gamma   56.46770578
_symmetry_Int_Tables_number   1
_chemical_formula_structural   Li4MnV2WO12
_chemical_formula_sum   'Li4 Mn1 V2 W1 O12'
_cell_volume   198.30218990
_cell_formula_units_Z   1
loop_
 _symmetry_equiv_pos_site_id
 _symmetry_equiv_pos_as_xyz
  1  'x, y, z'
loop_
 _atom_site_type_symbol
 _atom_site_label
 _atom_site_symmetry_multiplicity
 _atom_site_fract_x
 _atom_site_fract_y
 _atom_site_fract_z
 _atom_site_occupancy
  Li  Li0  1  0.264402  0.000723  0.312188  1
  Li  Li1  1  0.319492  0.495126  0.275792  1
  Li  Li2  1  0.792621  0.008720  0.743291  1
  Li  Li3  1  0.760634  0.495397  0.814636  1
  Mn  Mn4  1  0.004576  0.498853  0.008713  1
  V  V5  1  0.498226  0.000410  0.512933  1
  V  V6  1  0.525502  0.500360  0.504254  1
  W  W7  1  0.007826  0.003522  0.004428  1
  O  O8  1  0.352201  0.289434  0.145601  1
  O  O9  1  0.229396  0.115041  0.632013  1
  O  O10  1  0.119347  0.320559  0.731834  1
  O  O11  1  0.838680  0.195576  0.242907  1
  O  O12  1  0.373296  0.814473  0.113952  1
  O  O13  1  0.719320  0.389728  0.360505  1
  O  O14  1  0.257905  0.611225  0.619148  1
  O  O15  1  0.623939  0.186818  0.862340  1
  O  O16  1  0.139767  0.811797  0.729355  1
  O  O17  1  0.871440  0.685418  0.244867  1
  O  O18  1  0.741448  0.876366  0.366475  1
  O  O19  1  0.631182  0.700453  0.845969  1
