# generated using pymatgen
data_BaTa4O11
_symmetry_space_group_name_H-M   'P 1'
_cell_length_a   6.36954454
_cell_length_b   6.36958802
_cell_length_c   12.59168798
_cell_angle_alpha   90.00055678
_cell_angle_beta   89.99987661
_cell_angle_gamma   120.00192896
_symmetry_Int_Tables_number   1
_chemical_formula_structural   BaTa4O11
_chemical_formula_sum   'Ba2 Ta8 O22'
_cell_volume   442.41094789
_cell_formula_units_Z   2
loop_
 _symmetry_equiv_pos_site_id
 _symmetry_equiv_pos_as_xyz
  1  'x, y, z'
loop_
 _atom_site_type_symbol
 _atom_site_label
 _atom_site_symmetry_multiplicity
 _atom_site_fract_x
 _atom_site_fract_y
 _atom_site_fract_z
 _atom_site_occupancy
  Ba  Ba0  1  0.333253  0.666617  0.750000  1
  Ba  Ba1  1  0.666627  0.333374  0.249992  1
  Ta  Ta2  1  0.000011  0.646098  0.500000  1
  Ta  Ta3  1  0.999974  0.353908  0.999994  1
  Ta  Ta4  1  0.333326  0.666635  0.250004  1
  Ta  Ta5  1  0.353879  0.353880  0.500000  1
  Ta  Ta6  1  0.646100  0.646115  0.000006  1
  Ta  Ta7  1  0.353897  0.000005  0.000004  1
  Ta  Ta8  1  0.666671  0.333365  0.750003  1
  Ta  Ta9  1  0.646078  -0.000003  0.500004  1
  O  O10  1  0.000002  0.758343  0.000002  1
  O  O11  1  0.072680  0.638569  0.347962  1
  O  O12  1  0.072703  0.434082  0.152026  1
  O  O13  1  0.999978  0.241659  0.499995  1
  O  O14  1  0.361380  0.927272  0.152044  1
  O  O15  1  0.333335  0.666671  0.533106  1
  O  O16  1  0.333331  0.666660  0.966895  1
  O  O17  1  0.565874  0.927268  0.347962  1
  O  O18  1  0.241634  0.241640  0.999998  1
  O  O19  1  0.361411  0.434057  0.347959  1
  O  O20  1  0.434119  0.361443  0.652035  1
  O  O21  1  0.241681  0.000001  0.500000  1
  O  O22  1  0.565901  0.638521  0.152049  1
  O  O23  1  0.638619  0.565922  0.847972  1
  O  O24  1  0.758349  0.758360  0.500004  1
  O  O25  1  0.434132  0.072730  0.847960  1
  O  O26  1  0.666646  0.333325  0.033104  1
  O  O27  1  0.666656  0.333342  0.466892  1
  O  O28  1  0.638624  0.072733  0.652039  1
  O  O29  1  0.927357  0.565946  0.652039  1
  O  O30  1  0.758306  0.000002  1.000000  1
  O  O31  1  0.927366  0.361461  0.847954  1
