# generated using pymatgen
data_LiSb(PO3)4
_symmetry_space_group_name_H-M   'P 1'
_cell_length_a   9.89885742
_cell_length_b   13.42274835
_cell_length_c   7.46445725
_cell_angle_alpha   90.00000000
_cell_angle_beta   86.57889219
_cell_angle_gamma   90.00000000
_symmetry_Int_Tables_number   1
_chemical_formula_structural   LiSb(PO3)4
_chemical_formula_sum   'Li4 Sb4 P16 O48'
_cell_volume   990.03400258
_cell_formula_units_Z   4
loop_
 _symmetry_equiv_pos_site_id
 _symmetry_equiv_pos_as_xyz
  1  'x, y, z'
loop_
 _atom_site_type_symbol
 _atom_site_label
 _atom_site_symmetry_multiplicity
 _atom_site_fract_x
 _atom_site_fract_y
 _atom_site_fract_z
 _atom_site_occupancy
  Li  Li0  1  0.043477  0.216189  0.114168  1
  Li  Li1  1  0.456523  0.716189  0.385832  1
  Li  Li2  1  0.543477  0.283811  0.614168  1
  Li  Li3  1  0.956523  0.783811  0.885832  1
  Sb  Sb4  1  0.071580  0.787038  0.450611  1
  Sb  Sb5  1  0.428420  0.287037  0.049389  1
  Sb  Sb6  1  0.571580  0.712962  0.950611  1
  Sb  Sb7  1  0.928420  0.212963  0.549389  1
  P  P8  1  0.204262  0.375906  0.376519  1
  P  P9  1  0.201272  0.590829  0.292247  1
  P  P10  1  0.243061  0.125243  0.602288  1
  P  P11  1  0.225731  0.912963  0.726141  1
  P  P12  1  0.274269  0.412963  0.773859  1
  P  P13  1  0.256939  0.625243  0.897712  1
  P  P14  1  0.298728  0.090829  0.207753  1
  P  P15  1  0.295738  0.875906  0.123481  1
  P  P16  1  0.704262  0.124094  0.876519  1
  P  P17  1  0.701272  0.909171  0.792247  1
  P  P18  1  0.743061  0.374757  0.102288  1
  P  P19  1  0.725731  0.587037  0.226141  1
  P  P20  1  0.774269  0.087037  0.273859  1
  P  P21  1  0.756939  0.874757  0.397712  1
  P  P22  1  0.798728  0.409171  0.707753  1
  P  P23  1  0.795738  0.624094  0.623481  1
  O  O24  1  0.074307  0.655929  0.284942  1
  O  O25  1  0.073592  0.903262  0.739399  1
  O  O26  1  0.098700  0.158139  0.664727  1
  O  O27  1  0.103645  0.295153  0.340618  1
  O  O28  1  0.139911  0.480590  0.322016  1
  O  O29  1  0.145982  0.698205  0.890649  1
  O  O30  1  0.155459  0.865229  0.216083  1
  O  O31  1  0.211782  0.387179  0.585169  1
  O  O32  1  0.201263  0.355001  0.921793  1
  O  O33  1  0.225518  0.528531  0.784031  1
  O  O34  1  0.225294  0.080059  0.403842  1
  O  O35  1  0.199744  0.122048  0.076646  1
  O  O36  1  0.300256  0.622048  0.423354  1
  O  O37  1  0.274706  0.580059  0.096158  1
  O  O38  1  0.274482  0.028531  0.715969  1
  O  O39  1  0.298737  0.855001  0.578207  1
  O  O40  1  0.288218  0.887179  0.914831  1
  O  O41  1  0.344541  0.365228  0.283917  1
  O  O42  1  0.354018  0.198205  0.609351  1
  O  O43  1  0.360089  0.980590  0.177984  1
  O  O44  1  0.396355  0.795153  0.159382  1
  O  O45  1  0.401300  0.658139  0.835273  1
  O  O46  1  0.426408  0.403262  0.760601  1
  O  O47  1  0.425693  0.155929  0.215058  1
  O  O48  1  0.574307  0.844071  0.784942  1
  O  O49  1  0.573592  0.596738  0.239399  1
  O  O50  1  0.598700  0.341861  0.164727  1
  O  O51  1  0.603645  0.204847  0.840618  1
  O  O52  1  0.639911  0.019410  0.822016  1
  O  O53  1  0.645982  0.801795  0.390649  1
  O  O54  1  0.655459  0.634771  0.716083  1
  O  O55  1  0.711782  0.112821  0.085169  1
  O  O56  1  0.701263  0.144999  0.421793  1
  O  O57  1  0.725518  0.971469  0.284031  1
  O  O58  1  0.725294  0.419941  0.903842  1
  O  O59  1  0.699744  0.377952  0.576646  1
  O  O60  1  0.800256  0.877952  0.923354  1
  O  O61  1  0.774706  0.919941  0.596158  1
  O  O62  1  0.774482  0.471469  0.215969  1
  O  O63  1  0.798737  0.644999  0.078207  1
  O  O64  1  0.788218  0.612821  0.414831  1
  O  O65  1  0.844541  0.134771  0.783917  1
  O  O66  1  0.854018  0.301795  0.109351  1
  O  O67  1  0.860089  0.519410  0.677984  1
  O  O68  1  0.896355  0.704847  0.659382  1
  O  O69  1  0.901300  0.841861  0.335273  1
  O  O70  1  0.926408  0.096738  0.260601  1
  O  O71  1  0.925693  0.344071  0.715058  1
