# generated using pymatgen
data_Li4Mn2Cr3Sb3O16
_symmetry_space_group_name_H-M   'P 1'
_cell_length_a   6.11290004
_cell_length_b   6.14736710
_cell_length_c   10.01914773
_cell_angle_alpha   89.99970363
_cell_angle_beta   89.90900282
_cell_angle_gamma   120.18657754
_symmetry_Int_Tables_number   1
_chemical_formula_structural   Li4Mn2Cr3Sb3O16
_chemical_formula_sum   'Li4 Mn2 Cr3 Sb3 O16'
_cell_volume   325.44495027
_cell_formula_units_Z   1
loop_
 _symmetry_equiv_pos_site_id
 _symmetry_equiv_pos_as_xyz
  1  'x, y, z'
loop_
 _atom_site_type_symbol
 _atom_site_label
 _atom_site_symmetry_multiplicity
 _atom_site_fract_x
 _atom_site_fract_y
 _atom_site_fract_z
 _atom_site_occupancy
  Li  Li0  1  0.343145  0.671592  0.900798  1
  Li  Li1  1  0.015979  0.007989  0.005812  1
  Li  Li2  1  0.018598  0.009326  0.490653  1
  Li  Li3  1  0.673838  0.336922  0.368983  1
  Mn  Mn4  1  0.308092  0.654056  0.479649  1
  Mn  Mn5  1  0.652253  0.326129  0.016693  1
  Cr  Cr6  1  0.167326  0.831183  0.214916  1
  Cr  Cr7  1  0.167293  0.336141  0.214914  1
  Cr  Cr8  1  0.334979  0.167509  0.716616  1
  Sb  Sb9  1  0.661358  0.830678  0.215622  1
  Sb  Sb10  1  0.829811  0.662623  0.716502  1
  Sb  Sb11  1  0.829810  0.167217  0.716511  1
  O  O12  1  0.145314  0.840055  0.608799  1
  O  O13  1  0.032057  0.516039  0.327106  1
  O  O14  1  0.336386  0.668208  0.106036  1
  O  O15  1  0.997309  0.998664  0.313188  1
  O  O16  1  0.998672  0.999350  0.819865  1
  O  O17  1  0.145302  0.305287  0.608799  1
  O  O18  1  0.489992  0.969779  0.330534  1
  O  O19  1  0.489977  0.520200  0.330522  1
  O  O20  1  0.308431  0.154224  0.108003  1
  O  O21  1  0.690676  0.845358  0.605232  1
  O  O22  1  0.520868  0.489306  0.826099  1
  O  O23  1  0.520868  0.031598  0.826109  1
  O  O24  1  0.666758  0.333394  0.605746  1
  O  O25  1  0.839529  0.692189  0.103342  1
  O  O26  1  0.975863  0.487948  0.827451  1
  O  O27  1  0.839517  0.147341  0.103341  1
