# generated using pymatgen
data_Li4Ti3(CoO4)3
_symmetry_space_group_name_H-M   'P 1'
_cell_length_a   5.79254371
_cell_length_b   6.10256033
_cell_length_c   6.54978046
_cell_angle_alpha   104.67196782
_cell_angle_beta   100.17641573
_cell_angle_gamma   91.45193469
_symmetry_Int_Tables_number   1
_chemical_formula_structural   Li4Ti3(CoO4)3
_chemical_formula_sum   'Li4 Ti3 Co3 O12'
_cell_volume   219.85903870
_cell_formula_units_Z   1
loop_
 _symmetry_equiv_pos_site_id
 _symmetry_equiv_pos_as_xyz
  1  'x, y, z'
loop_
 _atom_site_type_symbol
 _atom_site_label
 _atom_site_symmetry_multiplicity
 _atom_site_fract_x
 _atom_site_fract_y
 _atom_site_fract_z
 _atom_site_occupancy
  Li  Li0  1  0.833333  0.333333  0.333333  1
  Li  Li1  1  0.551231  0.991338  0.981185  1
  Li  Li2  1  0.333333  0.333333  0.333333  1
  Li  Li3  1  0.115436  0.675328  0.685482  1
  Ti  Ti4  1  0.163351  0.151758  0.680646  1
  Ti  Ti5  1  0.833333  0.833333  0.333333  1
  Ti  Ti6  1  0.503315  0.514908  0.986020  1
  Co  Co7  1  0.670040  0.168142  0.668016  1
  Co  Co8  1  0.333333  0.833333  0.333333  1
  Co  Co9  1  0.996626  0.498525  0.998651  1
  O  O10  1  0.737157  0.275652  0.977736  1
  O  O11  1  0.239036  0.286727  0.993758  1
  O  O12  1  0.929510  0.391015  0.688930  1
  O  O13  1  0.604051  0.069497  0.348164  1
  O  O14  1  0.427631  0.379940  0.672908  1
  O  O15  1  0.081139  0.077087  0.363979  1
  O  O16  1  0.906550  0.932723  0.650769  1
  O  O17  1  0.585528  0.589580  0.302688  1
  O  O18  1  0.413069  0.955481  0.673828  1
  O  O19  1  0.062615  0.597170  0.318503  1
  O  O20  1  0.760118  0.733944  0.015897  1
  O  O21  1  0.253597  0.711186  0.992838  1
