# generated using pymatgen
data_Na2Li(NiO2)3
_symmetry_space_group_name_H-M   'P 1'
_cell_length_a   15.91539062
_cell_length_b   10.28896903
_cell_length_c   10.28896900
_cell_angle_alpha   16.76897282
_cell_angle_beta   15.95615253
_cell_angle_gamma   15.95615778
_symmetry_Int_Tables_number   1
_chemical_formula_structural   Na2Li(NiO2)3
_chemical_formula_sum   'Na2 Li1 Ni3 O6'
_cell_volume   114.50622665
_cell_formula_units_Z   1
loop_
 _symmetry_equiv_pos_site_id
 _symmetry_equiv_pos_as_xyz
  1  'x, y, z'
loop_
 _atom_site_type_symbol
 _atom_site_label
 _atom_site_symmetry_multiplicity
 _atom_site_fract_x
 _atom_site_fract_y
 _atom_site_fract_z
 _atom_site_occupancy
  Na  Na0  1  0.006283  0.995819  0.995819  1
  Na  Na1  1  0.327050  0.004181  0.004181  1
  Li  Li2  1  0.666667  0.000000  0.000000  1
  Ni  Ni3  1  0.166667  0.500000  0.500000  1
  Ni  Ni4  1  0.496761  0.503451  0.503451  1
  Ni  Ni5  1  0.836572  0.496549  0.496549  1
  O  O6  1  0.245264  0.241883  0.241883  1
  O  O7  1  0.088070  0.758117  0.758117  1
  O  O8  1  0.581279  0.238255  0.238255  1
  O  O9  1  0.442070  0.739547  0.739547  1
  O  O10  1  0.891264  0.260453  0.260453  1
  O  O11  1  0.752055  0.761745  0.761745  1
