# generated using pymatgen
data_NdH12C2N7O13
_symmetry_space_group_name_H-M   'P 1'
_cell_length_a   11.17965220
_cell_length_b   6.71860955
_cell_length_c   20.76426417
_cell_angle_alpha   90.00000000
_cell_angle_beta   105.81816491
_cell_angle_gamma   90.00000000
_symmetry_Int_Tables_number   1
_chemical_formula_structural   NdH12C2N7O13
_chemical_formula_sum   'Nd4 H48 C8 N28 O52'
_cell_volume   1500.57853627
_cell_formula_units_Z   4
loop_
 _symmetry_equiv_pos_site_id
 _symmetry_equiv_pos_as_xyz
  1  'x, y, z'
loop_
 _atom_site_type_symbol
 _atom_site_label
 _atom_site_symmetry_multiplicity
 _atom_site_fract_x
 _atom_site_fract_y
 _atom_site_fract_z
 _atom_site_occupancy
  Nd  Nd0  1  0.263774  0.248758  0.634242  1
  Nd  Nd1  1  0.736226  0.748758  0.865758  1
  Nd  Nd2  1  0.736226  0.751242  0.365758  1
  Nd  Nd3  1  0.263774  0.251242  0.134242  1
  H  H4  1  0.203243  0.779808  0.610632  1
  H  H5  1  0.796757  0.279808  0.889368  1
  H  H6  1  0.796757  0.220192  0.389368  1
  H  H7  1  0.203243  0.720192  0.110632  1
  H  H8  1  0.199505  0.879433  0.540882  1
  H  H9  1  0.800495  0.379433  0.959118  1
  H  H10  1  0.800495  0.120567  0.459118  1
  H  H11  1  0.199505  0.620567  0.040882  1
  H  H12  1  0.507214  0.475923  0.722821  1
  H  H13  1  0.492786  0.975923  0.777179  1
  H  H14  1  0.492786  0.524077  0.277179  1
  H  H15  1  0.507214  0.024077  0.222821  1
  H  H16  1  0.390081  0.584347  0.735024  1
  H  H17  1  0.609919  0.084347  0.764976  1
  H  H18  1  0.609919  0.415653  0.264976  1
  H  H19  1  0.390081  0.915653  0.235024  1
  H  H20  1  0.974653  0.680215  0.740784  1
  H  H21  1  0.025347  0.180215  0.759216  1
  H  H22  1  0.025347  0.319785  0.259216  1
  H  H23  1  0.974653  0.819785  0.240784  1
  H  H24  1  0.126527  0.598364  0.767116  1
  H  H25  1  0.873473  0.098364  0.732884  1
  H  H26  1  0.873473  0.401636  0.232884  1
  H  H27  1  0.126527  0.901636  0.267116  1
  H  H28  1  0.877848  0.691088  0.623311  1
  H  H29  1  0.122152  0.191088  0.876689  1
  H  H30  1  0.122152  0.308912  0.376689  1
  H  H31  1  0.877848  0.808912  0.123311  1
  H  H32  1  0.968549  0.667512  0.567008  1
  H  H33  1  0.031451  0.167512  0.932992  1
  H  H34  1  0.031451  0.332488  0.432992  1
  H  H35  1  0.968549  0.832488  0.067008  1
  H  H36  1  0.551907  0.743793  0.580684  1
  H  H37  1  0.448093  0.243793  0.919316  1
  H  H38  1  0.448093  0.256207  0.419316  1
  H  H39  1  0.551907  0.756207  0.080684  1
  H  H40  1  0.416829  0.797805  0.604049  1
  H  H41  1  0.583171  0.297805  0.895951  1
  H  H42  1  0.583171  0.202195  0.395951  1
  H  H43  1  0.416829  0.702195  0.104049  1
  H  H44  1  0.685814  0.017124  0.576663  1
  H  H45  1  0.314186  0.517124  0.923337  1
  H  H46  1  0.314186  0.982876  0.423337  1
  H  H47  1  0.685814  0.482876  0.076663  1
  H  H48  1  0.664246  0.240905  0.614550  1
  H  H49  1  0.335754  0.740905  0.885450  1
  H  H50  1  0.335754  0.759095  0.385450  1
  H  H51  1  0.664246  0.259095  0.114550  1
  C  C52  1  0.060287  0.614336  0.665366  1
  C  C53  1  0.939713  0.114336  0.834634  1
  C  C54  1  0.939713  0.385664  0.334634  1
  C  C55  1  0.060287  0.885664  0.165366  1
  C  C56  1  0.536527  0.029865  0.616509  1
  C  C57  1  0.463473  0.529865  0.883491  1
  C  C58  1  0.463473  0.970135  0.383491  1
  C  C59  1  0.536527  0.470135  0.116509  1
  N  N60  1  0.050453  0.625307  0.728548  1
  N  N61  1  0.949547  0.125307  0.771452  1
  N  N62  1  0.949547  0.374693  0.271452  1
  N  N63  1  0.050453  0.874693  0.228548  1
  N  N64  1  0.959597  0.653329  0.614368  1
  N  N65  1  0.040403  0.153329  0.885632  1
  N  N66  1  0.040403  0.346671  0.385632  1
  N  N67  1  0.959597  0.846671  0.114368  1
  N  N68  1  0.502313  0.840255  0.601771  1
  N  N69  1  0.497687  0.340255  0.898229  1
  N  N70  1  0.497687  0.159745  0.398229  1
  N  N71  1  0.502313  0.659745  0.101771  1
  N  N72  1  0.644778  0.093480  0.606916  1
  N  N73  1  0.355222  0.593480  0.893084  1
  N  N74  1  0.355222  0.906520  0.393084  1
  N  N75  1  0.644778  0.406520  0.106916  1
  N  N76  1  0.982256  0.186534  0.574430  1
  N  N77  1  0.017744  0.686534  0.925570  1
  N  N78  1  0.017744  0.813466  0.425570  1
  N  N79  1  0.982256  0.313466  0.074430  1
  N  N80  1  0.262780  0.069696  0.772004  1
  N  N81  1  0.737220  0.569696  0.727996  1
  N  N82  1  0.737220  0.930304  0.227996  1
  N  N83  1  0.262780  0.430304  0.272004  1
  N  N84  1  0.324380  0.398258  0.509541  1
  N  N85  1  0.675620  0.898258  0.990459  1
  N  N86  1  0.675620  0.601742  0.490459  1
  N  N87  1  0.324380  0.101742  0.009541  1
  O  O88  1  0.050108  0.254948  0.538603  1
  O  O89  1  0.949892  0.754948  0.961397  1
  O  O90  1  0.949892  0.745052  0.461397  1
  O  O91  1  0.050108  0.245052  0.038603  1
  O  O92  1  0.035993  0.155489  0.636158  1
  O  O93  1  0.964007  0.655489  0.863842  1
  O  O94  1  0.964007  0.844511  0.363842  1
  O  O95  1  0.035993  0.344511  0.136158  1
  O  O96  1  0.869195  0.151373  0.550497  1
  O  O97  1  0.130805  0.651373  0.949503  1
  O  O98  1  0.130805  0.848627  0.449503  1
  O  O99  1  0.869195  0.348627  0.050497  1
  O  O100  1  0.211360  0.237702  0.753886  1
  O  O101  1  0.788640  0.737702  0.746114  1
  O  O102  1  0.788640  0.762298  0.246114  1
  O  O103  1  0.211360  0.262298  0.253886  1
  O  O104  1  0.323407  0.991100  0.733266  1
  O  O105  1  0.676593  0.491100  0.766734  1
  O  O106  1  0.676593  0.008900  0.266734  1
  O  O107  1  0.323407  0.508900  0.233266  1
  O  O108  1  0.254577  0.985186  0.823523  1
  O  O109  1  0.745423  0.485186  0.676477  1
  O  O110  1  0.745423  0.014814  0.176477  1
  O  O111  1  0.254577  0.514814  0.323523  1
  O  O112  1  0.292758  0.215217  0.511453  1
  O  O113  1  0.707242  0.715217  0.988547  1
  O  O114  1  0.707242  0.784783  0.488547  1
  O  O115  1  0.292758  0.284783  0.011453  1
  O  O116  1  0.315028  0.508591  0.558489  1
  O  O117  1  0.684972  0.008591  0.941511  1
  O  O118  1  0.684972  0.491409  0.441511  1
  O  O119  1  0.315028  0.991409  0.058489  1
  O  O120  1  0.361940  0.465570  0.463100  1
  O  O121  1  0.638060  0.965570  0.036900  1
  O  O122  1  0.638060  0.534430  0.536900  1
  O  O123  1  0.361940  0.034430  0.963100  1
  O  O124  1  0.164103  0.567843  0.653595  1
  O  O125  1  0.835897  0.067843  0.846405  1
  O  O126  1  0.835897  0.432157  0.346405  1
  O  O127  1  0.164103  0.932157  0.153595  1
  O  O128  1  0.472305  0.148158  0.642238  1
  O  O129  1  0.527695  0.648158  0.857762  1
  O  O130  1  0.527695  0.851842  0.357762  1
  O  O131  1  0.472305  0.351842  0.142238  1
  O  O132  1  0.224603  0.902848  0.589682  1
  O  O133  1  0.775397  0.402848  0.910318  1
  O  O134  1  0.775397  0.097152  0.410318  1
  O  O135  1  0.224603  0.597152  0.089682  1
  O  O136  1  0.415924  0.475270  0.710996  1
  O  O137  1  0.584076  0.975270  0.789004  1
  O  O138  1  0.584076  0.524730  0.289004  1
  O  O139  1  0.415924  0.024730  0.210996  1
