# generated using pymatgen
data_Li2MnV(PO4)3
_symmetry_space_group_name_H-M   'P 1'
_cell_length_a   8.90585804
_cell_length_b   8.28003057
_cell_length_c   8.44695690
_cell_angle_alpha   59.61404894
_cell_angle_beta   63.90403355
_cell_angle_gamma   90.18767645
_symmetry_Int_Tables_number   1
_chemical_formula_structural   Li2MnV(PO4)3
_chemical_formula_sum   'Li4 Mn2 V2 P6 O24'
_cell_volume   461.60146412
_cell_formula_units_Z   2
loop_
 _symmetry_equiv_pos_site_id
 _symmetry_equiv_pos_as_xyz
  1  'x, y, z'
loop_
 _atom_site_type_symbol
 _atom_site_label
 _atom_site_symmetry_multiplicity
 _atom_site_fract_x
 _atom_site_fract_y
 _atom_site_fract_z
 _atom_site_occupancy
  Li  Li0  1  0.146154  0.337645  0.934906  1
  Li  Li1  1  0.864290  0.677091  0.063679  1
  Li  Li2  1  0.875890  0.925265  0.383069  1
  Li  Li3  1  0.868732  0.248732  0.813959  1
  Mn  Mn4  1  0.561334  0.863271  0.291660  1
  Mn  Mn5  1  0.434042  0.136132  0.710028  1
  V  V6  1  0.049355  0.349054  0.311215  1
  V  V7  1  0.960759  0.656593  0.691501  1
  P  P8  1  0.247318  0.045385  0.215748  1
  P  P9  1  0.256414  0.464461  0.498769  1
  P  P10  1  0.252112  0.750559  0.794687  1
  P  P11  1  0.753709  0.253828  0.202168  1
  P  P12  1  0.747178  0.529326  0.503571  1
  P  P13  1  0.749651  0.958723  0.778734  1
  O  O14  1  0.100319  0.844473  0.381994  1
  O  O15  1  0.254567  0.136561  0.004043  1
  O  O16  1  0.184952  0.180831  0.298656  1
  O  O17  1  0.188904  0.482428  0.351926  1
  O  O18  1  0.103640  0.468806  0.689189  1
  O  O19  1  0.096899  0.776709  0.740779  1
  O  O20  1  0.422222  0.026290  0.200037  1
  O  O21  1  0.279544  0.261985  0.612830  1
  O  O22  1  0.422717  0.629747  0.368630  1
  O  O23  1  0.179132  0.534016  0.994494  1
  O  O24  1  0.258668  0.889657  0.860901  1
  O  O25  1  0.416349  0.777794  0.611237  1
  O  O26  1  0.588926  0.213973  0.391680  1
  O  O27  1  0.740405  0.118600  0.126579  1
  O  O28  1  0.815284  0.471064  0.006423  1
  O  O29  1  0.575120  0.372343  0.640184  1
  O  O30  1  0.734078  0.740396  0.384119  1
  O  O31  1  0.571207  0.973671  0.804874  1
  O  O32  1  0.909895  0.213312  0.245704  1
  O  O33  1  0.886576  0.511613  0.320005  1
  O  O34  1  0.821161  0.512723  0.647965  1
  O  O35  1  0.815190  0.836547  0.681308  1
  O  O36  1  0.746403  0.870050  0.989204  1
  O  O37  1  0.887199  0.168911  0.621290  1
