# generated using pymatgen
data_Li2MnVP2(HO5)2
_symmetry_space_group_name_H-M   'P 1'
_cell_length_a   5.50225565
_cell_length_b   10.15351339
_cell_length_c   10.14156701
_cell_angle_alpha   80.03937191
_cell_angle_beta   80.40668751
_cell_angle_gamma   83.17522178
_symmetry_Int_Tables_number   1
_chemical_formula_structural   Li2MnVP2(HO5)2
_chemical_formula_sum   'Li6 Mn3 V3 P6 H6 O30'
_cell_volume   547.86884536
_cell_formula_units_Z   3
loop_
 _symmetry_equiv_pos_site_id
 _symmetry_equiv_pos_as_xyz
  1  'x, y, z'
loop_
 _atom_site_type_symbol
 _atom_site_label
 _atom_site_symmetry_multiplicity
 _atom_site_fract_x
 _atom_site_fract_y
 _atom_site_fract_z
 _atom_site_occupancy
  Li  Li0  1  0.800369  0.636599  0.809031  1
  Li  Li1  1  0.866282  0.701853  0.521818  1
  Li  Li2  1  0.532965  0.030065  0.857667  1
  Li  Li3  1  0.467059  0.964825  0.144838  1
  Li  Li4  1  0.128798  0.303759  0.474636  1
  Li  Li5  1  0.204526  0.362907  0.192031  1
  Mn  Mn6  1  0.829417  0.668260  0.169149  1
  Mn  Mn7  1  0.666692  0.333368  0.333234  1
  Mn  Mn8  1  0.503992  0.998382  0.497498  1
  V  V9  1  0.330204  0.669259  0.665994  1
  V  V10  1  0.166670  0.333333  0.833317  1
  V  V11  1  0.003091  0.997393  0.000685  1
  P  P12  1  0.937022  0.932650  0.697450  1
  P  P13  1  0.718473  0.403818  0.636114  1
  P  P14  1  0.396323  0.734038  0.969224  1
  P  P15  1  0.614869  0.262852  0.030511  1
  P  P16  1  0.260499  0.599097  0.364743  1
  P  P17  1  0.072836  0.067560  0.301940  1
  H  H18  1  0.835724  0.893521  0.236111  1
  H  H19  1  0.830884  0.439735  0.103588  1
  H  H20  1  0.497605  0.773144  0.430577  1
  H  H21  1  0.502453  0.226934  0.563083  1
  H  H22  1  0.161799  0.562648  0.901131  1
  H  H23  1  0.171538  0.104017  0.765531  1
  O  O24  1  0.888585  0.924338  0.854341  1
  O  O25  1  0.994433  0.785639  0.665784  1
  O  O26  1  0.966365  0.338845  0.680152  1
  O  O27  1  0.835065  0.346006  0.968077  1
  O  O28  1  0.859469  0.980867  0.364249  1
  O  O29  1  0.681675  0.994089  0.655812  1
  O  O30  1  0.811056  0.868033  0.147811  1
  O  O31  1  0.666915  0.115982  0.999098  1
  O  O32  1  0.666430  0.550686  0.667574  1
  O  O33  1  0.766497  0.409100  0.478828  1
  O  O34  1  0.853100  0.464168  0.191924  1
  O  O35  1  0.444741  0.742329  0.812349  1
  O  O36  1  0.522237  0.798632  0.518879  1
  O  O37  1  0.498252  0.320671  0.698573  1
  O  O38  1  0.651658  0.672585  0.010879  1
  O  O39  1  0.366940  0.327799  0.986524  1
  O  O40  1  0.473865  0.685788  0.302416  1
  O  O41  1  0.480243  0.202493  0.474735  1
  O  O42  1  0.566834  0.257570  0.187800  1
  O  O43  1  0.145367  0.535876  0.812559  1
  O  O44  1  0.215478  0.592349  0.521918  1
  O  O45  1  0.308096  0.454285  0.331848  1
  O  O46  1  0.338904  0.881049  0.000885  1
  O  O47  1  0.187994  0.130785  0.854110  1
  O  O48  1  0.327318  -0.000058  0.341730  1
  O  O49  1  0.148589  0.019633  0.634880  1
  O  O50  1  0.184730  0.647062  0.031829  1
  O  O51  1  0.006011  0.666704  0.324943  1
  O  O52  1  0.025235  0.212362  0.334834  1
  O  O53  1  0.117826  0.074318  0.144758  1
