# generated using pymatgen
data_Sm2Ge2O7
_symmetry_space_group_name_H-M   'P 1'
_cell_length_a   6.98731666
_cell_length_b   6.98734077
_cell_length_c   12.73364113
_cell_angle_alpha   89.99991648
_cell_angle_beta   89.99998424
_cell_angle_gamma   90.00002075
_symmetry_Int_Tables_number   1
_chemical_formula_structural   Sm2Ge2O7
_chemical_formula_sum   'Sm8 Ge8 O28'
_cell_volume   621.69153756
_cell_formula_units_Z   4
loop_
 _symmetry_equiv_pos_site_id
 _symmetry_equiv_pos_as_xyz
  1  'x, y, z'
loop_
 _atom_site_type_symbol
 _atom_site_label
 _atom_site_symmetry_multiplicity
 _atom_site_fract_x
 _atom_site_fract_y
 _atom_site_fract_z
 _atom_site_occupancy
  Sm  Sm0  1  0.122607  0.649762  0.134645  1
  Sm  Sm1  1  0.149759  0.377388  0.884648  1
  Sm  Sm2  1  0.350239  0.877394  0.365353  1
  Sm  Sm3  1  0.377392  0.149763  0.115355  1
  Sm  Sm4  1  0.622605  0.850238  0.615356  1
  Sm  Sm5  1  0.649761  0.122612  0.865351  1
  Sm  Sm6  1  0.850238  0.622615  0.384649  1
  Sm  Sm7  1  0.877388  0.350238  0.634646  1
  Ge  Ge8  1  0.098309  0.845750  0.621181  1
  Ge  Ge9  1  0.154261  0.901702  0.878820  1
  Ge  Ge10  1  0.345747  0.401691  0.371182  1
  Ge  Ge11  1  0.401701  0.345740  0.628820  1
  Ge  Ge12  1  0.598309  0.654250  0.128819  1
  Ge  Ge13  1  0.654261  0.598298  0.871180  1
  Ge  Ge14  1  0.845739  0.098299  0.378820  1
  Ge  Ge15  1  0.901689  0.154250  0.121182  1
  O  O16  1  0.026769  0.924406  0.374756  1
  O  O17  1  0.062121  0.336674  0.072101  1
  O  O18  1  0.075596  0.973231  0.125245  1
  O  O19  1  0.143106  0.690531  0.953636  1
  O  O20  1  0.163323  0.562121  0.322101  1
  O  O21  1  0.190530  0.356905  0.703636  1
  O  O22  1  0.196636  0.803455  0.749996  1
  O  O23  1  0.303454  0.303364  0.499996  1
  O  O24  1  0.309471  0.856889  0.546357  1
  O  O25  1  0.336678  0.062130  0.927905  1
  O  O26  1  0.356889  0.190529  0.296358  1
  O  O27  1  0.424402  0.473233  0.124754  1
  O  O28  1  0.437877  0.836673  0.177898  1
  O  O29  1  0.473229  0.424405  0.875243  1
  O  O30  1  0.526768  0.575597  0.375245  1
  O  O31  1  0.562130  0.163325  0.677905  1
  O  O32  1  0.575598  0.526771  0.624756  1
  O  O33  1  0.643106  0.809470  0.796365  1
  O  O34  1  0.663323  0.937870  0.427907  1
  O  O35  1  0.690529  0.143100  0.046357  1
  O  O36  1  0.696637  0.696546  0.000004  1
  O  O37  1  0.803361  0.196547  0.249996  1
  O  O38  1  0.809470  0.643100  0.203643  1
  O  O39  1  0.836678  0.437873  0.822093  1
  O  O40  1  0.856903  0.309470  0.453636  1
  O  O41  1  0.924403  0.026770  0.625245  1
  O  O42  1  0.937879  0.663326  0.572102  1
  O  O43  1  0.973232  0.075597  0.874756  1
