# generated using pymatgen
data_Li4Cr3P4O15
_symmetry_space_group_name_H-M   'P 1'
_cell_length_a   18.16280551
_cell_length_b   6.42295670
_cell_length_c   10.57326426
_cell_angle_alpha   90.00000000
_cell_angle_beta   90.00000000
_cell_angle_gamma   89.99990202
_symmetry_Int_Tables_number   1
_chemical_formula_structural   Li4Cr3P4O15
_chemical_formula_sum   'Li16 Cr12 P16 O60'
_cell_volume   1233.46551904
_cell_formula_units_Z   4
loop_
 _symmetry_equiv_pos_site_id
 _symmetry_equiv_pos_as_xyz
  1  'x, y, z'
loop_
 _atom_site_type_symbol
 _atom_site_label
 _atom_site_symmetry_multiplicity
 _atom_site_fract_x
 _atom_site_fract_y
 _atom_site_fract_z
 _atom_site_occupancy
  Li  Li0  1  0.008859  0.317205  0.480368  1
  Li  Li1  1  0.031734  0.197011  0.050504  1
  Li  Li2  1  0.092083  0.951239  0.809038  1
  Li  Li3  1  0.202556  0.350147  0.243624  1
  Li  Li4  1  0.297444  0.850142  0.743627  1
  Li  Li5  1  0.407916  0.451236  0.309041  1
  Li  Li6  1  0.468267  0.697011  0.550503  1
  Li  Li7  1  0.491141  0.817206  0.980367  1
  Li  Li8  1  0.508859  0.317205  0.019632  1
  Li  Li9  1  0.531734  0.197011  0.449496  1
  Li  Li10  1  0.592083  0.951239  0.690962  1
  Li  Li11  1  0.702556  0.350147  0.256376  1
  Li  Li12  1  0.797444  0.850142  0.756373  1
  Li  Li13  1  0.907916  0.451236  0.190959  1
  Li  Li14  1  0.968267  0.697011  0.949497  1
  Li  Li15  1  0.991141  0.817206  0.519633  1
  Cr  Cr16  1  0.135140  0.597668  0.491543  1
  Cr  Cr17  1  0.159002  0.602531  0.995686  1
  Cr  Cr18  1  0.248472  0.335275  0.741870  1
  Cr  Cr19  1  0.251521  0.835266  0.241868  1
  Cr  Cr20  1  0.340999  0.102517  0.495689  1
  Cr  Cr21  1  0.364861  0.097654  0.991534  1
  Cr  Cr22  1  0.635140  0.597668  0.008457  1
  Cr  Cr23  1  0.659002  0.602531  0.504314  1
  Cr  Cr24  1  0.748472  0.335275  0.758130  1
  Cr  Cr25  1  0.751521  0.835266  0.258132  1
  Cr  Cr26  1  0.840999  0.102517  0.004311  1
  Cr  Cr27  1  0.864861  0.097654  0.508466  1
  P  P28  1  0.047827  0.627587  0.230636  1
  P  P29  1  0.059100  0.452672  0.756172  1
  P  P30  1  0.174141  0.094404  0.484779  1
  P  P31  1  0.200863  0.100602  0.001191  1
  P  P32  1  0.299138  0.600599  0.501191  1
  P  P33  1  0.325860  0.594407  0.984778  1
  P  P34  1  0.440900  0.952670  0.256171  1
  P  P35  1  0.452173  0.127587  0.730637  1
  P  P36  1  0.547826  0.627587  0.269364  1
  P  P37  1  0.559100  0.452672  0.743828  1
  P  P38  1  0.674141  0.094404  0.015221  1
  P  P39  1  0.700863  0.100602  0.498809  1
  P  P40  1  0.799138  0.600599  0.998809  1
  P  P41  1  0.825860  0.594407  0.515222  1
  P  P42  1  0.940900  0.952670  0.243829  1
  P  P43  1  0.952173  0.127587  0.769363  1
  O  O44  1  0.008326  0.494433  0.130185  1
  O  O45  1  0.022476  0.869616  0.196512  1
  O  O46  1  0.023202  0.589525  0.367374  1
  O  O47  1  0.046241  0.556546  0.627072  1
  O  O48  1  0.075999  0.619727  0.857556  1
  O  O49  1  0.112295  0.269661  0.757760  1
  O  O50  1  0.124364  0.907332  0.513346  1
  O  O51  1  0.131359  0.619759  0.215089  1
  O  O52  1  0.125081  0.287556  0.466687  1
  O  O53  1  0.149466  0.916145  0.973835  1
  O  O54  1  0.150246  0.288827  0.029313  1
  O  O55  1  0.234223  0.118076  0.592254  1
  O  O56  1  0.220169  0.075214  0.360171  1
  O  O57  1  0.246914  0.573721  0.616156  1
  O  O58  1  0.244405  0.623221  0.387182  1
  O  O59  1  0.255595  0.123217  0.887181  1
  O  O60  1  0.253085  0.073726  0.116154  1
  O  O61  1  0.279831  0.575215  0.860169  1
  O  O62  1  0.265776  0.618078  0.092257  1
  O  O63  1  0.349755  0.788824  0.529313  1
  O  O64  1  0.350532  0.416144  0.473835  1
  O  O65  1  0.374920  0.787561  0.966686  1
  O  O66  1  0.368642  0.119757  0.715087  1
  O  O67  1  0.375639  0.407331  0.013346  1
  O  O68  1  0.387705  0.769659  0.257759  1
  O  O69  1  0.424001  0.119726  0.357555  1
  O  O70  1  0.453758  0.056550  0.127072  1
  O  O71  1  0.476799  0.089528  0.867374  1
  O  O72  1  0.477525  0.369616  0.696511  1
  O  O73  1  0.491674  0.994432  0.630189  1
  O  O74  1  0.508326  0.494433  0.369815  1
  O  O75  1  0.522476  0.869616  0.303488  1
  O  O76  1  0.523202  0.589525  0.132626  1
  O  O77  1  0.546241  0.556546  0.872928  1
  O  O78  1  0.575999  0.619727  0.642444  1
  O  O79  1  0.612295  0.269661  0.742240  1
  O  O80  1  0.624364  0.907332  0.986654  1
  O  O81  1  0.631359  0.619759  0.284911  1
  O  O82  1  0.625081  0.287556  0.033313  1
  O  O83  1  0.649466  0.916145  0.526165  1
  O  O84  1  0.650246  0.288827  0.470687  1
  O  O85  1  0.734223  0.118076  0.907746  1
  O  O86  1  0.720169  0.075214  0.139829  1
  O  O87  1  0.746914  0.573721  0.883844  1
  O  O88  1  0.744405  0.623221  0.112818  1
  O  O89  1  0.755595  0.123217  0.612819  1
  O  O90  1  0.753085  0.073726  0.383846  1
  O  O91  1  0.779831  0.575215  0.639831  1
  O  O92  1  0.765776  0.618078  0.407743  1
  O  O93  1  0.849755  0.788824  0.970687  1
  O  O94  1  0.850532  0.416144  0.026165  1
  O  O95  1  0.874920  0.787561  0.533314  1
  O  O96  1  0.868642  0.119757  0.784913  1
  O  O97  1  0.875639  0.407331  0.486654  1
  O  O98  1  0.887705  0.769659  0.242241  1
  O  O99  1  0.924001  0.119726  0.142445  1
  O  O100  1  0.953758  0.056550  0.372928  1
  O  O101  1  0.976799  0.089528  0.632626  1
  O  O102  1  0.977525  0.369616  0.803489  1
  O  O103  1  0.991674  0.994432  0.869811  1
