# generated using pymatgen
data_Co(SO4)2
_symmetry_space_group_name_H-M   'P 1'
_cell_length_a   8.90595664
_cell_length_b   8.90595629
_cell_length_c   8.90595629
_cell_angle_alpha   56.11049840
_cell_angle_beta   56.11049712
_cell_angle_gamma   56.11049648
_symmetry_Int_Tables_number   1
_chemical_formula_structural   Co(SO4)2
_chemical_formula_sum   'Co3 S6 O24'
_cell_volume   454.50424432
_cell_formula_units_Z   3
loop_
 _symmetry_equiv_pos_site_id
 _symmetry_equiv_pos_as_xyz
  1  'x, y, z'
loop_
 _atom_site_type_symbol
 _atom_site_label
 _atom_site_symmetry_multiplicity
 _atom_site_fract_x
 _atom_site_fract_y
 _atom_site_fract_z
 _atom_site_occupancy
  Co  Co0  1  0.147862  0.147862  0.147862  1
  Co  Co1  1  0.645035  0.645035  0.645035  1
  Co  Co2  1  0.851532  0.851532  0.851532  1
  S  S3  1  0.042688  0.747741  0.462789  1
  S  S4  1  0.462789  0.042688  0.747741  1
  S  S5  1  0.747741  0.462789  0.042688  1
  S  S6  1  0.253367  0.538578  0.957437  1
  S  S7  1  0.538578  0.957437  0.253367  1
  S  S8  1  0.957437  0.253367  0.538578  1
  O  O9  1  0.111561  0.293996  0.509978  1
  O  O10  1  0.293996  0.509978  0.111561  1
  O  O11  1  0.014413  0.954847  0.327199  1
  O  O12  1  0.509978  0.111561  0.293996  1
  O  O13  1  0.021872  0.722781  0.652770  1
  O  O14  1  0.237575  0.626269  0.374423  1
  O  O15  1  0.374423  0.237575  0.626269  1
  O  O16  1  0.327199  0.014413  0.954847  1
  O  O17  1  0.626269  0.374423  0.237575  1
  O  O18  1  0.048223  0.673772  0.976874  1
  O  O19  1  0.281479  0.348295  0.974301  1
  O  O20  1  0.348295  0.974301  0.281479  1
  O  O21  1  0.652770  0.021872  0.722781  1
  O  O22  1  0.722781  0.652770  0.021872  1
  O  O23  1  0.954847  0.327199  0.014413  1
  O  O24  1  0.384078  0.621937  0.760592  1
  O  O25  1  0.673772  0.976874  0.048223  1
  O  O26  1  0.621937  0.760592  0.384078  1
  O  O27  1  0.760592  0.384078  0.621937  1
  O  O28  1  0.974301  0.281479  0.348295  1
  O  O29  1  0.488519  0.890435  0.701742  1
  O  O30  1  0.976874  0.048223  0.673772  1
  O  O31  1  0.701742  0.488519  0.890435  1
  O  O32  1  0.890435  0.701742  0.488519  1
