# generated using pymatgen
data_NaH3C4S4(OF)12
_symmetry_space_group_name_H-M   'P 1'
_cell_length_a   14.33139049
_cell_length_b   14.33139049
_cell_length_c   14.33139049
_cell_angle_alpha   109.47122063
_cell_angle_beta   109.47122063
_cell_angle_gamma   109.47122063
_symmetry_Int_Tables_number   1
_chemical_formula_structural   NaH3C4S4(OF)12
_chemical_formula_sum   'Na4 H12 C16 S16 O48 F48'
_cell_volume   2265.91230616
_cell_formula_units_Z   4
loop_
 _symmetry_equiv_pos_site_id
 _symmetry_equiv_pos_as_xyz
  1  'x, y, z'
loop_
 _atom_site_type_symbol
 _atom_site_label
 _atom_site_symmetry_multiplicity
 _atom_site_fract_x
 _atom_site_fract_y
 _atom_site_fract_z
 _atom_site_occupancy
  Na  Na0  1  0.500000  0.000000  0.725827  1
  Na  Na1  1  0.000000  0.725827  0.500000  1
  Na  Na2  1  0.725827  0.500000  0.000000  1
  Na  Na3  1  0.774173  0.774173  0.774173  1
  H  H4  1  0.350542  0.285640  0.898397  1
  H  H5  1  0.935098  0.149458  0.047855  1
  H  H6  1  0.214360  0.564902  0.612757  1
  H  H7  1  0.149458  0.047855  0.935098  1
  H  H8  1  0.564902  0.612757  0.214360  1
  H  H9  1  0.285640  0.898397  0.350542  1
  H  H10  1  0.612757  0.214360  0.564902  1
  H  H11  1  0.898397  0.350542  0.285640  1
  H  H12  1  0.047855  0.935098  0.149458  1
  H  H13  1  0.887243  0.452145  0.601603  1
  H  H14  1  0.601603  0.887243  0.452145  1
  H  H15  1  0.452145  0.601603  0.887243  1
  C  C16  1  0.492715  0.221228  0.059971  1
  C  C17  1  0.728514  0.007285  0.067257  1
  C  C18  1  0.278772  0.771486  0.838743  1
  C  C19  1  0.007285  0.067257  0.728514  1
  C  C20  1  0.771486  0.838743  0.278772  1
  C  C21  1  0.221228  0.059971  0.492715  1
  C  C22  1  0.838743  0.278772  0.771486  1
  C  C23  1  0.059971  0.492715  0.221228  1
  C  C24  1  0.067257  0.728514  0.007285  1
  C  C25  1  0.661257  0.432743  0.440029  1
  C  C26  1  0.440029  0.661257  0.432743  1
  C  C27  1  0.432743  0.440029  0.661257  1
  C  C28  1  0.244805  0.500000  0.000000  1
  C  C29  1  0.255195  0.255195  0.255195  1
  C  C30  1  0.000000  0.244805  0.500000  1
  C  C31  1  0.500000  0.000000  0.244805  1
  S  S32  1  0.478185  0.230791  0.929060  1
  S  S33  1  0.752607  0.021815  0.950875  1
  S  S34  1  0.269209  0.747393  0.698268  1
  S  S35  1  0.021815  0.950875  0.752607  1
  S  S36  1  0.747393  0.698268  0.269209  1
  S  S37  1  0.230791  0.929060  0.478185  1
  S  S38  1  0.698268  0.269209  0.747393  1
  S  S39  1  0.929060  0.478185  0.230791  1
  S  S40  1  0.950875  0.752607  0.021815  1
  S  S41  1  0.801732  0.549125  0.570940  1
  S  S42  1  0.570940  0.801732  0.549125  1
  S  S43  1  0.549125  0.570940  0.801732  1
  S  S44  1  0.376094  0.500000  0.000000  1
  S  S45  1  0.123906  0.123906  0.123906  1
  S  S46  1  0.000000  0.376094  0.500000  1
  S  S47  1  0.500000  0.000000  0.376094  1
  O  O48  1  0.562933  0.345025  0.968192  1
  O  O49  1  0.782092  0.937067  0.905259  1
  O  O50  1  0.154975  0.717908  0.623167  1
  O  O51  1  0.937067  0.905259  0.782092  1
  O  O52  1  0.717908  0.623167  0.154975  1
  O  O53  1  0.345025  0.968192  0.562933  1
  O  O54  1  0.623167  0.154975  0.717908  1
  O  O55  1  0.968192  0.562933  0.345025  1
  O  O56  1  0.905259  0.782092  0.937067  1
  O  O57  1  0.876833  0.594741  0.531808  1
  O  O58  1  0.531808  0.876833  0.594741  1
  O  O59  1  0.594741  0.531808  0.876833  1
  O  O60  1  0.355450  0.211192  0.876966  1
  O  O61  1  0.855742  0.144550  0.021516  1
  O  O62  1  0.288809  0.644258  0.665775  1
  O  O63  1  0.144550  0.021516  0.855742  1
  O  O64  1  0.644258  0.665775  0.288809  1
  O  O65  1  0.211192  0.876966  0.355450  1
  O  O66  1  0.665775  0.288809  0.644258  1
  O  O67  1  0.876966  0.355450  0.211192  1
  O  O68  1  0.021516  0.855742  0.144550  1
  O  O69  1  0.834225  0.478484  0.623034  1
  O  O70  1  0.623034  0.834225  0.478484  1
  O  O71  1  0.478484  0.623034  0.834225  1
  O  O72  1  0.478774  0.134221  0.856351  1
  O  O73  1  0.655447  0.021226  0.877577  1
  O  O74  1  0.365779  0.844553  0.722130  1
  O  O75  1  0.021226  0.877577  0.655447  1
  O  O76  1  0.844553  0.722130  0.365779  1
  O  O77  1  0.134221  0.856351  0.478774  1
  O  O78  1  0.722130  0.365779  0.844553  1
  O  O79  1  0.856351  0.478774  0.134221  1
  O  O80  1  0.877577  0.655447  0.021226  1
  O  O81  1  0.777870  0.622423  0.643649  1
  O  O82  1  0.643649  0.777870  0.622423  1
  O  O83  1  0.622423  0.643649  0.777870  1
  O  O84  1  0.446950  0.523933  0.115054  1
  O  O85  1  0.076984  0.053050  0.168104  1
  O  O86  1  0.976067  0.423016  0.591120  1
  O  O87  1  0.053050  0.168104  0.076984  1
  O  O88  1  0.423016  0.591120  0.976067  1
  O  O89  1  0.523933  0.115054  0.446950  1
  O  O90  1  0.591120  0.976067  0.423016  1
  O  O91  1  0.115054  0.446950  0.523933  1
  O  O92  1  0.168104  0.076984  0.053050  1
  O  O93  1  0.908880  0.331896  0.384946  1
  O  O94  1  0.384946  0.908880  0.331896  1
  O  O95  1  0.331896  0.384946  0.908880  1
  F  F96  1  0.413650  0.117009  0.029526  1
  F  F97  1  0.703359  0.086350  0.115876  1
  F  F98  1  0.382991  0.796641  0.912517  1
  F  F99  1  0.086350  0.115876  0.703359  1
  F  F100  1  0.796641  0.912517  0.382991  1
  F  F101  1  0.117009  0.029526  0.413650  1
  F  F102  1  0.912517  0.382991  0.796641  1
  F  F103  1  0.029526  0.413650  0.117009  1
  F  F104  1  0.115876  0.703359  0.086350  1
  F  F105  1  0.587483  0.384124  0.470474  1
  F  F106  1  0.470474  0.587483  0.384124  1
  F  F107  1  0.384124  0.470474  0.587483  1
  F  F108  1  0.476854  0.301518  0.123986  1
  F  F109  1  0.824663  0.023146  0.147132  1
  F  F110  1  0.198482  0.675337  0.822468  1
  F  F111  1  0.023146  0.147132  0.824663  1
  F  F112  1  0.675337  0.822468  0.198482  1
  F  F113  1  0.301518  0.123986  0.476854  1
  F  F114  1  0.822468  0.198482  0.675337  1
  F  F115  1  0.123986  0.476854  0.301518  1
  F  F116  1  0.147132  0.824663  0.023146  1
  F  F117  1  0.677532  0.352868  0.376014  1
  F  F118  1  0.376014  0.677532  0.352868  1
  F  F119  1  0.352868  0.376014  0.677532  1
  F  F120  1  0.597789  0.239290  0.121598  1
  F  F121  1  0.641501  0.902211  0.023808  1
  F  F122  1  0.260710  0.858499  0.882307  1
  F  F123  1  0.902211  0.023808  0.641501  1
  F  F124  1  0.858499  0.882307  0.260710  1
  F  F125  1  0.239290  0.121598  0.597789  1
  F  F126  1  0.882307  0.260710  0.858499  1
  F  F127  1  0.121598  0.597789  0.239290  1
  F  F128  1  0.023808  0.641501  0.902211  1
  F  F129  1  0.617693  0.476192  0.378402  1
  F  F130  1  0.378402  0.617693  0.476192  1
  F  F131  1  0.476192  0.378402  0.617693  1
  F  F132  1  0.273892  0.602442  0.082057  1
  F  F133  1  0.328550  0.226108  0.308165  1
  F  F134  1  0.897558  0.171450  0.479615  1
  F  F135  1  0.226108  0.308165  0.328550  1
  F  F136  1  0.171450  0.479615  0.897558  1
  F  F137  1  0.602442  0.082057  0.273892  1
  F  F138  1  0.479615  0.897558  0.171450  1
  F  F139  1  0.082057  0.273892  0.602442  1
  F  F140  1  0.308165  0.328550  0.226108  1
  F  F141  1  0.020385  0.191835  0.417943  1
  F  F142  1  0.417943  0.020385  0.191835  1
  F  F143  1  0.191835  0.417943  0.020385  1
