# generated using pymatgen
data_La4Bi2O9
_symmetry_space_group_name_H-M   'P 1'
_cell_length_a   5.85465823
_cell_length_b   9.23622492
_cell_length_c   5.84895706
_cell_angle_alpha   86.47784056
_cell_angle_beta   91.30188864
_cell_angle_gamma   72.06799787
_symmetry_Int_Tables_number   1
_chemical_formula_structural   La4Bi2O9
_chemical_formula_sum   'La4 Bi2 O9'
_cell_volume   300.06062374
_cell_formula_units_Z   1
loop_
 _symmetry_equiv_pos_site_id
 _symmetry_equiv_pos_as_xyz
  1  'x, y, z'
loop_
 _atom_site_type_symbol
 _atom_site_label
 _atom_site_symmetry_multiplicity
 _atom_site_fract_x
 _atom_site_fract_y
 _atom_site_fract_z
 _atom_site_occupancy
  La  La0  1  0.489870  0.001440  0.520134  1
  La  La1  1  0.347601  0.294945  0.984469  1
  La  La2  1  0.173986  0.638182  0.494679  1
  La  La3  1  0.850889  0.283016  0.542470  1
  Bi  Bi4  1  0.003513  0.017087  0.072126  1
  Bi  Bi5  1  0.756803  0.607407  0.924111  1
  O  O6  1  0.147736  0.167705  0.259922  1
  O  O7  1  0.661874  0.147000  0.766621  1
  O  O8  1  0.067362  0.519565  0.197020  1
  O  O9  1  0.665538  0.152469  0.271431  1
  O  O10  1  0.517149  0.491227  0.726171  1
  O  O11  1  0.184174  0.112329  0.781146  1
  O  O12  1  0.021222  0.453805  0.732108  1
  O  O13  1  0.289104  0.837554  0.317281  1
  O  O14  1  0.815844  0.780936  0.681313  1
