# generated using pymatgen
data_Li6FeCoP2(CO7)2
_symmetry_space_group_name_H-M   'P 1'
_cell_length_a   8.39748076
_cell_length_b   4.98670921
_cell_length_c   6.41546076
_cell_angle_alpha   90.00000000
_cell_angle_beta   90.00000000
_cell_angle_gamma   85.41029778
_symmetry_Int_Tables_number   1
_chemical_formula_structural   Li6FeCoP2(CO7)2
_chemical_formula_sum   'Li6 Fe1 Co1 P2 C2 O14'
_cell_volume   267.79102306
_cell_formula_units_Z   1
loop_
 _symmetry_equiv_pos_site_id
 _symmetry_equiv_pos_as_xyz
  1  'x, y, z'
loop_
 _atom_site_type_symbol
 _atom_site_label
 _atom_site_symmetry_multiplicity
 _atom_site_fract_x
 _atom_site_fract_y
 _atom_site_fract_z
 _atom_site_occupancy
  Li  Li0  1  0.095862  0.764355  0.250000  1
  Li  Li1  1  0.276227  0.247970  0.020972  1
  Li  Li2  1  0.276227  0.247970  0.479028  1
  Li  Li3  1  0.723670  0.751399  0.521902  1
  Li  Li4  1  0.723670  0.751399  0.978098  1
  Li  Li5  1  0.903650  0.236817  0.750000  1
  Fe  Fe6  1  0.670376  0.204169  0.250000  1
  Co  Co7  1  0.334508  0.794062  0.750000  1
  P  P8  1  0.414052  0.719106  0.250000  1
  P  P9  1  0.586621  0.280034  0.750000  1
  C  C10  1  0.036531  0.701880  0.750000  1
  C  C11  1  0.962509  0.298650  0.250000  1
  O  O12  1  0.072960  0.949395  0.750000  1
  O  O13  1  0.110037  0.358751  0.250000  1
  O  O14  1  0.152161  0.510277  0.750000  1
  O  O15  1  0.308929  0.825398  0.062689  1
  O  O16  1  0.308929  0.825398  0.437311  1
  O  O17  1  0.418502  0.174419  0.750000  1
  O  O18  1  0.435279  0.405443  0.250000  1
  O  O19  1  0.566327  0.593951  0.750000  1
  O  O20  1  0.581095  0.827829  0.250000  1
  O  O21  1  0.690872  0.175150  0.938137  1
  O  O22  1  0.690872  0.175150  0.561863  1
  O  O23  1  0.846334  0.488310  0.250000  1
  O  O24  1  0.889341  0.640909  0.750000  1
  O  O25  1  0.924456  0.051804  0.250000  1
