# generated using pymatgen
data_V2Fe3Sb(PO4)6
_symmetry_space_group_name_H-M   'P 1'
_cell_length_a   8.63390882
_cell_length_b   8.65474368
_cell_length_c   8.65474282
_cell_angle_alpha   60.00000115
_cell_angle_beta   59.92014401
_cell_angle_gamma   59.92014620
_symmetry_Int_Tables_number   1
_chemical_formula_structural   V2Fe3Sb(PO4)6
_chemical_formula_sum   'V2 Fe3 Sb1 P6 O24'
_cell_volume   456.74687993
_cell_formula_units_Z   1
loop_
 _symmetry_equiv_pos_site_id
 _symmetry_equiv_pos_as_xyz
  1  'x, y, z'
loop_
 _atom_site_type_symbol
 _atom_site_label
 _atom_site_symmetry_multiplicity
 _atom_site_fract_x
 _atom_site_fract_y
 _atom_site_fract_z
 _atom_site_occupancy
  V  V0  1  0.012168  0.995944  0.995944  1
  V  V1  1  0.496011  0.501330  0.501330  1
  Fe  Fe2  1  0.066755  0.644415  0.644415  1
  Fe  Fe3  1  0.435413  0.854862  0.854862  1
  Fe  Fe4  1  0.931278  0.356240  0.356240  1
  Sb  Sb5  1  0.569218  0.143594  0.143594  1
  P  P6  1  0.244739  0.253886  0.545792  1
  P  P7  1  0.244739  0.955584  0.253886  1
  P  P8  1  0.244739  0.545792  0.955584  1
  P  P9  1  0.748127  0.460325  0.044744  1
  P  P10  1  0.748127  0.044744  0.746805  1
  P  P11  1  0.748127  0.746805  0.460325  1
  O  O12  1  0.072222  0.113018  0.317702  1
  O  O13  1  0.072222  0.497058  0.113018  1
  O  O14  1  0.072222  0.317702  0.497058  1
  O  O15  1  0.231655  0.087411  0.735893  1
  O  O16  1  0.435025  0.189235  0.386066  1
  O  O17  1  0.268962  0.412521  0.557695  1
  O  O18  1  0.231655  0.945041  0.087411  1
  O  O19  1  0.268962  0.760822  0.412521  1
  O  O20  1  0.567061  0.610444  0.006694  1
  O  O21  1  0.268962  0.557695  0.760822  1
  O  O22  1  0.767686  0.256461  0.060801  1
  O  O23  1  0.567061  0.006694  0.815801  1
  O  O24  1  0.435025  0.989674  0.189235  1
  O  O25  1  0.231655  0.735893  0.945041  1
  O  O26  1  0.730505  0.435258  0.242352  1
  O  O27  1  0.435025  0.386066  0.989674  1
  O  O28  1  0.730505  0.242352  0.591884  1
  O  O29  1  0.767686  0.060801  0.915052  1
  O  O30  1  0.730505  0.591884  0.435258  1
  O  O31  1  0.567061  0.815801  0.610444  1
  O  O32  1  0.767686  0.915052  0.256461  1
  O  O33  1  0.930401  0.692021  0.490229  1
  O  O34  1  0.930401  0.490229  0.887349  1
  O  O35  1  0.930401  0.887349  0.692021  1
