# generated using pymatgen
data_LiCrBO3
_symmetry_space_group_name_H-M   'P 1'
_cell_length_a   14.26342510
_cell_length_b   14.25605996
_cell_length_c   3.17572558
_cell_angle_alpha   89.11970251
_cell_angle_beta   90.89422488
_cell_angle_gamma   119.96027644
_symmetry_Int_Tables_number   1
_chemical_formula_structural   LiCrBO3
_chemical_formula_sum   'Li9 Cr9 B9 O27'
_cell_volume   559.37256443
_cell_formula_units_Z   9
loop_
 _symmetry_equiv_pos_site_id
 _symmetry_equiv_pos_as_xyz
  1  'x, y, z'
loop_
 _atom_site_type_symbol
 _atom_site_label
 _atom_site_symmetry_multiplicity
 _atom_site_fract_x
 _atom_site_fract_y
 _atom_site_fract_z
 _atom_site_occupancy
  Li  Li0  1  0.255140  0.826157  0.055891  1
  Li  Li1  1  0.172418  0.428317  0.004748  1
  Li  Li2  1  0.226032  0.097398  0.012809  1
  Li  Li3  1  0.570894  0.745118  0.948597  1
  Li  Li4  1  0.586998  0.481690  0.970809  1
  Li  Li5  1  0.518009  0.105726  0.024185  1
  Li  Li6  1  0.870654  0.773720  0.983061  1
  Li  Li7  1  0.893340  0.412161  0.992279  1
  Li  Li8  1  0.902247  0.128638  0.010222  1
  Cr  Cr9  1  0.088026  0.868325  0.524161  1
  Cr  Cr10  1  0.119140  0.570926  0.490653  1
  Cr  Cr11  1  0.451432  0.879973  0.556750  1
  Cr  Cr12  1  0.130915  0.219628  0.520757  1
  Cr  Cr13  1  0.428244  0.549273  0.450091  1
  Cr  Cr14  1  0.452718  0.263935  0.491811  1
  Cr  Cr15  1  0.779829  0.911754  0.475094  1
  Cr  Cr16  1  0.810234  0.546698  0.480867  1
  Cr  Cr17  1  0.735510  0.188921  0.516550  1
  B  B18  1  0.008665  0.665947  0.999476  1
  B  B19  1  0.333018  0.666782  0.999283  1
  B  B20  1  0.333217  0.343209  0.987755  1
  B  B21  1  0.656848  0.990837  0.014380  1
  B  B22  1  0.330887  0.015177  0.530026  1
  B  B23  1  0.683647  0.668937  0.466882  1
  B  B24  1  0.666069  0.333107  0.995742  1
  B  B25  1  0.999542  0.999807  0.006868  1
  B  B26  1  0.983776  0.315359  0.503584  1
  O  O27  1  0.020306  0.914375  0.014794  1
  O  O28  1  0.023474  0.576144  0.983225  1
  O  O29  1  0.096784  0.770217  0.036462  1
  O  O30  1  0.313019  0.910237  0.555600  1
  O  O31  1  0.088734  0.402370  0.500389  1
  O  O32  1  0.224373  0.589303  0.998592  1
  O  O33  1  0.364528  0.774166  0.063830  1
  O  O34  1  0.084789  0.105843  0.025721  1
  O  O35  1  0.552560  0.975590  0.054780  1
  O  O36  1  0.228756  0.326493  0.022419  1
  O  O37  1  0.409954  0.636757  0.935554  1
  O  O38  1  0.672972  0.903180  0.961561  1
  O  O39  1  0.348889  0.254523  0.983272  1
  O  O40  1  0.422401  0.447916  0.957621  1
  O  O41  1  0.242270  0.030911  0.517498  1
  O  O42  1  0.596775  0.687141  0.453493  1
  O  O43  1  0.663958  0.562835  0.469856  1
  O  O44  1  0.436787  0.101526  0.517214  1
  O  O45  1  0.893598  0.979198  0.979465  1
  O  O46  1  0.787942  0.757391  0.477467  1
  O  O47  1  0.566036  0.327148  0.996662  1
  O  O48  1  0.672185  0.239052  0.006462  1
  O  O49  1  0.760044  0.433251  0.984386  1
  O  O50  1  0.904580  0.650715  0.978634  1
  O  O51  1  0.745638  0.094950  0.027079  1
  O  O52  1  0.897412  0.335050  0.499306  1
  O  O53  1  0.968258  0.211112  0.511140  1
