# generated using pymatgen
data_Mn6O5F7
_symmetry_space_group_name_H-M   'P 1'
_cell_length_a   7.30659234
_cell_length_b   5.63054376
_cell_length_c   5.73634365
_cell_angle_alpha   72.42715513
_cell_angle_beta   74.02278392
_cell_angle_gamma   74.24927358
_symmetry_Int_Tables_number   1
_chemical_formula_structural   Mn6O5F7
_chemical_formula_sum   'Mn6 O5 F7'
_cell_volume   211.67349686
_cell_formula_units_Z   1
loop_
 _symmetry_equiv_pos_site_id
 _symmetry_equiv_pos_as_xyz
  1  'x, y, z'
loop_
 _atom_site_type_symbol
 _atom_site_label
 _atom_site_symmetry_multiplicity
 _atom_site_fract_x
 _atom_site_fract_y
 _atom_site_fract_z
 _atom_site_occupancy
  Mn  Mn0  1  0.837400  0.702803  0.676192  1
  Mn  Mn1  1  0.668294  0.310545  0.364996  1
  Mn  Mn2  1  0.313009  0.673855  0.617738  1
  Mn  Mn3  1  0.173503  0.306365  0.334058  1
  Mn  Mn4  1  0.495018  0.997352  0.995611  1
  Mn  Mn5  1  0.998815  0.005679  0.006778  1
  O  O6  1  0.663449  0.026702  0.663616  1
  O  O7  1  0.958451  0.212534  0.246422  1
  O  O8  1  0.030295  0.800241  0.768723  1
  O  O9  1  0.380238  0.413306  0.427750  1
  O  O10  1  0.333644  0.967704  0.329791  1
  F  F11  1  0.332587  0.383915  0.936691  1
  F  F12  1  0.300990  0.905416  0.876363  1
  F  F13  1  0.641289  0.585008  0.576100  1
  F  F14  1  0.699070  0.083116  0.106605  1
  F  F15  1  0.667277  0.613916  0.061077  1
  F  F16  1  0.990368  0.333995  0.713710  1
  F  F17  1  0.016302  0.677547  0.297780  1
