# generated using pymatgen
data_Li2MnV(P2O7)2
_symmetry_space_group_name_H-M   'P 1'
_cell_length_a   9.71423873
_cell_length_b   8.30273567
_cell_length_c   7.05997602
_cell_angle_alpha   90.00000000
_cell_angle_beta   108.86720958
_cell_angle_gamma   90.00000000
_symmetry_Int_Tables_number   1
_chemical_formula_structural   Li2MnV(P2O7)2
_chemical_formula_sum   'Li4 Mn2 V2 P8 O28'
_cell_volume   538.82600651
_cell_formula_units_Z   2
loop_
 _symmetry_equiv_pos_site_id
 _symmetry_equiv_pos_as_xyz
  1  'x, y, z'
loop_
 _atom_site_type_symbol
 _atom_site_label
 _atom_site_symmetry_multiplicity
 _atom_site_fract_x
 _atom_site_fract_y
 _atom_site_fract_z
 _atom_site_occupancy
  Li  Li0  1  0.086357  0.860790  0.672602  1
  Li  Li1  1  0.413643  0.360790  0.327398  1
  Li  Li2  1  0.589631  0.859625  0.675555  1
  Li  Li3  1  0.910369  0.359625  0.324445  1
  Mn  Mn4  1  0.606441  0.497903  0.730413  1
  Mn  Mn5  1  0.893559  0.997903  0.269587  1
  V  V6  1  0.107046  0.500251  0.726984  1
  V  V7  1  0.392954  0.000251  0.273016  1
  P  P8  1  0.199829  0.179583  0.521580  1
  P  P9  1  0.106120  0.784713  0.086705  1
  P  P10  1  0.393880  0.284713  0.913295  1
  P  P11  1  0.300171  0.679583  0.478420  1
  P  P12  1  0.700355  0.178260  0.517551  1
  P  P13  1  0.607191  0.787002  0.089337  1
  P  P14  1  0.892809  0.287002  0.910663  1
  P  P15  1  0.799645  0.678260  0.482449  1
  O  O16  1  0.024478  0.328116  0.846441  1
  O  O17  1  0.068300  0.695677  0.887037  1
  O  O18  1  0.093483  0.037040  0.480949  1
  O  O19  1  0.124317  0.343274  0.507011  1
  O  O20  1  0.198092  0.676804  0.604868  1
  O  O21  1  0.301823  0.433778  0.914421  1
  O  O22  1  0.298467  0.153039  0.752002  1
  O  O23  1  0.201533  0.653039  0.247998  1
  O  O24  1  0.198177  0.933778  0.085579  1
  O  O25  1  0.301908  0.176804  0.395132  1
  O  O26  1  0.375683  0.843274  0.492989  1
  O  O27  1  0.406517  0.537040  0.519051  1
  O  O28  1  0.528768  0.324304  0.855962  1
  O  O29  1  0.562327  0.704758  0.886787  1
  O  O30  1  0.431700  0.195677  0.112963  1
  O  O31  1  0.475522  0.828116  0.153559  1
  O  O32  1  0.594267  0.035841  0.483185  1
  O  O33  1  0.623850  0.340346  0.493560  1
  O  O34  1  0.696045  0.672002  0.607903  1
  O  O35  1  0.798950  0.437023  0.910022  1
  O  O36  1  0.798240  0.155452  0.750688  1
  O  O37  1  0.701760  0.655452  0.249312  1
  O  O38  1  0.701050  0.937023  0.089978  1
  O  O39  1  0.803955  0.172002  0.392097  1
  O  O40  1  0.876150  0.840346  0.506440  1
  O  O41  1  0.905733  0.535841  0.516815  1
  O  O42  1  0.937673  0.204758  0.113213  1
  O  O43  1  0.971232  0.824303  0.144038  1
