# generated using pymatgen
data_MnV4CrO12
_symmetry_space_group_name_H-M   'P 1'
_cell_length_a   6.83177072
_cell_length_b   6.83177118
_cell_length_c   5.90292052
_cell_angle_alpha   74.87500112
_cell_angle_beta   105.12500797
_cell_angle_gamma   95.49210986
_symmetry_Int_Tables_number   1
_chemical_formula_structural   MnV4CrO12
_chemical_formula_sum   'Mn1 V4 Cr1 O12'
_cell_volume   256.63754199
_cell_formula_units_Z   1
loop_
 _symmetry_equiv_pos_site_id
 _symmetry_equiv_pos_as_xyz
  1  'x, y, z'
loop_
 _atom_site_type_symbol
 _atom_site_label
 _atom_site_symmetry_multiplicity
 _atom_site_fract_x
 _atom_site_fract_y
 _atom_site_fract_z
 _atom_site_occupancy
  Mn  Mn0  1  0.915197  0.915197  0.250000  1
  V  V1  1  0.208073  0.607082  0.765513  1
  V  V2  1  0.389698  0.793485  0.259787  1
  V  V3  1  0.607082  0.208073  0.734487  1
  V  V4  1  0.793485  0.389698  0.240213  1
  Cr  Cr5  1  0.083494  0.083494  0.750000  1
  O  O6  1  0.039193  0.805031  0.658053  1
  O  O7  1  0.092930  0.373716  0.789159  1
  O  O8  1  0.194832  0.966033  0.126836  1
  O  O9  1  0.361174  0.645909  0.554016  1
  O  O10  1  0.373716  0.092930  0.710841  1
  O  O11  1  0.359309  0.631577  0.052789  1
  O  O12  1  0.645909  0.361174  0.945984  1
  O  O13  1  0.616997  0.916269  0.284594  1
  O  O14  1  0.631577  0.359309  0.447211  1
  O  O15  1  0.805031  0.039193  0.841947  1
  O  O16  1  0.916269  0.616997  0.215406  1
  O  O17  1  0.966033  0.194832  0.373164  1
