# generated using pymatgen
data_Na2FeBAsO7
_symmetry_space_group_name_H-M   'P 1'
_cell_length_a   9.18472707
_cell_length_b   6.86082540
_cell_length_c   5.39865807
_cell_angle_alpha   90.00000000
_cell_angle_beta   87.78905291
_cell_angle_gamma   90.00000000
_symmetry_Int_Tables_number   1
_chemical_formula_structural   Na2FeBAsO7
_chemical_formula_sum   'Na4 Fe2 B2 As2 O14'
_cell_volume   339.94215194
_cell_formula_units_Z   2
loop_
 _symmetry_equiv_pos_site_id
 _symmetry_equiv_pos_as_xyz
  1  'x, y, z'
loop_
 _atom_site_type_symbol
 _atom_site_label
 _atom_site_symmetry_multiplicity
 _atom_site_fract_x
 _atom_site_fract_y
 _atom_site_fract_z
 _atom_site_occupancy
  Na  Na0  1  0.220416  0.996573  0.236094  1
  Na  Na1  1  0.220416  0.503427  0.236094  1
  Na  Na2  1  0.779584  0.496573  0.763906  1
  Na  Na3  1  0.779584  0.003427  0.763906  1
  Fe  Fe4  1  0.344117  0.750000  0.782191  1
  Fe  Fe5  1  0.655883  0.250000  0.217809  1
  B  B6  1  0.079243  0.750000  0.725807  1
  B  B7  1  0.920757  0.250000  0.274193  1
  As  As8  1  0.425677  0.250000  0.723879  1
  As  As9  1  0.574323  0.750000  0.276121  1
  O  O10  1  0.064768  0.250000  0.303601  1
  O  O11  1  0.139913  0.750000  0.955886  1
  O  O12  1  0.184869  0.750000  0.535000  1
  O  O13  1  0.322819  0.049235  0.798712  1
  O  O14  1  0.322819  0.450765  0.798712  1
  O  O15  1  0.411045  0.750000  0.129087  1
  O  O16  1  0.467700  0.250000  0.406168  1
  O  O17  1  0.532300  0.750000  0.593832  1
  O  O18  1  0.588955  0.250000  0.870913  1
  O  O19  1  0.677181  0.549235  0.201288  1
  O  O20  1  0.677181  0.950765  0.201288  1
  O  O21  1  0.815131  0.250000  0.465000  1
  O  O22  1  0.860087  0.250000  0.044114  1
  O  O23  1  0.935232  0.750000  0.696399  1
