# generated using pymatgen
data_Zn(Bi19O30)2
_symmetry_space_group_name_H-M   'P 1'
_cell_length_a   8.99915714
_cell_length_b   14.70323183
_cell_length_c   14.70323183
_cell_angle_alpha   60.00000000
_cell_angle_beta   90.00000000
_cell_angle_gamma   90.00000000
_symmetry_Int_Tables_number   1
_chemical_formula_structural   Zn(Bi19O30)2
_chemical_formula_sum   'Zn1 Bi38 O60'
_cell_volume   1684.83772187
_cell_formula_units_Z   1
loop_
 _symmetry_equiv_pos_site_id
 _symmetry_equiv_pos_as_xyz
  1  'x, y, z'
loop_
 _atom_site_type_symbol
 _atom_site_label
 _atom_site_symmetry_multiplicity
 _atom_site_fract_x
 _atom_site_fract_y
 _atom_site_fract_z
 _atom_site_occupancy
  Zn  Zn0  1  0.000317  0.000000  0.000000  1
  Bi  Bi1  1  0.321799  0.165517  0.981603  1
  Bi  Bi2  1  0.254039  0.443574  0.947650  1
  Bi  Bi3  1  0.096409  0.220535  0.740641  1
  Bi  Bi4  1  0.321799  0.981603  0.852880  1
  Bi  Bi5  1  0.438371  0.704719  0.904858  1
  Bi  Bi6  1  0.659880  0.500948  0.848166  1
  Bi  Bi7  1  0.674445  0.145118  0.846132  1
  Bi  Bi8  1  0.337402  0.666667  0.666667  1
  Bi  Bi9  1  0.254039  0.947650  0.608776  1
  Bi  Bi10  1  0.438371  0.390424  0.704719  1
  Bi  Bi11  1  0.917713  0.265291  0.949617  1
  Bi  Bi12  1  0.659880  0.848166  0.650885  1
  Bi  Bi13  1  0.254039  0.608776  0.443574  1
  Bi  Bi14  1  0.917713  0.949617  0.785093  1
  Bi  Bi15  1  0.574848  0.110714  0.618519  1
  Bi  Bi16  1  0.985518  0.676686  0.815356  1
  Bi  Bi17  1  0.315067  0.336559  0.486044  1
  Bi  Bi18  1  0.438371  0.904858  0.390424  1
  Bi  Bi19  1  0.659880  0.650885  0.500948  1
  Bi  Bi20  1  0.096409  0.038825  0.220535  1
  Bi  Bi21  1  0.776600  0.368906  0.565141  1
  Bi  Bi22  1  0.985518  0.507958  0.676686  1
  Bi  Bi23  1  0.315067  0.177397  0.336559  1
  Bi  Bi24  1  0.984973  0.169715  0.513285  1
  Bi  Bi25  1  0.985518  0.815356  0.507958  1
  Bi  Bi26  1  0.321799  0.852880  0.165517  1
  Bi  Bi27  1  0.315067  0.486044  0.177397  1
  Bi  Bi28  1  0.662322  0.333333  0.333333  1
  Bi  Bi29  1  0.096409  0.740641  0.038825  1
  Bi  Bi30  1  0.776600  0.065953  0.368906  1
  Bi  Bi31  1  0.574848  0.618519  0.270766  1
  Bi  Bi32  1  0.574848  0.270766  0.110714  1
  Bi  Bi33  1  0.984973  0.513285  0.317000  1
  Bi  Bi34  1  0.917713  0.785093  0.265291  1
  Bi  Bi35  1  0.674445  0.008750  0.145118  1
  Bi  Bi36  1  0.984973  0.317000  0.169715  1
  Bi  Bi37  1  0.776600  0.565141  0.065953  1
  Bi  Bi38  1  0.674445  0.846132  0.008750  1
  O  O39  1  0.249438  0.635124  0.998479  1
  O  O40  1  0.127439  0.250054  0.875249  1
  O  O41  1  0.127439  0.875249  0.874697  1
  O  O42  1  0.425199  0.840059  0.961392  1
  O  O43  1  0.406982  0.329292  0.960303  1
  O  O44  1  0.456873  0.543404  0.914540  1
  O  O45  1  0.070901  0.048882  0.668669  1
  O  O46  1  0.425199  0.198549  0.840059  1
  O  O47  1  0.258080  0.743171  0.740867  1
  O  O48  1  0.258080  0.515962  0.743171  1
  O  O49  1  0.912940  0.708906  0.968377  1
  O  O50  1  0.249438  0.366397  0.635124  1
  O  O51  1  0.406982  0.960303  0.710404  1
  O  O52  1  0.599566  0.046299  0.789490  1
  O  O53  1  0.753948  0.621547  0.869038  1
  O  O54  1  0.080853  0.289933  0.533210  1
  O  O55  1  0.924686  0.075680  0.849488  1
  O  O56  1  0.564155  0.666667  0.666667  1
  O  O57  1  0.258080  0.740867  0.515962  1
  O  O58  1  0.258155  0.121130  0.496043  1
  O  O59  1  0.586420  0.299351  0.658789  1
  O  O60  1  0.918540  0.449350  0.833046  1
  O  O61  1  0.456873  0.542056  0.543404  1
  O  O62  1  0.456873  0.914540  0.542056  1
  O  O63  1  0.249438  0.998479  0.366397  1
  O  O64  1  0.753948  0.509414  0.621547  1
  O  O65  1  0.912940  0.322718  0.708906  1
  O  O66  1  0.080853  0.176856  0.289933  1
  O  O67  1  0.735738  0.004659  0.620157  1
  O  O68  1  0.918540  0.833046  0.717604  1
  O  O69  1  0.070901  0.668669  0.282449  1
  O  O70  1  0.258155  0.496043  0.382828  1
  O  O71  1  0.127439  0.874697  0.250054  1
  O  O72  1  0.789212  0.209173  0.581243  1
  O  O73  1  0.960436  0.666667  0.666667  1
  O  O74  1  0.295474  0.333333  0.333333  1
  O  O75  1  0.406982  0.710404  0.329292  1
  O  O76  1  0.753948  0.869038  0.509414  1
  O  O77  1  0.080853  0.533210  0.176856  1
  O  O78  1  0.591089  0.408767  0.410143  1
  O  O79  1  0.591089  0.181091  0.408767  1
  O  O80  1  0.070901  0.282449  0.048882  1
  O  O81  1  0.586420  0.041859  0.299351  1
  O  O82  1  0.735738  0.620157  0.375184  1
  O  O83  1  0.918540  0.717604  0.449350  1
  O  O84  1  0.258155  0.382828  0.121130  1
  O  O85  1  0.425199  0.961392  0.198549  1
  O  O86  1  0.890003  0.333333  0.333333  1
  O  O87  1  0.227819  0.000000  0.000000  1
  O  O88  1  0.591089  0.410143  0.181091  1
  O  O89  1  0.912940  0.968377  0.322718  1
  O  O90  1  0.599566  0.789490  0.164212  1
  O  O91  1  0.789212  0.209584  0.209173  1
  O  O92  1  0.789212  0.581243  0.209584  1
  O  O93  1  0.586420  0.658789  0.041859  1
  O  O94  1  0.599566  0.164212  0.046299  1
  O  O95  1  0.624911  0.000000  0.000000  1
  O  O96  1  0.735738  0.375184  0.004659  1
  O  O97  1  0.924686  0.849488  0.074833  1
  O  O98  1  0.924686  0.074833  0.075680  1
