# generated using pymatgen
data_Li2VCr(P2O7)2
_symmetry_space_group_name_H-M   'P 1'
_cell_length_a   9.73405600
_cell_length_b   8.22779095
_cell_length_c   7.02720634
_cell_angle_alpha   90.00000000
_cell_angle_beta   108.78856394
_cell_angle_gamma   90.00000000
_symmetry_Int_Tables_number   1
_chemical_formula_structural   Li2VCr(P2O7)2
_chemical_formula_sum   'Li4 V2 Cr2 P8 O28'
_cell_volume   532.81739534
_cell_formula_units_Z   2
loop_
 _symmetry_equiv_pos_site_id
 _symmetry_equiv_pos_as_xyz
  1  'x, y, z'
loop_
 _atom_site_type_symbol
 _atom_site_label
 _atom_site_symmetry_multiplicity
 _atom_site_fract_x
 _atom_site_fract_y
 _atom_site_fract_z
 _atom_site_occupancy
  Li  Li0  1  0.088477  0.863009  0.676812  1
  Li  Li1  1  0.411523  0.363009  0.323188  1
  Li  Li2  1  0.588270  0.862827  0.676357  1
  Li  Li3  1  0.911730  0.362827  0.323643  1
  V  V4  1  0.108061  0.499459  0.729291  1
  V  V5  1  0.391939  0.999460  0.270709  1
  Cr  Cr6  1  0.607359  0.500204  0.727288  1
  Cr  Cr7  1  0.892641  0.000204  0.272712  1
  P  P8  1  0.199625  0.179792  0.521619  1
  P  P9  1  0.105114  0.784635  0.086509  1
  P  P10  1  0.394886  0.284635  0.913491  1
  P  P11  1  0.300375  0.679792  0.478381  1
  P  P12  1  0.700434  0.180573  0.522798  1
  P  P13  1  0.606999  0.783140  0.084809  1
  P  P14  1  0.893001  0.283140  0.915191  1
  P  P15  1  0.799566  0.680573  0.477202  1
  O  O16  1  0.025495  0.322282  0.853436  1
  O  O17  1  0.064967  0.696919  0.885127  1
  O  O18  1  0.093334  0.036548  0.481774  1
  O  O19  1  0.123111  0.344046  0.504319  1
  O  O20  1  0.198488  0.678260  0.605856  1
  O  O21  1  0.301669  0.434947  0.917258  1
  O  O22  1  0.297231  0.152409  0.753193  1
  O  O23  1  0.202769  0.652409  0.246807  1
  O  O24  1  0.198331  0.934947  0.082742  1
  O  O25  1  0.301512  0.178260  0.394144  1
  O  O26  1  0.376889  0.844046  0.495681  1
  O  O27  1  0.406666  0.536548  0.518226  1
  O  O28  1  0.527046  0.324173  0.852407  1
  O  O29  1  0.565775  0.693340  0.883334  1
  O  O30  1  0.435033  0.196919  0.114873  1
  O  O31  1  0.474505  0.822282  0.146564  1
  O  O32  1  0.592952  0.038302  0.481944  1
  O  O33  1  0.624367  0.346014  0.509448  1
  O  O34  1  0.699419  0.679719  0.606089  1
  O  O35  1  0.800722  0.433624  0.917612  1
  O  O36  1  0.797201  0.151357  0.754046  1
  O  O37  1  0.702799  0.651357  0.245954  1
  O  O38  1  0.699278  0.933624  0.082388  1
  O  O39  1  0.800581  0.179719  0.393911  1
  O  O40  1  0.875633  0.846014  0.490552  1
  O  O41  1  0.907048  0.538302  0.518056  1
  O  O42  1  0.934225  0.193340  0.116666  1
  O  O43  1  0.972954  0.824173  0.147593  1
