# generated using pymatgen
data_FeOF
_symmetry_space_group_name_H-M   'P 1'
_cell_length_a   4.76317349
_cell_length_b   4.76624695
_cell_length_c   9.23102721
_cell_angle_alpha   90.00000000
_cell_angle_beta   89.95201743
_cell_angle_gamma   90.00000000
_symmetry_Int_Tables_number   1
_chemical_formula_structural   FeOF
_chemical_formula_sum   'Fe6 O6 F6'
_cell_volume   209.56696312
_cell_formula_units_Z   6
loop_
 _symmetry_equiv_pos_site_id
 _symmetry_equiv_pos_as_xyz
  1  'x, y, z'
loop_
 _atom_site_type_symbol
 _atom_site_label
 _atom_site_symmetry_multiplicity
 _atom_site_fract_x
 _atom_site_fract_y
 _atom_site_fract_z
 _atom_site_occupancy
  Fe  Fe0  1  0.962795  0.962343  -0.000054  1
  Fe  Fe1  1  0.028968  0.026615  0.332670  1
  Fe  Fe2  1  0.047365  0.006600  0.667494  1
  Fe  Fe3  1  0.471032  0.526615  0.833997  1
  Fe  Fe4  1  0.537205  0.462343  0.166720  1
  Fe  Fe5  1  0.452635  0.506600  0.499173  1
  O  O6  1  0.194754  0.822912  0.496749  1
  O  O7  1  0.181844  0.811786  0.837249  1
  O  O8  1  0.305246  0.322912  0.669918  1
  O  O9  1  0.318156  0.311786  0.329418  1
  O  O10  1  0.679390  0.673560  0.000631  1
  O  O11  1  0.820610  0.173560  0.166036  1
  F  F12  1  0.200123  0.789457  0.166332  1
  F  F13  1  0.299877  0.289457  0.000335  1
  F  F14  1  0.692841  0.711619  0.664690  1
  F  F15  1  0.706770  0.695110  0.334679  1
  F  F16  1  0.793230  0.195110  0.831988  1
  F  F17  1  0.807159  0.211619  0.501977  1
