# generated using pymatgen
data_K2OsO5
_symmetry_space_group_name_H-M   'P 1'
_cell_length_a   10.92035155
_cell_length_b   10.92034819
_cell_length_c   8.29805427
_cell_angle_alpha   89.99948464
_cell_angle_beta   90.00083746
_cell_angle_gamma   120.00054255
_symmetry_Int_Tables_number   1
_chemical_formula_structural   K2OsO5
_chemical_formula_sum   'K12 Os6 O30'
_cell_volume   856.99370854
_cell_formula_units_Z   6
loop_
 _symmetry_equiv_pos_site_id
 _symmetry_equiv_pos_as_xyz
  1  'x, y, z'
loop_
 _atom_site_type_symbol
 _atom_site_label
 _atom_site_symmetry_multiplicity
 _atom_site_fract_x
 _atom_site_fract_y
 _atom_site_fract_z
 _atom_site_occupancy
  K  K0  1  0.294950  0.964795  0.999999  1
  K  K1  1  0.035217  0.330178  0.999998  1
  K  K2  1  0.333303  0.666694  0.258073  1
  K  K3  1  -0.000001  0.000001  0.253084  1
  K  K4  1  0.000001  0.000002  0.746916  1
  K  K5  1  0.333392  0.666695  0.741928  1
  K  K6  1  0.364389  0.331019  0.499995  1
  K  K7  1  0.669829  0.705040  0.000004  1
  K  K8  1  0.666615  0.333308  0.758510  1
  K  K9  1  0.666696  0.333309  0.241489  1
  K  K10  1  0.966625  0.635608  0.500004  1
  K  K11  1  0.668987  0.033374  0.500001  1
  Os  Os12  1  0.301221  0.967457  0.500001  1
  Os  Os13  1  0.032535  0.333765  0.500001  1
  Os  Os14  1  0.363200  0.320809  0.000005  1
  Os  Os15  1  0.666271  0.698794  0.499998  1
  Os  Os16  1  0.679202  0.042388  -0.000001  1
  Os  Os17  1  0.957598  0.636799  -0.000005  1
  O  O18  1  0.017871  0.826200  0.000000  1
  O  O19  1  0.215862  0.880598  0.315919  1
  O  O20  1  0.215863  0.880602  0.684082  1
  O  O21  1  0.134186  0.664289  0.000001  1
  O  O22  1  0.131073  0.528093  0.500002  1
  O  O23  1  0.119402  0.335260  0.684084  1
  O  O24  1  0.119400  0.335261  0.315917  1
  O  O25  1  0.397025  0.868930  0.500002  1
  O  O26  1  0.173801  0.191675  -0.000000  1
  O  O27  1  0.335713  0.469897  0.000001  1
  O  O28  1  0.530102  0.865812  0.999998  1
  O  O29  1  0.471894  0.602973  0.499996  1
  O  O30  1  0.201514  0.060647  0.499998  1
  O  O31  1  0.377971  0.248548  0.811889  1
  O  O32  1  0.377976  0.248550  0.188109  1
  O  O33  1  0.664736  0.784136  0.684082  1
  O  O34  1  0.664740  0.784139  0.315915  1
  O  O35  1  0.808324  0.982126  1.000000  1
  O  O36  1  0.555884  0.434569  0.000000  1
  O  O37  1  0.466141  0.131572  0.500002  1
  O  O38  1  0.665426  0.533858  0.500000  1
  O  O39  1  0.859120  0.798482  0.500002  1
  O  O40  1  0.565428  0.121312  0.000002  1
  O  O41  1  0.870576  0.622026  0.811894  1
  O  O42  1  0.870577  0.622025  0.188111  1
  O  O43  1  0.878682  0.444115  0.999998  1
  O  O44  1  0.751446  0.129421  0.811888  1
  O  O45  1  0.751452  0.129419  0.188109  1
  O  O46  1  0.868433  0.334568  0.499999  1
  O  O47  1  0.939353  0.140864  0.500000  1
