# generated using pymatgen
data_Ba3La2Ti3Cr2O15
_symmetry_space_group_name_H-M   'P 1'
_cell_length_a   3.99727750
_cell_length_b   19.96849335
_cell_length_c   5.67500821
_cell_angle_alpha   44.72629076
_cell_angle_beta   89.99983922
_cell_angle_gamma   89.99990403
_symmetry_Int_Tables_number   1
_chemical_formula_structural   Ba3La2Ti3Cr2O15
_chemical_formula_sum   'Ba3 La2 Ti3 Cr2 O15'
_cell_volume   318.76928658
_cell_formula_units_Z   1
loop_
 _symmetry_equiv_pos_site_id
 _symmetry_equiv_pos_as_xyz
  1  'x, y, z'
loop_
 _atom_site_type_symbol
 _atom_site_label
 _atom_site_symmetry_multiplicity
 _atom_site_fract_x
 _atom_site_fract_y
 _atom_site_fract_z
 _atom_site_occupancy
  Ba  Ba0  1  0.000006  0.996497  0.008752  1
  Ba  Ba1  1  -0.000000  0.200002  0.999993  1
  Ba  Ba2  1  0.000003  0.403498  0.991261  1
  La  La3  1  0.999970  0.607496  0.981245  1
  La  La4  1  0.000015  0.792500  0.018762  1
  Ti  Ti5  1  0.500000  0.994960  0.512600  1
  Ti  Ti6  1  0.500001  0.199998  0.500003  1
  Ti  Ti7  1  0.500001  0.405041  0.487396  1
  Cr  Cr8  1  0.500009  0.600963  0.497576  1
  Cr  Cr9  1  0.499987  0.799031  0.502456  1
  O  O10  1  0.000001  0.787752  0.530614  1
  O  O11  1  0.500002  0.097994  0.505620  1
  O  O12  1  0.500000  0.302018  0.494346  1
  O  O13  1  0.499998  0.505981  0.470966  1
  O  O14  1  0.499999  0.699997  0.500007  1
  O  O15  1  0.500000  0.894015  0.529054  1
  O  O16  1  0.500001  0.302017  0.995553  1
  O  O17  1  0.500007  0.097992  0.004422  1
  O  O18  1  0.499985  0.699996  0.000018  1
  O  O19  1  0.500007  0.505981  0.999144  1
  O  O20  1  0.500004  0.894016  0.000859  1
  O  O21  1  0.000001  0.992273  0.519333  1
  O  O22  1  0.999995  0.200003  0.499985  1
  O  O23  1  0.000002  0.407738  0.480641  1
  O  O24  1  0.000005  0.612242  0.469392  1
