# generated using pymatgen
data_LiCrPO4
_symmetry_space_group_name_H-M   'P 1'
_cell_length_a   10.10027449
_cell_length_b   10.17492123
_cell_length_c   16.85277106
_cell_angle_alpha   81.44243989
_cell_angle_beta   90.00000000
_cell_angle_gamma   60.24239236
_symmetry_Int_Tables_number   1
_chemical_formula_structural   LiCrPO4
_chemical_formula_sum   'Li16 Cr16 P16 O64'
_cell_volume   1481.31157854
_cell_formula_units_Z   16
loop_
 _symmetry_equiv_pos_site_id
 _symmetry_equiv_pos_as_xyz
  1  'x, y, z'
loop_
 _atom_site_type_symbol
 _atom_site_label
 _atom_site_symmetry_multiplicity
 _atom_site_fract_x
 _atom_site_fract_y
 _atom_site_fract_z
 _atom_site_occupancy
  Li  Li0  1  0.815286  0.986444  0.996530  1
  Li  Li1  1  0.198270  0.986444  0.496530  1
  Li  Li2  1  0.574785  0.725487  0.747807  1
  Li  Li3  1  0.081755  0.665922  0.748502  1
  Li  Li4  1  0.313218  0.544204  0.996737  1
  Li  Li5  1  0.699727  0.725487  0.247807  1
  Li  Li6  1  0.812813  0.486031  0.996203  1
  Li  Li7  1  0.252323  0.665922  0.248502  1
  Li  Li8  1  0.142579  0.544204  0.496737  1
  Li  Li9  1  0.701157  0.486031  0.496203  1
  Li  Li10  1  0.575693  0.226162  0.748058  1
  Li  Li11  1  0.080462  0.164415  0.746429  1
  Li  Li12  1  0.313376  0.045419  0.995431  1
  Li  Li13  1  0.198145  0.226162  0.248058  1
  Li  Li14  1  0.755122  0.164415  0.246429  1
  Li  Li15  1  0.641204  0.045419  0.495431  1
  Cr  Cr16  1  0.266061  0.844471  0.871886  1
  Cr  Cr17  1  0.766179  0.794451  0.869588  1
  Cr  Cr18  1  0.889468  0.844471  0.371886  1
  Cr  Cr19  1  0.439371  0.794451  0.369588  1
  Cr  Cr20  1  0.339312  0.664729  0.617789  1
  Cr  Cr21  1  0.883764  0.606854  0.622598  1
  Cr  Cr22  1  0.995959  0.664729  0.117789  1
  Cr  Cr23  1  0.509381  0.606854  0.122598  1
  Cr  Cr24  1  0.265190  0.346802  0.871603  1
  Cr  Cr25  1  0.771125  0.293038  0.870036  1
  Cr  Cr26  1  0.388007  0.346802  0.371603  1
  Cr  Cr27  1  0.935837  0.293038  0.370036  1
  Cr  Cr28  1  0.838615  0.159246  0.617295  1
  Cr  Cr29  1  0.383927  0.114153  0.620983  1
  Cr  Cr30  1  0.002140  0.159246  0.117295  1
  Cr  Cr31  1  0.501919  0.114153  0.120983  1
  P  P32  1  0.918728  0.982658  0.809210  1
  P  P33  1  0.098614  0.982658  0.309210  1
  P  P34  1  0.984846  0.844968  0.562465  1
  P  P35  1  0.536278  0.797147  0.560972  1
  P  P36  1  0.170186  0.844968  0.062465  1
  P  P37  1  0.666575  0.797147  0.060972  1
  P  P38  1  0.420387  0.539927  0.810028  1
  P  P39  1  0.915495  0.484476  0.808259  1
  P  P40  1  0.039686  0.539927  0.310028  1
  P  P41  1  0.600030  0.484476  0.308259  1
  P  P42  1  0.485116  0.348228  0.562207  1
  P  P43  1  0.038712  0.294033  0.560323  1
  P  P44  1  0.166656  0.348228  0.062207  1
  P  P45  1  0.667254  0.294033  0.060323  1
  P  P46  1  0.416183  0.043947  0.809552  1
  P  P47  1  0.539870  0.043947  0.309552  1
  O  O48  1  0.340974  0.005910  0.882964  1
  O  O49  1  0.076786  0.972436  0.796477  1
  O  O50  1  0.569342  0.899349  0.796382  1
  O  O51  1  0.752669  0.827822  0.990395  1
  O  O52  1  0.653116  0.005910  0.382964  1
  O  O53  1  0.553161  0.939664  0.563953  1
  O  O54  1  0.242537  0.767901  0.988427  1
  O  O55  1  0.938784  0.819835  0.815115  1
  O  O56  1  0.950779  0.972436  0.296477  1
  O  O57  1  0.123111  0.869914  0.569294  1
  O  O58  1  0.531310  0.899349  0.296382  1
  O  O59  1  0.419509  0.827822  0.490395  1
  O  O60  1  0.507175  0.939664  0.063953  1
  O  O61  1  0.470593  0.763133  0.640522  1
  O  O62  1  0.990704  0.732820  0.638186  1
  O  O63  1  0.450601  0.671244  0.822048  1
  O  O64  1  0.989562  0.767901  0.488427  1
  O  O65  1  0.241381  0.819835  0.315115  1
  O  O66  1  0.006974  0.869914  0.069294  1
  O  O67  1  0.692345  0.655943  0.549814  1
  O  O68  1  0.850565  0.547153  0.886189  1
  O  O69  1  0.308387  0.587703  0.734194  1
  O  O70  1  0.801591  0.599396  0.735550  1
  O  O71  1  0.766274  0.763133  0.140522  1
  O  O72  1  0.276476  0.732820  0.138186  1
  O  O73  1  0.878156  0.671244  0.322048  1
  O  O74  1  0.345420  0.503280  0.884230  1
  O  O75  1  0.073367  0.475310  0.796614  1
  O  O76  1  0.336840  0.508891  0.552218  1
  O  O77  1  0.651712  0.655943  0.049814  1
  O  O78  1  0.602282  0.547153  0.386189  1
  O  O79  1  0.103911  0.587703  0.234194  1
  O  O80  1  0.599014  0.599396  0.235550  1
  O  O81  1  0.574433  0.397009  0.797686  1
  O  O82  1  0.747638  0.328916  0.988250  1
  O  O83  1  0.151301  0.503280  0.384230  1
  O  O84  1  0.054803  0.436330  0.565902  1
  O  O85  1  0.245965  0.269234  0.989675  1
  O  O86  1  0.938674  0.320798  0.812135  1
  O  O87  1  0.451323  0.475310  0.296614  1
  O  O88  1  0.154269  0.508891  0.052218  1
  O  O89  1  0.627901  0.366342  0.566999  1
  O  O90  1  0.028560  0.397009  0.297686  1
  O  O91  1  0.923447  0.328916  0.488250  1
  O  O92  1  0.508867  0.436330  0.065902  1
  O  O93  1  0.489014  0.240963  0.639901  1
  O  O94  1  0.971664  0.255715  0.638125  1
  O  O95  1  0.484802  0.269234  0.489675  1
  O  O96  1  0.450822  0.171463  0.823118  1
  O  O97  1  0.740527  0.320798  0.312135  1
  O  O98  1  0.005757  0.366342  0.066999  1
  O  O99  1  0.195633  0.154250  0.549205  1
  O  O100  1  0.856391  0.046964  0.887342  1
  O  O101  1  0.805906  0.094929  0.736365  1
  O  O102  1  0.302139  0.098974  0.733416  1
  O  O103  1  0.270023  0.240963  0.139901  1
  O  O104  1  0.772621  0.255715  0.138125  1
  O  O105  1  0.377714  0.171463  0.323118  1
  O  O106  1  0.650118  0.154250  0.049205  1
  O  O107  1  0.833694  0.003322  0.553304  1
  O  O108  1  0.096645  0.046964  0.387342  1
  O  O109  1  0.099165  0.094929  0.236365  1
  O  O110  1  0.598888  0.098974  0.233416  1
  O  O111  1  0.162984  0.003322  0.053304  1
