# generated using pymatgen
data_Li3V3CrO8
_symmetry_space_group_name_H-M   'P 1'
_cell_length_a   5.21721771
_cell_length_b   5.97288499
_cell_length_c   10.70790751
_cell_angle_alpha   106.19593580
_cell_angle_beta   85.38404039
_cell_angle_gamma   73.11347503
_symmetry_Int_Tables_number   1
_chemical_formula_structural   Li3V3CrO8
_chemical_formula_sum   'Li6 V6 Cr2 O16'
_cell_volume   301.84647783
_cell_formula_units_Z   2
loop_
 _symmetry_equiv_pos_site_id
 _symmetry_equiv_pos_as_xyz
  1  'x, y, z'
loop_
 _atom_site_type_symbol
 _atom_site_label
 _atom_site_symmetry_multiplicity
 _atom_site_fract_x
 _atom_site_fract_y
 _atom_site_fract_z
 _atom_site_occupancy
  Li  Li0  1  0.006722  0.120473  0.745940  1
  Li  Li1  1  0.002522  0.365328  0.252307  1
  Li  Li2  1  0.998117  0.506789  0.001985  1
  Li  Li3  1  0.994513  0.629702  0.752031  1
  Li  Li4  1  0.998544  0.760118  0.498969  1
  Li  Li5  1  0.001041  0.885871  0.249996  1
  V  V6  1  0.497283  0.062470  0.877787  1
  V  V7  1  0.502506  0.182725  0.623154  1
  V  V8  1  0.493018  0.312482  0.381942  1
  V  V9  1  0.513867  0.427775  0.119428  1
  V  V10  1  0.479493  0.573082  0.876599  1
  V  V11  1  0.522098  0.678122  0.620526  1
  Cr  Cr12  1  0.492950  0.812256  0.372598  1
  Cr  Cr13  1  0.500308  0.937016  0.125699  1
  O  O14  1  0.283212  0.086523  0.307774  1
  O  O15  1  0.284120  0.222466  0.070128  1
  O  O16  1  0.265643  0.337530  0.813151  1
  O  O17  1  0.281920  0.460475  0.552775  1
  O  O18  1  0.281387  0.579018  0.306502  1
  O  O19  1  0.281234  0.703137  0.069263  1
  O  O20  1  0.282203  0.838274  0.800915  1
  O  O21  1  0.291223  0.950524  0.559795  1
  O  O22  1  0.715292  0.031014  0.431751  1
  O  O23  1  0.708163  0.173412  0.201019  1
  O  O24  1  0.716662  0.301564  0.948089  1
  O  O25  1  0.716009  0.413623  0.694589  1
  O  O26  1  0.719034  0.537365  0.430658  1
  O  O27  1  0.723976  0.658167  0.186259  1
  O  O28  1  0.709187  0.786972  0.938951  1
  O  O29  1  0.737755  0.915729  0.689421  1
