# generated using pymatgen
data_Li2V2Si4O11
_symmetry_space_group_name_H-M   'P 1'
_cell_length_a   8.96389796
_cell_length_b   7.47231701
_cell_length_c   7.00625673
_cell_angle_alpha   104.31663395
_cell_angle_beta   100.86464476
_cell_angle_gamma   99.96762787
_symmetry_Int_Tables_number   1
_chemical_formula_structural   Li2V2Si4O11
_chemical_formula_sum   'Li4 V4 Si8 O22'
_cell_volume   434.49660322
_cell_formula_units_Z   2
loop_
 _symmetry_equiv_pos_site_id
 _symmetry_equiv_pos_as_xyz
  1  'x, y, z'
loop_
 _atom_site_type_symbol
 _atom_site_label
 _atom_site_symmetry_multiplicity
 _atom_site_fract_x
 _atom_site_fract_y
 _atom_site_fract_z
 _atom_site_occupancy
  Li  Li0  1  0.196695  0.794316  0.610661  1
  Li  Li1  1  0.150968  0.753609  0.138479  1
  Li  Li2  1  0.849032  0.246391  0.861521  1
  Li  Li3  1  0.803305  0.205684  0.389339  1
  V  V4  1  0.390214  0.620907  0.880239  1
  V  V5  1  0.393550  0.609526  0.373015  1
  V  V6  1  0.606450  0.390474  0.626985  1
  V  V7  1  0.609786  0.379093  0.119761  1
  Si  Si8  1  0.032030  0.388380  0.239242  1
  Si  Si9  1  0.231461  0.224735  0.958970  1
  Si  Si10  1  0.224873  0.222915  0.519405  1
  Si  Si11  1  0.596746  0.973985  0.766647  1
  Si  Si12  1  0.403254  0.026015  0.233353  1
  Si  Si13  1  0.775127  0.777085  0.480595  1
  Si  Si14  1  0.768539  0.775265  0.041030  1
  Si  Si15  1  0.967970  0.611620  0.760758  1
  O  O16  1  0.151713  0.627607  0.819065  1
  O  O17  1  0.061088  0.256352  0.398287  1
  O  O18  1  0.148615  0.597427  0.323784  1
  O  O19  1  0.069132  0.259937  0.024591  1
  O  O20  1  0.185290  0.151029  0.710517  1
  O  O21  1  0.276316  0.040239  0.382940  1
  O  O22  1  0.436912  0.808847  0.679283  1
  O  O23  1  0.364667  0.412587  0.577940  1
  O  O24  1  0.414384  0.806409  0.185848  1
  O  O25  1  0.293469  0.049188  0.024086  1
  O  O26  1  0.368565  0.417324  0.061113  1
  O  O27  1  0.631435  0.582676  0.938887  1
  O  O28  1  0.706531  0.950812  0.975914  1
  O  O29  1  0.585616  0.193591  0.814152  1
  O  O30  1  0.635333  0.587413  0.422060  1
  O  O31  1  0.563088  0.191153  0.320717  1
  O  O32  1  0.723684  0.959761  0.617060  1
  O  O33  1  0.814710  0.848971  0.289483  1
  O  O34  1  0.930868  0.740063  0.975409  1
  O  O35  1  0.851385  0.402573  0.676216  1
  O  O36  1  0.938912  0.743648  0.601713  1
  O  O37  1  0.848287  0.372393  0.180935  1
