# generated using pymatgen
data_CuH7C3SN3O4
_symmetry_space_group_name_H-M   'P 1'
_cell_length_a   9.79698407
_cell_length_b   6.98530834
_cell_length_c   14.11009280
_cell_angle_alpha   90.00000000
_cell_angle_beta   90.00000000
_cell_angle_gamma   97.88263854
_symmetry_Int_Tables_number   1
_chemical_formula_structural   CuH7C3SN3O4
_chemical_formula_sum   'Cu4 H28 C12 S4 N12 O16'
_cell_volume   956.49944539
_cell_formula_units_Z   4
loop_
 _symmetry_equiv_pos_site_id
 _symmetry_equiv_pos_as_xyz
  1  'x, y, z'
loop_
 _atom_site_type_symbol
 _atom_site_label
 _atom_site_symmetry_multiplicity
 _atom_site_fract_x
 _atom_site_fract_y
 _atom_site_fract_z
 _atom_site_occupancy
  Cu  Cu0  1  0.806215  0.241495  0.258532  1
  Cu  Cu1  1  0.693785  0.758505  0.758532  1
  Cu  Cu2  1  0.193785  0.758505  0.741468  1
  Cu  Cu3  1  0.306215  0.241495  0.241468  1
  H  H4  1  0.145352  0.554067  0.336917  1
  H  H5  1  0.354648  0.445933  0.836917  1
  H  H6  1  0.854648  0.445933  0.663083  1
  H  H7  1  0.645352  0.554067  0.163083  1
  H  H8  1  0.993742  0.263088  0.074878  1
  H  H9  1  0.506258  0.736912  0.574878  1
  H  H10  1  0.006258  0.736912  0.925122  1
  H  H11  1  0.493742  0.263088  0.425122  1
  H  H12  1  0.173315  0.883960  0.136878  1
  H  H13  1  0.326685  0.116040  0.636878  1
  H  H14  1  0.826685  0.116040  0.863122  1
  H  H15  1  0.673315  0.883960  0.363122  1
  H  H16  1  0.058144  0.889977  0.042775  1
  H  H17  1  0.441856  0.110023  0.542775  1
  H  H18  1  0.941856  0.110023  0.957225  1
  H  H19  1  0.558144  0.889977  0.457225  1
  H  H20  1  0.548449  0.313164  0.458524  1
  H  H21  1  0.951551  0.686836  0.958524  1
  H  H22  1  0.451551  0.686836  0.541476  1
  H  H23  1  0.048449  0.313164  0.041476  1
  H  H24  1  0.874475  0.425732  0.047499  1
  H  H25  1  0.625525  0.574268  0.547499  1
  H  H26  1  0.125525  0.574268  0.952501  1
  H  H27  1  0.374475  0.425732  0.452501  1
  H  H28  1  0.758646  0.496166  0.987725  1
  H  H29  1  0.741354  0.503834  0.487725  1
  H  H30  1  0.241354  0.503834  0.012275  1
  H  H31  1  0.258646  0.496166  0.512275  1
  C  C32  1  0.988342  0.961428  0.174296  1
  C  C33  1  0.511658  0.038572  0.674296  1
  C  C34  1  0.011658  0.038572  0.825704  1
  C  C35  1  0.488342  0.961428  0.325704  1
  C  C36  1  0.040324  0.483371  0.325608  1
  C  C37  1  0.459676  0.516629  0.825608  1
  C  C38  1  0.959676  0.516629  0.674392  1
  C  C39  1  0.540324  0.483371  0.174392  1
  C  C40  1  0.918837  0.564667  0.361044  1
  C  C41  1  0.581163  0.435333  0.861044  1
  C  C42  1  0.081163  0.435333  0.638956  1
  C  C43  1  0.418837  0.564667  0.138956  1
  S  S44  1  0.824999  0.994111  0.151457  1
  S  S45  1  0.675001  0.005889  0.651457  1
  S  S46  1  0.175001  0.005889  0.848543  1
  S  S47  1  0.324999  0.994111  0.348543  1
  N  N48  1  0.012612  0.306896  0.292336  1
  N  N49  1  0.487388  0.693104  0.792336  1
  N  N50  1  0.987388  0.693104  0.707664  1
  N  N51  1  0.512612  0.306896  0.207664  1
  N  N52  1  0.103791  0.205749  0.260046  1
  N  N53  1  0.396209  0.794251  0.760046  1
  N  N54  1  0.896209  0.794251  0.739954  1
  N  N55  1  0.603791  0.205749  0.239954  1
  N  N56  1  0.078810  0.908349  0.113196  1
  N  N57  1  0.421190  0.091651  0.613196  1
  N  N58  1  0.921190  0.091651  0.886804  1
  N  N59  1  0.578810  0.908349  0.386804  1
  O  O60  1  0.797555  0.467821  0.338283  1
  O  O61  1  0.702445  0.532179  0.838283  1
  O  O62  1  0.202446  0.532179  0.661717  1
  O  O63  1  0.297554  0.467821  0.161717  1
  O  O64  1  0.929674  0.708019  0.413563  1
  O  O65  1  0.570326  0.291981  0.913563  1
  O  O66  1  0.070326  0.291981  0.586437  1
  O  O67  1  0.429674  0.708019  0.086437  1
  O  O68  1  0.961396  0.000409  0.736215  1
  O  O69  1  0.538604  0.999591  0.236215  1
  O  O70  1  0.038604  0.999591  0.263785  1
  O  O71  1  0.461396  0.000409  0.763785  1
  O  O72  1  0.813740  0.525010  0.045476  1
  O  O73  1  0.686260  0.474990  0.545476  1
  O  O74  1  0.186260  0.474990  0.954524  1
  O  O75  1  0.313740  0.525010  0.454524  1
