# generated using pymatgen
data_U(BH4)4
_symmetry_space_group_name_H-M   'P 1'
_cell_length_a   5.58075074
_cell_length_b   5.58075074
_cell_length_c   11.97349036
_cell_angle_alpha   90.00000000
_cell_angle_beta   90.00000000
_cell_angle_gamma   89.90020391
_symmetry_Int_Tables_number   1
_chemical_formula_structural   U(BH4)4
_chemical_formula_sum   'U2 B8 H32'
_cell_volume   372.91114316
_cell_formula_units_Z   2
loop_
 _symmetry_equiv_pos_site_id
 _symmetry_equiv_pos_as_xyz
  1  'x, y, z'
loop_
 _atom_site_type_symbol
 _atom_site_label
 _atom_site_symmetry_multiplicity
 _atom_site_fract_x
 _atom_site_fract_y
 _atom_site_fract_z
 _atom_site_occupancy
  U  U0  1  0.279304  0.279304  0.250000  1
  U  U1  1  0.720696  0.720696  0.750000  1
  B  B2  1  0.346743  0.780705  0.250000  1
  B  B3  1  0.219295  0.653257  0.750000  1
  B  B4  1  0.653257  0.219295  0.750000  1
  B  B5  1  0.780705  0.346743  0.250000  1
  B  B6  1  0.225859  0.225859  0.043184  1
  B  B7  1  0.774141  0.774141  0.956816  1
  B  B8  1  0.225859  0.225859  0.456816  1
  B  B9  1  0.774141  0.774141  0.543184  1
  H  H10  1  0.516517  0.922000  0.250000  1
  H  H11  1  0.078000  0.483483  0.750000  1
  H  H12  1  0.483483  0.078000  0.750000  1
  H  H13  1  0.922000  0.516517  0.250000  1
  H  H14  1  0.151028  0.886291  0.250000  1
  H  H15  1  0.113709  0.848972  0.750000  1
  H  H16  1  0.848972  0.113709  0.750000  1
  H  H17  1  0.886291  0.151028  0.250000  1
  H  H18  1  0.356505  0.659802  0.336125  1
  H  H19  1  0.340198  0.643495  0.663875  1
  H  H20  1  0.356505  0.659802  0.163875  1
  H  H21  1  0.340198  0.643495  0.836125  1
  H  H22  1  0.643495  0.340198  0.663875  1
  H  H23  1  0.659802  0.356505  0.336125  1
  H  H24  1  0.643495  0.340198  0.836125  1
  H  H25  1  0.659802  0.356505  0.163875  1
  H  H26  1  0.095876  0.095876  0.102690  1
  H  H27  1  0.904124  0.904124  0.897310  1
  H  H28  1  0.095876  0.095876  0.397310  1
  H  H29  1  0.904124  0.904124  0.602690  1
  H  H30  1  0.432366  0.179264  0.076467  1
  H  H31  1  0.820736  0.567634  0.923533  1
  H  H32  1  0.432366  0.179264  0.423533  1
  H  H33  1  0.820736  0.567634  0.576467  1
  H  H34  1  0.567634  0.820736  0.923533  1
  H  H35  1  0.179264  0.432366  0.076467  1
  H  H36  1  0.567634  0.820736  0.576467  1
  H  H37  1  0.179264  0.432366  0.423533  1
  H  H38  1  0.799843  0.799843  0.055217  1
  H  H39  1  0.200157  0.200157  0.944783  1
  H  H40  1  0.799843  0.799843  0.444783  1
  H  H41  1  0.200157  0.200157  0.555217  1
