# generated using pymatgen
data_Al2Si2H4O9
_symmetry_space_group_name_H-M   'P 1'
_cell_length_a   5.28407812
_cell_length_b   5.28407812
_cell_length_c   19.87352516
_cell_angle_alpha   71.29378466
_cell_angle_beta   108.70621534
_cell_angle_gamma   118.10405824
_symmetry_Int_Tables_number   1
_chemical_formula_structural   Al2Si2H4O9
_chemical_formula_sum   'Al4 Si4 H8 O18'
_cell_volume   453.95964305
_cell_formula_units_Z   2
loop_
 _symmetry_equiv_pos_site_id
 _symmetry_equiv_pos_as_xyz
  1  'x, y, z'
loop_
 _atom_site_type_symbol
 _atom_site_label
 _atom_site_symmetry_multiplicity
 _atom_site_fract_x
 _atom_site_fract_y
 _atom_site_fract_z
 _atom_site_occupancy
  Al  Al0  1  0.783626  0.410999  0.744968  1
  Al  Al1  1  0.589001  0.216374  0.244968  1
  Al  Al2  1  0.126943  0.250808  0.685319  1
  Al  Al3  1  0.749192  0.873057  0.185319  1
  Si  Si4  1  0.789277  0.384150  0.516304  1
  Si  Si5  1  0.615850  0.210723  0.016304  1
  Si  Si6  1  0.428981  0.743723  0.513447  1
  Si  Si7  1  0.256277  0.571019  0.013447  1
  H  H8  1  0.575319  0.905034  0.614343  1
  H  H9  1  0.094966  0.424681  0.114343  1
  H  H10  1  0.548362  0.727346  0.867953  1
  H  H11  1  0.272654  0.451638  0.367953  1
  H  H12  1  0.896605  0.046279  0.903749  1
  H  H13  1  0.953721  0.103395  0.403749  1
  H  H14  1  0.420703  0.625942  0.844960  1
  H  H15  1  0.374058  0.579297  0.344960  1
  O  O16  1  0.575157  0.096161  0.477994  1
  O  O17  1  0.903839  0.424843  0.977994  1
  O  O18  1  0.079231  0.579981  0.478617  1
  O  O19  1  0.420019  0.920769  0.978617  1
  O  O20  1  0.612554  0.585873  0.504012  1
  O  O21  1  0.414127  0.387446  0.004012  1
  O  O22  1  0.877603  0.252224  0.602068  1
  O  O23  1  0.747776  0.122397  0.102068  1
  O  O24  1  0.439562  0.714347  0.599971  1
  O  O25  1  0.285653  0.560438  0.099971  1
  O  O26  1  0.862876  0.702680  0.792578  1
  O  O27  1  0.297320  0.137124  0.292578  1
  O  O28  1  0.889241  0.821531  0.721000  1
  O  O29  1  0.178469  0.110759  0.221000  1
  O  O30  1  0.441876  0.197359  0.707767  1
  O  O31  1  0.802641  0.558124  0.207767  1
  O  O32  1  0.089062  0.377543  0.749149  1
  O  O33  1  0.622457  0.910938  0.249149  1
