# generated using pymatgen
data_H9CN5Cl2
_symmetry_space_group_name_H-M   'P 1'
_cell_length_a   4.62825797
_cell_length_b   21.52836990
_cell_length_c   7.02976441
_cell_angle_alpha   90.00000000
_cell_angle_beta   95.44577620
_cell_angle_gamma   90.00000000
_symmetry_Int_Tables_number   1
_chemical_formula_structural   H9CN5Cl2
_chemical_formula_sum   'H36 C4 N20 Cl8'
_cell_volume   697.27618490
_cell_formula_units_Z   4
loop_
 _symmetry_equiv_pos_site_id
 _symmetry_equiv_pos_as_xyz
  1  'x, y, z'
loop_
 _atom_site_type_symbol
 _atom_site_label
 _atom_site_symmetry_multiplicity
 _atom_site_fract_x
 _atom_site_fract_y
 _atom_site_fract_z
 _atom_site_occupancy
  H  H0  1  0.154935  0.047099  0.876523  1
  H  H1  1  0.130121  0.401123  0.568066  1
  H  H2  1  0.154935  0.452901  0.376523  1
  H  H3  1  0.130121  0.098877  0.068066  1
  H  H4  1  0.191451  0.120008  0.511569  1
  H  H5  1  0.265942  0.045209  0.597346  1
  H  H6  1  0.276060  0.287265  0.677309  1
  H  H7  1  0.191451  0.379992  0.011569  1
  H  H8  1  0.322870  0.647468  0.827813  1
  H  H9  1  0.265942  0.454791  0.097346  1
  H  H10  1  0.276060  0.212735  0.177309  1
  H  H11  1  0.322870  0.852532  0.327813  1
  H  H12  1  0.366178  0.707279  0.555582  1
  H  H13  1  0.398943  0.813490  0.725948  1
  H  H14  1  0.491801  0.421817  0.951137  1
  H  H15  1  0.366178  0.792721  0.055582  1
  H  H16  1  0.398943  0.686510  0.225948  1
  H  H17  1  0.491801  0.078183  0.451137  1
  H  H18  1  0.508199  0.921817  0.548863  1
  H  H19  1  0.601057  0.313490  0.774052  1
  H  H20  1  0.633822  0.207279  0.944418  1
  H  H21  1  0.508199  0.578183  0.048863  1
  H  H22  1  0.601057  0.186510  0.274052  1
  H  H23  1  0.633822  0.292721  0.444418  1
  H  H24  1  0.677130  0.147468  0.672187  1
  H  H25  1  0.723940  0.787265  0.822691  1
  H  H26  1  0.734058  0.545209  0.902654  1
  H  H27  1  0.677130  0.352532  0.172187  1
  H  H28  1  0.808549  0.620008  0.988431  1
  H  H29  1  0.723940  0.712735  0.322691  1
  H  H30  1  0.734058  0.954791  0.402654  1
  H  H31  1  0.808549  0.879992  0.488431  1
  H  H32  1  0.869879  0.901123  0.931934  1
  H  H33  1  0.845065  0.547099  0.623477  1
  H  H34  1  0.869879  0.598877  0.431934  1
  H  H35  1  0.845065  0.952901  0.123477  1
  C  C36  1  0.410978  0.124953  0.883918  1
  C  C37  1  0.410978  0.375047  0.383918  1
  C  C38  1  0.589022  0.624953  0.616082  1
  C  C39  1  0.589022  0.875047  0.116082  1
  N  N40  1  0.196395  0.090228  0.935690  1
  N  N41  1  0.196395  0.409772  0.435690  1
  N  N42  1  0.355890  0.088456  0.560317  1
  N  N43  1  0.423239  0.323185  0.679042  1
  N  N44  1  0.355890  0.411544  0.060317  1
  N  N45  1  0.464417  0.613836  0.782183  1
  N  N46  1  0.423239  0.176815  0.179042  1
  N  N47  1  0.519134  0.171218  0.996327  1
  N  N48  1  0.480866  0.671218  0.503673  1
  N  N49  1  0.464417  0.886164  0.282183  1
  N  N50  1  0.535583  0.113836  0.717817  1
  N  N51  1  0.519134  0.328782  0.496327  1
  N  N52  1  0.480866  0.828782  0.003673  1
  N  N53  1  0.576761  0.823185  0.820958  1
  N  N54  1  0.535583  0.386164  0.217817  1
  N  N55  1  0.644110  0.588456  0.939683  1
  N  N56  1  0.576761  0.676815  0.320958  1
  N  N57  1  0.644110  0.911544  0.439683  1
  N  N58  1  0.803605  0.590228  0.564310  1
  N  N59  1  0.803605  0.909772  0.064310  1
  Cl  Cl60  1  0.054193  0.707227  0.960961  1
  Cl  Cl61  1  0.054193  0.792773  0.460961  1
  Cl  Cl62  1  0.183235  0.958627  0.712338  1
  Cl  Cl63  1  0.183235  0.541373  0.212338  1
  Cl  Cl64  1  0.816765  0.458627  0.787662  1
  Cl  Cl65  1  0.816765  0.041373  0.287662  1
  Cl  Cl66  1  0.945807  0.207227  0.539039  1
  Cl  Cl67  1  0.945807  0.292773  0.039039  1
