# generated using pymatgen
data_Li6V3P8O29
_symmetry_space_group_name_H-M   'P 1'
_cell_length_a   9.80799815
_cell_length_b   9.86373405
_cell_length_c   13.88212167
_cell_angle_alpha   90.02828374
_cell_angle_beta   90.39427705
_cell_angle_gamma   59.93785368
_symmetry_Int_Tables_number   1
_chemical_formula_structural   Li6V3P8O29
_chemical_formula_sum   'Li12 V6 P16 O58'
_cell_volume   1162.31297983
_cell_formula_units_Z   2
loop_
 _symmetry_equiv_pos_site_id
 _symmetry_equiv_pos_as_xyz
  1  'x, y, z'
loop_
 _atom_site_type_symbol
 _atom_site_label
 _atom_site_symmetry_multiplicity
 _atom_site_fract_x
 _atom_site_fract_y
 _atom_site_fract_z
 _atom_site_occupancy
  Li  Li0  1  0.775778  0.908993  0.556467  1
  Li  Li1  1  0.910221  0.317543  0.559462  1
  Li  Li2  1  0.671337  0.667435  0.380185  1
  Li  Li3  1  0.671333  0.666327  0.885211  1
  Li  Li4  1  0.772310  0.317056  0.063187  1
  Li  Li5  1  0.318732  0.907011  0.064111  1
  Li  Li6  1  0.674486  0.226559  0.436863  1
  Li  Li7  1  0.311093  0.773776  0.559612  1
  Li  Li8  1  0.682543  0.090571  0.941176  1
  Li  Li9  1  0.224046  0.677828  0.943933  1
  Li  Li10  1  0.228645  0.095492  0.436943  1
  Li  Li11  1  0.094215  0.226447  0.942576  1
  V  V12  1  0.565503  0.432320  0.248092  1
  V  V13  1  0.428095  0.568594  0.748264  1
  V  V14  1  0.570521  0.000348  0.748074  1
  V  V15  1  0.431017  0.002267  0.247935  1
  V  V16  1  0.003766  0.569343  0.250908  1
  V  V17  1  0.003674  0.434973  0.750663  1
  P  P18  1  0.914769  0.769586  0.842842  1
  P  P19  1  0.771839  0.909403  0.341870  1
  P  P20  1  0.910205  0.321309  0.341890  1
  P  P21  1  0.668101  0.664744  0.127132  1
  P  P22  1  0.666435  0.666658  0.625887  1
  P  P23  1  0.769630  0.320906  0.843429  1
  P  P24  1  0.680304  0.233692  0.657962  1
  P  P25  1  0.322122  0.909221  0.842444  1
  P  P26  1  0.681794  0.086351  0.157136  1
  P  P27  1  0.322118  0.769711  0.343221  1
  P  P28  1  0.228080  0.684719  0.158908  1
  P  P29  1  0.333717  0.330291  0.374184  1
  P  P30  1  0.336084  0.333333  0.874088  1
  P  P31  1  0.082546  0.684287  0.655148  1
  P  P32  1  0.231035  0.087245  0.657571  1
  P  P33  1  0.085633  0.235704  0.157427  1
  O  O34  1  0.991397  0.768982  0.568018  1
  O  O35  1  0.917208  0.746862  0.340790  1
  O  O36  1  0.753581  0.005005  0.065622  1
  O  O37  1  0.745481  0.918144  0.839542  1
  O  O38  1  0.890066  0.626360  0.826676  1
  O  O39  1  0.814256  0.663085  0.173196  1
  O  O40  1  0.888063  0.486202  0.328781  1
  O  O41  1  0.995751  0.242478  0.067427  1
  O  O42  1  0.919718  0.333916  0.844004  1
  O  O43  1  0.673223  0.813941  0.663772  1
  O  O44  1  0.625319  0.889987  0.325631  1
  O  O45  1  0.815268  0.514204  0.666886  1
  O  O46  1  0.667161  0.663160  0.018851  1
  O  O47  1  0.666607  0.664442  0.517481  1
  O  O48  1  0.671182  0.511046  0.163921  1
  O  O49  1  0.487907  0.886733  0.826348  1
  O  O50  1  0.513889  0.813477  0.163635  1
  O  O51  1  0.744886  0.335306  0.341221  1
  O  O52  1  0.789671  0.212248  0.750513  1
  O  O53  1  0.756023  0.246375  0.567405  1
  O  O54  1  0.755106  0.242552  0.932387  1
  O  O55  1  0.625860  0.486025  0.825394  1
  O  O56  1  0.512871  0.673206  0.664914  1
  O  O57  1  0.662073  0.252710  0.160618  1
  O  O58  1  0.488218  0.626174  0.325472  1
  O  O59  1  0.339840  0.918937  0.338876  1
  O  O60  1  0.789183  0.001065  0.250183  1
  O  O61  1  0.754722  0.003755  0.430798  1
  O  O62  1  0.245587  0.998018  0.566940  1
  O  O63  1  0.664746  0.085252  0.657862  1
  O  O64  1  0.520371  0.383025  0.677097  1
  O  O65  1  0.336812  0.744567  0.841633  1
  O  O66  1  0.484044  0.328708  0.333809  1
  O  O67  1  0.381603  0.524817  0.178236  1
  O  O68  1  0.246695  0.757295  0.068519  1
  O  O69  1  0.245615  0.763798  0.433502  1
  O  O70  1  0.212878  0.792150  0.250439  1
  O  O71  1  0.249611  0.666227  0.659157  1
  O  O72  1  0.485985  0.187034  0.832664  1
  O  O73  1  0.521683  0.095127  0.177615  1
  O  O74  1  0.326913  0.486411  0.832857  1
  O  O75  1  0.332083  0.332848  0.981398  1
  O  O76  1  0.332824  0.328776  0.481393  1
  O  O77  1  0.184297  0.476468  0.327093  1
  O  O78  1  0.383073  0.093905  0.678806  1
  O  O79  1  0.327719  0.183709  0.333223  1
  O  O80  1  0.085778  0.663294  0.160553  1
  O  O81  1  0.998489  0.790152  0.749651  1
  O  O82  1  0.005467  0.761619  0.930645  1
  O  O83  1  0.095600  0.523580  0.673094  1
  O  O84  1  0.183732  0.331220  0.831481  1
  O  O85  1  0.098121  0.381606  0.172687  1
  O  O86  1  0.248690  0.083714  0.158424  1
  O  O87  1  0.243192  0.999429  0.931914  1
  O  O88  1  0.212107  0.997782  0.749976  1
  O  O89  1  0.084648  0.250728  0.657970  1
  O  O90  1  0.001072  0.239885  0.431799  1
  O  O91  1  0.997316  0.214298  0.250080  1
