# generated using pymatgen
data_Fe5O7F3
_symmetry_space_group_name_H-M   'P 1'
_cell_length_a   4.68887967
_cell_length_b   4.68601274
_cell_length_c   15.15364885
_cell_angle_alpha   90.20134899
_cell_angle_beta   90.02055694
_cell_angle_gamma   92.85283877
_symmetry_Int_Tables_number   1
_chemical_formula_structural   Fe5O7F3
_chemical_formula_sum   'Fe10 O14 F6'
_cell_volume   332.54349564
_cell_formula_units_Z   2
loop_
 _symmetry_equiv_pos_site_id
 _symmetry_equiv_pos_as_xyz
  1  'x, y, z'
loop_
 _atom_site_type_symbol
 _atom_site_label
 _atom_site_symmetry_multiplicity
 _atom_site_fract_x
 _atom_site_fract_y
 _atom_site_fract_z
 _atom_site_occupancy
  Fe  Fe0  1  0.002897  0.995430  0.001655  1
  Fe  Fe1  1  0.996587  0.996774  0.200511  1
  Fe  Fe2  1  0.028757  0.015536  0.403466  1
  Fe  Fe3  1  0.997626  0.994601  0.590701  1
  Fe  Fe4  1  0.005364  0.992513  0.803657  1
  Fe  Fe5  1  0.530247  0.468526  0.098750  1
  Fe  Fe6  1  0.495484  0.487749  0.504989  1
  Fe  Fe7  1  0.461760  0.524067  0.294941  1
  Fe  Fe8  1  0.500964  0.495412  0.701379  1
  Fe  Fe9  1  0.473987  0.524587  0.899883  1
  O  O10  1  0.182187  0.823831  0.298249  1
  O  O11  1  0.203206  0.802568  0.499144  1
  O  O12  1  0.181037  0.817815  0.902768  1
  O  O13  1  0.310574  0.302312  0.000147  1
  O  O14  1  0.306829  0.298537  0.196079  1
  O  O15  1  0.314781  0.326040  0.398428  1
  O  O16  1  0.305991  0.297506  0.607934  1
  O  O17  1  0.302435  0.310345  0.798966  1
  O  O18  1  0.696249  0.688486  0.000077  1
  O  O19  1  0.693868  0.688585  0.197808  1
  O  O20  1  0.693851  0.685939  0.605395  1
  O  O21  1  0.687271  0.694841  0.798813  1
  O  O22  1  0.821592  0.173656  0.099658  1
  O  O23  1  0.808012  0.197453  0.497929  1
  F  F24  1  0.203308  0.791155  0.099989  1
  F  F25  1  0.188408  0.804938  0.700738  1
  F  F26  1  0.698365  0.709778  0.396273  1
  F  F27  1  0.799985  0.206613  0.300369  1
  F  F28  1  0.798495  0.200470  0.899642  1
  F  F29  1  0.809882  0.183937  0.701657  1
