# generated using pymatgen
data_LiAgF3
_symmetry_space_group_name_H-M   'P 1'
_cell_length_a   5.49420144
_cell_length_b   5.64040250
_cell_length_c   8.38114412
_cell_angle_alpha   90.09754039
_cell_angle_beta   92.56637116
_cell_angle_gamma   89.77958698
_symmetry_Int_Tables_number   1
_chemical_formula_structural   LiAgF3
_chemical_formula_sum   'Li4 Ag4 F12'
_cell_volume   259.46480392
_cell_formula_units_Z   4
loop_
 _symmetry_equiv_pos_site_id
 _symmetry_equiv_pos_as_xyz
  1  'x, y, z'
loop_
 _atom_site_type_symbol
 _atom_site_label
 _atom_site_symmetry_multiplicity
 _atom_site_fract_x
 _atom_site_fract_y
 _atom_site_fract_z
 _atom_site_occupancy
  Li  Li0  1  0.027570  0.018342  0.270010  1
  Li  Li1  1  0.473096  0.516951  0.229354  1
  Li  Li2  1  0.526904  0.483049  0.770646  1
  Li  Li3  1  0.972430  0.981658  0.729990  1
  Ag  Ag4  1  0.000000  0.500000  0.500000  1
  Ag  Ag5  1  0.000000  0.500000  0.000000  1
  Ag  Ag6  1  0.500000  0.000000  0.500000  1
  Ag  Ag7  1  0.500000  0.000000  0.000000  1
  F  F8  1  0.153383  0.161957  0.551857  1
  F  F9  1  0.181266  0.136724  0.890361  1
  F  F10  1  0.165547  0.338645  0.215803  1
  F  F11  1  0.316420  0.638086  0.610873  1
  F  F12  1  0.345481  0.662556  0.949477  1
  F  F13  1  0.336635  0.838698  0.284257  1
  F  F14  1  0.663365  0.161302  0.715743  1
  F  F15  1  0.654519  0.337444  0.050523  1
  F  F16  1  0.683580  0.361914  0.389127  1
  F  F17  1  0.834453  0.661355  0.784197  1
  F  F18  1  0.818734  0.863276  0.109639  1
  F  F19  1  0.846617  0.838043  0.448143  1
