# generated using pymatgen
data_NaMnP2H10NO10
_symmetry_space_group_name_H-M   'P 1'
_cell_length_a   9.66154739
_cell_length_b   9.66154739
_cell_length_c   5.62877438
_cell_angle_alpha   82.64433436
_cell_angle_beta   97.35566564
_cell_angle_gamma   63.58290810
_symmetry_Int_Tables_number   1
_chemical_formula_structural   NaMnP2H10NO10
_chemical_formula_sum   'Na2 Mn2 P4 H20 N2 O20'
_cell_volume   456.44956379
_cell_formula_units_Z   2
loop_
 _symmetry_equiv_pos_site_id
 _symmetry_equiv_pos_as_xyz
  1  'x, y, z'
loop_
 _atom_site_type_symbol
 _atom_site_label
 _atom_site_symmetry_multiplicity
 _atom_site_fract_x
 _atom_site_fract_y
 _atom_site_fract_z
 _atom_site_occupancy
  Na  Na0  1  0.779210  0.098679  0.651444  1
  Na  Na1  1  0.901321  0.220790  0.151444  1
  Mn  Mn2  1  0.549590  0.940277  0.880096  1
  Mn  Mn3  1  0.059723  0.450410  0.380096  1
  P  P4  1  0.280298  0.293460  0.960009  1
  P  P5  1  0.139351  0.113130  0.750315  1
  P  P6  1  0.706540  0.719702  0.460009  1
  P  P7  1  0.886870  0.860649  0.250315  1
  H  H8  1  0.076425  0.846956  0.797518  1
  H  H9  1  0.153044  0.923575  0.297518  1
  H  H10  1  0.105840  0.679512  0.984270  1
  H  H11  1  0.098941  0.686318  0.678306  1
  H  H12  1  0.320488  0.894160  0.484270  1
  H  H13  1  0.255193  0.683208  0.854560  1
  H  H14  1  0.313682  0.901059  0.178306  1
  H  H15  1  0.316792  0.744807  0.354560  1
  H  H16  1  0.516120  0.656840  0.781155  1
  H  H17  1  0.343160  0.483880  0.281155  1
  H  H18  1  0.389564  0.484454  0.551836  1
  H  H19  1  0.515546  0.610436  0.051836  1
  H  H20  1  0.590858  0.389518  0.907549  1
  H  H21  1  0.425516  0.225166  0.570018  1
  H  H22  1  0.610482  0.409142  0.407549  1
  H  H23  1  0.877961  0.507472  0.874844  1
  H  H24  1  0.608666  0.220054  0.995492  1
  H  H25  1  0.774834  0.574484  0.070018  1
  H  H26  1  0.492528  0.122039  0.374844  1
  H  H27  1  0.779946  0.391334  0.495492  1
  N  N28  1  0.133354  0.723692  0.828364  1
  N  N29  1  0.276308  0.866646  0.328364  1
  O  O30  1  0.307793  0.974260  0.787081  1
  O  O31  1  0.025740  0.692207  0.287081  1
  O  O32  1  0.781279  0.920041  0.993253  1
  O  O33  1  0.476197  0.598725  0.889486  1
  O  O34  1  0.597827  0.766896  0.643513  1
  O  O35  1  0.153865  0.224694  0.943503  1
  O  O36  1  0.262080  0.381340  0.699810  1
  O  O37  1  0.079959  0.218721  0.493253  1
  O  O38  1  0.026262  0.060010  0.841386  1
  O  O39  1  0.401275  0.523803  0.389486  1
  O  O40  1  0.233104  0.402173  0.143513  1
  O  O41  1  0.775306  0.846135  0.443503  1
  O  O42  1  0.618660  0.737920  0.199810  1
  O  O43  1  0.939990  0.973738  0.341386  1
  O  O44  1  0.658683  0.275972  0.914018  1
  O  O45  1  0.849296  0.553457  0.556194  1
  O  O46  1  0.515017  0.127396  0.550867  1
  O  O47  1  0.724028  0.341317  0.414018  1
  O  O48  1  0.446543  0.150704  0.056194  1
  O  O49  1  0.872604  0.484983  0.050867  1
