# generated using pymatgen
data_Li2VSi2O7
_symmetry_space_group_name_H-M   'P 1'
_cell_length_a   6.05584669
_cell_length_b   8.77190106
_cell_length_c   5.21629351
_cell_angle_alpha   90.19956496
_cell_angle_beta   95.13632353
_cell_angle_gamma   69.43011496
_symmetry_Int_Tables_number   1
_chemical_formula_structural   Li2VSi2O7
_chemical_formula_sum   'Li4 V2 Si4 O14'
_cell_volume   258.27176043
_cell_formula_units_Z   2
loop_
 _symmetry_equiv_pos_site_id
 _symmetry_equiv_pos_as_xyz
  1  'x, y, z'
loop_
 _atom_site_type_symbol
 _atom_site_label
 _atom_site_symmetry_multiplicity
 _atom_site_fract_x
 _atom_site_fract_y
 _atom_site_fract_z
 _atom_site_occupancy
  Li  Li0  1  0.077838  0.856307  0.711675  1
  Li  Li1  1  0.346947  0.480667  0.757856  1
  Li  Li2  1  0.653053  0.519333  0.242144  1
  Li  Li3  1  0.922162  0.143693  0.288325  1
  V  V4  1  0.303050  0.278112  0.233406  1
  V  V5  1  0.696950  0.721888  0.766594  1
  Si  Si6  1  0.067037  0.656806  0.309855  1
  Si  Si7  1  0.661689  0.128385  0.790361  1
  Si  Si8  1  0.338311  0.871615  0.209639  1
  Si  Si9  1  0.932963  0.343194  0.690145  1
  O  O10  1  0.982681  0.353157  0.387821  1
  O  O11  1  0.147339  0.342430  0.904836  1
  O  O12  1  0.263111  0.066915  0.212109  1
  O  O13  1  0.094634  0.840910  0.291334  1
  O  O14  1  0.315648  0.510043  0.258138  1
  O  O15  1  0.459113  0.228935  0.561841  1
  O  O16  1  0.611196  0.208172  0.072093  1
  O  O17  1  0.388804  0.791828  0.927907  1
  O  O18  1  0.540887  0.771065  0.438159  1
  O  O19  1  0.684352  0.489957  0.741862  1
  O  O20  1  0.905366  0.159090  0.708666  1
  O  O21  1  0.736889  0.933085  0.787891  1
  O  O22  1  0.852661  0.657570  0.095164  1
  O  O23  1  0.017319  0.646843  0.612179  1
