# generated using pymatgen
data_Li4Nb2V3Ni3O16
_symmetry_space_group_name_H-M   'P 1'
_cell_length_a   5.94215585
_cell_length_b   5.96657025
_cell_length_c   9.71042239
_cell_angle_alpha   90.06491436
_cell_angle_beta   90.36709803
_cell_angle_gamma   120.16939329
_symmetry_Int_Tables_number   1
_chemical_formula_structural   Li4Nb2V3Ni3O16
_chemical_formula_sum   'Li4 Nb2 V3 Ni3 O16'
_cell_volume   297.63177300
_cell_formula_units_Z   1
loop_
 _symmetry_equiv_pos_site_id
 _symmetry_equiv_pos_as_xyz
  1  'x, y, z'
loop_
 _atom_site_type_symbol
 _atom_site_label
 _atom_site_symmetry_multiplicity
 _atom_site_fract_x
 _atom_site_fract_y
 _atom_site_fract_z
 _atom_site_occupancy
  Li  Li0  1  0.323226  0.661420  0.898409  1
  Li  Li1  1  0.004320  0.000287  0.987917  1
  Li  Li2  1  0.006361  0.002233  0.494554  1
  Li  Li3  1  0.664597  0.334163  0.403727  1
  Nb  Nb4  1  0.330654  0.664048  0.501528  1
  Nb  Nb5  1  0.695818  0.348152  0.987402  1
  V  V6  1  0.188345  0.843015  0.220293  1
  V  V7  1  0.185863  0.346911  0.218790  1
  V  V8  1  0.349868  0.174003  0.726362  1
  Ni  Ni9  1  0.663669  0.831909  0.207583  1
  Ni  Ni10  1  0.825349  0.659337  0.711731  1
  Ni  Ni11  1  0.825139  0.165523  0.711731  1
  O  O12  1  0.173896  0.832913  0.591630  1
  O  O13  1  0.038833  0.520199  0.335342  1
  O  O14  1  0.305266  0.652968  0.104985  1
  O  O15  1  0.011193  0.006726  0.304991  1
  O  O16  1  0.019544  0.009630  0.799090  1
  O  O17  1  0.173371  0.339670  0.591860  1
  O  O18  1  0.465884  0.964137  0.337757  1
  O  O19  1  0.464236  0.502312  0.337997  1
  O  O20  1  0.330347  0.164959  0.102932  1
  O  O21  1  0.666114  0.832551  0.583801  1
  O  O22  1  0.503424  0.468728  0.850256  1
  O  O23  1  0.503300  0.033578  0.849820  1
  O  O24  1  0.631566  0.315825  0.608250  1
  O  O25  1  0.845193  0.669753  0.096015  1
  O  O26  1  0.957647  0.478885  0.847681  1
  O  O27  1  0.846977  0.176466  0.095406  1
