# generated using pymatgen
data_Li3Cr(PO4)2
_symmetry_space_group_name_H-M   'P 1'
_cell_length_a   8.72926227
_cell_length_b   9.11892102
_cell_length_c   8.68657571
_cell_angle_alpha   87.73372983
_cell_angle_beta   112.93469584
_cell_angle_gamma   92.56244071
_symmetry_Int_Tables_number   1
_chemical_formula_structural   Li3Cr(PO4)2
_chemical_formula_sum   'Li12 Cr4 P8 O32'
_cell_volume   635.98287186
_cell_formula_units_Z   4
loop_
 _symmetry_equiv_pos_site_id
 _symmetry_equiv_pos_as_xyz
  1  'x, y, z'
loop_
 _atom_site_type_symbol
 _atom_site_label
 _atom_site_symmetry_multiplicity
 _atom_site_fract_x
 _atom_site_fract_y
 _atom_site_fract_z
 _atom_site_occupancy
  Li  Li0  1  0.359058  0.793337  0.865578  1
  Li  Li1  1  0.130004  0.299114  0.624676  1
  Li  Li2  1  0.040677  0.449665  0.155058  1
  Li  Li3  1  0.567342  0.758354  0.583623  1
  Li  Li4  1  0.084595  0.763536  0.105409  1
  Li  Li5  1  0.435826  0.250672  0.435389  1
  Li  Li6  1  0.894106  0.229773  0.890190  1
  Li  Li7  1  0.966778  0.543292  0.842941  1
  Li  Li8  1  0.147152  0.036402  0.036926  1
  Li  Li9  1  0.871215  0.674062  0.396531  1
  Li  Li10  1  0.622472  0.223732  0.136821  1
  Li  Li11  1  0.733718  0.899097  0.102758  1
  Cr  Cr12  1  0.230708  0.912048  0.486343  1
  Cr  Cr13  1  0.509856  0.411492  0.766973  1
  Cr  Cr14  1  0.491846  0.592334  0.230904  1
  Cr  Cr15  1  0.769213  0.088166  0.510658  1
  P  P16  1  0.013564  0.925087  0.712585  1
  P  P17  1  0.289739  0.428509  0.985436  1
  P  P18  1  0.240988  0.569935  0.428534  1
  P  P19  1  0.572547  0.071345  0.762107  1
  P  P20  1  0.432466  0.928913  0.240384  1
  P  P21  1  0.763121  0.429552  0.568815  1
  P  P22  1  0.714946  0.577775  0.009227  1
  P  P23  1  0.989864  0.081999  0.284267  1
  O  O24  1  0.030862  0.873525  0.887517  1
  O  O25  1  0.115000  0.385049  0.978107  1
  O  O26  1  0.159087  0.864261  0.675764  1
  O  O27  1  0.315080  0.365154  0.835194  1
  O  O28  1  0.052948  0.551650  0.371832  1
  O  O29  1  0.625765  0.059185  0.951111  1
  O  O30  1  0.983192  0.907199  0.292319  1
  O  O31  1  0.681326  0.407430  0.014433  1
  O  O32  1  0.575619  0.626912  0.839278  1
  O  O33  1  0.153529  0.122076  0.437468  1
  O  O34  1  0.465445  0.937208  0.665256  1
  O  O35  1  0.336275  0.436755  0.534446  1
  O  O36  1  0.316694  0.710048  0.527047  1
  O  O37  1  0.469478  0.208806  0.683957  1
  O  O38  1  0.273648  0.575917  0.263646  1
  O  O39  1  0.733218  0.083277  0.725257  1
  O  O40  1  0.263656  0.924626  0.264862  1
  O  O41  1  0.727063  0.422262  0.731742  1
  O  O42  1  0.530876  0.791431  0.325180  1
  O  O43  1  0.686871  0.291509  0.466730  1
  O  O44  1  0.673736  0.563649  0.459376  1
  O  O45  1  0.534950  0.063860  0.337056  1
  O  O46  1  0.844341  0.876354  0.569967  1
  O  O47  1  0.432421  0.378659  0.153935  1
  O  O48  1  0.320208  0.600669  0.988250  1
  O  O49  1  0.010669  0.098286  0.690580  1
  O  O50  1  0.387638  0.939126  0.053347  1
  O  O51  1  0.951145  0.449285  0.627646  1
  O  O52  1  0.688990  0.656281  0.154109  1
  O  O53  1  0.834176  0.132981  0.309409  1
  O  O54  1  0.892122  0.613559  0.018637  1
  O  O55  1  0.994795  0.143591  0.120230  1
