# generated using pymatgen
data_MnH6SO6
_symmetry_space_group_name_H-M   'P 1'
_cell_length_a   6.72676646
_cell_length_b   8.99280212
_cell_length_c   8.81359372
_cell_angle_alpha   90.00000000
_cell_angle_beta   95.92306219
_cell_angle_gamma   90.00000000
_symmetry_Int_Tables_number   1
_chemical_formula_structural   MnH6SO6
_chemical_formula_sum   'Mn4 H24 S4 O24'
_cell_volume   530.30981135
_cell_formula_units_Z   4
loop_
 _symmetry_equiv_pos_site_id
 _symmetry_equiv_pos_as_xyz
  1  'x, y, z'
loop_
 _atom_site_type_symbol
 _atom_site_label
 _atom_site_symmetry_multiplicity
 _atom_site_fract_x
 _atom_site_fract_y
 _atom_site_fract_z
 _atom_site_occupancy
  Mn  Mn0  1  0.069216  0.256200  0.359587  1
  Mn  Mn1  1  0.430784  0.756200  0.140413  1
  Mn  Mn2  1  0.569216  0.243800  0.859587  1
  Mn  Mn3  1  0.930784  0.743800  0.640413  1
  H  H4  1  0.039395  0.695437  0.225368  1
  H  H5  1  0.041637  0.321930  0.029500  1
  H  H6  1  0.114217  0.545984  0.151296  1
  H  H7  1  0.146580  0.985751  0.130748  1
  H  H8  1  0.255193  0.013345  0.978513  1
  H  H9  1  0.244807  0.513345  0.521487  1
  H  H10  1  0.229161  0.824075  0.397987  1
  H  H11  1  0.270839  0.324075  0.102013  1
  H  H12  1  0.353420  0.485751  0.369252  1
  H  H13  1  0.385783  0.045984  0.348704  1
  H  H14  1  0.458363  0.821930  0.470500  1
  H  H15  1  0.460605  0.195437  0.274632  1
  H  H16  1  0.539395  0.804563  0.725368  1
  H  H17  1  0.541638  0.178070  0.529500  1
  H  H18  1  0.614217  0.954016  0.651296  1
  H  H19  1  0.646580  0.514249  0.630748  1
  H  H20  1  0.729161  0.675925  0.897987  1
  H  H21  1  0.770839  0.175925  0.602013  1
  H  H22  1  0.755193  0.486655  0.478513  1
  H  H23  1  0.744807  0.986655  0.021487  1
  H  H24  1  0.853420  0.014249  0.869252  1
  H  H25  1  0.885783  0.454016  0.848704  1
  H  H26  1  0.958362  0.678070  0.970500  1
  H  H27  1  0.960605  0.304563  0.774632  1
  S  S28  1  0.169588  0.069841  0.676092  1
  S  S29  1  0.330412  0.569841  0.823908  1
  S  S30  1  0.669588  0.430159  0.176092  1
  S  S31  1  0.830412  0.930159  0.323908  1
  O  O32  1  0.018514  0.960239  0.735094  1
  O  O33  1  0.035532  0.199906  0.602661  1
  O  O34  1  0.109039  0.655901  0.139664  1
  O  O35  1  0.130453  0.338612  0.125958  1
  O  O36  1  0.224843  0.638535  0.675764  1
  O  O37  1  0.275157  0.138535  0.824236  1
  O  O38  1  0.240605  0.454282  0.426331  1
  O  O39  1  0.259395  0.954282  0.073669  1
  O  O40  1  0.369547  0.838612  0.374042  1
  O  O41  1  0.464468  0.699906  0.897339  1
  O  O42  1  0.390961  0.155901  0.360336  1
  O  O43  1  0.481486  0.460239  0.764906  1
  O  O44  1  0.518514  0.539761  0.235094  1
  O  O45  1  0.609039  0.844099  0.639664  1
  O  O46  1  0.535532  0.300094  0.102661  1
  O  O47  1  0.630453  0.161388  0.625958  1
  O  O48  1  0.740605  0.045718  0.926331  1
  O  O49  1  0.759395  0.545718  0.573669  1
  O  O50  1  0.724843  0.861465  0.175764  1
  O  O51  1  0.775157  0.361465  0.324236  1
  O  O52  1  0.869547  0.661388  0.874042  1
  O  O53  1  0.890961  0.344099  0.860336  1
  O  O54  1  0.964468  0.800094  0.397339  1
  O  O55  1  0.981486  0.039761  0.264906  1
