# generated using pymatgen
data_La2Ce2O7
_symmetry_space_group_name_H-M   'P 1'
_cell_length_a   8.43410790
_cell_length_b   14.67696145
_cell_length_c   6.00678068
_cell_angle_alpha   90.00000000
_cell_angle_beta   90.00000000
_cell_angle_gamma   98.47177806
_symmetry_Int_Tables_number   1
_chemical_formula_structural   La2Ce2O7
_chemical_formula_sum   'La8 Ce8 O28'
_cell_volume   735.44848166
_cell_formula_units_Z   4
loop_
 _symmetry_equiv_pos_site_id
 _symmetry_equiv_pos_as_xyz
  1  'x, y, z'
loop_
 _atom_site_type_symbol
 _atom_site_label
 _atom_site_symmetry_multiplicity
 _atom_site_fract_x
 _atom_site_fract_y
 _atom_site_fract_z
 _atom_site_occupancy
  La  La0  1  0.234261  0.917327  0.771753  1
  La  La1  1  0.140723  0.560874  0.332214  1
  La  La2  1  0.283771  0.123913  0.251259  1
  La  La3  1  0.357691  0.405379  0.751056  1
  La  La4  1  0.642309  0.594621  0.251056  1
  La  La5  1  0.716229  0.876087  0.751259  1
  La  La6  1  0.859277  0.439126  0.832214  1
  La  La7  1  0.765739  0.082673  0.271753  1
  Ce  Ce8  1  0.074914  0.315475  0.270703  1
  Ce  Ce9  1  0.029358  0.115313  0.765874  1
  Ce  Ce10  1  0.415659  0.678273  0.780496  1
  Ce  Ce11  1  0.471327  0.879286  0.268137  1
  Ce  Ce12  1  0.528673  0.120714  0.768137  1
  Ce  Ce13  1  0.584341  0.321727  0.280496  1
  Ce  Ce14  1  0.970642  0.884687  0.265874  1
  Ce  Ce15  1  0.925086  0.684525  0.770703  1
  O  O16  1  0.002140  0.170027  0.425070  1
  O  O17  1  0.087864  0.418796  0.552912  1
  O  O18  1  0.174555  0.688486  0.646797  1
  O  O19  1  0.224221  0.892372  0.381796  1
  O  O20  1  0.131088  0.434676  0.055232  1
  O  O21  1  0.072483  0.020977  0.055701  1
  O  O22  1  0.138900  0.223740  0.984416  1
  O  O23  1  0.375508  0.613026  0.101914  1
  O  O24  1  0.421784  0.829576  0.924322  1
  O  O25  1  0.323756  0.298545  0.415241  1
  O  O26  1  0.270924  0.078610  0.645335  1
  O  O27  1  0.405799  0.548591  0.569512  1
  O  O28  1  0.557280  0.977772  0.553869  1
  O  O29  1  0.527299  0.773681  0.494733  1
  O  O30  1  0.472701  0.226319  0.994733  1
  O  O31  1  0.442720  0.022228  0.053869  1
  O  O32  1  0.594201  0.451409  0.069512  1
  O  O33  1  0.729076  0.921389  0.145335  1
  O  O34  1  0.676244  0.701455  0.915241  1
  O  O35  1  0.578216  0.170424  0.424322  1
  O  O36  1  0.624492  0.386974  0.601914  1
  O  O37  1  0.861100  0.776260  0.484416  1
  O  O38  1  0.927517  0.979023  0.555701  1
  O  O39  1  0.868912  0.565324  0.555232  1
  O  O40  1  0.775779  0.107628  0.881796  1
  O  O41  1  0.825445  0.311514  0.146797  1
  O  O42  1  0.912136  0.581204  0.052912  1
  O  O43  1  0.997860  0.829973  0.925070  1
