# generated using pymatgen
data_Tl8Os8O27
_symmetry_space_group_name_H-M   'P 1'
_cell_length_a   7.37423810
_cell_length_b   7.37423810
_cell_length_c   10.44277249
_cell_angle_alpha   90.00000000
_cell_angle_beta   90.00000000
_cell_angle_gamma   90.00000000
_symmetry_Int_Tables_number   1
_chemical_formula_structural   Tl8Os8O27
_chemical_formula_sum   'Tl8 Os8 O27'
_cell_volume   567.87157313
_cell_formula_units_Z   1
loop_
 _symmetry_equiv_pos_site_id
 _symmetry_equiv_pos_as_xyz
  1  'x, y, z'
loop_
 _atom_site_type_symbol
 _atom_site_label
 _atom_site_symmetry_multiplicity
 _atom_site_fract_x
 _atom_site_fract_y
 _atom_site_fract_z
 _atom_site_occupancy
  Tl  Tl0  1  0.499071  0.500000  0.002401  1
  Tl  Tl1  1  0.000929  0.500000  0.002401  1
  Tl  Tl2  1  0.250000  0.763263  0.257413  1
  Tl  Tl3  1  0.250000  0.236737  0.257413  1
  Tl  Tl4  1  0.013263  0.000000  0.492587  1
  Tl  Tl5  1  0.486737  0.000000  0.492587  1
  Tl  Tl6  1  0.750000  0.249071  0.747599  1
  Tl  Tl7  1  0.750000  0.750929  0.747599  1
  Os  Os8  1  0.499755  0.000000  0.998946  1
  Os  Os9  1  0.000245  0.000000  0.998946  1
  Os  Os10  1  0.750000  0.750190  0.249013  1
  Os  Os11  1  0.750000  0.249810  0.249013  1
  Os  Os12  1  0.000190  0.500000  0.500987  1
  Os  Os13  1  0.499810  0.500000  0.500987  1
  Os  Os14  1  0.250000  0.750245  0.751054  1
  Os  Os15  1  0.250000  0.249755  0.751054  1
  O  O16  1  0.250000  0.000000  0.048530  1
  O  O17  1  0.250000  0.500000  0.123453  1
  O  O18  1  0.937459  0.194505  0.121083  1
  O  O19  1  0.562541  0.805495  0.121083  1
  O  O20  1  0.562541  0.194505  0.121083  1
  O  O21  1  0.937459  0.805495  0.121083  1
  O  O22  1  0.750000  0.500000  0.174222  1
  O  O23  1  0.750000  0.000000  0.305475  1
  O  O24  1  0.933698  0.316302  0.375000  1
  O  O25  1  0.566302  0.316302  0.375000  1
  O  O26  1  0.566302  0.683698  0.375000  1
  O  O27  1  0.933698  0.683698  0.375000  1
  O  O28  1  0.250000  0.500000  0.444525  1
  O  O29  1  0.750000  0.500000  0.575778  1
  O  O30  1  0.750000  0.000000  0.626547  1
  O  O31  1  0.055495  0.687459  0.628917  1
  O  O32  1  0.444505  0.312541  0.628917  1
  O  O33  1  0.055495  0.312541  0.628917  1
  O  O34  1  0.444505  0.687459  0.628917  1
  O  O35  1  0.250000  0.000000  0.701470  1
  O  O36  1  0.250000  0.500000  0.822970  1
  O  O37  1  0.750000  0.500000  0.875000  1
  O  O38  1  0.448750  0.198750  0.875000  1
  O  O39  1  0.448750  0.801250  0.875000  1
  O  O40  1  0.051250  0.198750  0.875000  1
  O  O41  1  0.051250  0.801250  0.875000  1
  O  O42  1  0.750000  0.000000  0.927030  1
