# generated using pymatgen
data_LiFeF5
_symmetry_space_group_name_H-M   'P 1'
_cell_length_a   13.51641445
_cell_length_b   5.37373046
_cell_length_c   10.87202312
_cell_angle_alpha   90.00000000
_cell_angle_beta   90.00000000
_cell_angle_gamma   90.00000000
_symmetry_Int_Tables_number   1
_chemical_formula_structural   LiFeF5
_chemical_formula_sum   'Li8 Fe8 F40'
_cell_volume   789.67383102
_cell_formula_units_Z   8
loop_
 _symmetry_equiv_pos_site_id
 _symmetry_equiv_pos_as_xyz
  1  'x, y, z'
loop_
 _atom_site_type_symbol
 _atom_site_label
 _atom_site_symmetry_multiplicity
 _atom_site_fract_x
 _atom_site_fract_y
 _atom_site_fract_z
 _atom_site_occupancy
  Li  Li0  1  0.058603  0.750000  0.400000  1
  Li  Li1  1  0.189504  0.250000  0.866881  1
  Li  Li2  1  0.310496  0.750000  0.366881  1
  Li  Li3  1  0.441397  0.250000  0.900000  1
  Li  Li4  1  0.558603  0.750000  0.100000  1
  Li  Li5  1  0.689504  0.250000  0.633119  1
  Li  Li6  1  0.810496  0.750000  0.133119  1
  Li  Li7  1  0.941397  0.250000  0.600000  1
  Fe  Fe8  1  0.050910  0.250000  0.171663  1
  Fe  Fe9  1  0.294273  0.750000  0.060888  1
  Fe  Fe10  1  0.205727  0.250000  0.560888  1
  Fe  Fe11  1  0.449090  0.750000  0.671663  1
  Fe  Fe12  1  0.550910  0.250000  0.328337  1
  Fe  Fe13  1  0.794273  0.750000  0.439112  1
  Fe  Fe14  1  0.705727  0.250000  0.939112  1
  Fe  Fe15  1  0.949090  0.750000  0.828337  1
  F  F16  1  0.055645  0.015777  0.291219  1
  F  F17  1  0.055645  0.484223  0.291219  1
  F  F18  1  0.083408  0.750000  0.848510  1
  F  F19  1  0.091036  0.019938  0.064558  1
  F  F20  1  0.091036  0.480063  0.064558  1
  F  F21  1  0.069047  0.250000  0.536199  1
  F  F22  1  0.212320  0.025212  0.682946  1
  F  F23  1  0.212320  0.474788  0.682946  1
  F  F24  1  0.226990  0.006668  0.447242  1
  F  F25  1  0.226990  0.493332  0.447242  1
  F  F26  1  0.273010  0.506668  0.947242  1
  F  F27  1  0.273010  0.993332  0.947242  1
  F  F28  1  0.287680  0.525212  0.182946  1
  F  F29  1  0.287680  0.974788  0.182946  1
  F  F30  1  0.430953  0.750000  0.036199  1
  F  F31  1  0.408964  0.519938  0.564558  1
  F  F32  1  0.408964  0.980062  0.564558  1
  F  F33  1  0.416592  0.250000  0.348510  1
  F  F34  1  0.444355  0.515777  0.791219  1
  F  F35  1  0.444355  0.984223  0.791219  1
  F  F36  1  0.555645  0.015777  0.208781  1
  F  F37  1  0.555645  0.484223  0.208781  1
  F  F38  1  0.583408  0.750000  0.651490  1
  F  F39  1  0.591036  0.019938  0.435442  1
  F  F40  1  0.591036  0.480063  0.435442  1
  F  F41  1  0.569047  0.250000  0.963801  1
  F  F42  1  0.712320  0.025212  0.817054  1
  F  F43  1  0.712320  0.474788  0.817054  1
  F  F44  1  0.726990  0.006668  0.052758  1
  F  F45  1  0.726990  0.493332  0.052758  1
  F  F46  1  0.773010  0.506668  0.552758  1
  F  F47  1  0.773010  0.993332  0.552758  1
  F  F48  1  0.787680  0.525212  0.317054  1
  F  F49  1  0.787680  0.974788  0.317054  1
  F  F50  1  0.930953  0.750000  0.463801  1
  F  F51  1  0.908964  0.519938  0.935442  1
  F  F52  1  0.908964  0.980062  0.935442  1
  F  F53  1  0.916592  0.250000  0.151490  1
  F  F54  1  0.944355  0.515777  0.708781  1
  F  F55  1  0.944355  0.984223  0.708781  1
