# generated using pymatgen
data_KMn2Zn3(Si2O5)6
_symmetry_space_group_name_H-M   'P 1'
_cell_length_a   10.32653036
_cell_length_b   10.32653016
_cell_length_c   14.37569351
_cell_angle_alpha   90.00000000
_cell_angle_beta   90.00000000
_cell_angle_gamma   120.00000065
_symmetry_Int_Tables_number   1
_chemical_formula_structural   KMn2Zn3(Si2O5)6
_chemical_formula_sum   'K2 Mn4 Zn6 Si24 O60'
_cell_volume   1327.60316086
_cell_formula_units_Z   2
loop_
 _symmetry_equiv_pos_site_id
 _symmetry_equiv_pos_as_xyz
  1  'x, y, z'
loop_
 _atom_site_type_symbol
 _atom_site_label
 _atom_site_symmetry_multiplicity
 _atom_site_fract_x
 _atom_site_fract_y
 _atom_site_fract_z
 _atom_site_occupancy
  K  K0  1  0.000000  0.000000  0.247172  1
  K  K1  1  0.000000  0.000000  0.747172  1
  Mn  Mn2  1  0.333333  0.666667  0.250371  1
  Mn  Mn3  1  0.333333  0.666667  0.750371  1
  Mn  Mn4  1  0.666667  0.333333  0.250371  1
  Mn  Mn5  1  0.666667  0.333333  0.750371  1
  Zn  Zn6  1  0.000000  0.500000  0.750634  1
  Zn  Zn7  1  0.500000  0.000000  0.250634  1
  Zn  Zn8  1  0.500000  0.000000  0.750634  1
  Zn  Zn9  1  0.500000  0.500000  0.750634  1
  Zn  Zn10  1  0.000000  0.500000  0.250634  1
  Zn  Zn11  1  0.500000  0.500000  0.250634  1
  Si  Si12  1  0.235263  0.887133  0.389256  1
  Si  Si13  1  0.235290  0.348093  0.111926  1
  Si  Si14  1  0.887133  0.235263  0.889256  1
  Si  Si15  1  0.651870  0.887133  0.889256  1
  Si  Si16  1  0.348130  0.235263  0.389256  1
  Si  Si17  1  0.764710  0.651907  0.111926  1
  Si  Si18  1  0.764737  0.112867  0.389256  1
  Si  Si19  1  0.651907  0.764710  0.611926  1
  Si  Si20  1  0.651907  0.887197  0.111926  1
  Si  Si21  1  0.887197  0.235290  0.111926  1
  Si  Si22  1  0.235290  0.887197  0.611926  1
  Si  Si23  1  0.112867  0.764737  0.889256  1
  Si  Si24  1  0.112867  0.348130  0.389256  1
  Si  Si25  1  0.348130  0.112867  0.889256  1
  Si  Si26  1  0.348093  0.112803  0.111926  1
  Si  Si27  1  0.235263  0.348130  0.889256  1
  Si  Si28  1  0.651870  0.764737  0.389256  1
  Si  Si29  1  0.348093  0.235290  0.611926  1
  Si  Si30  1  0.112803  0.348093  0.611926  1
  Si  Si31  1  0.887197  0.651907  0.611926  1
  Si  Si32  1  0.764737  0.651870  0.889256  1
  Si  Si33  1  0.112803  0.764710  0.111926  1
  Si  Si34  1  0.887133  0.651870  0.389256  1
  Si  Si35  1  0.764710  0.112803  0.611926  1
  O  O36  1  0.877426  0.621586  0.500596  1
  O  O37  1  0.276406  0.058341  0.360961  1
  O  O38  1  0.744160  0.621586  0.000596  1
  O  O39  1  0.502448  0.657748  0.671238  1
  O  O40  1  0.657964  0.155588  0.329814  1
  O  O41  1  0.342036  0.844412  0.329814  1
  O  O42  1  0.217814  0.941687  0.140406  1
  O  O43  1  0.497552  0.155300  0.171238  1
  O  O44  1  0.782186  0.723873  0.640406  1
  O  O45  1  0.378414  0.122574  0.000596  1
  O  O46  1  0.276406  0.218064  0.860961  1
  O  O47  1  0.744160  0.122574  0.500596  1
  O  O48  1  0.255840  0.877426  0.500596  1
  O  O49  1  0.217814  0.276127  0.640406  1
  O  O50  1  0.621586  0.744160  0.500596  1
  O  O51  1  0.218064  0.941659  0.860961  1
  O  O52  1  0.657748  0.155300  0.671238  1
  O  O53  1  0.844700  0.502448  0.671238  1
  O  O54  1  0.155588  0.497624  0.329814  1
  O  O55  1  0.058313  0.276127  0.140406  1
  O  O56  1  0.155300  0.497552  0.671238  1
  O  O57  1  0.621586  0.877426  0.000596  1
  O  O58  1  0.276127  0.058313  0.640406  1
  O  O59  1  0.276127  0.217814  0.140406  1
  O  O60  1  0.723873  0.782186  0.140406  1
  O  O61  1  0.155300  0.657748  0.171238  1
  O  O62  1  0.342252  0.497552  0.171238  1
  O  O63  1  0.844700  0.342252  0.171238  1
  O  O64  1  0.378414  0.255840  0.500596  1
  O  O65  1  0.941659  0.218064  0.360961  1
  O  O66  1  0.218064  0.276406  0.360961  1
  O  O67  1  0.723594  0.781936  0.860961  1
  O  O68  1  0.941687  0.217814  0.640406  1
  O  O69  1  0.941659  0.723594  0.860961  1
  O  O70  1  0.342036  0.497624  0.829814  1
  O  O71  1  0.155588  0.657964  0.829814  1
  O  O72  1  0.723594  0.941659  0.360961  1
  O  O73  1  0.782186  0.058313  0.140406  1
  O  O74  1  0.497624  0.155588  0.829814  1
  O  O75  1  0.255840  0.378414  0.000596  1
  O  O76  1  0.781936  0.723594  0.360961  1
  O  O77  1  0.342252  0.844700  0.671238  1
  O  O78  1  0.058341  0.781936  0.360961  1
  O  O79  1  0.941687  0.723873  0.140406  1
  O  O80  1  0.844412  0.342036  0.829814  1
  O  O81  1  0.502448  0.844700  0.171238  1
  O  O82  1  0.657748  0.502448  0.171238  1
  O  O83  1  0.502376  0.657964  0.329814  1
  O  O84  1  0.781936  0.058341  0.860961  1
  O  O85  1  0.723873  0.941687  0.640406  1
  O  O86  1  0.497552  0.342252  0.671238  1
  O  O87  1  0.058313  0.782186  0.640406  1
  O  O88  1  0.657964  0.502376  0.829814  1
  O  O89  1  0.877426  0.255840  0.000596  1
  O  O90  1  0.502376  0.844412  0.829814  1
  O  O91  1  0.122574  0.378414  0.500596  1
  O  O92  1  0.844412  0.502376  0.329814  1
  O  O93  1  0.058341  0.276406  0.860961  1
  O  O94  1  0.497624  0.342036  0.329814  1
  O  O95  1  0.122574  0.744160  0.000596  1
