# generated using pymatgen
data_K3Fe3P4H2O17
_symmetry_space_group_name_H-M   'P 1'
_cell_length_a   10.91409410
_cell_length_b   21.04297021
_cell_length_c   6.63132921
_cell_angle_alpha   90.00000000
_cell_angle_beta   90.00000000
_cell_angle_gamma   90.00000000
_symmetry_Int_Tables_number   1
_chemical_formula_structural   K3Fe3P4H2O17
_chemical_formula_sum   'K12 Fe12 P16 H8 O68'
_cell_volume   1522.98393797
_cell_formula_units_Z   4
loop_
 _symmetry_equiv_pos_site_id
 _symmetry_equiv_pos_as_xyz
  1  'x, y, z'
loop_
 _atom_site_type_symbol
 _atom_site_label
 _atom_site_symmetry_multiplicity
 _atom_site_fract_x
 _atom_site_fract_y
 _atom_site_fract_z
 _atom_site_occupancy
  K  K0  1  0.250000  0.500000  0.813671  1
  K  K1  1  0.250000  0.000000  0.686329  1
  K  K2  1  0.750000  0.500000  0.186329  1
  K  K3  1  0.750000  0.000000  0.313671  1
  K  K4  1  0.511470  0.404443  0.641795  1
  K  K5  1  0.988530  0.595557  0.641795  1
  K  K6  1  0.511470  0.095557  0.858205  1
  K  K7  1  0.988530  0.904443  0.858205  1
  K  K8  1  0.488530  0.595557  0.358205  1
  K  K9  1  0.011470  0.404443  0.358205  1
  K  K10  1  0.488530  0.904443  0.141795  1
  K  K11  1  0.011470  0.095557  0.141795  1
  Fe  Fe12  1  0.002002  0.250000  0.750000  1
  Fe  Fe13  1  0.497998  0.750000  0.750000  1
  Fe  Fe14  1  0.997998  0.750000  0.250000  1
  Fe  Fe15  1  0.502002  0.250000  0.250000  1
  Fe  Fe16  1  0.251548  0.337503  0.000626  1
  Fe  Fe17  1  0.248452  0.662497  0.000626  1
  Fe  Fe18  1  0.251548  0.162497  0.499374  1
  Fe  Fe19  1  0.248452  0.837503  0.499374  1
  Fe  Fe20  1  0.748452  0.662497  0.999374  1
  Fe  Fe21  1  0.751548  0.337503  0.999374  1
  Fe  Fe22  1  0.748452  0.837503  0.500626  1
  Fe  Fe23  1  0.751548  0.162497  0.500626  1
  P  P24  1  0.752602  0.295013  0.500237  1
  P  P25  1  0.747398  0.704987  0.500237  1
  P  P26  1  0.752602  0.204987  -0.000237  1
  P  P27  1  0.747398  0.795013  -0.000237  1
  P  P28  1  0.247398  0.704987  0.499763  1
  P  P29  1  0.252602  0.295013  0.499763  1
  P  P30  1  0.247398  0.795013  0.000237  1
  P  P31  1  0.252602  0.204987  0.000237  1
  P  P32  1  0.500633  0.597509  0.851547  1
  P  P33  1  0.999367  0.402491  0.851547  1
  P  P34  1  0.500633  0.902491  0.648453  1
  P  P35  1  0.999367  0.097509  0.648453  1
  P  P36  1  0.499367  0.402491  0.148453  1
  P  P37  1  0.000633  0.597509  0.148453  1
  P  P38  1  0.499367  0.097509  0.351547  1
  P  P39  1  0.000633  0.902491  0.351547  1
  H  H40  1  0.180639  0.513291  0.322254  1
  H  H41  1  0.319361  0.486709  0.322254  1
  H  H42  1  0.180639  0.986709  0.177746  1
  H  H43  1  0.319361  0.013291  0.177746  1
  H  H44  1  0.819361  0.486709  0.677746  1
  H  H45  1  0.680639  0.513291  0.677746  1
  H  H46  1  0.819361  0.013291  0.822254  1
  H  H47  1  0.680639  0.986709  0.822254  1
  O  O48  1  0.777627  0.337169  0.316211  1
  O  O49  1  0.722373  0.662831  0.316211  1
  O  O50  1  0.777627  0.162831  0.183789  1
  O  O51  1  0.722373  0.837169  0.183789  1
  O  O52  1  0.222373  0.662831  0.683789  1
  O  O53  1  0.277627  0.337169  0.683789  1
  O  O54  1  0.222373  0.837169  0.816211  1
  O  O55  1  0.277627  0.162831  0.816211  1
  O  O56  1  0.860869  0.245549  0.535432  1
  O  O57  1  0.639131  0.754451  0.535432  1
  O  O58  1  0.860869  0.254451  0.964568  1
  O  O59  1  0.639131  0.745549  0.964568  1
  O  O60  1  0.139131  0.754451  0.464568  1
  O  O61  1  0.360869  0.245549  0.464568  1
  O  O62  1  0.139131  0.745549  0.035432  1
  O  O63  1  0.360869  0.254451  0.035432  1
  O  O64  1  0.725709  0.334579  0.689577  1
  O  O65  1  0.774291  0.665421  0.689577  1
  O  O66  1  0.725709  0.165421  0.810423  1
  O  O67  1  0.774291  0.834579  0.810423  1
  O  O68  1  0.274291  0.665421  0.310423  1
  O  O69  1  0.225709  0.334579  0.310423  1
  O  O70  1  0.274291  0.834579  0.189577  1
  O  O71  1  0.225709  0.165421  0.189577  1
  O  O72  1  0.644477  0.245580  0.460986  1
  O  O73  1  0.855523  0.754420  0.460986  1
  O  O74  1  0.644477  0.254420  0.039014  1
  O  O75  1  0.855523  0.745580  0.039014  1
  O  O76  1  0.355523  0.754420  0.539014  1
  O  O77  1  0.144477  0.245580  0.539014  1
  O  O78  1  0.355523  0.745580  0.960986  1
  O  O79  1  0.144477  0.254420  0.960986  1
  O  O80  1  0.382453  0.600570  0.985843  1
  O  O81  1  0.117547  0.399430  0.985843  1
  O  O82  1  0.382453  0.899430  0.514157  1
  O  O83  1  0.117547  0.100570  0.514157  1
  O  O84  1  0.617547  0.399430  0.014157  1
  O  O85  1  0.882453  0.600570  0.014157  1
  O  O86  1  0.617547  0.100570  0.485843  1
  O  O87  1  0.882453  0.899430  0.485843  1
  O  O88  1  0.613915  0.601052  0.996249  1
  O  O89  1  0.886085  0.398948  0.996249  1
  O  O90  1  0.613915  0.898948  0.503751  1
  O  O91  1  0.886085  0.101052  0.503751  1
  O  O92  1  0.386085  0.398948  0.003751  1
  O  O93  1  0.113915  0.601052  0.003751  1
  O  O94  1  0.386085  0.101052  0.496249  1
  O  O95  1  0.113915  0.898948  0.496249  1
  O  O96  1  0.503353  0.536489  0.728508  1
  O  O97  1  0.996647  0.463511  0.728508  1
  O  O98  1  0.503353  0.963511  0.771492  1
  O  O99  1  0.996647  0.036489  0.771492  1
  O  O100  1  0.496647  0.463511  0.271492  1
  O  O101  1  0.003353  0.536489  0.271492  1
  O  O102  1  0.496647  0.036489  0.228508  1
  O  O103  1  0.003353  0.963511  0.228508  1
  O  O104  1  0.501005  0.657661  0.714700  1
  O  O105  1  0.998995  0.342339  0.714700  1
  O  O106  1  0.501005  0.842339  0.785300  1
  O  O107  1  0.998995  0.157661  0.785300  1
  O  O108  1  0.498995  0.342339  0.285300  1
  O  O109  1  0.001005  0.657661  0.285300  1
  O  O110  1  0.498995  0.157661  0.214700  1
  O  O111  1  0.001005  0.842339  0.214700  1
  O  O112  1  0.250000  0.500000  0.406902  1
  O  O113  1  0.250000  0.000000  0.093098  1
  O  O114  1  0.750000  0.500000  0.593098  1
  O  O115  1  0.750000  0.000000  0.906902  1
