# generated using pymatgen
data_YbAlO3
_symmetry_space_group_name_H-M   'P 1'
_cell_length_a   3.39708038
_cell_length_b   3.39737888
_cell_length_c   11.91768001
_cell_angle_alpha   89.99748291
_cell_angle_beta   89.99967664
_cell_angle_gamma   119.99806139
_symmetry_Int_Tables_number   1
_chemical_formula_structural   YbAlO3
_chemical_formula_sum   'Yb2 Al2 O6'
_cell_volume   119.11889087
_cell_formula_units_Z   2
loop_
 _symmetry_equiv_pos_site_id
 _symmetry_equiv_pos_as_xyz
  1  'x, y, z'
loop_
 _atom_site_type_symbol
 _atom_site_label
 _atom_site_symmetry_multiplicity
 _atom_site_fract_x
 _atom_site_fract_y
 _atom_site_fract_z
 _atom_site_occupancy
  Yb  Yb0  1  0.999996  0.999824  -0.000013  1
  Yb  Yb1  1  0.999996  0.000209  0.500015  1
  Al  Al2  1  0.333331  0.666645  0.250084  1
  Al  Al3  1  0.666684  0.333405  0.749917  1
  O  O4  1  0.333295  0.666506  0.100035  1
  O  O5  1  0.333328  0.667059  0.399837  1
  O  O6  1  0.999974  0.999838  0.250020  1
  O  O7  1  0.000041  0.000222  0.749980  1
  O  O8  1  0.666686  0.333028  0.899998  1
  O  O9  1  0.666668  0.333465  0.600129  1
