# generated using pymatgen
data_Li4Fe5SnO12
_symmetry_space_group_name_H-M   'P 1'
_cell_length_a   5.28828162
_cell_length_b   5.24623853
_cell_length_c   10.36223910
_cell_angle_alpha   90.71147138
_cell_angle_beta   91.41174440
_cell_angle_gamma   59.73455029
_symmetry_Int_Tables_number   1
_chemical_formula_structural   Li4Fe5SnO12
_chemical_formula_sum   'Li4 Fe5 Sn1 O12'
_cell_volume   248.22590654
_cell_formula_units_Z   1
loop_
 _symmetry_equiv_pos_site_id
 _symmetry_equiv_pos_as_xyz
  1  'x, y, z'
loop_
 _atom_site_type_symbol
 _atom_site_label
 _atom_site_symmetry_multiplicity
 _atom_site_fract_x
 _atom_site_fract_y
 _atom_site_fract_z
 _atom_site_occupancy
  Li  Li0  1  0.142772  0.472664  0.746003  1
  Li  Li1  1  0.384565  0.472664  0.253997  1
  Li  Li2  1  0.615435  0.527336  0.746003  1
  Li  Li3  1  0.857228  0.527336  0.253997  1
  Fe  Fe4  1  0.164383  0.671234  0.500000  1
  Fe  Fe5  1  0.662872  0.674257  1.000000  1
  Fe  Fe6  1  0.337128  0.325743  0.000000  1
  Fe  Fe7  1  0.835617  0.328766  0.500000  1
  Fe  Fe8  1  0.500000  0.000000  0.500000  1
  Sn  Sn9  1  0.000000  0.000000  0.000000  1
  O  O10  1  0.018889  0.649839  0.109060  1
  O  O11  1  0.331270  0.649839  0.890941  1
  O  O12  1  0.166636  0.353636  0.392908  1
  O  O13  1  0.520272  0.646364  0.392908  1
  O  O14  1  0.479728  0.353636  0.607092  1
  O  O15  1  0.171650  0.000000  0.593175  1
  O  O16  1  0.833364  0.646364  0.607092  1
  O  O17  1  0.668730  0.350161  0.109060  1
  O  O18  1  0.340249  1.000000  0.100481  1
  O  O19  1  0.981111  0.350161  0.890941  1
  O  O20  1  0.659751  0.000000  0.899519  1
  O  O21  1  0.828350  1.000000  0.406825  1
