# generated using pymatgen
data_Li3Mn4P3H12O19
_symmetry_space_group_name_H-M   'P 1'
_cell_length_a   10.82621517
_cell_length_b   10.82621517
_cell_length_c   10.82621529
_cell_angle_alpha   60.26527062
_cell_angle_beta   60.26527062
_cell_angle_gamma   60.26526865
_symmetry_Int_Tables_number   1
_chemical_formula_structural   Li3Mn4P3H12O19
_chemical_formula_sum   'Li6 Mn8 P6 H24 O38'
_cell_volume   902.64038600
_cell_formula_units_Z   2
loop_
 _symmetry_equiv_pos_site_id
 _symmetry_equiv_pos_as_xyz
  1  'x, y, z'
loop_
 _atom_site_type_symbol
 _atom_site_label
 _atom_site_symmetry_multiplicity
 _atom_site_fract_x
 _atom_site_fract_y
 _atom_site_fract_z
 _atom_site_occupancy
  Li  Li0  1  0.069586  0.674226  0.937795  1
  Li  Li1  1  0.174226  0.569586  0.437795  1
  Li  Li2  1  0.674226  0.937795  0.069586  1
  Li  Li3  1  0.569586  0.437795  0.174226  1
  Li  Li4  1  0.437795  0.174226  0.569586  1
  Li  Li5  1  0.937795  0.069586  0.674226  1
  Mn  Mn6  1  0.006754  0.978812  0.305361  1
  Mn  Mn7  1  0.506754  0.805361  0.478812  1
  Mn  Mn8  1  0.478812  0.506754  0.805361  1
  Mn  Mn9  1  0.998805  0.998805  0.998805  1
  Mn  Mn10  1  0.498805  0.498805  0.498805  1
  Mn  Mn11  1  0.305361  0.006754  0.978812  1
  Mn  Mn12  1  0.805361  0.478812  0.506754  1
  Mn  Mn13  1  0.978812  0.305361  0.006754  1
  P  P14  1  0.300781  0.838721  0.806341  1
  P  P15  1  0.338721  0.800781  0.306341  1
  P  P16  1  0.306341  0.338721  0.800781  1
  P  P17  1  0.838721  0.806341  0.300781  1
  P  P18  1  0.806341  0.300781  0.838721  1
  P  P19  1  0.800781  0.306341  0.338721  1
  H  H20  1  0.003831  0.758150  0.690497  1
  H  H21  1  0.143221  0.806523  0.624385  1
  H  H22  1  0.027229  0.461539  0.223959  1
  H  H23  1  0.306523  0.643221  0.124385  1
  H  H24  1  0.723959  0.961539  0.527229  1
  H  H25  1  0.258150  0.503831  0.190497  1
  H  H26  1  0.124385  0.306523  0.643221  1
  H  H27  1  0.614720  0.886459  0.674062  1
  H  H28  1  0.174062  0.386459  0.114720  1
  H  H29  1  0.527229  0.723959  0.961539  1
  H  H30  1  0.190497  0.258150  0.503831  1
  H  H31  1  0.114720  0.174062  0.386459  1
  H  H32  1  0.674062  0.614720  0.886459  1
  H  H33  1  0.758150  0.690497  0.003831  1
  H  H34  1  0.223959  0.027229  0.461539  1
  H  H35  1  0.886459  0.674062  0.614720  1
  H  H36  1  0.386459  0.114720  0.174062  1
  H  H37  1  0.806523  0.624385  0.143221  1
  H  H38  1  0.461539  0.223959  0.027229  1
  H  H39  1  0.503831  0.190497  0.258150  1
  H  H40  1  0.961539  0.527229  0.723959  1
  H  H41  1  0.624385  0.143221  0.806523  1
  H  H42  1  0.643221  0.124385  0.306523  1
  H  H43  1  0.690497  0.003831  0.758150  1
  O  O44  1  0.147530  0.963098  0.798595  1
  O  O45  1  0.041944  0.817123  0.701580  1
  O  O46  1  0.185647  0.786228  0.346113  1
  O  O47  1  0.378572  0.927835  0.154664  1
  O  O48  1  0.322111  0.843954  0.434043  1
  O  O49  1  0.343954  0.822111  0.934043  1
  O  O50  1  0.427835  0.878572  0.654664  1
  O  O51  1  0.286228  0.685647  0.846113  1
  O  O52  1  0.130074  0.466023  0.157186  1
  O  O53  1  0.657186  0.966023  0.630074  1
  O  O54  1  0.154664  0.378572  0.927835  1
  O  O55  1  0.317123  0.541944  0.201580  1
  O  O56  1  0.685647  0.846113  0.286228  1
  O  O57  1  0.463098  0.647530  0.298595  1
  O  O58  1  0.298595  0.463098  0.647530  1
  O  O59  1  0.822111  0.934043  0.343954  1
  O  O60  1  0.201580  0.317123  0.541944  1
  O  O61  1  0.630074  0.657186  0.966023  1
  O  O62  1  0.075780  0.075780  0.075780  1
  O  O63  1  0.575780  0.575780  0.575780  1
  O  O64  1  0.157186  0.130074  0.466023  1
  O  O65  1  0.817123  0.701580  0.041944  1
  O  O66  1  0.434043  0.322111  0.843954  1
  O  O67  1  0.963098  0.798595  0.147530  1
  O  O68  1  0.346113  0.185647  0.786228  1
  O  O69  1  0.654664  0.427835  0.878572  1
  O  O70  1  0.878572  0.654664  0.427835  1
  O  O71  1  0.466023  0.157186  0.130074  1
  O  O72  1  0.966023  0.630074  0.657186  1
  O  O73  1  0.647530  0.298595  0.463098  1
  O  O74  1  0.541944  0.201580  0.317123  1
  O  O75  1  0.843954  0.434043  0.322111  1
  O  O76  1  0.786228  0.346113  0.185647  1
  O  O77  1  0.846113  0.286228  0.685647  1
  O  O78  1  0.934043  0.343954  0.822111  1
  O  O79  1  0.701580  0.041944  0.817123  1
  O  O80  1  0.798595  0.147530  0.963098  1
  O  O81  1  0.927835  0.154664  0.378572  1
