# generated using pymatgen
data_LiMnPH2O5
_symmetry_space_group_name_H-M   'P 1'
_cell_length_a   5.62697548
_cell_length_b   7.99349111
_cell_length_c   4.82178175
_cell_angle_alpha   90.00000000
_cell_angle_beta   90.00000000
_cell_angle_gamma   90.00000000
_symmetry_Int_Tables_number   1
_chemical_formula_structural   LiMnPH2O5
_chemical_formula_sum   'Li2 Mn2 P2 H4 O10'
_cell_volume   216.87978190
_cell_formula_units_Z   2
loop_
 _symmetry_equiv_pos_site_id
 _symmetry_equiv_pos_as_xyz
  1  'x, y, z'
loop_
 _atom_site_type_symbol
 _atom_site_label
 _atom_site_symmetry_multiplicity
 _atom_site_fract_x
 _atom_site_fract_y
 _atom_site_fract_z
 _atom_site_occupancy
  Li  Li0  1  0.000000  0.572436  0.545291  1
  Li  Li1  1  0.500000  0.427564  0.045291  1
  Mn  Mn2  1  0.000000  0.990252  0.617187  1
  Mn  Mn3  1  0.500000  0.009748  0.117187  1
  P  P4  1  0.000000  0.240632  0.177472  1
  P  P5  1  0.500000  0.759368  0.677472  1
  H  H6  1  0.139742  0.776929  0.174506  1
  H  H7  1  0.360258  0.223071  0.674506  1
  H  H8  1  0.639742  0.223071  0.674506  1
  H  H9  1  0.860258  0.776929  0.174506  1
  O  O10  1  0.000000  0.427399  0.239858  1
  O  O11  1  0.000000  0.209338  0.861347  1
  O  O12  1  0.000000  0.779284  0.299195  1
  O  O13  1  0.222223  0.150999  0.314631  1
  O  O14  1  0.277777  0.849001  0.814631  1
  O  O15  1  0.500000  0.220716  0.799195  1
  O  O16  1  0.500000  0.572601  0.739858  1
  O  O17  1  0.500000  0.790662  0.361347  1
  O  O18  1  0.722223  0.849001  0.814631  1
  O  O19  1  0.777777  0.150999  0.314631  1
