# generated using pymatgen
data_Li4Ti3V2Cr4O18
_symmetry_space_group_name_H-M   'P 1'
_cell_length_a   9.00350037
_cell_length_b   25.11364942
_cell_length_c   2.97621343
_cell_angle_alpha   90.00003502
_cell_angle_beta   90.00002741
_cell_angle_gamma   90.01688524
_symmetry_Int_Tables_number   1
_chemical_formula_structural   Li4Ti3V2Cr4O18
_chemical_formula_sum   'Li8 Ti6 V4 Cr8 O36'
_cell_volume   672.95382699
_cell_formula_units_Z   2
loop_
 _symmetry_equiv_pos_site_id
 _symmetry_equiv_pos_as_xyz
  1  'x, y, z'
loop_
 _atom_site_type_symbol
 _atom_site_label
 _atom_site_symmetry_multiplicity
 _atom_site_fract_x
 _atom_site_fract_y
 _atom_site_fract_z
 _atom_site_occupancy
  Li  Li0  1  0.187645  0.998034  0.999999  1
  Li  Li1  1  0.208549  0.197798  0.999998  1
  Li  Li2  1  0.291443  0.697771  0.999999  1
  Li  Li3  1  0.312314  0.498051  0.999997  1
  Li  Li4  1  0.684995  0.501271  0.999998  1
  Li  Li5  1  0.707014  0.300090  0.999998  1
  Li  Li6  1  0.792995  0.800066  -0.000001  1
  Li  Li7  1  0.815131  0.001336  0.999998  1
  Ti  Ti8  1  0.009012  0.103259  0.000000  1
  Ti  Ti9  1  0.491014  0.603239  0.999997  1
  Ti  Ti10  1  0.502658  0.396457  0.999997  1
  Ti  Ti11  1  0.642948  0.696005  0.499995  1
  Ti  Ti12  1  0.857006  0.195981  0.500000  1
  Ti  Ti13  1  0.997389  0.896461  0.999997  1
  V  V14  1  0.998508  0.499792  0.999998  1
  V  V15  1  0.141635  0.803781  0.500000  1
  V  V16  1  0.358337  0.303766  0.499997  1
  V  V17  1  0.501507  0.999820  -0.000000  1
  Cr  Cr18  1  0.025020  0.310266  0.999980  1
  Cr  Cr19  1  0.138184  0.587387  0.499994  1
  Cr  Cr20  1  0.361795  0.087406  0.500027  1
  Cr  Cr21  1  0.474957  0.810269  0.000011  1
  Cr  Cr22  1  0.521308  0.191476  0.000028  1
  Cr  Cr23  1  0.641472  0.912349  0.500009  1
  Cr  Cr24  1  0.858495  0.412337  0.499988  1
  Cr  Cr25  1  0.978695  0.691459  0.000001  1
  O  O26  1  0.005042  0.424681  0.000004  1
  O  O27  1  0.992650  0.575251  0.999987  1
  O  O28  1  0.045361  0.941292  0.499998  1
  O  O29  1  0.054706  0.159781  0.500001  1
  O  O30  1  0.106162  0.665113  0.499997  1
  O  O31  1  0.092546  0.756851  -0.000000  1
  O  O32  1  0.148685  0.505951  0.499998  1
  O  O33  1  0.157144  0.283612  0.499989  1
  O  O34  1  0.183094  0.854692  0.999999  1
  O  O35  1  0.212691  0.086592  0.000007  1
  O  O36  1  0.287298  0.586552  -0.000001  1
  O  O37  1  0.316935  0.354658  0.999997  1
  O  O38  1  0.342791  0.783622  0.500006  1
  O  O39  1  0.351276  0.005970  0.500001  1
  O  O40  1  0.407441  0.256846  0.000001  1
  O  O41  1  0.393849  0.165129  0.500017  1
  O  O42  1  0.445321  0.659753  0.499997  1
  O  O43  1  0.454772  0.441282  0.499994  1
  O  O44  1  0.507338  0.075282  0.000009  1
  O  O45  1  0.494897  0.924690  0.000003  1
  O  O46  1  0.544762  0.558875  0.500001  1
  O  O47  1  0.550229  0.338753  0.499990  1
  O  O48  1  0.602695  0.835305  0.500012  1
  O  O49  1  0.589919  0.744730  0.000000  1
  O  O50  1  0.651901  0.993815  0.500003  1
  O  O51  1  0.653089  0.218016  0.500011  1
  O  O52  1  0.681953  0.647024  0.999998  1
  O  O53  1  0.710098  0.411766  0.999998  1
  O  O54  1  0.789926  0.911748  0.000004  1
  O  O55  1  0.818023  0.147000  0.000001  1
  O  O56  1  0.846943  0.718017  0.499992  1
  O  O57  1  0.848134  0.493786  0.499997  1
  O  O58  1  0.910024  0.244713  0.999997  1
  O  O59  1  0.897289  0.335300  0.499987  1
  O  O60  1  0.949796  0.838740  0.500000  1
  O  O61  1  0.955193  0.058884  0.500000  1
