# generated using pymatgen
data_Sr3Li3La5O12
_symmetry_space_group_name_H-M   'P 1'
_cell_length_a   13.52639245
_cell_length_b   6.89585151
_cell_length_c   10.78300566
_cell_angle_alpha   90.00000000
_cell_angle_beta   90.00000000
_cell_angle_gamma   89.95837687
_symmetry_Int_Tables_number   1
_chemical_formula_structural   Sr3Li3La5O12
_chemical_formula_sum   'Sr9 Li9 La15 O36'
_cell_volume   1005.79530344
_cell_formula_units_Z   3
loop_
 _symmetry_equiv_pos_site_id
 _symmetry_equiv_pos_as_xyz
  1  'x, y, z'
loop_
 _atom_site_type_symbol
 _atom_site_label
 _atom_site_symmetry_multiplicity
 _atom_site_fract_x
 _atom_site_fract_y
 _atom_site_fract_z
 _atom_site_occupancy
  Sr  Sr0  1  0.218748  0.914761  0.916667  1
  Sr  Sr1  1  0.217225  0.914050  0.250104  1
  Sr  Sr2  1  0.217225  0.914050  0.583230  1
  Sr  Sr3  1  0.280455  0.412106  0.916667  1
  Sr  Sr4  1  0.279517  0.412759  0.583550  1
  Sr  Sr5  1  0.279517  0.412759  0.249784  1
  Sr  Sr6  1  0.718368  0.599102  0.077650  1
  Sr  Sr7  1  0.725627  0.586913  0.416667  1
  Sr  Sr8  1  0.718368  0.599102  0.755683  1
  Li  Li9  1  0.136639  0.623993  0.081941  1
  Li  Li10  1  0.135413  0.623136  0.416667  1
  Li  Li11  1  0.136639  0.623993  0.751392  1
  Li  Li12  1  0.363796  0.122281  0.084676  1
  Li  Li13  1  0.363016  0.124189  0.416667  1
  Li  Li14  1  0.363796  0.122281  0.748657  1
  Li  Li15  1  0.631827  0.878307  0.254884  1
  Li  Li16  1  0.631827  0.878307  0.578449  1
  Li  Li17  1  0.869460  0.383560  0.916667  1
  La  La18  1  0.039328  0.245311  0.085924  1
  La  La19  1  0.036034  0.241524  0.416667  1
  La  La20  1  0.039328  0.245311  0.747409  1
  La  La21  1  0.460525  0.739122  0.080657  1
  La  La22  1  0.455869  0.743447  0.416667  1
  La  La23  1  0.460525  0.739122  0.752676  1
  La  La24  1  0.538717  0.255550  0.250628  1
  La  La25  1  0.538717  0.255550  0.582706  1
  La  La26  1  0.541226  0.237432  0.916667  1
  La  La27  1  0.778565  0.094242  0.087903  1
  La  La28  1  0.785048  0.106106  0.416667  1
  La  La29  1  0.778565  0.094242  0.745430  1
  La  La30  1  0.957755  0.731251  0.249422  1
  La  La31  1  0.957755  0.731251  0.583911  1
  La  La32  1  0.961819  0.754122  0.916667  1
  O  O33  1  0.065462  0.868092  0.749574  1
  O  O34  1  0.065462  0.868092  0.083759  1
  O  O35  1  0.062640  0.862291  0.416667  1
  O  O36  1  0.095776  0.486708  0.248081  1
  O  O37  1  0.095776  0.486708  0.585253  1
  O  O38  1  0.098603  0.486404  0.916667  1
  O  O39  1  0.220683  0.182158  0.083862  1
  O  O40  1  0.220683  0.182158  0.749472  1
  O  O41  1  0.218757  0.183118  0.416667  1
  O  O42  1  0.281478  0.682790  0.082959  1
  O  O43  1  0.281478  0.682790  0.750375  1
  O  O44  1  0.279033  0.682028  0.416667  1
  O  O45  1  0.404610  0.989223  0.581310  1
  O  O46  1  0.404610  0.989223  0.252023  1
  O  O47  1  0.406639  0.989947  0.916667  1
  O  O48  1  0.436869  0.363625  0.083640  1
  O  O49  1  0.434243  0.370529  0.416667  1
  O  O50  1  0.436869  0.363625  0.749694  1
  O  O51  1  0.563990  0.631896  0.249039  1
  O  O52  1  0.563990  0.631896  0.584294  1
  O  O53  1  0.559851  0.608119  0.916667  1
  O  O54  1  0.602866  0.024348  0.096938  1
  O  O55  1  0.604674  0.010113  0.416667  1
  O  O56  1  0.602866  0.024348  0.736395  1
  O  O57  1  0.725791  0.307977  0.916667  1
  O  O58  1  0.717072  0.302537  0.252840  1
  O  O59  1  0.717072  0.302537  0.580494  1
  O  O60  1  0.773897  0.834591  0.249269  1
  O  O61  1  0.773897  0.834591  0.584064  1
  O  O62  1  0.784437  0.838923  0.916667  1
  O  O63  1  0.903045  0.517034  0.763443  1
  O  O64  1  0.903045  0.517034  0.069890  1
  O  O65  1  0.907490  0.529048  0.416667  1
  O  O66  1  0.933136  0.114791  0.251431  1
  O  O67  1  0.933136  0.114791  0.581903  1
  O  O68  1  0.933879  0.136128  0.916667  1
