# generated using pymatgen
data_Li3VF6
_symmetry_space_group_name_H-M   'P 1'
_cell_length_a   5.15527972
_cell_length_b   5.15310961
_cell_length_c   9.70422681
_cell_angle_alpha   89.91140519
_cell_angle_beta   90.07309969
_cell_angle_gamma   120.07896024
_symmetry_Int_Tables_number   1
_chemical_formula_structural   Li3VF6
_chemical_formula_sum   'Li6 V2 F12'
_cell_volume   223.08300903
_cell_formula_units_Z   2
loop_
 _symmetry_equiv_pos_site_id
 _symmetry_equiv_pos_as_xyz
  1  'x, y, z'
loop_
 _atom_site_type_symbol
 _atom_site_label
 _atom_site_symmetry_multiplicity
 _atom_site_fract_x
 _atom_site_fract_y
 _atom_site_fract_z
 _atom_site_occupancy
  Li  Li0  1  0.333890  0.665674  0.947046  1
  Li  Li1  1  0.999665  0.999967  0.250007  1
  Li  Li2  1  -0.000009  0.001610  0.749996  1
  Li  Li3  1  0.333244  0.667167  0.552837  1
  Li  Li4  1  0.665365  0.333243  0.052926  1
  Li  Li5  1  0.667963  0.333238  0.447045  1
  V  V6  1  0.333386  0.666319  0.250221  1
  V  V7  1  0.667006  0.333470  0.750042  1
  F  F8  1  0.028413  0.672434  0.369106  1
  F  F9  1  0.327532  0.975626  0.131649  1
  F  F10  1  0.026919  0.354575  0.130483  1
  F  F11  1  0.328167  0.352437  0.368323  1
  F  F12  1  0.645203  0.972609  0.369780  1
  F  F13  1  0.355061  0.326718  0.869228  1
  F  F14  1  0.643676  0.672041  0.130598  1
  F  F15  1  0.352080  0.024440  0.631644  1
  F  F16  1  0.672735  0.644998  0.630663  1
  F  F17  1  0.975305  0.647276  0.868631  1
  F  F18  1  0.671923  0.027387  0.869448  1
  F  F19  1  0.972280  0.328772  0.630328  1
