# generated using pymatgen
data_Fe10O19F
_symmetry_space_group_name_H-M   'P 1'
_cell_length_a   4.61243520
_cell_length_b   7.52357406
_cell_length_c   9.68626787
_cell_angle_alpha   109.93991779
_cell_angle_beta   90.70364737
_cell_angle_gamma   89.47572096
_symmetry_Int_Tables_number   1
_chemical_formula_structural   Fe10O19F
_chemical_formula_sum   'Fe10 O19 F1'
_cell_volume   315.95370607
_cell_formula_units_Z   1
loop_
 _symmetry_equiv_pos_site_id
 _symmetry_equiv_pos_as_xyz
  1  'x, y, z'
loop_
 _atom_site_type_symbol
 _atom_site_label
 _atom_site_symmetry_multiplicity
 _atom_site_fract_x
 _atom_site_fract_y
 _atom_site_fract_z
 _atom_site_occupancy
  Fe  Fe0  1  0.500324  0.300464  0.901589  1
  Fe  Fe1  1  0.495306  0.098490  0.301733  1
  Fe  Fe2  1  0.499198  0.900925  0.700817  1
  Fe  Fe3  1  0.520083  0.703559  0.093126  1
  Fe  Fe4  1  0.499112  0.499046  0.497616  1
  Fe  Fe5  1  0.007038  0.599355  0.796158  1
  Fe  Fe6  1  0.998165  0.201447  0.601979  1
  Fe  Fe7  1  0.984711  0.803639  0.409112  1
  Fe  Fe8  1  0.988852  0.390646  0.200634  1
  Fe  Fe9  1  0.004998  0.001291  0.998336  1
  O  O10  1  0.821217  0.763619  0.971417  1
  O  O11  1  0.801956  0.969525  0.583938  1
  O  O12  1  0.808433  0.559313  0.374793  1
  O  O13  1  0.813680  0.363597  0.775965  1
  O  O14  1  0.803267  0.152705  0.174427  1
  O  O15  1  0.689792  0.062898  0.878599  1
  O  O16  1  0.692124  0.661688  0.674823  1
  O  O17  1  0.693462  0.463409  0.076930  1
  O  O18  1  0.690991  0.858078  0.276911  1
  O  O19  1  0.688701  0.261980  0.476098  1
  O  O20  1  0.306362  0.139798  0.726531  1
  O  O21  1  0.307682  0.738919  0.521529  1
  O  O22  1  0.305434  0.338525  0.322685  1
  O  O23  1  0.309204  0.936675  0.123566  1
  O  O24  1  0.314041  0.538821  0.923368  1
  O  O25  1  0.191303  0.436979  0.622449  1
  O  O26  1  0.185008  0.040552  0.428444  1
  O  O27  1  0.195620  0.838859  0.821972  1
  O  O28  1  0.188131  0.236948  0.023711  1
  F  F29  1  0.195810  0.638252  0.220742  1
