# generated using pymatgen
data_Li2Cu3F8
_symmetry_space_group_name_H-M   'P 1'
_cell_length_a   6.12803878
_cell_length_b   6.19449474
_cell_length_c   9.15462872
_cell_angle_alpha   89.73389488
_cell_angle_beta   90.13449722
_cell_angle_gamma   120.35938914
_symmetry_Int_Tables_number   1
_chemical_formula_structural   Li2Cu3F8
_chemical_formula_sum   'Li4 Cu6 F16'
_cell_volume   299.85402592
_cell_formula_units_Z   2
loop_
 _symmetry_equiv_pos_site_id
 _symmetry_equiv_pos_as_xyz
  1  'x, y, z'
loop_
 _atom_site_type_symbol
 _atom_site_label
 _atom_site_symmetry_multiplicity
 _atom_site_fract_x
 _atom_site_fract_y
 _atom_site_fract_z
 _atom_site_occupancy
  Li  Li0  1  0.332786  0.668398  0.539179  1
  Li  Li1  1  0.335597  0.667716  0.916238  1
  Li  Li2  1  0.667214  0.335611  0.039179  1
  Li  Li3  1  0.664403  0.332119  0.416238  1
  Cu  Cu4  1  0.162272  0.831800  0.249838  1
  Cu  Cu5  1  0.167794  0.330140  0.249794  1
  Cu  Cu6  1  0.329621  0.167328  0.747264  1
  Cu  Cu7  1  0.670379  0.837707  0.247264  1
  Cu  Cu8  1  0.837728  0.669527  0.749838  1
  Cu  Cu9  1  0.832206  0.162345  0.749794  1
  F  F10  1  0.138218  0.800815  0.638154  1
  F  F11  1  0.027670  0.485192  0.372528  1
  F  F12  1  0.453729  0.973975  0.376178  1
  F  F13  1  0.344039  0.674089  0.128426  1
  F  F14  1  0.011027  0.003686  0.862176  1
  F  F15  1  0.187392  0.333549  0.640316  1
  F  F16  1  0.511087  0.539963  0.372032  1
  F  F17  1  0.332694  0.190164  0.141778  1
  F  F18  1  0.667306  0.857470  0.641778  1
  F  F19  1  0.546271  0.520246  0.876178  1
  F  F20  1  0.488913  0.028876  0.872032  1
  F  F21  1  0.655961  0.330050  0.628426  1
  F  F22  1  0.988973  0.992659  0.362176  1
  F  F23  1  0.861782  0.662596  0.138154  1
  F  F24  1  0.972330  0.457522  0.872528  1
  F  F25  1  0.812608  0.146158  0.140316  1
