# generated using pymatgen
data_Li5Sb(P2O7)2
_symmetry_space_group_name_H-M   'P 1'
_cell_length_a   8.57683530
_cell_length_b   9.86659831
_cell_length_c   7.25155944
_cell_angle_alpha   76.87593884
_cell_angle_beta   111.18808238
_cell_angle_gamma   102.55045510
_symmetry_Int_Tables_number   1
_chemical_formula_structural   Li5Sb(P2O7)2
_chemical_formula_sum   'Li10 Sb2 P8 O28'
_cell_volume   551.01458469
_cell_formula_units_Z   2
loop_
 _symmetry_equiv_pos_site_id
 _symmetry_equiv_pos_as_xyz
  1  'x, y, z'
loop_
 _atom_site_type_symbol
 _atom_site_label
 _atom_site_symmetry_multiplicity
 _atom_site_fract_x
 _atom_site_fract_y
 _atom_site_fract_z
 _atom_site_occupancy
  Li  Li0  1  0.184501  0.723441  0.662230  1
  Li  Li1  1  0.251685  0.412744  0.685422  1
  Li  Li2  1  0.263501  0.900588  0.247457  1
  Li  Li3  1  0.462386  0.858948  0.967114  1
  Li  Li4  1  0.483770  0.643421  0.553751  1
  Li  Li5  1  0.516230  0.356580  0.446249  1
  Li  Li6  1  0.537614  0.141052  0.032886  1
  Li  Li7  1  0.736499  0.099412  0.752543  1
  Li  Li8  1  0.748315  0.587256  0.314578  1
  Li  Li9  1  0.815499  0.276559  0.337770  1
  Sb  Sb10  1  0.147201  0.240312  0.124279  1
  Sb  Sb11  1  0.852799  0.759688  0.875721  1
  P  P12  1  0.144594  0.037609  0.837526  1
  P  P13  1  0.099495  0.547736  0.309796  1
  P  P14  1  0.341136  0.056241  0.584540  1
  P  P15  1  0.362991  0.571242  0.122884  1
  P  P16  1  0.637009  0.428758  0.877116  1
  P  P17  1  0.658864  0.943759  0.415460  1
  P  P18  1  0.900505  0.452264  0.690204  1
  P  P19  1  0.855406  0.962391  0.162474  1
  O  O20  1  0.058588  0.378720  0.783795  1
  O  O21  1  0.205014  0.895526  0.923546  1
  O  O22  1  0.041422  0.961412  0.204768  1
  O  O23  1  0.062940  0.386588  0.343392  1
  O  O24  1  0.260826  0.149684  0.976954  1
  O  O25  1  0.228509  0.602545  0.498954  1
  O  O26  1  0.181874  0.094767  0.627971  1
  O  O27  1  0.370045  0.659707  0.925378  1
  O  O28  1  0.301863  0.907325  0.539490  1
  O  O29  1  0.189823  0.600687  0.137881  1
  O  O30  1  0.349414  0.172545  0.399417  1
  O  O31  1  0.342929  0.407983  0.132696  1
  O  O32  1  0.497314  0.077069  0.769138  1
  O  O33  1  0.486330  0.396831  0.691547  1
  O  O34  1  0.513670  0.603169  0.308453  1
  O  O35  1  0.502686  0.922931  0.230862  1
  O  O36  1  0.657071  0.592017  0.867304  1
  O  O37  1  0.650586  0.827455  0.600583  1
  O  O38  1  0.810177  0.399313  0.862119  1
  O  O39  1  0.698137  0.092675  0.460510  1
  O  O40  1  0.629955  0.340293  0.074622  1
  O  O41  1  0.818126  0.905233  0.372029  1
  O  O42  1  0.771491  0.397455  0.501046  1
  O  O43  1  0.739174  0.850316  0.023046  1
  O  O44  1  0.937060  0.613412  0.656608  1
  O  O45  1  0.958578  0.038588  0.795232  1
  O  O46  1  0.794986  0.104474  0.076454  1
  O  O47  1  0.941412  0.621280  0.216205  1
