# generated using pymatgen
data_Li4Cr3CoO8
_symmetry_space_group_name_H-M   'P 1'
_cell_length_a   5.11337262
_cell_length_b   5.86083177
_cell_length_c   5.86285742
_cell_angle_alpha   120.01149184
_cell_angle_beta   90.00011511
_cell_angle_gamma   73.37159028
_symmetry_Int_Tables_number   1
_chemical_formula_structural   Li4Cr3CoO8
_chemical_formula_sum   'Li4 Cr3 Co1 O8'
_cell_volume   143.59650781
_cell_formula_units_Z   1
loop_
 _symmetry_equiv_pos_site_id
 _symmetry_equiv_pos_as_xyz
  1  'x, y, z'
loop_
 _atom_site_type_symbol
 _atom_site_label
 _atom_site_symmetry_multiplicity
 _atom_site_fract_x
 _atom_site_fract_y
 _atom_site_fract_z
 _atom_site_occupancy
  Li  Li0  1  0.009121  0.993410  0.496705  1
  Li  Li1  1  0.990879  0.006589  0.003295  1
  Li  Li2  1  1.000000  0.500000  0.495250  1
  Li  Li3  1  0.000000  0.500000  0.004750  1
  Cr  Cr4  1  0.500000  0.000000  0.750000  1
  Cr  Cr5  1  0.500000  0.000000  0.250000  1
  Cr  Cr6  1  0.500000  0.500000  0.750000  1
  Co  Co7  1  0.500000  0.500000  0.250000  1
  O  O8  1  0.273490  0.241647  0.620824  1
  O  O9  1  0.722460  0.262319  0.886152  1
  O  O10  1  0.278226  0.246864  0.123432  1
  O  O11  1  0.722460  0.262320  0.376168  1
  O  O12  1  0.277539  0.737681  0.613848  1
  O  O13  1  0.726510  0.758353  0.879177  1
  O  O14  1  0.277540  0.737680  0.123832  1
  O  O15  1  0.721773  0.753136  0.376568  1
