# generated using pymatgen
data_Co(BiO3)2
_symmetry_space_group_name_H-M   'P 1'
_cell_length_a   4.90629697
_cell_length_b   4.90629147
_cell_length_c   9.95029986
_cell_angle_alpha   90.00001665
_cell_angle_beta   90.00003802
_cell_angle_gamma   90.32764060
_symmetry_Int_Tables_number   1
_chemical_formula_structural   Co(BiO3)2
_chemical_formula_sum   'Co2 Bi4 O12'
_cell_volume   239.51694600
_cell_formula_units_Z   2
loop_
 _symmetry_equiv_pos_site_id
 _symmetry_equiv_pos_as_xyz
  1  'x, y, z'
loop_
 _atom_site_type_symbol
 _atom_site_label
 _atom_site_symmetry_multiplicity
 _atom_site_fract_x
 _atom_site_fract_y
 _atom_site_fract_z
 _atom_site_occupancy
  Co  Co0  1  1.000000  1.000000  0.000000  1
  Co  Co1  1  0.500000  0.500000  0.500000  1
  Bi  Bi2  1  0.999999  -0.000000  0.333861  1
  Bi  Bi3  1  -0.000000  0.000000  0.666140  1
  Bi  Bi4  1  0.500001  0.500002  0.167609  1
  Bi  Bi5  1  0.499998  0.499998  0.832391  1
  O  O6  1  0.203186  0.796814  0.500000  1
  O  O7  1  0.185038  0.814959  0.157328  1
  O  O8  1  0.185040  0.814962  0.842672  1
  O  O9  1  0.310517  0.310514  0.339965  1
  O  O10  1  0.310516  0.310516  0.660033  1
  O  O11  1  0.291091  0.291092  0.000000  1
  O  O12  1  0.708908  0.708908  -0.000000  1
  O  O13  1  0.689484  0.689485  0.339967  1
  O  O14  1  0.689484  0.689485  0.660035  1
  O  O15  1  0.814960  0.185038  0.157328  1
  O  O16  1  0.814963  0.185041  0.842672  1
  O  O17  1  0.796815  0.203186  0.500000  1
