# generated using pymatgen
data_LiNiPO4
_symmetry_space_group_name_H-M   'P 1'
_cell_length_a   8.48745547
_cell_length_b   7.69323179
_cell_length_c   15.25424460
_cell_angle_alpha   90.00000000
_cell_angle_beta   91.39115666
_cell_angle_gamma   90.00000000
_symmetry_Int_Tables_number   1
_chemical_formula_structural   LiNiPO4
_chemical_formula_sum   'Li12 Ni12 P12 O48'
_cell_volume   995.74699571
_cell_formula_units_Z   12
loop_
 _symmetry_equiv_pos_site_id
 _symmetry_equiv_pos_as_xyz
  1  'x, y, z'
loop_
 _atom_site_type_symbol
 _atom_site_label
 _atom_site_symmetry_multiplicity
 _atom_site_fract_x
 _atom_site_fract_y
 _atom_site_fract_z
 _atom_site_occupancy
  Li  Li0  1  0.213309  0.983342  0.936914  1
  Li  Li1  1  0.221424  0.031945  0.585775  1
  Li  Li2  1  0.257839  0.865058  0.243623  1
  Li  Li3  1  0.242161  0.365058  0.256377  1
  Li  Li4  1  0.278576  0.531945  0.914225  1
  Li  Li5  1  0.286691  0.483342  0.563086  1
  Li  Li6  1  0.713309  0.516658  0.436914  1
  Li  Li7  1  0.721424  0.468055  0.085775  1
  Li  Li8  1  0.757839  0.634942  0.743623  1
  Li  Li9  1  0.742161  0.134942  0.756377  1
  Li  Li10  1  0.778576  0.968055  0.414225  1
  Li  Li11  1  0.786691  0.016658  0.063086  1
  Ni  Ni12  1  0.052272  0.669753  0.401666  1
  Ni  Ni13  1  0.085852  0.827849  0.756770  1
  Ni  Ni14  1  0.080287  0.666711  0.081156  1
  Ni  Ni15  1  0.419713  0.166711  0.418844  1
  Ni  Ni16  1  0.414148  0.327849  0.743230  1
  Ni  Ni17  1  0.447728  0.169753  0.098334  1
  Ni  Ni18  1  0.552272  0.830247  0.901666  1
  Ni  Ni19  1  0.585852  0.672151  0.256770  1
  Ni  Ni20  1  0.580287  0.833289  0.581156  1
  Ni  Ni21  1  0.919713  0.333289  0.918844  1
  Ni  Ni22  1  0.914148  0.172151  0.243230  1
  Ni  Ni23  1  0.947728  0.330247  0.598334  1
  P  P24  1  0.059031  0.260703  0.412812  1
  P  P25  1  0.087097  0.223825  0.768765  1
  P  P26  1  0.103880  0.266456  0.075305  1
  P  P27  1  0.396120  0.766456  0.424695  1
  P  P28  1  0.412903  0.723825  0.731235  1
  P  P29  1  0.440969  0.760703  0.087188  1
  P  P30  1  0.559031  0.239297  0.912812  1
  P  P31  1  0.587097  0.276175  0.268765  1
  P  P32  1  0.603880  0.233544  0.575305  1
  P  P33  1  0.896120  0.733544  0.924695  1
  P  P34  1  0.912903  0.776175  0.231235  1
  P  P35  1  0.940969  0.739297  0.587188  1
  O  O36  1  0.033623  0.568049  0.604364  1
  O  O37  1  0.037091  0.888562  0.631812  1
  O  O38  1  0.058808  0.784260  0.966439  1
  O  O39  1  0.092252  0.050599  0.820825  1
  O  O40  1  0.104019  0.371967  0.837015  1
  O  O41  1  0.074286  0.759591  0.281282  1
  O  O42  1  0.084008  0.225141  0.511810  1
  O  O43  1  0.085116  0.280947  0.176046  1
  O  O44  1  0.159561  0.443840  0.038208  1
  O  O45  1  0.215128  0.228884  0.697597  1
  O  O46  1  0.223370  0.272144  0.370529  1
  O  O47  1  0.229959  0.131112  0.050220  1
  O  O48  1  0.270041  0.631112  0.449780  1
  O  O49  1  0.276630  0.772144  0.129471  1
  O  O50  1  0.284872  0.728884  0.802403  1
  O  O51  1  0.340439  0.943840  0.461792  1
  O  O52  1  0.414884  0.780947  0.323954  1
  O  O53  1  0.415992  0.725141  0.988190  1
  O  O54  1  0.395981  0.871967  0.662985  1
  O  O55  1  0.425714  0.259591  0.218718  1
  O  O56  1  0.407748  0.550599  0.679175  1
  O  O57  1  0.441192  0.284260  0.533561  1
  O  O58  1  0.462909  0.388562  0.868188  1
  O  O59  1  0.466377  0.068049  0.895636  1
  O  O60  1  0.533623  0.931951  0.104364  1
  O  O61  1  0.537091  0.611438  0.131812  1
  O  O62  1  0.558808  0.715740  0.466439  1
  O  O63  1  0.592252  0.449401  0.320825  1
  O  O64  1  0.574286  0.740409  0.781282  1
  O  O65  1  0.604019  0.128033  0.337015  1
  O  O66  1  0.584008  0.274859  0.011810  1
  O  O67  1  0.585116  0.219053  0.676046  1
  O  O68  1  0.659561  0.056160  0.538208  1
  O  O69  1  0.715128  0.271116  0.197597  1
  O  O70  1  0.723370  0.227856  0.870529  1
  O  O71  1  0.729959  0.368888  0.550220  1
  O  O72  1  0.770041  0.868888  0.949780  1
  O  O73  1  0.776630  0.727856  0.629471  1
  O  O74  1  0.784872  0.771116  0.302403  1
  O  O75  1  0.840439  0.556160  0.961792  1
  O  O76  1  0.914884  0.719053  0.823954  1
  O  O77  1  0.915992  0.774859  0.488190  1
  O  O78  1  0.925714  0.240409  0.718718  1
  O  O79  1  0.895981  0.628033  0.162985  1
  O  O80  1  0.907748  0.949401  0.179175  1
  O  O81  1  0.941192  0.215740  0.033561  1
  O  O82  1  0.962909  0.111438  0.368188  1
  O  O83  1  0.966377  0.431951  0.395636  1
