# generated using pymatgen
data_Li3MnFe2(BO3)3
_symmetry_space_group_name_H-M   'P 1'
_cell_length_a   8.26038176
_cell_length_b   8.26746528
_cell_length_c   6.28434299
_cell_angle_alpha   90.00000000
_cell_angle_beta   90.00000000
_cell_angle_gamma   120.02500005
_symmetry_Int_Tables_number   1
_chemical_formula_structural   Li3MnFe2(BO3)3
_chemical_formula_sum   'Li6 Mn2 Fe4 B6 O18'
_cell_volume   371.58104263
_cell_formula_units_Z   2
loop_
 _symmetry_equiv_pos_site_id
 _symmetry_equiv_pos_as_xyz
  1  'x, y, z'
loop_
 _atom_site_type_symbol
 _atom_site_label
 _atom_site_symmetry_multiplicity
 _atom_site_fract_x
 _atom_site_fract_y
 _atom_site_fract_z
 _atom_site_occupancy
  Li  Li0  1  0.285027  0.983791  0.251189  1
  Li  Li1  1  0.285027  0.983791  0.748811  1
  Li  Li2  1  0.016266  0.301455  0.250068  1
  Li  Li3  1  0.016266  0.301455  0.749932  1
  Li  Li4  1  0.698622  0.713722  0.749523  1
  Li  Li5  1  0.698622  0.713722  0.250477  1
  Mn  Mn6  1  0.371871  0.359919  0.000000  1
  Mn  Mn7  1  0.640514  0.012024  0.000000  1
  Fe  Fe8  1  0.366807  0.360558  0.500000  1
  Fe  Fe9  1  0.639464  0.006860  0.500000  1
  Fe  Fe10  1  0.992659  0.633866  0.000000  1
  Fe  Fe11  1  0.992726  0.632528  0.500000  1
  B  B12  1  0.997849  0.996964  0.000000  1
  B  B13  1  0.000571  0.000333  0.500000  1
  B  B14  1  0.332334  0.667118  0.253506  1
  B  B15  1  0.332334  0.667118  0.746494  1
  B  B16  1  0.668184  0.334095  0.253462  1
  B  B17  1  0.668184  0.334095  0.746538  1
  O  O18  1  0.107754  0.914306  0.500000  1
  O  O19  1  0.110783  0.915956  0.000000  1
  O  O20  1  0.138392  0.580306  0.250162  1
  O  O21  1  0.138392  0.580306  0.749838  1
  O  O22  1  0.078923  0.190106  0.000000  1
  O  O23  1  0.086953  0.194308  0.500000  1
  O  O24  1  0.439086  0.860036  0.254130  1
  O  O25  1  0.439086  0.860036  0.745870  1
  O  O26  1  0.418662  0.560209  0.253462  1
  O  O27  1  0.418662  0.560209  0.746538  1
  O  O28  1  0.474804  0.254299  0.254081  1
  O  O29  1  0.474804  0.254299  0.745919  1
  O  O30  1  0.804895  0.883705  0.000000  1
  O  O31  1  0.806565  0.893060  0.500000  1
  O  O32  1  0.782156  0.527286  0.251046  1
  O  O33  1  0.782156  0.527286  0.748954  1
  O  O34  1  0.747301  0.220436  0.746565  1
  O  O35  1  0.747301  0.220436  0.253435  1
