# generated using pymatgen
data_PH5(NO2)2
_symmetry_space_group_name_H-M   'P 1'
_cell_length_a   5.59869550
_cell_length_b   7.94288607
_cell_length_c   10.75854574
_cell_angle_alpha   90.00000000
_cell_angle_beta   90.00000000
_cell_angle_gamma   90.00000000
_symmetry_Int_Tables_number   1
_chemical_formula_structural   PH5(NO2)2
_chemical_formula_sum   'P4 H20 N8 O16'
_cell_volume   478.43038270
_cell_formula_units_Z   4
loop_
 _symmetry_equiv_pos_site_id
 _symmetry_equiv_pos_as_xyz
  1  'x, y, z'
loop_
 _atom_site_type_symbol
 _atom_site_label
 _atom_site_symmetry_multiplicity
 _atom_site_fract_x
 _atom_site_fract_y
 _atom_site_fract_z
 _atom_site_occupancy
  P  P0  1  0.908934  0.679012  0.342626  1
  P  P1  1  0.591066  0.320988  0.842626  1
  P  P2  1  0.408934  0.820988  0.657374  1
  P  P3  1  0.091066  0.179012  0.157374  1
  H  H4  1  0.328984  0.689240  0.187105  1
  H  H5  1  0.171016  0.310760  0.687105  1
  H  H6  1  0.828984  0.810760  0.812895  1
  H  H7  1  0.671016  0.189240  0.312895  1
  H  H8  1  0.522795  0.594794  0.090312  1
  H  H9  1  0.977205  0.405206  0.590312  1
  H  H10  1  0.022795  0.905206  0.909688  1
  H  H11  1  0.477205  0.094794  0.409688  1
  H  H12  1  0.644619  0.872059  0.178573  1
  H  H13  1  0.855381  0.127941  0.678573  1
  H  H14  1  0.144619  0.627941  0.821427  1
  H  H15  1  0.355381  0.372059  0.321427  1
  H  H16  1  0.434637  0.949571  0.076560  1
  H  H17  1  0.065363  0.050429  0.576560  1
  H  H18  1  0.934637  0.550429  0.923440  1
  H  H19  1  0.565363  0.449571  0.423440  1
  H  H20  1  0.675539  0.836980  0.022536  1
  H  H21  1  0.824461  0.163020  0.522536  1
  H  H22  1  0.175539  0.663020  0.977464  1
  H  H23  1  0.324461  0.336980  0.477464  1
  N  N24  1  0.410636  0.696215  0.100725  1
  N  N25  1  0.089364  0.303785  0.600725  1
  N  N26  1  0.910636  0.803785  0.899275  1
  N  N27  1  0.589364  0.196215  0.399275  1
  N  N28  1  0.549995  0.848415  0.095642  1
  N  N29  1  0.950005  0.151585  0.595642  1
  N  N30  1  0.049995  0.651585  0.904358  1
  N  N31  1  0.450005  0.348415  0.404358  1
  O  O32  1  0.183426  0.682411  0.350814  1
  O  O33  1  0.316574  0.317589  0.850814  1
  O  O34  1  0.683426  0.817589  0.649186  1
  O  O35  1  0.816574  0.182411  0.149186  1
  O  O36  1  0.796905  0.855319  0.327234  1
  O  O37  1  0.703095  0.144681  0.827234  1
  O  O38  1  0.296905  0.644681  0.672766  1
  O  O39  1  0.203095  0.355319  0.172766  1
  O  O40  1  0.847982  0.582321  0.220325  1
  O  O41  1  0.652018  0.417679  0.720325  1
  O  O42  1  0.347981  0.917679  0.779675  1
  O  O43  1  0.152019  0.082321  0.279675  1
  O  O44  1  0.797265  0.583760  0.452955  1
  O  O45  1  0.702735  0.416240  0.952955  1
  O  O46  1  0.297265  0.916240  0.547045  1
  O  O47  1  0.202735  0.083760  0.047045  1
