# generated using pymatgen
data_LiVSO4F3
_symmetry_space_group_name_H-M   'P 1'
_cell_length_a   7.16557380
_cell_length_b   10.26152715
_cell_length_c   7.87958996
_cell_angle_alpha   91.38083257
_cell_angle_beta   93.02513939
_cell_angle_gamma   88.91219140
_symmetry_Int_Tables_number   1
_chemical_formula_structural   LiVSO4F3
_chemical_formula_sum   'Li4 V4 S4 O16 F12'
_cell_volume   578.31767085
_cell_formula_units_Z   4
loop_
 _symmetry_equiv_pos_site_id
 _symmetry_equiv_pos_as_xyz
  1  'x, y, z'
loop_
 _atom_site_type_symbol
 _atom_site_label
 _atom_site_symmetry_multiplicity
 _atom_site_fract_x
 _atom_site_fract_y
 _atom_site_fract_z
 _atom_site_occupancy
  Li  Li0  1  0.194354  0.272715  0.888745  1
  Li  Li1  1  0.707910  0.257818  0.114818  1
  Li  Li2  1  0.866414  0.796362  0.585432  1
  Li  Li3  1  0.865737  0.718173  0.100173  1
  V  V4  1  0.001713  0.490074  0.505299  1
  V  V5  1  0.992094  0.998074  0.004137  1
  V  V6  1  0.501255  0.499932  0.500048  1
  V  V7  1  0.491573  0.991135  0.001310  1
  S  S8  1  0.220748  0.007814  0.673153  1
  S  S9  1  0.220872  0.509324  0.170064  1
  S  S10  1  0.764485  0.500344  0.840263  1
  S  S11  1  0.768955  0.009447  0.335833  1
  O  O12  1  0.098785  0.081223  0.806930  1
  O  O13  1  0.092763  0.437242  0.287757  1
  O  O14  1  0.113177  0.902773  0.594439  1
  O  O15  1  0.116182  0.618109  0.097175  1
  O  O16  1  0.298904  0.103008  0.569288  1
  O  O17  1  0.288109  0.411775  0.048635  1
  O  O18  1  0.382249  0.943923  0.784960  1
  O  O19  1  0.385215  0.560106  0.280100  1
  O  O20  1  0.600562  0.450510  0.726609  1
  O  O21  1  0.614242  0.067950  0.215613  1
  O  O22  1  0.700857  0.603541  0.954169  1
  O  O23  1  0.696745  0.910358  0.441734  1
  O  O24  1  0.848107  0.387318  0.927369  1
  O  O25  1  0.866398  0.116551  0.417628  1
  O  O26  1  0.901523  0.561283  0.722937  1
  O  O27  1  0.902496  0.932081  0.212806  1
  F  F28  1  0.991999  0.833618  0.913448  1
  F  F29  1  0.991756  0.663142  0.442698  1
  F  F30  1  0.258947  0.512704  0.599172  1
  F  F31  1  0.246572  0.987011  0.101095  1
  F  F32  1  0.456932  0.169110  0.955871  1
  F  F33  1  0.484906  0.334016  0.427344  1
  F  F34  1  0.562291  0.667053  0.548057  1
  F  F35  1  0.552670  0.833103  0.078040  1
  F  F36  1  0.736494  0.004441  0.899505  1
  F  F37  1  0.752731  0.478627  0.398911  1
  F  F38  1  0.010934  0.332948  0.596723  1
  F  F39  1  0.957208  0.166745  0.081089  1
