# generated using pymatgen
data_Li6V3P8O29
_symmetry_space_group_name_H-M   'P 1'
_cell_length_a   9.79637524
_cell_length_b   9.84014307
_cell_length_c   13.87473567
_cell_angle_alpha   89.97304668
_cell_angle_beta   90.25011258
_cell_angle_gamma   60.04784976
_symmetry_Int_Tables_number   1
_chemical_formula_structural   Li6V3P8O29
_chemical_formula_sum   'Li12 V6 P16 O58'
_cell_volume   1158.84461179
_cell_formula_units_Z   2
loop_
 _symmetry_equiv_pos_site_id
 _symmetry_equiv_pos_as_xyz
  1  'x, y, z'
loop_
 _atom_site_type_symbol
 _atom_site_label
 _atom_site_symmetry_multiplicity
 _atom_site_fract_x
 _atom_site_fract_y
 _atom_site_fract_z
 _atom_site_occupancy
  Li  Li0  1  0.772630  0.905688  0.557581  1
  Li  Li1  1  0.906852  0.321554  0.557644  1
  Li  Li2  1  0.668390  0.667554  0.885572  1
  Li  Li3  1  0.772639  0.319151  0.064640  1
  Li  Li4  1  0.319709  0.905395  0.064270  1
  Li  Li5  1  0.675325  0.227281  0.436361  1
  Li  Li6  1  0.320734  0.771962  0.558259  1
  Li  Li7  1  0.681087  0.091088  0.942284  1
  Li  Li8  1  0.223826  0.680275  0.944576  1
  Li  Li9  1  0.096567  0.674866  0.436003  1
  Li  Li10  1  0.228194  0.096711  0.436267  1
  Li  Li11  1  0.094392  0.226677  0.942919  1
  V  V12  1  0.566644  0.432520  0.249547  1
  V  V13  1  0.432800  0.564899  0.750473  1
  V  V14  1  0.569047  0.000078  0.748234  1
  V  V15  1  0.432790  0.001456  0.249923  1
  V  V16  1  0.998362  0.569823  0.245977  1
  V  V17  1  0.001925  0.435381  0.750352  1
  P  P18  1  0.913109  0.771078  0.842078  1
  P  P19  1  0.769606  0.912030  0.341780  1
  P  P20  1  0.913061  0.320193  0.341778  1
  P  P21  1  0.665454  0.666835  0.126344  1
  P  P22  1  0.666725  0.665963  0.626802  1
  P  P23  1  0.771919  0.317837  0.843047  1
  P  P24  1  0.680905  0.232300  0.657281  1
  P  P25  1  0.319354  0.909808  0.843545  1
  P  P26  1  0.680821  0.087838  0.156543  1
  P  P27  1  0.320719  0.768286  0.341934  1
  P  P28  1  0.229754  0.681597  0.158123  1
  P  P29  1  0.332398  0.333539  0.373996  1
  P  P30  1  0.335722  0.332689  0.873883  1
  P  P31  1  0.086035  0.682755  0.655593  1
  P  P32  1  0.230053  0.087057  0.657573  1
  P  P33  1  0.087458  0.231978  0.158077  1
  O  O34  1  0.997264  0.758999  0.564517  1
  O  O35  1  0.918063  0.748420  0.341821  1
  O  O36  1  0.754756  0.007356  0.065382  1
  O  O37  1  0.744058  0.919042  0.840411  1
  O  O38  1  0.889185  0.626756  0.827033  1
  O  O39  1  0.810738  0.670900  0.169505  1
  O  O40  1  0.905391  0.477726  0.325450  1
  O  O41  1  0.997678  0.242160  0.067635  1
  O  O42  1  0.921557  0.331976  0.843927  1
  O  O43  1  0.673431  0.812974  0.666342  1
  O  O44  1  0.619289  0.901834  0.325180  1
  O  O45  1  0.816165  0.513718  0.669459  1
  O  O46  1  0.663512  0.664765  0.017949  1
  O  O47  1  0.665276  0.663961  0.519518  1
  O  O48  1  0.673372  0.511652  0.164361  1
  O  O49  1  0.485630  0.887435  0.826346  1
  O  O50  1  0.511185  0.814014  0.163784  1
  O  O51  1  0.746697  0.337789  0.341222  1
  O  O52  1  0.790737  0.210393  0.750492  1
  O  O53  1  0.760091  0.242498  0.567296  1
  O  O54  1  0.755454  0.242084  0.932740  1
  O  O55  1  0.627473  0.484579  0.826170  1
  O  O56  1  0.515113  0.668799  0.669629  1
  O  O57  1  0.663462  0.254220  0.161083  1
  O  O58  1  0.479978  0.620317  0.324974  1
  O  O59  1  0.336271  0.917496  0.341198  1
  O  O60  1  0.790527  0.000301  0.249711  1
  O  O61  1  0.758353  0.001913  0.432094  1
  O  O62  1  0.244870  0.997106  0.567123  1
  O  O63  1  0.667094  0.082017  0.658165  1
  O  O64  1  0.520820  0.380373  0.673645  1
  O  O65  1  0.332799  0.746932  0.844221  1
  O  O66  1  0.487156  0.325292  0.333625  1
  O  O67  1  0.381533  0.522671  0.175363  1
  O  O68  1  0.242755  0.759128  0.068303  1
  O  O69  1  0.240612  0.759614  0.432158  1
  O  O70  1  0.209392  0.791881  0.249876  1
  O  O71  1  0.249839  0.668466  0.657776  1
  O  O72  1  0.485743  0.187411  0.833033  1
  O  O73  1  0.520262  0.099029  0.176256  1
  O  O74  1  0.331631  0.485748  0.831247  1
  O  O75  1  0.330774  0.337370  0.981007  1
  O  O76  1  0.333484  0.331409  0.481696  1
  O  O77  1  0.185258  0.487242  0.333126  1
  O  O78  1  0.383008  0.093574  0.677786  1
  O  O79  1  0.324128  0.187178  0.332975  1
  O  O80  1  0.085343  0.660610  0.160501  1
  O  O81  1  0.993025  0.793523  0.745984  1
  O  O82  1  0.007060  0.761837  0.927902  1
  O  O83  1  0.098157  0.522487  0.673687  1
  O  O84  1  0.183769  0.332670  0.831417  1
  O  O85  1  0.102811  0.377184  0.175495  1
  O  O86  1  0.251824  0.081469  0.158386  1
  O  O87  1  0.241139  0.002556  0.932628  1
  O  O88  1  0.210404  0.999107  0.750372  1
  O  O89  1  0.084272  0.251266  0.657394  1
  O  O90  1  0.001377  0.239114  0.432327  1
  O  O91  1  0.999478  0.208887  0.249975  1
