# generated using pymatgen
data_LiVSiO4
_symmetry_space_group_name_H-M   'P 1'
_cell_length_a   6.56103343
_cell_length_b   9.52252526
_cell_length_c   5.89647680
_cell_angle_alpha   93.69530154
_cell_angle_beta   100.85348538
_cell_angle_gamma   75.75055080
_symmetry_Int_Tables_number   1
_chemical_formula_structural   LiVSiO4
_chemical_formula_sum   'Li4 V4 Si4 O16'
_cell_volume   350.61276652
_cell_formula_units_Z   4
loop_
 _symmetry_equiv_pos_site_id
 _symmetry_equiv_pos_as_xyz
  1  'x, y, z'
loop_
 _atom_site_type_symbol
 _atom_site_label
 _atom_site_symmetry_multiplicity
 _atom_site_fract_x
 _atom_site_fract_y
 _atom_site_fract_z
 _atom_site_occupancy
  Li  Li0  1  0.158071  0.257655  0.585297  1
  Li  Li1  1  0.335764  0.672214  0.440906  1
  Li  Li2  1  0.664236  0.327786  0.559094  1
  Li  Li3  1  0.841929  0.742345  0.414703  1
  V  V4  1  0.070086  0.707949  0.988704  1
  V  V5  1  0.356932  0.925912  0.811336  1
  V  V6  1  0.643068  0.074088  0.188664  1
  V  V7  1  0.929914  0.292051  0.011296  1
  Si  Si8  1  0.288788  0.382055  0.149247  1
  Si  Si9  1  0.174675  0.998811  0.283224  1
  Si  Si10  1  0.825325  0.001189  0.716776  1
  Si  Si11  1  0.711212  0.617945  0.850753  1
  O  O12  1  0.267981  0.048290  0.546765  1
  O  O13  1  0.116181  0.353392  0.300870  1
  O  O14  1  0.177156  0.325940  0.894455  1
  O  O15  1  0.057520  0.886862  0.808710  1
  O  O16  1  0.344793  0.019171  0.115198  1
  O  O17  1  0.297227  0.552916  0.160236  1
  O  O18  1  0.160597  0.831162  0.277335  1
  O  O19  1  0.466021  0.716706  0.758824  1
  O  O20  1  0.533979  0.283294  0.241176  1
  O  O21  1  0.839403  0.168838  0.722665  1
  O  O22  1  0.702773  0.447084  0.839764  1
  O  O23  1  0.655207  0.980829  0.884802  1
  O  O24  1  0.942480  0.113138  0.191290  1
  O  O25  1  0.822844  0.674060  0.105545  1
  O  O26  1  0.883819  0.646608  0.699130  1
  O  O27  1  0.732019  0.951710  0.453235  1
