# generated using pymatgen
data_Li3MnB6O13
_symmetry_space_group_name_H-M   'P 1'
_cell_length_a   7.51783275
_cell_length_b   10.29388481
_cell_length_c   11.81842272
_cell_angle_alpha   90.00000000
_cell_angle_beta   90.00000000
_cell_angle_gamma   90.00000000
_symmetry_Int_Tables_number   1
_chemical_formula_structural   Li3MnB6O13
_chemical_formula_sum   'Li12 Mn4 B24 O52'
_cell_volume   914.60060333
_cell_formula_units_Z   4
loop_
 _symmetry_equiv_pos_site_id
 _symmetry_equiv_pos_as_xyz
  1  'x, y, z'
loop_
 _atom_site_type_symbol
 _atom_site_label
 _atom_site_symmetry_multiplicity
 _atom_site_fract_x
 _atom_site_fract_y
 _atom_site_fract_z
 _atom_site_occupancy
  Li  Li0  1  0.202231  0.495343  0.513147  1
  Li  Li1  1  0.232450  0.230250  0.759048  1
  Li  Li2  1  0.214603  0.759406  0.760440  1
  Li  Li3  1  0.285397  0.240594  0.260440  1
  Li  Li4  1  0.267550  0.769750  0.259048  1
  Li  Li5  1  0.297769  0.504657  0.013147  1
  Li  Li6  1  0.702231  0.004657  0.486853  1
  Li  Li7  1  0.732450  0.269750  0.240952  1
  Li  Li8  1  0.714603  0.740594  0.239560  1
  Li  Li9  1  0.785397  0.259406  0.739560  1
  Li  Li10  1  0.767550  0.730250  0.740952  1
  Li  Li11  1  0.797769  0.995343  0.986853  1
  Mn  Mn12  1  0.047254  0.516140  0.249259  1
  Mn  Mn13  1  0.452746  0.483860  0.749259  1
  Mn  Mn14  1  0.547254  0.983860  0.750741  1
  Mn  Mn15  1  0.952746  0.016140  0.250741  1
  B  B16  1  0.038734  0.128024  0.585210  1
  B  B17  1  0.033117  0.871729  0.584831  1
  B  B18  1  0.102548  0.501642  0.759269  1
  B  B19  1  0.196217  0.776521  0.003474  1
  B  B20  1  0.186429  0.219538  0.012777  1
  B  B21  1  0.229066  0.996576  0.437220  1
  B  B22  1  0.270934  0.003424  0.937220  1
  B  B23  1  0.313571  0.780462  0.512777  1
  B  B24  1  0.303783  0.223479  0.503474  1
  B  B25  1  0.397452  0.498358  0.259269  1
  B  B26  1  0.466883  0.128271  0.084831  1
  B  B27  1  0.461266  0.871976  0.085210  1
  B  B28  1  0.538734  0.371976  0.414790  1
  B  B29  1  0.533117  0.628271  0.415169  1
  B  B30  1  0.602548  0.998358  0.240731  1
  B  B31  1  0.696217  0.723479  0.996526  1
  B  B32  1  0.686429  0.280462  0.987223  1
  B  B33  1  0.729066  0.503424  0.562780  1
  B  B34  1  0.770934  0.496576  0.062780  1
  B  B35  1  0.813571  0.719538  0.487223  1
  B  B36  1  0.803783  0.276521  0.496526  1
  B  B37  1  0.897452  0.001642  0.740731  1
  B  B38  1  0.966883  0.371729  0.915169  1
  B  B39  1  0.961266  0.628024  0.914790  1
  O  O40  1  0.032075  0.672340  0.281954  1
  O  O41  1  0.045801  0.384467  0.801221  1
  O  O42  1  0.035689  0.616649  0.799694  1
  O  O43  1  0.083478  0.424865  0.363811  1
  O  O44  1  0.100101  0.664241  0.994883  1
  O  O45  1  0.109752  0.999579  0.543861  1
  O  O46  1  0.109867  0.337886  0.993149  1
  O  O47  1  0.133174  0.958730  0.333039  1
  O  O48  1  0.141740  0.108784  0.952956  1
  O  O49  1  0.177443  0.779669  0.591711  1
  O  O50  1  0.185772  0.218440  0.592448  1
  O  O51  1  0.189632  0.874472  0.923158  1
  O  O52  1  0.236094  0.504388  0.677828  1
  O  O53  1  0.263906  0.495612  0.177828  1
  O  O54  1  0.310368  0.125528  0.423158  1
  O  O55  1  0.314228  0.781560  0.092448  1
  O  O56  1  0.322557  0.220331  0.091711  1
  O  O57  1  0.358260  0.891216  0.452956  1
  O  O58  1  0.366826  0.041270  0.833039  1
  O  O59  1  0.390133  0.662114  0.493149  1
  O  O60  1  0.390248  0.000421  0.043861  1
  O  O61  1  0.399899  0.335759  0.494883  1
  O  O62  1  0.416522  0.575135  0.863811  1
  O  O63  1  0.464311  0.383351  0.299694  1
  O  O64  1  0.454199  0.615533  0.301221  1
  O  O65  1  0.467925  0.327660  0.781954  1
  O  O66  1  0.532075  0.827660  0.718046  1
  O  O67  1  0.545801  0.115533  0.198779  1
  O  O68  1  0.535689  0.883351  0.200306  1
  O  O69  1  0.583478  0.075135  0.636189  1
  O  O70  1  0.600101  0.835759  0.005117  1
  O  O71  1  0.609752  0.500421  0.456139  1
  O  O72  1  0.609867  0.162114  0.006851  1
  O  O73  1  0.633174  0.541270  0.666961  1
  O  O74  1  0.641740  0.391216  0.047044  1
  O  O75  1  0.677443  0.720331  0.408289  1
  O  O76  1  0.685772  0.281560  0.407552  1
  O  O77  1  0.689632  0.625528  0.076842  1
  O  O78  1  0.736094  0.995612  0.322172  1
  O  O79  1  0.763906  0.004388  0.822172  1
  O  O80  1  0.810368  0.374472  0.576842  1
  O  O81  1  0.814228  0.718440  0.907552  1
  O  O82  1  0.822557  0.279669  0.908289  1
  O  O83  1  0.858260  0.608784  0.547044  1
  O  O84  1  0.866826  0.458730  0.166961  1
  O  O85  1  0.890133  0.837886  0.506851  1
  O  O86  1  0.890248  0.499579  0.956139  1
  O  O87  1  0.899899  0.164241  0.505117  1
  O  O88  1  0.916522  0.924865  0.136189  1
  O  O89  1  0.964311  0.116649  0.700306  1
  O  O90  1  0.954199  0.884467  0.698779  1
  O  O91  1  0.967925  0.172340  0.218046  1
