# generated using pymatgen
data_H24PdC8(NCl2)2
_symmetry_space_group_name_H-M   'P 1'
_cell_length_a   8.98062200
_cell_length_b   8.98062200
_cell_length_c   11.59353873
_cell_angle_alpha   90.00000000
_cell_angle_beta   90.00000000
_cell_angle_gamma   90.00000000
_symmetry_Int_Tables_number   1
_chemical_formula_structural   H24PdC8(NCl2)2
_chemical_formula_sum   'H48 Pd2 C16 N4 Cl8'
_cell_volume   935.03711790
_cell_formula_units_Z   2
loop_
 _symmetry_equiv_pos_site_id
 _symmetry_equiv_pos_as_xyz
  1  'x, y, z'
loop_
 _atom_site_type_symbol
 _atom_site_label
 _atom_site_symmetry_multiplicity
 _atom_site_fract_x
 _atom_site_fract_y
 _atom_site_fract_z
 _atom_site_occupancy
  H  H0  1  0.024584  0.662183  0.118981  1
  H  H1  1  0.975416  0.337817  0.118981  1
  H  H2  1  0.475416  0.162183  0.618981  1
  H  H3  1  0.524584  0.837817  0.618981  1
  H  H4  1  0.975416  0.337817  0.881019  1
  H  H5  1  0.024584  0.662183  0.881019  1
  H  H6  1  0.524584  0.837817  0.381019  1
  H  H7  1  0.475416  0.162183  0.381019  1
  H  H8  1  0.662183  0.024584  0.118981  1
  H  H9  1  0.337817  0.975416  0.118981  1
  H  H10  1  0.162183  0.475416  0.618981  1
  H  H11  1  0.837817  0.524584  0.618981  1
  H  H12  1  0.337817  0.975416  0.881019  1
  H  H13  1  0.662183  0.024584  0.881019  1
  H  H14  1  0.837817  0.524584  0.381019  1
  H  H15  1  0.162183  0.475416  0.381019  1
  H  H16  1  0.844486  0.571610  0.124347  1
  H  H17  1  0.155514  0.428390  0.124347  1
  H  H18  1  0.655514  0.071610  0.624347  1
  H  H19  1  0.344486  0.928390  0.624347  1
  H  H20  1  0.155514  0.428390  0.875653  1
  H  H21  1  0.844486  0.571610  0.875653  1
  H  H22  1  0.344486  0.928390  0.375653  1
  H  H23  1  0.655514  0.071610  0.375653  1
  H  H24  1  0.571610  0.844486  0.124347  1
  H  H25  1  0.428390  0.155514  0.124347  1
  H  H26  1  0.071610  0.655514  0.624347  1
  H  H27  1  0.928390  0.344486  0.624347  1
  H  H28  1  0.428390  0.155514  0.875653  1
  H  H29  1  0.571610  0.844486  0.875653  1
  H  H30  1  0.928390  0.344486  0.375653  1
  H  H31  1  0.071610  0.655514  0.375653  1
  H  H32  1  0.895055  0.709904  0.230584  1
  H  H33  1  0.104945  0.290096  0.230584  1
  H  H34  1  0.604945  0.209904  0.730584  1
  H  H35  1  0.395055  0.790096  0.730584  1
  H  H36  1  0.104945  0.290096  0.769416  1
  H  H37  1  0.895055  0.709904  0.769416  1
  H  H38  1  0.395055  0.790096  0.269416  1
  H  H39  1  0.604945  0.209904  0.269416  1
  H  H40  1  0.709904  0.895055  0.230584  1
  H  H41  1  0.290096  0.104945  0.230584  1
  H  H42  1  0.209904  0.604945  0.730584  1
  H  H43  1  0.790096  0.395055  0.730584  1
  H  H44  1  0.290096  0.104945  0.769416  1
  H  H45  1  0.709904  0.895055  0.769416  1
  H  H46  1  0.790096  0.395055  0.269416  1
  H  H47  1  0.209904  0.604945  0.269416  1
  Pd  Pd48  1  0.500000  0.500000  0.000000  1
  Pd  Pd49  1  0.000000  0.000000  0.500000  1
  C  C50  1  0.935531  0.619996  0.175018  1
  C  C51  1  0.064469  0.380004  0.175018  1
  C  C52  1  0.564469  0.119996  0.675018  1
  C  C53  1  0.435531  0.880004  0.675018  1
  C  C54  1  0.064469  0.380004  0.824982  1
  C  C55  1  0.935531  0.619996  0.824982  1
  C  C56  1  0.435531  0.880004  0.324982  1
  C  C57  1  0.564469  0.119996  0.324982  1
  C  C58  1  0.619996  0.935531  0.175018  1
  C  C59  1  0.380004  0.064469  0.175018  1
  C  C60  1  0.119996  0.564469  0.675018  1
  C  C61  1  0.880004  0.435531  0.675018  1
  C  C62  1  0.380004  0.064469  0.824982  1
  C  C63  1  0.619996  0.935531  0.824982  1
  C  C64  1  0.880004  0.435531  0.324982  1
  C  C65  1  0.119996  0.564469  0.324982  1
  N  N66  1  0.000000  0.500000  0.250000  1
  N  N67  1  0.500000  0.000000  0.750000  1
  N  N68  1  0.000000  0.500000  0.750000  1
  N  N69  1  0.500000  0.000000  0.250000  1
  Cl  Cl70  1  0.500000  0.500000  0.799543  1
  Cl  Cl71  1  0.000000  0.000000  0.299543  1
  Cl  Cl72  1  0.500000  0.500000  0.200457  1
  Cl  Cl73  1  0.000000  0.000000  0.700457  1
  Cl  Cl74  1  0.315615  0.684385  0.000000  1
  Cl  Cl75  1  0.684385  0.315615  0.000000  1
  Cl  Cl76  1  0.184385  0.184385  0.500000  1
  Cl  Cl77  1  0.815615  0.815615  0.500000  1
