# generated using pymatgen
data_Sc2H6(SeO4)3
_symmetry_space_group_name_H-M   'P 1'
_cell_length_a   9.04317361
_cell_length_b   9.04317361
_cell_length_c   9.04317372
_cell_angle_alpha   65.94271186
_cell_angle_beta   65.94271186
_cell_angle_gamma   65.94271655
_symmetry_Int_Tables_number   1
_chemical_formula_structural   Sc2H6(SeO4)3
_chemical_formula_sum   'Sc4 H12 Se6 O24'
_cell_volume   590.22185642
_cell_formula_units_Z   2
loop_
 _symmetry_equiv_pos_site_id
 _symmetry_equiv_pos_as_xyz
  1  'x, y, z'
loop_
 _atom_site_type_symbol
 _atom_site_label
 _atom_site_symmetry_multiplicity
 _atom_site_fract_x
 _atom_site_fract_y
 _atom_site_fract_z
 _atom_site_occupancy
  Sc  Sc0  1  0.158203  0.158203  0.158203  1
  Sc  Sc1  1  0.392070  0.392070  0.392070  1
  Sc  Sc2  1  0.892070  0.892070  0.892070  1
  Sc  Sc3  1  0.658203  0.658203  0.658203  1
  H  H4  1  0.205885  0.921332  0.883739  1
  H  H5  1  0.244144  0.886091  0.712073  1
  H  H6  1  0.386091  0.744144  0.212073  1
  H  H7  1  0.421332  0.705885  0.383739  1
  H  H8  1  0.212073  0.386091  0.744144  1
  H  H9  1  0.383739  0.421332  0.705885  1
  H  H10  1  0.921332  0.883739  0.205885  1
  H  H11  1  0.886091  0.712073  0.244144  1
  H  H12  1  0.705885  0.383739  0.421332  1
  H  H13  1  0.712073  0.244144  0.886091  1
  H  H14  1  0.744144  0.212073  0.386091  1
  H  H15  1  0.883739  0.205885  0.921332  1
  Se  Se16  1  0.458741  0.998994  0.373487  1
  Se  Se17  1  0.498994  0.958741  0.873487  1
  Se  Se18  1  0.373487  0.458741  0.998994  1
  Se  Se19  1  0.958741  0.873487  0.498994  1
  Se  Se20  1  0.873487  0.498994  0.958741  1
  Se  Se21  1  0.998994  0.373487  0.458741  1
  O  O22  1  0.153367  0.909768  0.814111  1
  O  O23  1  0.306817  0.965190  0.032268  1
  O  O24  1  0.142527  0.484073  0.398620  1
  O  O25  1  0.465190  0.806817  0.532268  1
  O  O26  1  0.022731  0.354374  0.268614  1
  O  O27  1  0.032268  0.306817  0.965190  1
  O  O28  1  0.642527  0.898620  0.984073  1
  O  O29  1  0.522731  0.768614  0.854374  1
  O  O30  1  0.409768  0.653367  0.314111  1
  O  O31  1  0.314111  0.409768  0.653367  1
  O  O32  1  0.768614  0.854374  0.522731  1
  O  O33  1  0.898620  0.984073  0.642527  1
  O  O34  1  0.532268  0.465190  0.806817  1
  O  O35  1  0.484073  0.398620  0.142527  1
  O  O36  1  0.354374  0.268614  0.022731  1
  O  O37  1  0.909768  0.814111  0.153367  1
  O  O38  1  0.268614  0.022731  0.354374  1
  O  O39  1  0.398620  0.142527  0.484073  1
  O  O40  1  0.806817  0.532268  0.465190  1
  O  O41  1  0.653367  0.314111  0.409768  1
  O  O42  1  0.854374  0.522731  0.768614  1
  O  O43  1  0.984073  0.642527  0.898620  1
  O  O44  1  0.814111  0.153367  0.909768  1
  O  O45  1  0.965190  0.032268  0.306817  1
