# generated using pymatgen
data_Cu5Si4(HO7)2
_symmetry_space_group_name_H-M   'P 1'
_cell_length_a   10.50888316
_cell_length_b   21.27036039
_cell_length_c   5.33874920
_cell_angle_alpha   90.00000000
_cell_angle_beta   90.00000000
_cell_angle_gamma   90.00000000
_symmetry_Int_Tables_number   1
_chemical_formula_structural   Cu5Si4(HO7)2
_chemical_formula_sum   'Cu20 Si16 H8 O56'
_cell_volume   1193.35850098
_cell_formula_units_Z   4
loop_
 _symmetry_equiv_pos_site_id
 _symmetry_equiv_pos_as_xyz
  1  'x, y, z'
loop_
 _atom_site_type_symbol
 _atom_site_label
 _atom_site_symmetry_multiplicity
 _atom_site_fract_x
 _atom_site_fract_y
 _atom_site_fract_z
 _atom_site_occupancy
  Cu  Cu0  1  0.000000  0.500000  0.500000  1
  Cu  Cu1  1  0.500000  0.500000  0.000000  1
  Cu  Cu2  1  0.000000  0.000000  0.000000  1
  Cu  Cu3  1  0.500000  0.000000  0.500000  1
  Cu  Cu4  1  0.816991  0.528495  0.022422  1
  Cu  Cu5  1  0.316991  0.471505  0.477578  1
  Cu  Cu6  1  0.183008  0.971505  0.522422  1
  Cu  Cu7  1  0.683009  0.028495  0.977578  1
  Cu  Cu8  1  0.183008  0.471505  0.977578  1
  Cu  Cu9  1  0.683009  0.528495  0.522422  1
  Cu  Cu10  1  0.816991  0.028495  0.477578  1
  Cu  Cu11  1  0.316991  0.971505  0.022422  1
  Cu  Cu12  1  0.752317  0.219951  0.473679  1
  Cu  Cu13  1  0.252317  0.780049  0.026321  1
  Cu  Cu14  1  0.247683  0.280049  0.973679  1
  Cu  Cu15  1  0.747683  0.719951  0.526321  1
  Cu  Cu16  1  0.247683  0.780049  0.526321  1
  Cu  Cu17  1  0.747683  0.219951  0.973679  1
  Cu  Cu18  1  0.752317  0.719951  0.026321  1
  Cu  Cu19  1  0.252317  0.280049  0.473679  1
  Si  Si20  1  0.055132  0.367052  0.226229  1
  Si  Si21  1  0.555132  0.632948  0.273771  1
  Si  Si22  1  0.944868  0.132948  0.726229  1
  Si  Si23  1  0.444868  0.867052  0.773771  1
  Si  Si24  1  0.944868  0.632948  0.773771  1
  Si  Si25  1  0.444868  0.367052  0.726229  1
  Si  Si26  1  0.055132  0.867052  0.273771  1
  Si  Si27  1  0.555132  0.132948  0.226229  1
  Si  Si28  1  0.900584  0.339516  0.734529  1
  Si  Si29  1  0.400584  0.660484  0.765471  1
  Si  Si30  1  0.099416  0.160484  0.234529  1
  Si  Si31  1  0.599416  0.839516  0.265471  1
  Si  Si32  1  0.099416  0.660484  0.265471  1
  Si  Si33  1  0.599416  0.339516  0.234529  1
  Si  Si34  1  0.900584  0.839516  0.765471  1
  Si  Si35  1  0.400584  0.160484  0.734529  1
  H  H36  1  0.258159  0.081554  0.673098  1
  H  H37  1  0.758159  0.918446  0.826902  1
  H  H38  1  0.741841  0.418446  0.173098  1
  H  H39  1  0.241841  0.581554  0.326902  1
  H  H40  1  0.741841  0.918446  0.326902  1
  H  H41  1  0.241841  0.081554  0.173098  1
  H  H42  1  0.258159  0.581554  0.826902  1
  H  H43  1  0.758159  0.418446  0.673098  1
  O  O44  1  0.048289  0.444150  0.211722  1
  O  O45  1  0.548289  0.555850  0.288278  1
  O  O46  1  0.951711  0.055850  0.711722  1
  O  O47  1  0.451711  0.944150  0.788278  1
  O  O48  1  0.951711  0.555850  0.788278  1
  O  O49  1  0.451711  0.444150  0.711722  1
  O  O50  1  0.048289  0.944150  0.288278  1
  O  O51  1  0.548289  0.055850  0.211722  1
  O  O52  1  0.827396  0.406783  0.787741  1
  O  O53  1  0.327396  0.593217  0.712259  1
  O  O54  1  0.172604  0.093217  0.287741  1
  O  O55  1  0.672604  0.906783  0.212259  1
  O  O56  1  0.172604  0.593217  0.212259  1
  O  O57  1  0.672604  0.406783  0.287741  1
  O  O58  1  0.827396  0.906783  0.712259  1
  O  O59  1  0.327396  0.093217  0.787741  1
  O  O60  1  0.204005  0.342865  0.229635  1
  O  O61  1  0.704005  0.657135  0.270365  1
  O  O62  1  0.795995  0.157135  0.729635  1
  O  O63  1  0.295995  0.842865  0.770365  1
  O  O64  1  0.795995  0.657135  0.770365  1
  O  O65  1  0.295995  0.342865  0.729635  1
  O  O66  1  0.204005  0.842865  0.270365  1
  O  O67  1  0.704005  0.157135  0.229635  1
  O  O68  1  0.994783  0.332858  0.975980  1
  O  O69  1  0.494783  0.667142  0.524020  1
  O  O70  1  0.005217  0.167142  0.475980  1
  O  O71  1  0.505217  0.832858  0.024020  1
  O  O72  1  0.005217  0.667142  0.024020  1
  O  O73  1  0.505217  0.332858  0.475980  1
  O  O74  1  0.994783  0.832858  0.524020  1
  O  O75  1  0.494783  0.167142  0.975980  1
  O  O76  1  0.981473  0.340471  0.473925  1
  O  O77  1  0.481473  0.659529  0.026075  1
  O  O78  1  0.018527  0.159529  0.973925  1
  O  O79  1  0.518527  0.840471  0.526075  1
  O  O80  1  0.018527  0.659529  0.526075  1
  O  O81  1  0.518527  0.340471  0.973925  1
  O  O82  1  0.981473  0.840471  0.026075  1
  O  O83  1  0.481473  0.159529  0.473925  1
  O  O84  1  0.802736  0.280485  0.722730  1
  O  O85  1  0.302736  0.719515  0.777270  1
  O  O86  1  0.197264  0.219515  0.222730  1
  O  O87  1  0.697264  0.780485  0.277270  1
  O  O88  1  0.197264  0.719515  0.277270  1
  O  O89  1  0.697264  0.280485  0.222730  1
  O  O90  1  0.802736  0.780485  0.777270  1
  O  O91  1  0.302736  0.219515  0.722730  1
  O  O92  1  0.161849  0.485346  0.641337  1
  O  O93  1  0.661849  0.514654  0.858663  1
  O  O94  1  0.838151  0.014654  0.141337  1
  O  O95  1  0.338151  0.985346  0.358663  1
  O  O96  1  0.838151  0.514654  0.358663  1
  O  O97  1  0.338151  0.485346  0.141337  1
  O  O98  1  0.161849  0.985346  0.858663  1
  O  O99  1  0.661849  0.014654  0.641337  1
