# generated using pymatgen
data_Na4Co2O5
_symmetry_space_group_name_H-M   'P 1'
_cell_length_a   10.79080626
_cell_length_b   9.69830479
_cell_length_c   11.52112178
_cell_angle_alpha   90.00000000
_cell_angle_beta   91.78847926
_cell_angle_gamma   90.00000000
_symmetry_Int_Tables_number   1
_chemical_formula_structural   Na4Co2O5
_chemical_formula_sum   'Na32 Co16 O40'
_cell_volume   1205.12716341
_cell_formula_units_Z   8
loop_
 _symmetry_equiv_pos_site_id
 _symmetry_equiv_pos_as_xyz
  1  'x, y, z'
loop_
 _atom_site_type_symbol
 _atom_site_label
 _atom_site_symmetry_multiplicity
 _atom_site_fract_x
 _atom_site_fract_y
 _atom_site_fract_z
 _atom_site_occupancy
  Na  Na0  1  0.020538  0.666623  0.740822  1
  Na  Na1  1  0.020538  0.833377  0.240822  1
  Na  Na2  1  0.071909  0.870393  0.952991  1
  Na  Na3  1  0.099417  0.384505  0.946916  1
  Na  Na4  1  0.071909  0.629607  0.452991  1
  Na  Na5  1  0.099417  0.115495  0.446916  1
  Na  Na6  1  0.181843  0.412315  0.661020  1
  Na  Na7  1  0.181843  0.087685  0.161020  1
  Na  Na8  1  0.311917  0.638936  0.831852  1
  Na  Na9  1  0.311917  0.861064  0.331852  1
  Na  Na10  1  0.399305  0.127847  0.528401  1
  Na  Na11  1  0.399305  0.372153  0.028401  1
  Na  Na12  1  0.430722  0.628015  0.568867  1
  Na  Na13  1  0.430722  0.871985  0.068867  1
  Na  Na14  1  0.470731  0.907626  0.741346  1
  Na  Na15  1  0.529269  0.407626  0.758654  1
  Na  Na16  1  0.470731  0.592374  0.241346  1
  Na  Na17  1  0.529269  0.092374  0.258654  1
  Na  Na18  1  0.569277  0.128015  0.931133  1
  Na  Na19  1  0.569277  0.371985  0.431133  1
  Na  Na20  1  0.600695  0.627847  0.971599  1
  Na  Na21  1  0.600695  0.872153  0.471599  1
  Na  Na22  1  0.688083  0.138936  0.668148  1
  Na  Na23  1  0.688083  0.361064  0.168148  1
  Na  Na24  1  0.818157  0.912315  0.838980  1
  Na  Na25  1  0.818157  0.587685  0.338980  1
  Na  Na26  1  0.900583  0.884505  0.553084  1
  Na  Na27  1  0.928091  0.370393  0.547009  1
  Na  Na28  1  0.900583  0.615495  0.053084  1
  Na  Na29  1  0.928091  0.129607  0.047009  1
  Na  Na30  1  0.979462  0.166623  0.759178  1
  Na  Na31  1  0.979462  0.333377  0.259178  1
  Co  Co32  1  0.163666  0.973933  0.726698  1
  Co  Co33  1  0.163666  0.526067  0.226698  1
  Co  Co34  1  0.229585  0.819520  0.565593  1
  Co  Co35  1  0.229585  0.680480  0.065593  1
  Co  Co36  1  0.268282  0.067131  0.935760  1
  Co  Co37  1  0.268282  0.432869  0.435760  1
  Co  Co38  1  0.335270  0.216140  0.768903  1
  Co  Co39  1  0.335270  0.283860  0.268903  1
  Co  Co40  1  0.664730  0.716140  0.731097  1
  Co  Co41  1  0.664730  0.783860  0.231097  1
  Co  Co42  1  0.731718  0.567131  0.564240  1
  Co  Co43  1  0.731718  0.932869  0.064240  1
  Co  Co44  1  0.770415  0.319520  0.934407  1
  Co  Co45  1  0.770415  0.180480  0.434407  1
  Co  Co46  1  0.836334  0.473933  0.773302  1
  Co  Co47  1  0.836334  0.026067  0.273302  1
  O  O48  1  0.014810  0.908407  0.749215  1
  O  O49  1  0.014810  0.591593  0.249215  1
  O  O50  1  0.115453  0.631891  0.960347  1
  O  O51  1  0.114442  0.121659  0.953476  1
  O  O52  1  0.115453  0.868109  0.460347  1
  O  O53  1  0.114442  0.378341  0.453476  1
  O  O54  1  0.201176  0.141190  0.666823  1
  O  O55  1  0.208059  0.660132  0.637793  1
  O  O56  1  0.201176  0.358810  0.166823  1
  O  O57  1  0.208059  0.839868  0.137793  1
  O  O58  1  0.284001  0.910460  0.849220  1
  O  O59  1  0.306161  0.377669  0.831074  1
  O  O60  1  0.284001  0.589540  0.349220  1
  O  O61  1  0.306161  0.122331  0.331074  1
  O  O62  1  0.383398  0.874042  0.546077  1
  O  O63  1  0.384581  0.388770  0.537155  1
  O  O64  1  0.383398  0.625958  0.046077  1
  O  O65  1  0.384581  0.111230  0.037155  1
  O  O66  1  0.482567  0.151762  0.736608  1
  O  O67  1  0.482567  0.348238  0.236608  1
  O  O68  1  0.517433  0.651762  0.763392  1
  O  O69  1  0.517433  0.848238  0.263392  1
  O  O70  1  0.615419  0.888770  0.962845  1
  O  O71  1  0.616602  0.374042  0.953923  1
  O  O72  1  0.615419  0.611230  0.462845  1
  O  O73  1  0.616602  0.125958  0.453923  1
  O  O74  1  0.693839  0.877669  0.668926  1
  O  O75  1  0.715999  0.410460  0.650780  1
  O  O76  1  0.693839  0.622331  0.168926  1
  O  O77  1  0.715999  0.089540  0.150780  1
  O  O78  1  0.791941  0.160132  0.862207  1
  O  O79  1  0.798824  0.641190  0.833177  1
  O  O80  1  0.791941  0.339868  0.362207  1
  O  O81  1  0.798824  0.858810  0.333177  1
  O  O82  1  0.885558  0.621659  0.546524  1
  O  O83  1  0.884546  0.131891  0.539653  1
  O  O84  1  0.885558  0.878341  0.046524  1
  O  O85  1  0.884546  0.368109  0.039653  1
  O  O86  1  0.985190  0.408407  0.750785  1
  O  O87  1  0.985190  0.091593  0.250785  1
