# generated using pymatgen
data_LiSn(PO3)4
_symmetry_space_group_name_H-M   'P 1'
_cell_length_a   7.42294917
_cell_length_b   8.97902457
_cell_length_c   15.09832098
_cell_angle_alpha   90.00000000
_cell_angle_beta   94.49084305
_cell_angle_gamma   90.00000000
_symmetry_Int_Tables_number   1
_chemical_formula_structural   LiSn(PO3)4
_chemical_formula_sum   'Li4 Sn4 P16 O48'
_cell_volume   1003.22629064
_cell_formula_units_Z   4
loop_
 _symmetry_equiv_pos_site_id
 _symmetry_equiv_pos_as_xyz
  1  'x, y, z'
loop_
 _atom_site_type_symbol
 _atom_site_label
 _atom_site_symmetry_multiplicity
 _atom_site_fract_x
 _atom_site_fract_y
 _atom_site_fract_z
 _atom_site_occupancy
  Li  Li0  1  0.055193  0.575022  0.930045  1
  Li  Li1  1  0.444807  0.075022  0.569955  1
  Li  Li2  1  0.555193  0.924978  0.430045  1
  Li  Li3  1  0.944807  0.424978  0.069955  1
  Sn  Sn4  1  0.042290  0.658606  0.357593  1
  Sn  Sn5  1  0.542290  0.841394  0.857593  1
  Sn  Sn6  1  0.457710  0.158606  0.142407  1
  Sn  Sn7  1  0.957710  0.341394  0.642407  1
  P  P8  1  0.069248  0.269190  0.427041  1
  P  P9  1  0.133386  0.054797  0.780901  1
  P  P10  1  0.173432  0.230243  0.950110  1
  P  P11  1  0.214832  0.029471  0.310120  1
  P  P12  1  0.326568  0.730243  0.549890  1
  P  P13  1  0.366614  0.554797  0.719099  1
  P  P14  1  0.285168  0.529471  0.189880  1
  P  P15  1  0.569248  0.230810  0.927041  1
  P  P16  1  0.430752  0.769190  0.072959  1
  P  P17  1  0.714832  0.470529  0.810120  1
  P  P18  1  0.633386  0.445203  0.280901  1
  P  P19  1  0.673432  0.269757  0.450110  1
  P  P20  1  0.785168  0.970529  0.689880  1
  P  P21  1  0.826568  0.769757  0.049890  1
  P  P22  1  0.866614  0.945203  0.219099  1
  P  P23  1  0.930752  0.730810  0.572959  1
  O  O24  1  0.063295  0.368021  0.963745  1
  O  O25  1  0.075085  0.144373  0.866261  1
  O  O26  1  0.045067  0.047747  0.238090  1
  O  O27  1  0.122604  0.282091  0.526017  1
  O  O28  1  0.148511  0.156413  0.701999  1
  O  O29  1  0.140026  0.783156  0.588490  1
  O  O30  1  0.110114  0.395851  0.367736  1
  O  O31  1  0.210447  0.454926  0.694597  1
  O  O32  1  0.157990  0.115633  0.397305  1
  O  O33  1  0.130041  0.613035  0.225628  1
  O  O34  1  0.289553  0.954926  0.805403  1
  O  O35  1  0.251808  0.871801  0.339950  1
  O  O36  1  0.288612  0.626967  0.472280  1
  O  O37  1  0.359974  0.283156  0.911510  1
  O  O38  1  0.351489  0.656413  0.798001  1
  O  O39  1  0.377396  0.782091  0.973983  1
  O  O40  1  0.211388  0.126967  0.027720  1
  O  O41  1  0.248192  0.371801  0.160050  1
  O  O42  1  0.424915  0.644373  0.633739  1
  O  O43  1  0.369959  0.113035  0.274372  1
  O  O44  1  0.436705  0.868021  0.536255  1
  O  O45  1  0.342010  0.615633  0.102694  1
  O  O46  1  0.545067  0.452253  0.738090  1
  O  O47  1  0.389886  0.895851  0.132264  1
  O  O48  1  0.610114  0.104149  0.867736  1
  O  O49  1  0.454933  0.547747  0.261910  1
  O  O50  1  0.657990  0.384367  0.897305  1
  O  O51  1  0.563295  0.131979  0.463745  1
  O  O52  1  0.630041  0.886965  0.725628  1
  O  O53  1  0.575085  0.355627  0.366261  1
  O  O54  1  0.751808  0.628199  0.839950  1
  O  O55  1  0.788612  0.873033  0.972280  1
  O  O56  1  0.622604  0.217909  0.026017  1
  O  O57  1  0.648511  0.343587  0.201999  1
  O  O58  1  0.640026  0.716844  0.088490  1
  O  O59  1  0.711388  0.373033  0.527720  1
  O  O60  1  0.748192  0.128199  0.660050  1
  O  O61  1  0.710447  0.045074  0.194597  1
  O  O62  1  0.869959  0.386965  0.774372  1
  O  O63  1  0.842010  0.884367  0.602695  1
  O  O64  1  0.789553  0.545074  0.305403  1
  O  O65  1  0.889886  0.604149  0.632264  1
  O  O66  1  0.859974  0.216844  0.411510  1
  O  O67  1  0.851489  0.843587  0.298001  1
  O  O68  1  0.877396  0.717909  0.473983  1
  O  O69  1  0.954933  0.952253  0.761910  1
  O  O70  1  0.924915  0.855627  0.133739  1
  O  O71  1  0.936705  0.631979  0.036255  1
