# generated using pymatgen
data_Mn3Cu2Sn(PO4)6
_symmetry_space_group_name_H-M   'P 1'
_cell_length_a   8.60244206
_cell_length_b   8.60244163
_cell_length_c   8.60244223
_cell_angle_alpha   59.62346412
_cell_angle_beta   59.62345997
_cell_angle_gamma   59.62346486
_symmetry_Int_Tables_number   1
_chemical_formula_structural   Mn3Cu2Sn(PO4)6
_chemical_formula_sum   'Mn3 Cu2 Sn1 P6 O24'
_cell_volume   446.29086719
_cell_formula_units_Z   1
loop_
 _symmetry_equiv_pos_site_id
 _symmetry_equiv_pos_as_xyz
  1  'x, y, z'
loop_
 _atom_site_type_symbol
 _atom_site_label
 _atom_site_symmetry_multiplicity
 _atom_site_fract_x
 _atom_site_fract_y
 _atom_site_fract_z
 _atom_site_occupancy
  Mn  Mn0  1  0.143266  0.143266  0.143266  1
  Mn  Mn1  1  0.357238  0.357238  0.357238  1
  Mn  Mn2  1  0.642607  0.642607  0.642607  1
  Cu  Cu3  1  0.002444  0.002444  0.002444  1
  Cu  Cu4  1  0.499495  0.499495  0.499495  1
  Sn  Sn5  1  0.857284  0.857284  0.857284  1
  P  P6  1  0.747388  0.452541  0.043459  1
  P  P7  1  0.043459  0.747388  0.452541  1
  P  P8  1  0.452541  0.043459  0.747388  1
  P  P9  1  0.254971  0.535806  0.962328  1
  P  P10  1  0.535806  0.962328  0.254971  1
  P  P11  1  0.962328  0.254971  0.535806  1
  O  O12  1  0.124002  0.309704  0.502006  1
  O  O13  1  0.309704  0.502006  0.124002  1
  O  O14  1  0.059439  0.916037  0.258669  1
  O  O15  1  0.502006  0.124002  0.309704  1
  O  O16  1  0.019824  0.800418  0.611079  1
  O  O17  1  0.240306  0.578490  0.437297  1
  O  O18  1  0.258669  0.059439  0.916037  1
  O  O19  1  0.437297  0.240306  0.578490  1
  O  O20  1  0.195592  0.380602  0.991934  1
  O  O21  1  0.578490  0.437297  0.240306  1
  O  O22  1  0.089000  0.734762  0.947644  1
  O  O23  1  0.380602  0.991934  0.195592  1
  O  O24  1  0.611079  0.019824  0.800418  1
  O  O25  1  0.916037  0.258669  0.059439  1
  O  O26  1  0.420991  0.552156  0.765255  1
  O  O27  1  0.800418  0.611079  0.019824  1
  O  O28  1  0.552156  0.765255  0.420991  1
  O  O29  1  0.734762  0.947644  0.089000  1
  O  O30  1  0.765255  0.420991  0.552156  1
  O  O31  1  0.991934  0.195592  0.380602  1
  O  O32  1  0.489887  0.879555  0.696521  1
  O  O33  1  0.947644  0.089000  0.734762  1
  O  O34  1  0.696521  0.489887  0.879555  1
  O  O35  1  0.879555  0.696521  0.489887  1
