# generated using pymatgen
data_Cs3NO4
_symmetry_space_group_name_H-M   'P 1'
_cell_length_a   10.88634967
_cell_length_b   11.93213728
_cell_length_c   11.05329364
_cell_angle_alpha   90.00000000
_cell_angle_beta   90.00000000
_cell_angle_gamma   90.00000000
_symmetry_Int_Tables_number   1
_chemical_formula_structural   Cs3NO4
_chemical_formula_sum   'Cs24 N8 O32'
_cell_volume   1435.79431242
_cell_formula_units_Z   8
loop_
 _symmetry_equiv_pos_site_id
 _symmetry_equiv_pos_as_xyz
  1  'x, y, z'
loop_
 _atom_site_type_symbol
 _atom_site_label
 _atom_site_symmetry_multiplicity
 _atom_site_fract_x
 _atom_site_fract_y
 _atom_site_fract_z
 _atom_site_occupancy
  Cs  Cs0  1  0.049195  0.891834  0.120943  1
  Cs  Cs1  1  0.049195  0.608166  0.620943  1
  Cs  Cs2  1  0.116644  0.149617  0.540278  1
  Cs  Cs3  1  0.116644  0.350383  0.040278  1
  Cs  Cs4  1  0.191694  0.612815  0.241174  1
  Cs  Cs5  1  0.191694  0.887185  0.741174  1
  Cs  Cs6  1  0.308306  0.112815  0.241174  1
  Cs  Cs7  1  0.308306  0.387185  0.741174  1
  Cs  Cs8  1  0.383356  0.850383  0.040278  1
  Cs  Cs9  1  0.383356  0.649617  0.540278  1
  Cs  Cs10  1  0.450805  0.108166  0.620943  1
  Cs  Cs11  1  0.450805  0.391834  0.120943  1
  Cs  Cs12  1  0.549195  0.608166  0.879057  1
  Cs  Cs13  1  0.549195  0.891834  0.379057  1
  Cs  Cs14  1  0.616644  0.350383  0.459722  1
  Cs  Cs15  1  0.616644  0.149617  0.959722  1
  Cs  Cs16  1  0.691694  0.612815  0.258827  1
  Cs  Cs17  1  0.691694  0.887185  0.758826  1
  Cs  Cs18  1  0.808306  0.112815  0.258827  1
  Cs  Cs19  1  0.808306  0.387185  0.758826  1
  Cs  Cs20  1  0.883356  0.649617  0.959722  1
  Cs  Cs21  1  0.883356  0.850383  0.459722  1
  Cs  Cs22  1  0.950805  0.108166  0.879057  1
  Cs  Cs23  1  0.950805  0.391834  0.379057  1
  N  N24  1  0.211703  0.619013  0.901831  1
  N  N25  1  0.211703  0.880987  0.401831  1
  N  N26  1  0.288297  0.119013  0.901831  1
  N  N27  1  0.288297  0.380987  0.401831  1
  N  N28  1  0.711703  0.619013  0.598169  1
  N  N29  1  0.711703  0.880987  0.098169  1
  N  N30  1  0.788297  0.119013  0.598169  1
  N  N31  1  0.788297  0.380987  0.098169  1
  O  O32  1  0.123919  0.959768  0.365231  1
  O  O33  1  0.123919  0.540232  0.865231  1
  O  O34  1  0.152635  0.712169  0.952810  1
  O  O35  1  0.152635  0.787831  0.452810  1
  O  O36  1  0.208418  0.069799  0.986718  1
  O  O37  1  0.208418  0.430201  0.486718  1
  O  O38  1  0.218767  0.153582  0.800026  1
  O  O39  1  0.218767  0.346418  0.300026  1
  O  O40  1  0.281233  0.846418  0.300026  1
  O  O41  1  0.281233  0.653582  0.800026  1
  O  O42  1  0.291582  0.569799  0.986718  1
  O  O43  1  0.291582  0.930201  0.486718  1
  O  O44  1  0.347365  0.212169  0.952810  1
  O  O45  1  0.347365  0.287831  0.452810  1
  O  O46  1  0.376081  0.459768  0.365231  1
  O  O47  1  0.376081  0.040232  0.865231  1
  O  O48  1  0.623919  0.540232  0.634769  1
  O  O49  1  0.623919  0.959768  0.134769  1
  O  O50  1  0.652635  0.712169  0.547190  1
  O  O51  1  0.652635  0.787831  0.047190  1
  O  O52  1  0.708418  0.069799  0.513282  1
  O  O53  1  0.708418  0.430201  0.013282  1
  O  O54  1  0.718767  0.346418  0.199974  1
  O  O55  1  0.718767  0.153582  0.699974  1
  O  O56  1  0.781233  0.846418  0.199974  1
  O  O57  1  0.781233  0.653582  0.699974  1
  O  O58  1  0.791582  0.569799  0.513282  1
  O  O59  1  0.791582  0.930201  0.013282  1
  O  O60  1  0.847365  0.212169  0.547190  1
  O  O61  1  0.847365  0.287831  0.047190  1
  O  O62  1  0.876081  0.040232  0.634769  1
  O  O63  1  0.876081  0.459768  0.134769  1
