# generated using pymatgen
data_Tb2Pb2O7
_symmetry_space_group_name_H-M   'P 1'
_cell_length_a   7.38784481
_cell_length_b   7.38741070
_cell_length_c   12.90419485
_cell_angle_alpha   89.99836019
_cell_angle_beta   90.00706732
_cell_angle_gamma   90.00279441
_symmetry_Int_Tables_number   1
_chemical_formula_structural   Tb2Pb2O7
_chemical_formula_sum   'Tb8 Pb8 O28'
_cell_volume   704.27280074
_cell_formula_units_Z   4
loop_
 _symmetry_equiv_pos_site_id
 _symmetry_equiv_pos_as_xyz
  1  'x, y, z'
loop_
 _atom_site_type_symbol
 _atom_site_label
 _atom_site_symmetry_multiplicity
 _atom_site_fract_x
 _atom_site_fract_y
 _atom_site_fract_z
 _atom_site_occupancy
  Tb  Tb0  1  0.143077  0.624658  0.139356  1
  Tb  Tb1  1  0.124728  0.356835  0.889339  1
  Tb  Tb2  1  0.375304  0.856913  0.360649  1
  Tb  Tb3  1  0.356917  0.124715  0.110640  1
  Tb  Tb4  1  0.643108  0.875340  0.610670  1
  Tb  Tb5  1  0.624629  0.143115  0.860653  1
  Tb  Tb6  1  0.875329  0.643110  0.389346  1
  Tb  Tb7  1  0.856909  0.375297  0.639361  1
  Pb  Pb8  1  0.112289  0.874256  0.598489  1
  Pb  Pb9  1  0.125653  0.887681  0.901457  1
  Pb  Pb10  1  0.374384  0.387718  0.348524  1
  Pb  Pb11  1  0.387700  0.374428  0.651444  1
  Pb  Pb12  1  0.612267  0.625711  0.151474  1
  Pb  Pb13  1  0.625779  0.612253  0.848514  1
  Pb  Pb14  1  0.874213  0.112266  0.401509  1
  Pb  Pb15  1  0.887757  0.125675  0.098526  1
  O  O16  1  0.069633  0.903930  0.411107  1
  O  O17  1  0.095658  0.325059  0.075302  1
  O  O18  1  0.096132  0.930356  0.088852  1
  O  O19  1  0.169503  0.629834  0.961756  1
  O  O20  1  0.174974  0.595580  0.325334  1
  O  O21  1  0.129918  0.330450  0.711749  1
  O  O22  1  0.199129  0.800810  0.749983  1
  O  O23  1  0.300816  0.300840  0.499987  1
  O  O24  1  0.370135  0.830420  0.538243  1
  O  O25  1  0.325084  0.095558  0.924684  1
  O  O26  1  0.330459  0.129886  0.288236  1
  O  O27  1  0.403878  0.430332  0.161107  1
  O  O28  1  0.404332  0.825008  0.174702  1
  O  O29  1  0.430361  0.403920  0.838889  1
  O  O30  1  0.569693  0.596160  0.338925  1
  O  O31  1  0.595596  0.174991  0.674695  1
  O  O32  1  0.596150  0.569707  0.661137  1
  O  O33  1  0.669475  0.870143  0.788254  1
  O  O34  1  0.674889  0.904368  0.424697  1
  O  O35  1  0.629918  0.169551  0.038257  1
  O  O36  1  0.699135  0.699170  0.000005  1
  O  O37  1  0.800912  0.199159  0.250001  1
  O  O38  1  0.870113  0.669581  0.211779  1
  O  O39  1  0.825084  0.404355  0.825290  1
  O  O40  1  0.830470  0.370131  0.461760  1
  O  O41  1  0.903919  0.069637  0.588905  1
  O  O42  1  0.904355  0.674913  0.575307  1
  O  O43  1  0.930342  0.096082  0.911109  1
