# generated using pymatgen
data_Na4Bi2C4SO16
_symmetry_space_group_name_H-M   'P 1'
_cell_length_a   10.52422449
_cell_length_b   10.19810648
_cell_length_c   10.52422427
_cell_angle_alpha   61.58215260
_cell_angle_beta   94.45621639
_cell_angle_gamma   61.58215187
_symmetry_Int_Tables_number   1
_chemical_formula_structural   Na4Bi2C4SO16
_chemical_formula_sum   'Na8 Bi4 C8 S2 O32'
_cell_volume   803.33005991
_cell_formula_units_Z   2
loop_
 _symmetry_equiv_pos_site_id
 _symmetry_equiv_pos_as_xyz
  1  'x, y, z'
loop_
 _atom_site_type_symbol
 _atom_site_label
 _atom_site_symmetry_multiplicity
 _atom_site_fract_x
 _atom_site_fract_y
 _atom_site_fract_z
 _atom_site_occupancy
  Na  Na0  1  0.075239  0.849523  0.825239  1
  Na  Na1  1  0.076708  0.250000  0.826708  1
  Na  Na2  1  0.326708  0.750000  0.576708  1
  Na  Na3  1  0.325239  0.349523  0.575239  1
  Na  Na4  1  0.674761  0.650477  0.424761  1
  Na  Na5  1  0.673292  0.250000  0.423292  1
  Na  Na6  1  0.923292  0.750000  0.173292  1
  Na  Na7  1  0.924761  0.150477  0.174761  1
  Bi  Bi8  1  0.000000  0.500000  0.000000  1
  Bi  Bi9  1  0.500000  0.000000  0.500000  1
  Bi  Bi10  1  0.500000  0.500000  0.000000  1
  Bi  Bi11  1  0.500000  0.000000  0.000000  1
  C  C12  1  0.337916  0.944282  0.768623  1
  C  C13  1  0.268623  0.444282  0.837916  1
  C  C14  1  0.717801  0.944282  0.787096  1
  C  C15  1  0.712904  0.555718  0.782199  1
  C  C16  1  0.287096  0.444282  0.217801  1
  C  C17  1  0.282199  0.055718  0.212904  1
  C  C18  1  0.731377  0.555718  0.162084  1
  C  C19  1  0.662084  0.055718  0.231377  1
  S  S20  1  0.125000  0.750000  0.375000  1
  S  S21  1  0.875000  0.250000  0.625000  1
  O  O22  1  0.330317  0.821146  0.881902  1
  O  O23  1  0.071663  0.871046  0.430083  1
  O  O24  1  0.350385  0.941924  0.648175  1
  O  O25  1  0.148175  0.441924  0.850385  1
  O  O26  1  0.707692  0.941924  0.909903  1
  O  O27  1  0.277225  0.570652  0.832248  1
  O  O28  1  0.057291  0.871046  0.198871  1
  O  O29  1  0.069917  0.628954  0.428337  1
  O  O30  1  0.402901  0.929348  0.347876  1
  O  O31  1  0.590097  0.558076  0.792308  1
  O  O32  1  0.381902  0.321146  0.830317  1
  O  O33  1  0.301129  0.628954  0.442709  1
  O  O34  1  0.848538  0.821146  0.796951  1
  O  O35  1  0.703049  0.678854  0.651462  1
  O  O36  1  0.332248  0.070652  0.777225  1
  O  O37  1  0.152124  0.570652  0.097099  1
  O  O38  1  0.847876  0.429348  0.902901  1
  O  O39  1  0.667752  0.929348  0.222775  1
  O  O40  1  0.296951  0.321146  0.348538  1
  O  O41  1  0.151462  0.178854  0.203049  1
  O  O42  1  0.698871  0.371046  0.557291  1
  O  O43  1  0.618098  0.678854  0.169683  1
  O  O44  1  0.409903  0.441924  0.207692  1
  O  O45  1  0.597099  0.070652  0.652124  1
  O  O46  1  0.930083  0.371046  0.571663  1
  O  O47  1  0.942709  0.128954  0.801129  1
  O  O48  1  0.722775  0.429348  0.167751  1
  O  O49  1  0.292308  0.058076  0.090097  1
  O  O50  1  0.851825  0.558076  0.149615  1
  O  O51  1  0.649615  0.058076  0.351825  1
  O  O52  1  0.928337  0.128954  0.569917  1
  O  O53  1  0.669683  0.178854  0.118098  1
