# generated using pymatgen
data_LiVP2O7
_symmetry_space_group_name_H-M   'P 1'
_cell_length_a   6.30171645
_cell_length_b   6.31232118
_cell_length_c   13.86597933
_cell_angle_alpha   76.17434740
_cell_angle_beta   81.61990380
_cell_angle_gamma   98.92891079
_symmetry_Int_Tables_number   1
_chemical_formula_structural   LiVP2O7
_chemical_formula_sum   'Li4 V4 P8 O28'
_cell_volume   519.39760892
_cell_formula_units_Z   4
loop_
 _symmetry_equiv_pos_site_id
 _symmetry_equiv_pos_as_xyz
  1  'x, y, z'
loop_
 _atom_site_type_symbol
 _atom_site_label
 _atom_site_symmetry_multiplicity
 _atom_site_fract_x
 _atom_site_fract_y
 _atom_site_fract_z
 _atom_site_occupancy
  Li  Li0  1  0.210397  0.618376  0.665465  1
  Li  Li1  1  0.785707  0.872996  0.835198  1
  Li  Li2  1  0.214058  0.125751  0.164934  1
  Li  Li3  1  0.790875  0.381701  0.334993  1
  V  V4  1  0.409771  0.991502  0.357393  1
  V  V5  1  0.153107  0.232011  0.856502  1
  V  V6  1  0.845515  0.766260  0.143819  1
  V  V7  1  0.590191  0.007657  0.643524  1
  P  P8  1  0.276744  0.765227  0.862918  1
  P  P9  1  0.344229  0.674965  0.085346  1
  P  P10  1  0.261324  0.431425  0.414573  1
  P  P11  1  0.870238  0.858674  0.363745  1
  P  P12  1  0.129357  0.139906  0.637000  1
  P  P13  1  0.740412  0.569001  0.586117  1
  P  P14  1  0.655612  0.324398  0.914851  1
  P  P15  1  0.721847  0.233377  0.137255  1
  O  O16  1  0.092002  0.892404  0.878673  1
  O  O17  1  0.172671  0.821083  0.108187  1
  O  O18  1  0.272899  0.971546  0.620675  1
  O  O19  1  0.486176  0.914920  0.789233  1
  O  O20  1  0.084159  0.429017  0.355045  1
  O  O21  1  0.202286  0.565947  0.823732  1
  O  O22  1  0.352499  0.679696  0.966376  1
  O  O23  1  0.380806  0.665038  0.414610  1
  O  O24  1  0.577272  0.796548  0.085903  1
  O  O25  1  0.284626  0.438313  0.144395  1
  O  O26  1  0.145829  0.318473  0.533464  1
  O  O27  1  0.569140  0.716036  0.608146  1
  O  O28  1  0.891167  0.025596  0.677008  1
  O  O29  1  0.206153  0.275648  0.710522  1
  O  O30  1  0.792887  0.724562  0.289735  1
  O  O31  1  0.108728  0.973563  0.323612  1
  O  O32  1  0.432539  0.284844  0.391678  1
  O  O33  1  0.854954  0.678645  0.466731  1
  O  O34  1  0.717607  0.560779  0.855875  1
  O  O35  1  0.422810  0.204057  0.913215  1
  O  O36  1  0.620660  0.334324  0.587770  1
  O  O37  1  0.644934  0.319660  0.034081  1
  O  O38  1  0.797358  0.431903  0.176700  1
  O  O39  1  0.918215  0.574323  0.645110  1
  O  O40  1  0.513198  0.083060  0.211381  1
  O  O41  1  0.726952  0.026652  0.380824  1
  O  O42  1  0.826320  0.176809  0.892920  1
  O  O43  1  0.906596  0.106328  0.120525  1
