# generated using pymatgen
data_Hf2N2O
_symmetry_space_group_name_H-M   'P 1'
_cell_length_a   8.72698142
_cell_length_b   8.72707336
_cell_length_c   8.75722188
_cell_angle_alpha   109.63913020
_cell_angle_beta   109.48781358
_cell_angle_gamma   109.38089045
_symmetry_Int_Tables_number   1
_chemical_formula_structural   Hf2N2O
_chemical_formula_sum   'Hf16 N16 O8'
_cell_volume   512.82560313
_cell_formula_units_Z   8
loop_
 _symmetry_equiv_pos_site_id
 _symmetry_equiv_pos_as_xyz
  1  'x, y, z'
loop_
 _atom_site_type_symbol
 _atom_site_label
 _atom_site_symmetry_multiplicity
 _atom_site_fract_x
 _atom_site_fract_y
 _atom_site_fract_z
 _atom_site_occupancy
  Hf  Hf0  1  0.507370  0.005588  0.996529  1
  Hf  Hf1  1  0.960675  0.248910  0.218870  1
  Hf  Hf2  1  0.779516  0.030526  0.753918  1
  Hf  Hf3  1  0.712141  0.461874  0.243645  1
  Hf  Hf4  1  0.750712  0.779129  0.032758  1
  Hf  Hf5  1  0.747294  0.284103  0.534485  1
  Hf  Hf6  1  0.535913  0.749146  0.290917  1
  Hf  Hf7  1  0.465585  0.249333  0.713865  1
  Hf  Hf8  1  0.997158  0.505834  0.986080  1
  Hf  Hf9  1  0.492238  0.496975  0.510284  1
  Hf  Hf10  1  0.007403  0.996684  0.507372  1
  Hf  Hf11  1  0.257913  0.717249  0.468005  1
  Hf  Hf12  1  0.246578  0.213412  0.953054  1
  Hf  Hf13  1  0.220070  0.959737  0.257328  1
  Hf  Hf14  1  0.280137  0.534610  0.743720  1
  Hf  Hf15  1  0.039406  0.753634  0.786257  1
  N  N16  1  0.743334  0.229854  0.276563  1
  N  N17  1  0.770637  0.725550  0.260058  1
  N  N18  1  0.465495  0.227789  0.448968  1
  N  N19  1  0.728552  0.256880  0.774542  1
  N  N20  1  0.225154  0.452009  0.462919  1
  N  N21  1  0.273784  0.734768  0.223081  1
  N  N22  1  0.988105  0.955975  0.728351  1
  N  N23  1  0.509908  0.240340  0.970390  1
  N  N24  1  0.544205  0.536446  0.773576  1
  N  N25  1  0.958331  0.732757  0.991889  1
  N  N26  1  0.536902  0.771862  0.542489  1
  N  N27  1  0.222385  0.273073  0.739405  1
  N  N28  1  0.029371  0.489199  0.757616  1
  N  N29  1  0.731077  0.988991  0.958437  1
  N  N30  1  0.265533  0.778019  0.730832  1
  N  N31  1  0.233812  0.963453  0.507050  1
  O  O32  1  0.756832  0.032531  0.481857  1
  O  O33  1  0.272621  0.010549  0.044794  1
  O  O34  1  0.963040  0.506747  0.234740  1
  O  O35  1  0.453908  0.464406  0.227254  1
  O  O36  1  0.055040  0.279998  0.021546  1
  O  O37  1  0.771904  0.547666  0.531829  1
  O  O38  1  0.012199  0.049470  0.276998  1
  O  O39  1  0.487763  0.764924  0.037731  1
