# generated using pymatgen
data_WOF3
_symmetry_space_group_name_H-M   'P 1'
_cell_length_a   5.49500290
_cell_length_b   5.55847279
_cell_length_c   9.54624300
_cell_angle_alpha   89.99979900
_cell_angle_beta   90.00009860
_cell_angle_gamma   90.00027622
_symmetry_Int_Tables_number   1
_chemical_formula_structural   WOF3
_chemical_formula_sum   'W4 O4 F12'
_cell_volume   291.57876701
_cell_formula_units_Z   4
loop_
 _symmetry_equiv_pos_site_id
 _symmetry_equiv_pos_as_xyz
  1  'x, y, z'
loop_
 _atom_site_type_symbol
 _atom_site_label
 _atom_site_symmetry_multiplicity
 _atom_site_fract_x
 _atom_site_fract_y
 _atom_site_fract_z
 _atom_site_occupancy
  W  W0  1  0.140143  0.115409  0.113797  1
  W  W1  1  0.359863  0.884582  0.613798  1
  W  W2  1  0.640142  0.384591  0.886205  1
  W  W3  1  0.859858  0.615418  0.386198  1
  O  O4  1  0.129156  0.704535  0.490354  1
  O  O5  1  0.370835  0.295472  0.990352  1
  O  O6  1  0.629154  0.795466  0.509647  1
  O  O7  1  0.870833  0.204529  0.009647  1
  F  F8  1  0.067660  0.423280  0.242211  1
  F  F9  1  0.100838  0.930925  0.743660  1
  F  F10  1  0.283063  0.180976  0.523941  1
  F  F11  1  0.216947  0.819034  0.023938  1
  F  F12  1  0.399164  0.069063  0.243655  1
  F  F13  1  0.432336  0.576725  0.742217  1
  F  F14  1  0.567663  0.076719  0.757789  1
  F  F15  1  0.600835  0.569070  0.256339  1
  F  F16  1  0.783060  0.319024  0.476060  1
  F  F17  1  0.716949  0.680967  0.976063  1
  F  F18  1  0.899167  0.430939  0.756346  1
  F  F19  1  0.932333  0.923276  0.257783  1
