# generated using pymatgen
data_Ba13Bi11O36
_symmetry_space_group_name_H-M   'P 1'
_cell_length_a   10.91090922
_cell_length_b   10.91033528
_cell_length_c   10.76159263
_cell_angle_alpha   99.73637598
_cell_angle_beta   109.76509175
_cell_angle_gamma   60.01061459
_symmetry_Int_Tables_number   1
_chemical_formula_structural   Ba13Bi11O36
_chemical_formula_sum   'Ba13 Bi11 O36'
_cell_volume   1044.19695258
_cell_formula_units_Z   1
loop_
 _symmetry_equiv_pos_site_id
 _symmetry_equiv_pos_as_xyz
  1  'x, y, z'
loop_
 _atom_site_type_symbol
 _atom_site_label
 _atom_site_symmetry_multiplicity
 _atom_site_fract_x
 _atom_site_fract_y
 _atom_site_fract_z
 _atom_site_occupancy
  Ba  Ba0  1  0.916667  0.666667  0.750000  1
  Ba  Ba1  1  0.963143  0.327865  0.871635  1
  Ba  Ba2  1  0.870190  0.005469  0.628365  1
  Ba  Ba3  1  0.543434  0.661698  0.627359  1
  Ba  Ba4  1  0.788800  0.667072  0.368564  1
  Ba  Ba5  1  0.618920  0.000399  0.871449  1
  Ba  Ba6  1  0.289899  0.671635  0.872641  1
  Ba  Ba7  1  0.709291  0.333040  0.127577  1
  Ba  Ba8  1  0.214413  0.332934  0.628551  1
  Ba  Ba9  1  0.459035  0.332599  0.375254  1
  Ba  Ba10  1  0.044534  0.666262  0.131436  1
  Ba  Ba11  1  0.374298  0.000735  0.124746  1
  Ba  Ba12  1  0.124042  0.000293  0.372423  1
  Bi  Bi13  1  0.835053  0.327932  0.497333  1
  Bi  Bi14  1  0.584351  0.333268  0.752730  1
  Bi  Bi15  1  0.664337  0.664294  0.002384  1
  Bi  Bi16  1  0.752367  0.997469  0.249880  1
  Bi  Bi17  1  0.416667  0.666667  0.250000  1
  Bi  Bi18  1  0.168997  0.669039  0.497616  1
  Bi  Bi19  1  0.493321  0.003115  0.496672  1
  Bi  Bi20  1  0.248982  0.000066  0.747270  1
  Bi  Bi21  1  0.340012  0.330218  0.003328  1
  Bi  Bi22  1  0.080966  0.335864  0.250120  1
  Bi  Bi23  1  0.998280  0.005401  0.002667  1
  O  O24  1  0.909287  0.881119  0.882763  1
  O  O25  1  0.799172  0.614865  0.884178  1
  O  O26  1  0.990417  0.842708  0.365030  1
  O  O27  1  0.481432  0.845642  0.878895  1
  O  O28  1  0.818051  0.191129  0.881354  1
  O  O29  1  0.924047  0.452215  0.617237  1
  O  O30  1  0.578366  0.524508  0.882898  1
  O  O31  1  0.658144  0.829770  0.616501  1
  O  O32  1  0.969483  0.287786  0.369192  1
  O  O33  1  0.638045  0.962424  0.377092  1
  O  O34  1  0.484465  0.284887  0.881520  1
  O  O35  1  0.138200  0.965856  0.877905  1
  O  O36  1  0.695134  0.367477  0.622095  1
  O  O37  1  0.652067  0.514084  0.379273  1
  O  O38  1  0.175189  0.503564  0.883499  1
  O  O39  1  0.747198  0.805426  0.125177  1
  O  O40  1  0.574188  0.145353  0.621964  1
  O  O41  1  0.254967  0.808825  0.617102  1
  O  O42  1  0.751982  0.187849  0.379503  1
  O  O43  1  0.411075  0.866466  0.367240  1
  O  O44  1  0.259145  0.187980  0.878036  1
  O  O45  1  0.842916  0.490625  0.134970  1
  O  O46  1  0.351901  0.487692  0.621105  1
  O  O47  1  0.308964  0.625173  0.375400  1
  O  O48  1  0.863850  0.045547  0.130808  1
  O  O49  1  0.524369  0.708161  0.124600  1
  O  O50  1  0.034161  0.718469  0.615822  1
  O  O51  1  0.348868  0.048447  0.618480  1
  O  O52  1  0.313936  0.186223  0.377772  1
  O  O53  1  0.422258  0.466867  0.132760  1
  O  O54  1  0.086136  0.527907  0.374823  1
  O  O55  1  0.181267  0.819249  0.120727  1
  O  O56  1  0.519397  0.147111  0.122228  1
  O  O57  1  0.015282  0.142204  0.618646  1
  O  O58  1  0.195289  0.370909  0.122908  1
  O  O59  1  0.081352  0.145485  0.120497  1
