# generated using pymatgen
data_Li5Mn8(BO3)8
_symmetry_space_group_name_H-M   'P 1'
_cell_length_a   5.31981081
_cell_length_b   9.10206439
_cell_length_c   11.49039327
_cell_angle_alpha   112.74287506
_cell_angle_beta   78.35256415
_cell_angle_gamma   90.39761315
_symmetry_Int_Tables_number   1
_chemical_formula_structural   Li5Mn8(BO3)8
_chemical_formula_sum   'Li5 Mn8 B8 O24'
_cell_volume   500.99457991
_cell_formula_units_Z   1
loop_
 _symmetry_equiv_pos_site_id
 _symmetry_equiv_pos_as_xyz
  1  'x, y, z'
loop_
 _atom_site_type_symbol
 _atom_site_label
 _atom_site_symmetry_multiplicity
 _atom_site_fract_x
 _atom_site_fract_y
 _atom_site_fract_z
 _atom_site_occupancy
  Li  Li0  1  0.074399  0.084427  0.163471  1
  Li  Li1  1  0.304319  0.823882  0.673257  1
  Li  Li2  1  0.560545  0.594340  0.159702  1
  Li  Li3  1  0.648113  0.203851  0.403309  1
  Li  Li4  1  0.817943  0.332359  0.673349  1
  Mn  Mn5  1  0.082082  0.389591  0.129569  1
  Mn  Mn6  1  0.161635  0.012961  0.378463  1
  Mn  Mn7  1  0.339401  0.469361  0.626393  1
  Mn  Mn8  1  0.596638  0.905348  0.123825  1
  Mn  Mn9  1  0.400972  0.096870  0.887821  1
  Mn  Mn10  1  0.651209  0.539762  0.384732  1
  Mn  Mn11  1  0.833532  0.994548  0.634937  1
  Mn  Mn12  1  0.911699  0.621683  0.877283  1
  B  B13  1  0.102728  0.724822  0.121735  1
  B  B14  1  0.153687  0.348270  0.364039  1
  B  B15  1  0.362318  0.141122  0.625368  1
  B  B16  1  0.602033  0.241278  0.133253  1
  B  B17  1  0.390951  0.749073  0.871495  1
  B  B18  1  0.654107  0.870733  0.376198  1
  B  B19  1  0.834079  0.660627  0.637344  1
  B  B20  1  0.906819  0.265890  0.873560  1
  O  O21  1  0.024704  0.215215  0.358903  1
  O  O22  1  0.055608  0.454228  0.317612  1
  O  O23  1  0.188651  0.879036  0.169400  1
  O  O24  1  0.220403  0.597871  0.127920  1
  O  O25  1  0.119511  0.131628  0.594576  1
  O  O26  1  0.360907  0.213754  0.097946  1
  O  O27  1  0.092252  0.270768  0.946098  1
  O  O28  1  0.372911  0.380275  0.415875  1
  O  O29  1  0.288978  0.599432  0.833749  1
  O  O30  1  0.282081  0.874167  0.858146  1
  O  O31  1  0.565768  0.983606  0.335225  1
  O  O32  1  0.566672  0.724467  0.339898  1
  O  O33  1  0.441082  0.031354  0.671727  1
  O  O34  1  0.690474  0.393629  0.162655  1
  O  O35  1  0.520120  0.252966  0.605072  1
  O  O36  1  0.742191  0.119399  0.136291  1
  O  O37  1  0.605429  0.632120  0.592750  1
  O  O38  1  0.879059  0.709002  0.068982  1
  O  O39  1  0.607505  0.766152  0.924303  1
  O  O40  1  0.844507  0.915926  0.450183  1
  O  O41  1  0.804347  0.114808  0.821297  1
  O  O42  1  0.830129  0.390294  0.850758  1
  O  O43  1  0.926273  0.549419  0.682652  1
  O  O44  1  0.970096  0.786405  0.636162  1
