# generated using pymatgen
data_Fe10O11F9
_symmetry_space_group_name_H-M   'P 1'
_cell_length_a   4.74427116
_cell_length_b   4.74339852
_cell_length_c   15.38824660
_cell_angle_alpha   90.05863442
_cell_angle_beta   89.98501852
_cell_angle_gamma   90.71818011
_symmetry_Int_Tables_number   1
_chemical_formula_structural   Fe10O11F9
_chemical_formula_sum   'Fe10 O11 F9'
_cell_volume   346.26922565
_cell_formula_units_Z   1
loop_
 _symmetry_equiv_pos_site_id
 _symmetry_equiv_pos_as_xyz
  1  'x, y, z'
loop_
 _atom_site_type_symbol
 _atom_site_label
 _atom_site_symmetry_multiplicity
 _atom_site_fract_x
 _atom_site_fract_y
 _atom_site_fract_z
 _atom_site_occupancy
  Fe  Fe0  1  0.989222  0.986022  0.000481  1
  Fe  Fe1  1  0.032209  0.027432  0.199028  1
  Fe  Fe2  1  0.988875  0.945785  0.398646  1
  Fe  Fe3  1  0.048300  0.001651  0.600059  1
  Fe  Fe4  1  0.041474  0.000110  0.801375  1
  Fe  Fe5  1  0.523914  0.455250  0.094297  1
  Fe  Fe6  1  0.482059  0.518128  0.500055  1
  Fe  Fe7  1  0.475487  0.527164  0.296707  1
  Fe  Fe8  1  0.459728  0.497078  0.702955  1
  Fe  Fe9  1  0.465377  0.513648  0.907416  1
  O  O10  1  0.185000  0.811756  0.296610  1
  O  O11  1  0.188396  0.803227  0.498950  1
  O  O12  1  0.202864  0.817997  0.701027  1
  O  O13  1  0.184357  0.812645  0.902299  1
  O  O14  1  0.297488  0.289654  0.001291  1
  O  O15  1  0.324638  0.311996  0.197957  1
  O  O16  1  0.313739  0.317510  0.599163  1
  O  O17  1  0.302691  0.317289  0.803340  1
  O  O18  1  0.691447  0.684730  0.001589  1
  O  O19  1  0.673321  0.680980  0.398163  1
  O  O20  1  0.823110  0.177328  0.101610  1
  F  F21  1  0.209175  0.792731  0.102318  1
  F  F22  1  0.286905  0.297726  0.398322  1
  F  F23  1  0.708980  0.698471  0.199177  1
  F  F24  1  0.701475  0.707547  0.600867  1
  F  F25  1  0.696032  0.708099  0.799925  1
  F  F26  1  0.800211  0.194437  0.498637  1
  F  F27  1  0.799859  0.197789  0.300570  1
  F  F28  1  0.796053  0.197840  0.897452  1
  F  F29  1  0.807612  0.207978  0.699712  1
