# generated using pymatgen
data_Li3V2(O2F)2
_symmetry_space_group_name_H-M   'P 1'
_cell_length_a   5.94032042
_cell_length_b   7.84390193
_cell_length_c   7.95708138
_cell_angle_alpha   73.87672370
_cell_angle_beta   101.25146127
_cell_angle_gamma   79.95068290
_symmetry_Int_Tables_number   1
_chemical_formula_structural   Li3V2(O2F)2
_chemical_formula_sum   'Li9 V6 O12 F6'
_cell_volume   338.88815216
_cell_formula_units_Z   3
loop_
 _symmetry_equiv_pos_site_id
 _symmetry_equiv_pos_as_xyz
  1  'x, y, z'
loop_
 _atom_site_type_symbol
 _atom_site_label
 _atom_site_symmetry_multiplicity
 _atom_site_fract_x
 _atom_site_fract_y
 _atom_site_fract_z
 _atom_site_occupancy
  Li  Li0  1  0.160455  0.009764  0.632512  1
  Li  Li1  1  0.010261  0.314714  0.356239  1
  Li  Li2  1  0.298133  0.361949  0.638856  1
  Li  Li3  1  0.167718  0.675897  0.362230  1
  Li  Li4  1  0.490769  0.689013  0.630832  1
  Li  Li5  1  0.654344  0.003443  0.636661  1
  Li  Li6  1  0.511654  0.322165  0.366432  1
  Li  Li7  1  0.700794  0.643737  0.393684  1
  Li  Li8  1  0.849022  0.960786  0.375799  1
  V  V9  1  0.004846  0.001656  0.003051  1
  V  V10  1  0.160442  0.338044  0.991373  1
  V  V11  1  0.498691  0.998310  0.010180  1
  V  V12  1  0.331351  0.666635  0.991361  1
  V  V13  1  0.663475  0.333426  0.994632  1
  V  V14  1  0.833338  0.667175  0.999156  1
  O  O15  1  0.002651  0.827524  0.861263  1
  O  O16  1  0.188649  0.159269  0.856856  1
  O  O17  1  0.154166  0.507246  0.137682  1
  O  O18  1  0.329262  0.481904  0.850542  1
  O  O19  1  0.340577  0.842199  0.140261  1
  O  O20  1  0.483692  0.177365  0.139565  1
  O  O21  1  0.514489  0.826837  0.854070  1
  O  O22  1  0.668198  0.142264  0.866428  1
  O  O23  1  0.657820  0.509973  0.141175  1
  O  O24  1  0.835903  0.505837  0.858454  1
  O  O25  1  0.999507  0.187778  0.135995  1
  O  O26  1  0.828844  0.831609  0.152787  1
  F  F27  1  0.009069  0.499586  0.465627  1
  F  F28  1  0.170844  0.835498  0.504503  1
  F  F29  1  0.337306  0.179071  0.516269  1
  F  F30  1  0.479746  0.514326  0.488341  1
  F  F31  1  0.668254  0.829712  0.504578  1
  F  F32  1  0.831520  0.152826  0.483315  1
