# generated using pymatgen
data_Li4V3P8O29
_symmetry_space_group_name_H-M   'P 1'
_cell_length_a   9.75865410
_cell_length_b   9.77625570
_cell_length_c   14.24234335
_cell_angle_alpha   89.94556558
_cell_angle_beta   90.24661585
_cell_angle_gamma   60.06283613
_symmetry_Int_Tables_number   1
_chemical_formula_structural   Li4V3P8O29
_chemical_formula_sum   'Li8 V6 P16 O58'
_cell_volume   1177.44979711
_cell_formula_units_Z   2
loop_
 _symmetry_equiv_pos_site_id
 _symmetry_equiv_pos_as_xyz
  1  'x, y, z'
loop_
 _atom_site_type_symbol
 _atom_site_label
 _atom_site_symmetry_multiplicity
 _atom_site_fract_x
 _atom_site_fract_y
 _atom_site_fract_z
 _atom_site_occupancy
  Li  Li0  1  0.776789  0.920276  0.549697  1
  Li  Li1  1  0.907420  0.317070  0.556345  1
  Li  Li2  1  0.767826  0.334440  0.057430  1
  Li  Li3  1  0.331793  0.903267  0.059593  1
  Li  Li4  1  0.312535  0.770677  0.562565  1
  Li  Li5  1  0.676818  0.092745  0.945277  1
  Li  Li6  1  0.223847  0.089890  0.439464  1
  Li  Li7  1  0.022719  0.948443  0.006152  1
  V  V8  1  0.566767  0.435635  0.253774  1
  V  V9  1  0.429923  0.564897  0.748493  1
  V  V10  1  0.565780  0.000297  0.749707  1
  V  V11  1  0.433496  0.000242  0.248457  1
  V  V12  1  0.996461  0.570148  0.243217  1
  V  V13  1  0.001857  0.437037  0.759164  1
  P  P14  1  0.917647  0.780702  0.843996  1
  P  P15  1  0.772751  0.910067  0.336290  1
  P  P16  1  0.913835  0.319632  0.341970  1
  P  P17  1  0.664913  0.662011  0.128965  1
  P  P18  1  0.667607  0.667860  0.632652  1
  P  P19  1  0.769983  0.314659  0.841843  1
  P  P20  1  0.685819  0.227904  0.660095  1
  P  P21  1  0.314594  0.910325  0.840590  1
  P  P22  1  0.685213  0.092480  0.158082  1
  P  P23  1  0.318531  0.770067  0.346181  1
  P  P24  1  0.223014  0.694680  0.164010  1
  P  P25  1  0.327094  0.336870  0.365795  1
  P  P26  1  0.338107  0.329246  0.867942  1
  P  P27  1  0.080781  0.685963  0.658947  1
  P  P28  1  0.225041  0.093610  0.661173  1
  P  P29  1  0.082285  0.222949  0.160007  1
  O  O30  1  0.985150  0.764481  0.574854  1
  O  O31  1  0.916792  0.741560  0.326968  1
  O  O32  1  0.774866  0.022547  0.069574  1
  O  O33  1  0.741415  0.917985  0.836501  1
  O  O34  1  0.922734  0.618045  0.834898  1
  O  O35  1  0.810061  0.669064  0.173994  1
  O  O36  1  0.906030  0.477830  0.321393  1
  O  O37  1  0.990311  0.207089  0.081414  1
  O  O38  1  0.914495  0.340922  0.831857  1
  O  O39  1  0.663984  0.820144  0.678078  1
  O  O40  1  0.619830  0.901201  0.315418  1
  O  O41  1  0.814192  0.523212  0.680496  1
  O  O42  1  0.676675  0.642063  0.025166  1
  O  O43  1  0.680989  0.673960  0.529081  1
  O  O44  1  0.674951  0.508940  0.174662  1
  O  O45  1  0.471926  0.911867  0.824889  1
  O  O46  1  0.510396  0.809761  0.163035  1
  O  O47  1  0.744997  0.342233  0.335301  1
  O  O48  1  0.787640  0.199848  0.756069  1
  O  O49  1  0.776187  0.231403  0.578128  1
  O  O50  1  0.778241  0.229618  0.931375  1
  O  O51  1  0.617426  0.470934  0.827641  1
  O  O52  1  0.513884  0.670899  0.665035  1
  O  O53  1  0.656623  0.264655  0.166421  1
  O  O54  1  0.480670  0.621685  0.321517  1
  O  O55  1  0.334247  0.919974  0.338551  1
  O  O56  1  0.792967  0.003730  0.248967  1
  O  O57  1  0.762470  0.989770  0.426062  1
  O  O58  1  0.239168  0.003658  0.572737  1
  O  O59  1  0.660402  0.081969  0.659543  1
  O  O60  1  0.525596  0.380765  0.675392  1
  O  O61  1  0.344279  0.741591  0.826449  1
  O  O62  1  0.472465  0.343497  0.319392  1
  O  O63  1  0.384328  0.541268  0.170488  1
  O  O64  1  0.205163  0.803669  0.085108  1
  O  O65  1  0.256310  0.755381  0.437887  1
  O  O66  1  0.200901  0.786847  0.261904  1
  O  O67  1  0.249329  0.663283  0.658733  1
  O  O68  1  0.492509  0.181712  0.824363  1
  O  O69  1  0.529830  0.091870  0.169184  1
  O  O70  1  0.327989  0.478131  0.824611  1
  O  O71  1  0.349644  0.310512  0.971197  1
  O  O72  1  0.327329  0.344217  0.469470  1
  O  O73  1  0.180330  0.477378  0.316010  1
  O  O74  1  0.378470  0.101085  0.679924  1
  O  O75  1  0.330466  0.183373  0.329706  1
  O  O76  1  0.086541  0.656429  0.163149  1
  O  O77  1  0.999426  0.795466  0.750452  1
  O  O78  1  0.992400  0.804513  0.927963  1
  O  O79  1  0.092156  0.524743  0.683057  1
  O  O80  1  0.189592  0.322828  0.824856  1
  O  O81  1  0.077906  0.382871  0.167463  1
  O  O82  1  0.256378  0.084216  0.160901  1
  O  O83  1  0.237600  0.978710  0.931718  1
  O  O84  1  0.203711  0.006914  0.751625  1
  O  O85  1  0.078552  0.260693  0.661046  1
  O  O86  1  0.996130  0.245409  0.432877  1
  O  O87  1  0.013474  0.200449  0.259266  1
