# generated using pymatgen
data_VCr3(PO4)6
_symmetry_space_group_name_H-M   'P 1'
_cell_length_a   8.76962930
_cell_length_b   8.76962867
_cell_length_c   8.76962947
_cell_angle_alpha   58.36243694
_cell_angle_beta   58.36244003
_cell_angle_gamma   58.36243723
_symmetry_Int_Tables_number   1
_chemical_formula_structural   VCr3(PO4)6
_chemical_formula_sum   'V1 Cr3 P6 O24'
_cell_volume   459.02274292
_cell_formula_units_Z   1
loop_
 _symmetry_equiv_pos_site_id
 _symmetry_equiv_pos_as_xyz
  1  'x, y, z'
loop_
 _atom_site_type_symbol
 _atom_site_label
 _atom_site_symmetry_multiplicity
 _atom_site_fract_x
 _atom_site_fract_y
 _atom_site_fract_z
 _atom_site_occupancy
  V  V0  1  0.859287  0.859287  0.859287  1
  Cr  Cr1  1  0.142877  0.142877  0.142877  1
  Cr  Cr2  1  0.357580  0.357580  0.357580  1
  Cr  Cr3  1  0.642609  0.642609  0.642609  1
  P  P4  1  0.033841  0.750217  0.466201  1
  P  P5  1  0.466201  0.033841  0.750217  1
  P  P6  1  0.750217  0.466201  0.033841  1
  P  P7  1  0.251788  0.532622  0.966308  1
  P  P8  1  0.532622  0.966308  0.251788  1
  P  P9  1  0.966308  0.251788  0.532622  1
  O  O10  1  0.138734  0.274262  0.511395  1
  O  O11  1  0.274262  0.511395  0.138734  1
  O  O12  1  0.062753  0.922888  0.282368  1
  O  O13  1  0.511395  0.138734  0.274262  1
  O  O14  1  0.216690  0.576264  0.441885  1
  O  O15  1  0.001244  0.781628  0.641016  1
  O  O16  1  0.282368  0.062753  0.922888  1
  O  O17  1  0.441885  0.216690  0.576264  1
  O  O18  1  0.576264  0.441885  0.216690  1
  O  O19  1  0.220362  0.363313  0.992144  1
  O  O20  1  0.072896  0.716246  0.935987  1
  O  O21  1  0.363313  0.992144  0.220362  1
  O  O22  1  0.641016  0.001244  0.781628  1
  O  O23  1  0.922888  0.282368  0.062753  1
  O  O24  1  0.781628  0.641016  0.001244  1
  O  O25  1  0.422502  0.563529  0.782896  1
  O  O26  1  0.563529  0.782896  0.422502  1
  O  O27  1  0.716246  0.935987  0.072896  1
  O  O28  1  0.992144  0.220362  0.363313  1
  O  O29  1  0.782896  0.422502  0.563529  1
  O  O30  1  0.491752  0.863182  0.720735  1
  O  O31  1  0.935987  0.072896  0.716246  1
  O  O32  1  0.720735  0.491752  0.863182  1
  O  O33  1  0.863182  0.720735  0.491752  1
