# generated using pymatgen
data_LiCoSiO4
_symmetry_space_group_name_H-M   'P 1'
_cell_length_a   9.88455058
_cell_length_b   9.88455004
_cell_length_c   24.16783818
_cell_angle_alpha   90.00000000
_cell_angle_beta   90.00000000
_cell_angle_gamma   120.00000089
_symmetry_Int_Tables_number   1
_chemical_formula_structural   LiCoSiO4
_chemical_formula_sum   'Li24 Co24 Si24 O96'
_cell_volume   2044.94797849
_cell_formula_units_Z   24
loop_
 _symmetry_equiv_pos_site_id
 _symmetry_equiv_pos_as_xyz
  1  'x, y, z'
loop_
 _atom_site_type_symbol
 _atom_site_label
 _atom_site_symmetry_multiplicity
 _atom_site_fract_x
 _atom_site_fract_y
 _atom_site_fract_z
 _atom_site_occupancy
  Li  Li0  1  0.022807  0.974226  0.695494  1
  Li  Li1  1  0.035139  0.584387  0.035376  1
  Li  Li2  1  0.059369  0.456410  0.191902  1
  Li  Li3  1  0.051607  0.474522  0.847572  1
  Li  Li4  1  0.397040  0.940631  0.858568  1
  Li  Li5  1  0.422915  0.948393  0.514238  1
  Li  Li6  1  0.025774  0.048581  0.028828  1
  Li  Li7  1  0.048581  0.022807  0.862161  1
  Li  Li8  1  0.549247  0.964861  0.702043  1
  Li  Li9  1  0.415613  0.450753  0.368710  1
  Li  Li10  1  0.525478  0.577085  0.180905  1
  Li  Li11  1  0.543590  0.602960  0.525235  1
  Li  Li12  1  0.456410  0.397040  0.025235  1
  Li  Li13  1  0.474522  0.422915  0.680905  1
  Li  Li14  1  0.584387  0.549247  0.868710  1
  Li  Li15  1  0.450753  0.035139  0.202043  1
  Li  Li16  1  0.951419  0.977193  0.362161  1
  Li  Li17  1  0.974226  0.951419  0.528828  1
  Li  Li18  1  0.577085  0.051607  0.014238  1
  Li  Li19  1  0.602960  0.059369  0.358568  1
  Li  Li20  1  0.948393  0.525478  0.347572  1
  Li  Li21  1  0.940631  0.543590  0.691902  1
  Li  Li22  1  0.964861  0.415613  0.535376  1
  Li  Li23  1  0.977193  0.025774  0.195494  1
  Co  Co24  1  0.098148  0.820345  0.270908  1
  Co  Co25  1  0.080941  0.752041  0.916570  1
  Co  Co26  1  0.116236  0.742500  0.592905  1
  Co  Co27  1  0.305045  0.665588  0.754774  1
  Co  Co28  1  0.334412  0.639457  0.088108  1
  Co  Co29  1  0.360543  0.694955  0.421441  1
  Co  Co30  1  0.179655  0.277802  0.604240  1
  Co  Co31  1  0.257500  0.373736  0.926238  1
  Co  Co32  1  0.247959  0.328899  0.249904  1
  Co  Co33  1  0.626264  0.883764  0.259571  1
  Co  Co34  1  0.671101  0.919059  0.583237  1
  Co  Co35  1  0.277802  0.098148  0.437574  1
  Co  Co36  1  0.722198  0.901852  0.937574  1
  Co  Co37  1  0.328899  0.080941  0.083237  1
  Co  Co38  1  0.373736  0.116236  0.759572  1
  Co  Co39  1  0.752041  0.671101  0.749904  1
  Co  Co40  1  0.742500  0.626264  0.426238  1
  Co  Co41  1  0.820345  0.722198  0.104240  1
  Co  Co42  1  0.639457  0.305045  0.921441  1
  Co  Co43  1  0.665588  0.360543  0.588108  1
  Co  Co44  1  0.694955  0.334412  0.254774  1
  Co  Co45  1  0.883764  0.257500  0.092905  1
  Co  Co46  1  0.919059  0.247959  0.416570  1
  Co  Co47  1  0.901852  0.179655  0.770907  1
  Si  Si48  1  0.086392  0.783894  0.788205  1
  Si  Si49  1  0.074867  0.750257  0.466596  1
  Si  Si50  1  0.135664  0.770634  0.141575  1
  Si  Si51  1  0.278391  0.644637  0.296663  1
  Si  Si52  1  0.366245  0.721609  0.963330  1
  Si  Si53  1  0.355363  0.633755  0.629997  1
  Si  Si54  1  0.229366  0.365030  0.474909  1
  Si  Si55  1  0.216106  0.302497  0.121538  1
  Si  Si56  1  0.249743  0.324610  0.799929  1
  Si  Si57  1  0.634970  0.864336  0.808242  1
  Si  Si58  1  0.675390  0.925133  0.133262  1
  Si  Si59  1  0.697503  0.913608  0.454871  1
  Si  Si60  1  0.302497  0.086392  0.954871  1
  Si  Si61  1  0.324610  0.074867  0.633262  1
  Si  Si62  1  0.365030  0.135664  0.308242  1
  Si  Si63  1  0.750257  0.675390  0.299929  1
  Si  Si64  1  0.783894  0.697503  0.621538  1
  Si  Si65  1  0.770634  0.634970  0.974909  1
  Si  Si66  1  0.644637  0.366245  0.129997  1
  Si  Si67  1  0.633755  0.278391  0.463330  1
  Si  Si68  1  0.721609  0.355363  0.796663  1
  Si  Si69  1  0.864336  0.229366  0.641575  1
  Si  Si70  1  0.925133  0.249743  0.966596  1
  Si  Si71  1  0.913608  0.216106  0.288205  1
  O  O72  1  0.022609  0.761833  0.089812  1
  O  O73  1  0.099030  0.928396  0.471469  1
  O  O74  1  0.020276  0.676620  0.844996  1
  O  O75  1  0.133592  0.962609  0.926116  1
  O  O76  1  0.039458  0.750172  0.198709  1
  O  O77  1  0.009613  0.661335  0.526411  1
  O  O78  1  0.237416  0.953259  0.806708  1
  O  O79  1  0.128979  0.671928  0.306395  1
  O  O80  1  0.124820  0.680336  0.744617  1
  O  O81  1  0.296001  0.944827  0.584984  1
  O  O82  1  0.301625  0.940049  0.138374  1
  O  O83  1  0.174920  0.628235  0.135105  1
  O  O84  1  0.249088  0.771030  0.457145  1
  O  O85  1  0.187670  0.609106  0.608301  1
  O  O86  1  0.059951  0.361576  0.471708  1
  O  O87  1  0.276862  0.767642  0.915966  1
  O  O88  1  0.055173  0.351172  0.918318  1
  O  O89  1  0.046741  0.284158  0.140041  1
  O  O90  1  0.037391  0.170983  0.259449  1
  O  O91  1  0.071604  0.170634  0.804803  1
  O  O92  1  0.265938  0.676191  0.021296  1
  O  O93  1  0.232358  0.509222  0.249299  1
  O  O94  1  0.323809  0.589746  0.354630  1
  O  O95  1  0.228970  0.478057  0.790478  1
  O  O96  1  0.410254  0.734062  0.687963  1
  O  O97  1  0.421436  0.812330  0.274967  1
  O  O98  1  0.453316  0.825080  0.801772  1
  O  O99  1  0.319664  0.444484  0.077950  1
  O  O100  1  0.328072  0.457053  0.639728  1
  O  O101  1  0.371765  0.546684  0.468439  1
  O  O102  1  0.249828  0.289284  0.532043  1
  O  O103  1  0.390894  0.578564  0.941634  1
  O  O104  1  0.490778  0.723138  0.582632  1
  O  O105  1  0.542947  0.871021  0.973062  1
  O  O106  1  0.555516  0.875180  0.411284  1
  O  O107  1  0.170983  0.133592  0.092782  1
  O  O108  1  0.238167  0.260777  0.423145  1
  O  O109  1  0.323380  0.343656  0.178329  1
  O  O110  1  0.170634  0.099030  0.638136  1
  O  O111  1  0.338665  0.348279  0.859744  1
  O  O112  1  0.521943  0.750912  0.123811  1
  O  O113  1  0.284158  0.237416  0.973375  1
  O  O114  1  0.651721  0.990387  0.193078  1
  O  O115  1  0.351172  0.296001  0.751651  1
  O  O116  1  0.361576  0.301625  0.305041  1
  O  O117  1  0.656344  0.979724  0.511663  1
  O  O118  1  0.710716  0.960542  0.865376  1
  O  O119  1  0.260777  0.022609  0.256479  1
  O  O120  1  0.739223  0.977391  0.756479  1
  O  O121  1  0.289284  0.039458  0.365376  1
  O  O122  1  0.343656  0.020276  0.011663  1
  O  O123  1  0.638424  0.698375  0.805041  1
  O  O124  1  0.648828  0.703999  0.251651  1
  O  O125  1  0.348279  0.009613  0.693078  1
  O  O126  1  0.715842  0.762584  0.473375  1
  O  O127  1  0.478057  0.249088  0.623811  1
  O  O128  1  0.661335  0.651721  0.359744  1
  O  O129  1  0.829366  0.900970  0.138136  1
  O  O130  1  0.676620  0.656344  0.678329  1
  O  O131  1  0.761833  0.739223  0.923145  1
  O  O132  1  0.829017  0.866408  0.592782  1
  O  O133  1  0.444484  0.124820  0.911284  1
  O  O134  1  0.457053  0.128979  0.473062  1
  O  O135  1  0.509222  0.276862  0.082632  1
  O  O136  1  0.609106  0.421436  0.441634  1
  O  O137  1  0.750172  0.710716  0.032043  1
  O  O138  1  0.628235  0.453316  0.968439  1
  O  O139  1  0.671928  0.542947  0.139728  1
  O  O140  1  0.680336  0.555516  0.577950  1
  O  O141  1  0.546684  0.174920  0.301772  1
  O  O142  1  0.578564  0.187670  0.774967  1
  O  O143  1  0.589746  0.265938  0.187963  1
  O  O144  1  0.771030  0.521943  0.290478  1
  O  O145  1  0.676191  0.410254  0.854630  1
  O  O146  1  0.767642  0.490778  0.749299  1
  O  O147  1  0.734062  0.323809  0.521296  1
  O  O148  1  0.928396  0.829366  0.304803  1
  O  O149  1  0.962609  0.829017  0.759449  1
  O  O150  1  0.953259  0.715842  0.640041  1
  O  O151  1  0.944827  0.648828  0.418318  1
  O  O152  1  0.723138  0.232358  0.415966  1
  O  O153  1  0.940049  0.638424  0.971708  1
  O  O154  1  0.812330  0.390894  0.108301  1
  O  O155  1  0.750912  0.228970  0.957145  1
  O  O156  1  0.825080  0.371765  0.635105  1
  O  O157  1  0.698375  0.059951  0.638374  1
  O  O158  1  0.703999  0.055173  0.084984  1
  O  O159  1  0.875180  0.319664  0.244617  1
  O  O160  1  0.871021  0.328072  0.806395  1
  O  O161  1  0.762584  0.046741  0.306708  1
  O  O162  1  0.990387  0.338665  0.026411  1
  O  O163  1  0.960542  0.249828  0.698709  1
  O  O164  1  0.866408  0.037391  0.426116  1
  O  O165  1  0.979724  0.323380  0.344996  1
  O  O166  1  0.900970  0.071604  0.971469  1
  O  O167  1  0.977391  0.238167  0.589812  1
