# generated using pymatgen
data_FeOF
_symmetry_space_group_name_H-M   'P 1'
_cell_length_a   9.47776003
_cell_length_b   9.47954418
_cell_length_c   6.20982199
_cell_angle_alpha   89.69574607
_cell_angle_beta   90.11216223
_cell_angle_gamma   90.37365094
_symmetry_Int_Tables_number   1
_chemical_formula_structural   FeOF
_chemical_formula_sum   'Fe16 O16 F16'
_cell_volume   557.89973275
_cell_formula_units_Z   16
loop_
 _symmetry_equiv_pos_site_id
 _symmetry_equiv_pos_as_xyz
  1  'x, y, z'
loop_
 _atom_site_type_symbol
 _atom_site_label
 _atom_site_symmetry_multiplicity
 _atom_site_fract_x
 _atom_site_fract_y
 _atom_site_fract_z
 _atom_site_occupancy
  Fe  Fe0  1  0.989354  0.990729  0.018163  1
  Fe  Fe1  1  0.009743  0.009513  0.483917  1
  Fe  Fe2  1  0.998623  0.501516  0.999259  1
  Fe  Fe3  1  0.000471  0.499739  0.498563  1
  Fe  Fe4  1  0.266336  0.230291  0.268974  1
  Fe  Fe5  1  0.233664  0.269709  0.731026  1
  Fe  Fe6  1  0.239309  0.760501  0.225844  1
  Fe  Fe7  1  0.260691  0.739499  0.774156  1
  Fe  Fe8  1  0.510646  0.509271  0.981837  1
  Fe  Fe9  1  0.490257  0.490487  0.516083  1
  Fe  Fe10  1  0.501377  0.998484  0.000741  1
  Fe  Fe11  1  0.499529  0.000261  0.501437  1
  Fe  Fe12  1  0.759625  0.240493  0.226108  1
  Fe  Fe13  1  0.740375  0.259507  0.773892  1
  Fe  Fe14  1  0.768408  0.734227  0.233302  1
  Fe  Fe15  1  0.731592  0.765773  0.766698  1
  O  O16  1  0.089265  0.412071  0.743943  1
  O  O17  1  0.096602  0.904024  0.252637  1
  O  O18  1  0.153451  0.153554  0.505173  1
  O  O19  1  0.149169  0.650976  0.000013  1
  O  O20  1  0.346549  0.346446  0.494827  1
  O  O21  1  0.350831  0.849024  -0.000013  1
  O  O22  1  0.403398  0.595976  0.747363  1
  O  O23  1  0.410735  0.087929  0.256057  1
  O  O24  1  0.596733  0.402797  0.748281  1
  O  O25  1  0.589643  0.909967  0.740430  1
  O  O26  1  0.650711  0.149169  0.000740  1
  O  O27  1  0.653760  0.653606  0.004130  1
  O  O28  1  0.849289  0.350831  0.999260  1
  O  O29  1  0.846240  0.846394  0.995870  1
  O  O30  1  0.903267  0.097203  0.251719  1
  O  O31  1  0.910357  0.590033  0.259570  1
  F  F32  1  0.102612  0.396222  0.250554  1
  F  F33  1  0.097031  0.902790  0.747631  1
  F  F34  1  0.154535  0.154155  0.995415  1
  F  F35  1  0.155291  0.654926  0.499582  1
  F  F36  1  0.345465  0.345845  0.004585  1
  F  F37  1  0.344709  0.845074  0.500418  1
  F  F38  1  0.397388  0.103778  0.749446  1
  F  F39  1  0.402969  0.597210  0.252369  1
  F  F40  1  0.596705  0.403464  0.252651  1
  F  F41  1  0.605131  0.895565  0.262824  1
  F  F42  1  0.655214  0.155005  0.500608  1
  F  F43  1  0.653122  0.653359  0.495883  1
  F  F44  1  0.844786  0.344995  0.499392  1
  F  F45  1  0.846878  0.846641  0.504117  1
  F  F46  1  0.903295  0.096536  0.747349  1
  F  F47  1  0.894869  0.604435  0.737176  1
