# generated using pymatgen
data_LiCuPO4
_symmetry_space_group_name_H-M   'P 1'
_cell_length_a   7.65980821
_cell_length_b   8.99804805
_cell_length_c   4.86136845
_cell_angle_alpha   90.00000000
_cell_angle_beta   90.00000000
_cell_angle_gamma   90.00000000
_symmetry_Int_Tables_number   1
_chemical_formula_structural   LiCuPO4
_chemical_formula_sum   'Li4 Cu4 P4 O16'
_cell_volume   335.06166463
_cell_formula_units_Z   4
loop_
 _symmetry_equiv_pos_site_id
 _symmetry_equiv_pos_as_xyz
  1  'x, y, z'
loop_
 _atom_site_type_symbol
 _atom_site_label
 _atom_site_symmetry_multiplicity
 _atom_site_fract_x
 _atom_site_fract_y
 _atom_site_fract_z
 _atom_site_occupancy
  Li  Li0  1  0.041427  0.630220  0.962423  1
  Li  Li1  1  0.458573  0.130220  0.462423  1
  Li  Li2  1  0.541427  0.869780  0.962423  1
  Li  Li3  1  0.958573  0.369780  0.462423  1
  Cu  Cu4  1  0.165282  0.042410  0.965435  1
  Cu  Cu5  1  0.334718  0.542410  0.465435  1
  Cu  Cu6  1  0.665282  0.457590  0.965435  1
  Cu  Cu7  1  0.834718  0.957590  0.465435  1
  P  P8  1  0.228663  0.854590  0.558344  1
  P  P9  1  0.271337  0.354590  0.058344  1
  P  P10  1  0.728663  0.645410  0.558344  1
  P  P11  1  0.771337  0.145410  0.058344  1
  O  O12  1  0.053592  0.932180  0.665361  1
  O  O13  1  0.135501  0.460516  0.204848  1
  O  O14  1  0.250913  0.848946  0.248452  1
  O  O15  1  0.225501  0.696389  0.687137  1
  O  O16  1  0.274499  0.196389  0.187137  1
  O  O17  1  0.249087  0.348946  0.748452  1
  O  O18  1  0.364499  0.960516  0.704848  1
  O  O19  1  0.446408  0.432180  0.165361  1
  O  O20  1  0.553592  0.567820  0.665361  1
  O  O21  1  0.635501  0.039484  0.204848  1
  O  O22  1  0.750913  0.651054  0.248452  1
  O  O23  1  0.725501  0.803611  0.687137  1
  O  O24  1  0.774499  0.303611  0.187137  1
  O  O25  1  0.749087  0.151054  0.748452  1
  O  O26  1  0.864499  0.539484  0.704848  1
  O  O27  1  0.946408  0.067820  0.165361  1
