# generated using pymatgen
data_LiBiB2O5
_symmetry_space_group_name_H-M   'P 1'
_cell_length_a   6.98080800
_cell_length_b   11.02988086
_cell_length_c   6.75056220
_cell_angle_alpha   90.00000000
_cell_angle_beta   71.84733299
_cell_angle_gamma   90.00000000
_symmetry_Int_Tables_number   1
_chemical_formula_structural   LiBiB2O5
_chemical_formula_sum   'Li4 Bi4 B8 O20'
_cell_volume   493.90688766
_cell_formula_units_Z   4
loop_
 _symmetry_equiv_pos_site_id
 _symmetry_equiv_pos_as_xyz
  1  'x, y, z'
loop_
 _atom_site_type_symbol
 _atom_site_label
 _atom_site_symmetry_multiplicity
 _atom_site_fract_x
 _atom_site_fract_y
 _atom_site_fract_z
 _atom_site_occupancy
  Li  Li0  1  0.191583  0.493713  0.367793  1
  Li  Li1  1  0.191583  0.006287  0.867793  1
  Li  Li2  1  0.808417  0.993713  0.132207  1
  Li  Li3  1  0.808417  0.506287  0.632207  1
  Bi  Bi4  1  0.245229  0.830680  0.230077  1
  Bi  Bi5  1  0.245229  0.669320  0.730077  1
  Bi  Bi6  1  0.754771  0.330680  0.269923  1
  Bi  Bi7  1  0.754771  0.169320  0.769923  1
  B  B8  1  0.096807  0.106726  0.312016  1
  B  B9  1  0.096807  0.393274  0.812016  1
  B  B10  1  0.472834  0.076681  0.241191  1
  B  B11  1  0.527166  0.576681  0.258809  1
  B  B12  1  0.472834  0.423319  0.741191  1
  B  B13  1  0.527166  0.923319  0.758809  1
  B  B14  1  0.903193  0.606726  0.187984  1
  B  B15  1  0.903193  0.893274  0.687984  1
  O  O16  1  0.059324  0.680909  0.077614  1
  O  O17  1  0.067769  0.011286  0.190803  1
  O  O18  1  0.059324  0.819091  0.577614  1
  O  O19  1  0.067769  0.488714  0.690803  1
  O  O20  1  0.287207  0.133427  0.325270  1
  O  O21  1  0.358327  0.648641  0.344522  1
  O  O22  1  0.287207  0.366573  0.825270  1
  O  O23  1  0.504046  0.953773  0.238666  1
  O  O24  1  0.358327  0.851359  0.844522  1
  O  O25  1  0.495954  0.453773  0.261334  1
  O  O26  1  0.504046  0.546227  0.738666  1
  O  O27  1  0.641673  0.148641  0.155478  1
  O  O28  1  0.495954  0.046227  0.761334  1
  O  O29  1  0.712793  0.633427  0.174730  1
  O  O30  1  0.641673  0.351359  0.655478  1
  O  O31  1  0.712793  0.866573  0.674730  1
  O  O32  1  0.932231  0.511286  0.309197  1
  O  O33  1  0.940676  0.180909  0.422386  1
  O  O34  1  0.932231  0.988714  0.809197  1
  O  O35  1  0.940676  0.319091  0.922386  1
