# generated using pymatgen
data_BH5C4(N2O)2
_symmetry_space_group_name_H-M   'P 1'
_cell_length_a   7.66187550
_cell_length_b   12.61096130
_cell_length_c   12.45827096
_cell_angle_alpha   90.00000000
_cell_angle_beta   90.00000000
_cell_angle_gamma   90.00000000
_symmetry_Int_Tables_number   1
_chemical_formula_structural   BH5C4(N2O)2
_chemical_formula_sum   'B6 H30 C24 N24 O12'
_cell_volume   1203.76318199
_cell_formula_units_Z   6
loop_
 _symmetry_equiv_pos_site_id
 _symmetry_equiv_pos_as_xyz
  1  'x, y, z'
loop_
 _atom_site_type_symbol
 _atom_site_label
 _atom_site_symmetry_multiplicity
 _atom_site_fract_x
 _atom_site_fract_y
 _atom_site_fract_z
 _atom_site_occupancy
  B  B0  1  0.000000  0.000000  0.517225  1
  B  B1  1  0.000000  0.500000  0.553141  1
  B  B2  1  0.000000  0.500000  0.785639  1
  B  B3  1  0.500000  0.000000  0.285639  1
  B  B4  1  0.500000  0.500000  0.017225  1
  B  B5  1  0.500000  0.000000  0.053141  1
  H  H6  1  0.000000  0.000000  0.258712  1
  H  H7  1  0.000000  0.500000  0.380465  1
  H  H8  1  0.126512  0.804143  0.623755  1
  H  H9  1  0.257488  0.845447  0.440348  1
  H  H10  1  0.952153  0.116446  0.382555  1
  H  H11  1  0.197406  0.031830  0.639642  1
  H  H12  1  0.226464  0.609706  0.181926  1
  H  H13  1  0.363580  0.056915  0.410873  1
  H  H14  1  0.136420  0.556915  0.910873  1
  H  H15  1  0.273536  0.109706  0.681926  1
  H  H16  1  0.302594  0.531830  0.139642  1
  H  H17  1  0.547847  0.616446  0.882555  1
  H  H18  1  0.242512  0.345447  0.940348  1
  H  H19  1  0.373488  0.304143  0.123755  1
  H  H20  1  0.500000  0.500000  0.758712  1
  H  H21  1  0.500000  0.500000  0.334918  1
  H  H22  1  0.500000  0.000000  0.880465  1
  H  H23  1  0.626512  0.695857  0.123755  1
  H  H24  1  0.757488  0.654553  0.940348  1
  H  H25  1  0.452153  0.383554  0.882555  1
  H  H26  1  0.697406  0.468170  0.139642  1
  H  H27  1  0.726464  0.890294  0.681926  1
  H  H28  1  0.863580  0.443085  0.910873  1
  H  H29  1  0.636420  0.943085  0.410873  1
  H  H30  1  0.773536  0.390294  0.181926  1
  H  H31  1  0.802594  0.968170  0.639642  1
  H  H32  1  0.047847  0.883554  0.382555  1
  H  H33  1  0.742512  0.154553  0.440348  1
  H  H34  1  0.873488  0.195857  0.623755  1
  H  H35  1  0.000000  0.000000  0.834918  1
  C  C36  1  0.975009  0.604852  0.617972  1
  C  C37  1  0.053574  0.271933  0.014137  1
  C  C38  1  0.952396  0.944733  0.404315  1
  C  C39  1  0.139306  0.956269  0.602725  1
  C  C40  1  0.174793  0.529800  0.828485  1
  C  C41  1  0.143581  0.489766  0.454784  1
  C  C42  1  0.356419  0.989766  0.954784  1
  C  C43  1  0.325207  0.029800  0.328485  1
  C  C44  1  0.360694  0.456269  0.102725  1
  C  C45  1  0.547604  0.444733  0.904315  1
  C  C46  1  0.446426  0.771933  0.514137  1
  C  C47  1  0.524991  0.104852  0.117972  1
  C  C48  1  0.475009  0.895148  0.117972  1
  C  C49  1  0.553574  0.228067  0.514137  1
  C  C50  1  0.452396  0.555267  0.904315  1
  C  C51  1  0.639306  0.543731  0.102725  1
  C  C52  1  0.674793  0.970200  0.328485  1
  C  C53  1  0.643581  0.010234  0.954784  1
  C  C54  1  0.856419  0.510234  0.454784  1
  C  C55  1  0.825207  0.470200  0.828485  1
  C  C56  1  0.860694  0.043731  0.602725  1
  C  C57  1  0.047604  0.055267  0.404315  1
  C  C58  1  0.946426  0.728067  0.014137  1
  C  C59  1  0.024991  0.395148  0.617972  1
  N  N60  1  0.182577  0.873060  0.652030  1
  N  N61  1  0.098521  0.692627  0.309128  1
  N  N62  1  0.131733  0.305051  0.917623  1
  N  N63  1  0.353581  0.162978  0.729080  1
  N  N64  1  0.073389  0.312395  0.647927  1
  N  N65  1  0.343297  0.536405  0.811781  1
  N  N66  1  0.156703  0.036405  0.311781  1
  N  N67  1  0.426611  0.812395  0.147927  1
  N  N68  1  0.146419  0.662978  0.229080  1
  N  N69  1  0.368267  0.805051  0.417623  1
  N  N70  1  0.401479  0.192627  0.809128  1
  N  N71  1  0.317423  0.373060  0.152030  1
  N  N72  1  0.682577  0.626940  0.152030  1
  N  N73  1  0.598521  0.807373  0.809128  1
  N  N74  1  0.631733  0.194949  0.417623  1
  N  N75  1  0.853581  0.337022  0.229080  1
  N  N76  1  0.573389  0.187605  0.147927  1
  N  N77  1  0.843297  0.963595  0.311781  1
  N  N78  1  0.656703  0.463595  0.811781  1
  N  N79  1  0.926611  0.687605  0.647927  1
  N  N80  1  0.646419  0.837022  0.729080  1
  N  N81  1  0.868267  0.694949  0.917623  1
  N  N82  1  0.901479  0.307373  0.309128  1
  N  N83  1  0.817423  0.126940  0.652030  1
  O  O84  1  0.772888  0.052320  0.928135  1
  O  O85  1  0.930506  0.330101  0.051407  1
  O  O86  1  0.888401  0.813205  0.052820  1
  O  O87  1  0.611599  0.313205  0.552820  1
  O  O88  1  0.569494  0.830101  0.551407  1
  O  O89  1  0.727112  0.552320  0.428135  1
  O  O90  1  0.272888  0.447680  0.428135  1
  O  O91  1  0.430506  0.169899  0.551407  1
  O  O92  1  0.388401  0.686795  0.552820  1
  O  O93  1  0.111599  0.186795  0.052820  1
  O  O94  1  0.069494  0.669899  0.051407  1
  O  O95  1  0.227112  0.947680  0.928135  1
