# generated using pymatgen
data_Li5Cu(PO4)2
_symmetry_space_group_name_H-M   'P 1'
_cell_length_a   6.21500916
_cell_length_b   5.33800732
_cell_length_c   9.95567516
_cell_angle_alpha   89.81502533
_cell_angle_beta   89.87822354
_cell_angle_gamma   89.91042582
_symmetry_Int_Tables_number   1
_chemical_formula_structural   Li5Cu(PO4)2
_chemical_formula_sum   'Li10 Cu2 P4 O16'
_cell_volume   330.28426593
_cell_formula_units_Z   2
loop_
 _symmetry_equiv_pos_site_id
 _symmetry_equiv_pos_as_xyz
  1  'x, y, z'
loop_
 _atom_site_type_symbol
 _atom_site_label
 _atom_site_symmetry_multiplicity
 _atom_site_fract_x
 _atom_site_fract_y
 _atom_site_fract_z
 _atom_site_occupancy
  Li  Li0  1  -0.000016  0.155194  0.244828  1
  Li  Li1  1  0.245056  0.326532  0.494892  1
  Li  Li2  1  0.248095  0.328328  0.996447  1
  Li  Li3  1  0.253335  0.672345  0.245516  1
  Li  Li4  1  0.250228  0.673471  0.745348  1
  Li  Li5  1  0.500426  0.844977  0.996363  1
  Li  Li6  1  0.499841  0.843712  0.494771  1
  Li  Li7  1  0.749510  0.673097  0.745016  1
  Li  Li8  1  0.746792  0.673732  0.245952  1
  Li  Li9  1  0.753546  0.326058  0.494017  1
  Cu  Cu10  1  0.997767  0.174185  0.746298  1
  Cu  Cu11  1  0.755622  0.335274  0.997410  1
  P  P12  1  0.004346  0.821869  0.002028  1
  P  P13  1  0.000075  0.821313  0.496761  1
  P  P14  1  0.498184  0.173748  0.252475  1
  P  P15  1  0.497053  0.171660  0.746873  1
  O  O16  1  -0.000012  0.806735  0.653596  1
  O  O17  1  0.999949  0.098887  0.448140  1
  O  O18  1  0.999895  0.813675  0.158058  1
  O  O19  1  0.015782  0.101211  0.956076  1
  O  O20  1  0.206891  0.685925  0.444283  1
  O  O21  1  0.207251  0.682154  0.948249  1
  O  O22  1  0.294799  0.312471  0.197930  1
  O  O23  1  0.296739  0.317674  0.692423  1
  O  O24  1  0.490444  0.172954  0.903464  1
  O  O25  1  0.499040  0.896173  0.696834  1
  O  O26  1  0.496196  0.177403  0.408752  1
  O  O27  1  0.500142  0.898542  0.200136  1
  O  O28  1  0.699176  0.315922  0.693878  1
  O  O29  1  0.707515  0.313313  0.206344  1
  O  O30  1  0.793309  0.686568  0.444881  1
  O  O31  1  0.793024  0.704897  0.944551  1
