# generated using pymatgen
data_ErP2H7O10
_symmetry_space_group_name_H-M   'P 1'
_cell_length_a   8.11403792
_cell_length_b   9.84636656
_cell_length_c   11.09049025
_cell_angle_alpha   90.00000000
_cell_angle_beta   90.00000000
_cell_angle_gamma   90.00000000
_symmetry_Int_Tables_number   1
_chemical_formula_structural   ErP2H7O10
_chemical_formula_sum   'Er4 P8 H28 O40'
_cell_volume   886.06131724
_cell_formula_units_Z   4
loop_
 _symmetry_equiv_pos_site_id
 _symmetry_equiv_pos_as_xyz
  1  'x, y, z'
loop_
 _atom_site_type_symbol
 _atom_site_label
 _atom_site_symmetry_multiplicity
 _atom_site_fract_x
 _atom_site_fract_y
 _atom_site_fract_z
 _atom_site_occupancy
  Er  Er0  1  0.750000  0.238451  0.250000  1
  Er  Er1  1  0.750000  0.261549  0.750000  1
  Er  Er2  1  0.250000  0.761549  0.750000  1
  Er  Er3  1  0.250000  0.738451  0.250000  1
  P  P4  1  0.873672  0.576089  0.454681  1
  P  P5  1  0.873672  0.923911  0.545319  1
  P  P6  1  0.626328  0.576089  0.045319  1
  P  P7  1  0.626328  0.923911  0.954681  1
  P  P8  1  0.126328  0.423911  0.545319  1
  P  P9  1  0.126328  0.076089  0.454681  1
  P  P10  1  0.373672  0.423911  0.954681  1
  P  P11  1  0.373672  0.076089  0.045319  1
  H  H12  1  0.374824  0.617845  0.483847  1
  H  H13  1  0.374824  0.882155  0.516153  1
  H  H14  1  0.125176  0.617845  0.016153  1
  H  H15  1  0.125176  0.882155  0.983847  1
  H  H16  1  0.625176  0.382155  0.516153  1
  H  H17  1  0.625176  0.117845  0.483847  1
  H  H18  1  0.874824  0.382155  0.983847  1
  H  H19  1  0.874824  0.117845  0.016153  1
  H  H20  1  0.700413  0.750000  0.500000  1
  H  H21  1  0.799587  0.750000  0.000000  1
  H  H22  1  0.299587  0.250000  0.500000  1
  H  H23  1  0.200413  0.250000  0.000000  1
  H  H24  1  0.913529  0.719361  0.312126  1
  H  H25  1  0.913529  0.780639  0.687874  1
  H  H26  1  0.586471  0.719361  0.187874  1
  H  H27  1  0.586471  0.780639  0.812126  1
  H  H28  1  0.086471  0.280639  0.687874  1
  H  H29  1  0.086471  0.219361  0.312126  1
  H  H30  1  0.413529  0.280639  0.812126  1
  H  H31  1  0.413529  0.219361  0.187874  1
  H  H32  1  0.507051  0.594869  0.383949  1
  H  H33  1  0.507051  0.905131  0.616051  1
  H  H34  1  0.992949  0.594869  0.116051  1
  H  H35  1  0.992949  0.905131  0.883949  1
  H  H36  1  0.492949  0.405131  0.616051  1
  H  H37  1  0.492949  0.094869  0.383949  1
  H  H38  1  0.007051  0.405131  0.883949  1
  H  H39  1  0.007051  0.094869  0.116051  1
  O  O40  1  0.503710  0.654615  0.156320  1
  O  O41  1  0.503710  0.845385  0.843680  1
  O  O42  1  0.996290  0.654615  0.343680  1
  O  O43  1  0.996290  0.845385  0.656320  1
  O  O44  1  0.496290  0.345385  0.843680  1
  O  O45  1  0.496290  0.154615  0.156320  1
  O  O46  1  0.003710  0.345385  0.656320  1
  O  O47  1  0.003710  0.154615  0.343680  1
  O  O48  1  0.789707  0.658768  0.073046  1
  O  O49  1  0.789707  0.841232  0.926954  1
  O  O50  1  0.710293  0.658768  0.426954  1
  O  O51  1  0.710293  0.841232  0.573046  1
  O  O52  1  0.210293  0.341232  0.926954  1
  O  O53  1  0.210293  0.158768  0.073046  1
  O  O54  1  0.289707  0.341232  0.573046  1
  O  O55  1  0.289707  0.158768  0.426954  1
  O  O56  1  0.350513  0.900746  0.369436  1
  O  O57  1  0.350513  0.599254  0.630564  1
  O  O58  1  0.149487  0.900746  0.130564  1
  O  O59  1  0.149487  0.599254  0.869436  1
  O  O60  1  0.649487  0.099254  0.630564  1
  O  O61  1  0.649487  0.400746  0.369436  1
  O  O62  1  0.850513  0.099254  0.869436  1
  O  O63  1  0.850513  0.400746  0.130564  1
  O  O64  1  0.170348  0.921383  0.395731  1
  O  O65  1  0.170348  0.578617  0.604269  1
  O  O66  1  0.329652  0.921383  0.104269  1
  O  O67  1  0.329652  0.578617  0.895731  1
  O  O68  1  0.829652  0.078617  0.604269  1
  O  O69  1  0.829652  0.421383  0.395731  1
  O  O70  1  0.670348  0.078617  0.895731  1
  O  O71  1  0.670348  0.421383  0.104269  1
  O  O72  1  0.385783  0.608296  0.392479  1
  O  O73  1  0.385783  0.891704  0.607521  1
  O  O74  1  0.114217  0.608296  0.107521  1
  O  O75  1  0.114217  0.891704  0.892479  1
  O  O76  1  0.614217  0.391704  0.607521  1
  O  O77  1  0.614217  0.108296  0.392479  1
  O  O78  1  0.885783  0.391704  0.892479  1
  O  O79  1  0.885783  0.108296  0.107521  1
