# generated using pymatgen
data_BaNb5O8
_symmetry_space_group_name_H-M   'P 1'
_cell_length_a   6.70138928
_cell_length_b   7.88906883
_cell_length_c   4.16968398
_cell_angle_alpha   58.24939323
_cell_angle_beta   89.98948031
_cell_angle_gamma   89.99094820
_symmetry_Int_Tables_number   1
_chemical_formula_structural   BaNb5O8
_chemical_formula_sum   'Ba1 Nb5 O8'
_cell_volume   187.45184972
_cell_formula_units_Z   1
loop_
 _symmetry_equiv_pos_site_id
 _symmetry_equiv_pos_as_xyz
  1  'x, y, z'
loop_
 _atom_site_type_symbol
 _atom_site_label
 _atom_site_symmetry_multiplicity
 _atom_site_fract_x
 _atom_site_fract_y
 _atom_site_fract_z
 _atom_site_occupancy
  Ba  Ba0  1  0.000000  0.000000  0.994151  1
  Nb  Nb1  1  0.211895  0.401584  0.092662  1
  Nb  Nb2  1  0.401643  0.788102  0.707243  1
  Nb  Nb3  1  0.500000  0.500000  0.494151  1
  Nb  Nb4  1  0.598357  0.211898  0.281058  1
  Nb  Nb5  1  0.788105  0.598416  0.895640  1
  O  O6  1  0.099407  0.698860  0.796570  1
  O  O7  1  0.204215  0.387548  0.606655  1
  O  O8  1  0.300852  0.099230  0.393907  1
  O  O9  1  0.387133  0.795517  0.199891  1
  O  O10  1  0.612867  0.204483  0.788410  1
  O  O11  1  0.699148  0.900770  0.594394  1
  O  O12  1  0.795785  0.612452  0.381647  1
  O  O13  1  0.900593  0.301140  0.191731  1
