# generated using pymatgen
data_Mn2OF3
_symmetry_space_group_name_H-M   'P 1'
_cell_length_a   4.79438343
_cell_length_b   13.82622197
_cell_length_c   5.73908972
_cell_angle_alpha   100.92573443
_cell_angle_beta   90.65243927
_cell_angle_gamma   89.10726718
_symmetry_Int_Tables_number   1
_chemical_formula_structural   Mn2OF3
_chemical_formula_sum   'Mn10 O5 F15'
_cell_volume   373.47899086
_cell_formula_units_Z   5
loop_
 _symmetry_equiv_pos_site_id
 _symmetry_equiv_pos_as_xyz
  1  'x, y, z'
loop_
 _atom_site_type_symbol
 _atom_site_label
 _atom_site_symmetry_multiplicity
 _atom_site_fract_x
 _atom_site_fract_y
 _atom_site_fract_z
 _atom_site_occupancy
  Mn  Mn0  1  0.502984  0.999299  0.501207  1
  Mn  Mn1  1  0.485972  0.401752  0.304314  1
  Mn  Mn2  1  0.541843  0.590809  0.711165  1
  Mn  Mn3  1  0.466217  0.214229  0.901100  1
  Mn  Mn4  1  0.520477  0.790622  0.092233  1
  Mn  Mn5  1  0.965742  0.185895  0.398612  1
  Mn  Mn6  1  0.997946  0.400382  0.799825  1
  Mn  Mn7  1  0.038278  0.811881  0.601670  1
  Mn  Mn8  1  0.985441  0.603456  0.195486  1
  Mn  Mn9  1  0.999905  0.000038  0.998620  1
  O  O10  1  0.799494  0.049266  0.299315  1
  O  O11  1  0.698083  0.456016  0.608396  1
  O  O12  1  0.708655  0.656868  0.022352  1
  O  O13  1  0.286436  0.350824  0.994603  1
  O  O14  1  0.204873  0.948937  0.701087  1
  F  F15  1  0.811600  0.863889  0.921253  1
  F  F16  1  0.811320  0.262045  0.728209  1
  F  F17  1  0.815102  0.668503  0.513815  1
  F  F18  1  0.796698  0.464433  0.117552  1
  F  F19  1  0.701125  0.069667  0.817036  1
  F  F20  1  0.686304  0.265073  0.225349  1
  F  F21  1  0.688288  0.860172  0.427427  1
  F  F22  1  0.314904  0.138192  0.569120  1
  F  F23  1  0.300857  0.930190  0.181732  1
  F  F24  1  0.321290  0.728092  0.767005  1
  F  F25  1  0.292742  0.545207  0.384295  1
  F  F26  1  0.180876  0.539644  0.884003  1
  F  F27  1  0.191072  0.331255  0.485238  1
  F  F28  1  0.190974  0.134784  0.077133  1
  F  F29  1  0.194503  0.738579  0.270846  1
