# generated using pymatgen
data_Li2MnF4
_symmetry_space_group_name_H-M   'P 1'
_cell_length_a   6.16362633
_cell_length_b   5.53201454
_cell_length_c   6.29102743
_cell_angle_alpha   90.00000000
_cell_angle_beta   124.09925305
_cell_angle_gamma   90.00000000
_symmetry_Int_Tables_number   1
_chemical_formula_structural   Li2MnF4
_chemical_formula_sum   'Li4 Mn2 F8'
_cell_volume   177.62619321
_cell_formula_units_Z   2
loop_
 _symmetry_equiv_pos_site_id
 _symmetry_equiv_pos_as_xyz
  1  'x, y, z'
loop_
 _atom_site_type_symbol
 _atom_site_label
 _atom_site_symmetry_multiplicity
 _atom_site_fract_x
 _atom_site_fract_y
 _atom_site_fract_z
 _atom_site_occupancy
  Li  Li0  1  0.104306  0.715158  0.561877  1
  Li  Li1  1  0.395694  0.215158  0.938123  1
  Li  Li2  1  0.604306  0.784842  0.061877  1
  Li  Li3  1  0.895694  0.284842  0.438123  1
  Mn  Mn4  1  0.000000  0.000000  0.000000  1
  Mn  Mn5  1  0.500000  0.500000  0.500000  1
  F  F6  1  0.246976  0.888264  0.866310  1
  F  F7  1  0.208799  0.785724  0.338587  1
  F  F8  1  0.253024  0.388264  0.633690  1
  F  F9  1  0.291201  0.285724  0.161413  1
  F  F10  1  0.708799  0.714276  0.838587  1
  F  F11  1  0.746976  0.611736  0.366310  1
  F  F12  1  0.791201  0.214276  0.661413  1
  F  F13  1  0.753024  0.111736  0.133690  1
