# generated using pymatgen
data_KSiPCO7
_symmetry_space_group_name_H-M   'P 1'
_cell_length_a   10.11097501
_cell_length_b   6.00884300
_cell_length_c   5.09732669
_cell_angle_alpha   90.00000000
_cell_angle_beta   88.77198170
_cell_angle_gamma   90.00000000
_symmetry_Int_Tables_number   1
_chemical_formula_structural   KSiPCO7
_chemical_formula_sum   'K2 Si2 P2 C2 O14'
_cell_volume   309.61828687
_cell_formula_units_Z   2
loop_
 _symmetry_equiv_pos_site_id
 _symmetry_equiv_pos_as_xyz
  1  'x, y, z'
loop_
 _atom_site_type_symbol
 _atom_site_label
 _atom_site_symmetry_multiplicity
 _atom_site_fract_x
 _atom_site_fract_y
 _atom_site_fract_z
 _atom_site_occupancy
  K  K0  1  0.209787  0.367573  0.248782  1
  K  K1  1  0.790213  0.867573  0.751218  1
  Si  Si2  1  0.354433  0.777921  0.767072  1
  Si  Si3  1  0.645567  0.277921  0.232928  1
  P  P4  1  0.447744  0.274555  0.735367  1
  P  P5  1  0.552256  0.774555  0.264633  1
  C  C6  1  0.134147  0.743455  0.712574  1
  C  C7  1  0.865853  0.243455  0.287426  1
  O  O8  1  0.983432  0.201230  0.319474  1
  O  O9  1  0.196222  0.765747  0.941529  1
  O  O10  1  0.228368  0.764736  0.522366  1
  O  O11  1  0.352695  0.074956  0.767629  1
  O  O12  1  0.354504  0.475392  0.769667  1
  O  O13  1  0.445082  0.775019  0.057495  1
  O  O14  1  0.507363  0.277266  0.453328  1
  O  O15  1  0.492637  0.777266  0.546672  1
  O  O16  1  0.554918  0.275019  0.942505  1
  O  O17  1  0.645496  0.975392  0.230333  1
  O  O18  1  0.647305  0.574956  0.232371  1
  O  O19  1  0.771632  0.264736  0.477634  1
  O  O20  1  0.803778  0.265747  0.058471  1
  O  O21  1  0.016568  0.701230  0.680526  1
