# generated using pymatgen
data_LiMn(SiO3)2
_symmetry_space_group_name_H-M   'P 1'
_cell_length_a   18.41524502
_cell_length_b   8.92372989
_cell_length_c   5.22175199
_cell_angle_alpha   90.08829747
_cell_angle_beta   90.76392136
_cell_angle_gamma   89.80267059
_symmetry_Int_Tables_number   1
_chemical_formula_structural   LiMn(SiO3)2
_chemical_formula_sum   'Li8 Mn8 Si16 O48'
_cell_volume   858.02214181
_cell_formula_units_Z   8
loop_
 _symmetry_equiv_pos_site_id
 _symmetry_equiv_pos_as_xyz
  1  'x, y, z'
loop_
 _atom_site_type_symbol
 _atom_site_label
 _atom_site_symmetry_multiplicity
 _atom_site_fract_x
 _atom_site_fract_y
 _atom_site_fract_z
 _atom_site_occupancy
  Li  Li0  1  0.123278  0.988023  0.372508  1
  Li  Li1  1  0.124228  0.511144  0.872621  1
  Li  Li2  1  0.375373  0.841241  0.377468  1
  Li  Li3  1  0.374670  0.506170  0.374504  1
  Li  Li4  1  0.622726  0.001975  0.126409  1
  Li  Li5  1  0.623209  0.345118  0.124553  1
  Li  Li6  1  0.876626  0.659627  0.623209  1
  Li  Li7  1  0.876945  0.840550  0.125156  1
  Mn  Mn8  1  0.125566  0.352160  0.387382  1
  Mn  Mn9  1  0.125841  0.146789  0.889137  1
  Mn  Mn10  1  0.375069  0.647923  0.880055  1
  Mn  Mn11  1  0.373154  0.008539  0.870800  1
  Mn  Mn12  1  0.623696  0.511506  0.629098  1
  Mn  Mn13  1  0.622527  0.147721  0.620797  1
  Mn  Mn14  1  0.875160  0.997662  0.627974  1
  Mn  Mn15  1  0.876128  0.501333  0.128389  1
  Si  Si16  1  0.028953  0.659448  0.304253  1
  Si  Si17  1  0.028983  0.840241  0.804657  1
  Si  Si18  1  0.228402  0.657058  0.569861  1
  Si  Si19  1  0.227848  0.836967  0.063272  1
  Si  Si20  1  0.271900  0.163904  0.558580  1
  Si  Si21  1  0.271872  0.340327  0.061925  1
  Si  Si22  1  0.473243  0.163519  0.295474  1
  Si  Si23  1  0.473321  0.339653  0.791868  1
  Si  Si24  1  0.525336  0.664185  0.202527  1
  Si  Si25  1  0.525481  0.840531  0.706820  1
  Si  Si26  1  0.726988  0.661658  0.932110  1
  Si  Si27  1  0.726635  0.844727  0.429174  1
  Si  Si28  1  0.771292  0.156872  0.917948  1
  Si  Si29  1  0.772373  0.339565  0.424346  1
  Si  Si30  1  0.972324  0.163882  0.212154  1
  Si  Si31  1  0.972412  0.335168  0.712090  1
  O  O32  1  0.053918  0.708311  0.598166  1
  O  O33  1  0.054071  0.791419  0.099358  1
  O  O34  1  0.061311  0.161848  0.208274  1
  O  O35  1  0.061129  0.336735  0.707278  1
  O  O36  1  0.071966  0.506706  0.219002  1
  O  O37  1  0.071994  0.992248  0.720204  1
  O  O38  1  0.182441  0.176235  0.548774  1
  O  O39  1  0.182125  0.320508  0.045025  1
  O  O40  1  0.195038  0.004684  0.062419  1
  O  O41  1  0.193788  0.491578  0.558728  1
  O  O42  1  0.200725  0.767955  0.337680  1
  O  O43  1  0.194969  0.728416  0.836252  1
  O  O44  1  0.305681  0.227806  0.836497  1
  O  O45  1  0.303757  0.264964  0.328770  1
  O  O46  1  0.302822  0.506118  0.059583  1
  O  O47  1  0.309415  0.998483  0.573709  1
  O  O48  1  0.317426  0.659598  0.573460  1
  O  O49  1  0.317375  0.834733  0.042616  1
  O  O50  1  0.429897  0.018805  0.182413  1
  O  O51  1  0.432936  0.490732  0.702010  1
  O  O52  1  0.436942  0.651264  0.184124  1
  O  O53  1  0.436329  0.847361  0.715332  1
  O  O54  1  0.445573  0.200921  0.594441  1
  O  O55  1  0.452613  0.299919  0.091469  1
  O  O56  1  0.552852  0.699360  0.902104  1
  O  O57  1  0.547213  0.800138  0.406733  1
  O  O58  1  0.561977  0.151899  0.316666  1
  O  O59  1  0.563053  0.342667  0.777084  1
  O  O60  1  0.568303  0.518500  0.315666  1
  O  O61  1  0.565761  0.989081  0.804314  1
  O  O62  1  0.683384  0.158104  0.923928  1
  O  O63  1  0.684868  0.343873  0.452068  1
  O  O64  1  0.690844  0.008909  0.439907  1
  O  O65  1  0.684777  0.500160  0.926870  1
  O  O66  1  0.694395  0.724558  0.649532  1
  O  O67  1  0.696474  0.772640  0.156062  1
  O  O68  1  0.806142  0.227307  0.649844  1
  O  O69  1  0.801093  0.268462  0.149176  1
  O  O70  1  0.812738  0.501329  0.418146  1
  O  O71  1  0.812373  0.995274  0.919656  1
  O  O72  1  0.814171  0.650141  0.941678  1
  O  O73  1  0.814537  0.844903  0.446214  1
  O  O74  1  0.932467  0.017177  0.324541  1
  O  O75  1  0.932838  0.482898  0.824354  1
  O  O76  1  0.940911  0.646022  0.299096  1
  O  O77  1  0.940920  0.853816  0.800269  1
  O  O78  1  0.946154  0.195515  0.907277  1
  O  O79  1  0.945956  0.304732  0.406112  1
