# generated using pymatgen
data_Li2Sn5(PO4)4
_symmetry_space_group_name_H-M   'P 1'
_cell_length_a   9.65615782
_cell_length_b   9.77283728
_cell_length_c   5.17906465
_cell_angle_alpha   98.86342894
_cell_angle_beta   99.87865869
_cell_angle_gamma   117.88123309
_symmetry_Int_Tables_number   1
_chemical_formula_structural   Li2Sn5(PO4)4
_chemical_formula_sum   'Li2 Sn5 P4 O16'
_cell_volume   409.90399451
_cell_formula_units_Z   1
loop_
 _symmetry_equiv_pos_site_id
 _symmetry_equiv_pos_as_xyz
  1  'x, y, z'
loop_
 _atom_site_type_symbol
 _atom_site_label
 _atom_site_symmetry_multiplicity
 _atom_site_fract_x
 _atom_site_fract_y
 _atom_site_fract_z
 _atom_site_occupancy
  Li  Li0  1  0.078642  0.254314  0.621199  1
  Li  Li1  1  0.921358  0.745686  0.378801  1
  Sn  Sn2  1  0.221518  0.768673  0.997233  1
  Sn  Sn3  1  0.000000  0.000000  0.000000  1
  Sn  Sn4  1  0.472871  0.667505  0.692182  1
  Sn  Sn5  1  0.527129  0.332495  0.307818  1
  Sn  Sn6  1  0.778482  0.231327  0.002767  1
  P  P7  1  0.187720  0.437502  0.221234  1
  P  P8  1  0.275276  0.050429  0.604400  1
  P  P9  1  0.724724  0.949571  0.395600  1
  P  P10  1  0.812280  0.562498  0.778766  1
  O  O11  1  0.168669  0.922816  0.316206  1
  O  O12  1  0.319631  0.968262  0.809561  1
  O  O13  1  0.032912  0.282466  0.246843  1
  O  O14  1  0.171117  0.431204  0.921711  1
  O  O15  1  0.212041  0.595257  0.394117  1
  O  O16  1  0.168804  0.116211  0.699445  1
  O  O17  1  0.563879  0.813776  0.421483  1
  O  O18  1  0.341416  0.430507  0.370181  1
  O  O19  1  0.658584  0.569493  0.629819  1
  O  O20  1  0.436121  0.186224  0.578517  1
  O  O21  1  0.831196  0.883789  0.300555  1
  O  O22  1  0.787959  0.404743  0.605883  1
  O  O23  1  0.828883  0.568796  0.078289  1
  O  O24  1  0.967088  0.717534  0.753157  1
  O  O25  1  0.680369  0.031738  0.190439  1
  O  O26  1  0.831331  0.077184  0.683794  1
