# generated using pymatgen
data_SrLiLa3MnO8
_symmetry_space_group_name_H-M   'P 1'
_cell_length_a   5.42754522
_cell_length_b   6.88334868
_cell_length_c   5.44325567
_cell_angle_alpha   90.00020338
_cell_angle_beta   89.99966045
_cell_angle_gamma   113.22204636
_symmetry_Int_Tables_number   1
_chemical_formula_structural   SrLiLa3MnO8
_chemical_formula_sum   'Sr1 Li1 La3 Mn1 O8'
_cell_volume   186.88298283
_cell_formula_units_Z   1
loop_
 _symmetry_equiv_pos_site_id
 _symmetry_equiv_pos_as_xyz
  1  'x, y, z'
loop_
 _atom_site_type_symbol
 _atom_site_label
 _atom_site_symmetry_multiplicity
 _atom_site_fract_x
 _atom_site_fract_y
 _atom_site_fract_z
 _atom_site_occupancy
  Sr  Sr0  1  0.358861  0.717713  -0.000002  1
  Li  Li1  1  0.495058  0.990087  0.499997  1
  La  La2  1  0.139908  0.279816  0.499999  1
  La  La3  1  0.633313  0.266752  0.000005  1
  La  La4  1  0.862911  0.726051  0.499996  1
  Mn  Mn5  1  0.999881  0.999809  0.999998  1
  O  O6  1  0.248182  0.006686  0.244061  1
  O  O7  1  0.248179  0.006678  0.755941  1
  O  O8  1  0.758563  0.006879  0.244054  1
  O  O9  1  0.758562  0.006876  0.755947  1
  O  O10  1  0.158421  0.316700  -0.000004  1
  O  O11  1  0.683120  0.366064  0.500005  1
  O  O12  1  0.318849  0.637094  0.499998  1
  O  O13  1  0.836194  0.672794  0.000004  1
