# generated using pymatgen
data_Li2Co(Si2O5)2
_symmetry_space_group_name_H-M   'P 1'
_cell_length_a   11.06458860
_cell_length_b   7.73111954
_cell_length_c   11.18262848
_cell_angle_alpha   90.00000000
_cell_angle_beta   110.82315616
_cell_angle_gamma   90.00000000
_symmetry_Int_Tables_number   1
_chemical_formula_structural   Li2Co(Si2O5)2
_chemical_formula_sum   'Li8 Co4 Si16 O40'
_cell_volume   894.09872078
_cell_formula_units_Z   4
loop_
 _symmetry_equiv_pos_site_id
 _symmetry_equiv_pos_as_xyz
  1  'x, y, z'
loop_
 _atom_site_type_symbol
 _atom_site_label
 _atom_site_symmetry_multiplicity
 _atom_site_fract_x
 _atom_site_fract_y
 _atom_site_fract_z
 _atom_site_occupancy
  Li  Li0  1  0.091457  0.250000  0.395360  1
  Li  Li1  1  0.024416  0.250000  0.108100  1
  Li  Li2  1  0.359544  0.250000  0.867020  1
  Li  Li3  1  0.378523  0.250000  0.446503  1
  Li  Li4  1  0.621477  0.750000  0.553497  1
  Li  Li5  1  0.640456  0.750000  0.132980  1
  Li  Li6  1  0.975584  0.750000  0.891900  1
  Li  Li7  1  0.908543  0.750000  0.604640  1
  Co  Co8  1  0.210225  0.023205  0.277137  1
  Co  Co9  1  0.210225  0.476795  0.277137  1
  Co  Co10  1  0.789775  0.523205  0.722863  1
  Co  Co11  1  0.789775  0.976795  0.722863  1
  Si  Si12  1  0.090558  0.048044  0.742936  1
  Si  Si13  1  0.090558  0.451956  0.742936  1
  Si  Si14  1  0.260820  0.954253  0.586610  1
  Si  Si15  1  0.260820  0.545747  0.586610  1
  Si  Si16  1  0.241810  0.550570  0.012344  1
  Si  Si17  1  0.241810  0.949430  0.012344  1
  Si  Si18  1  0.529155  0.554482  0.775183  1
  Si  Si19  1  0.529155  0.945518  0.775183  1
  Si  Si20  1  0.470845  0.054482  0.224817  1
  Si  Si21  1  0.470845  0.445518  0.224817  1
  Si  Si22  1  0.758190  0.050570  0.987656  1
  Si  Si23  1  0.758190  0.449430  0.987656  1
  Si  Si24  1  0.739180  0.045747  0.413390  1
  Si  Si25  1  0.739180  0.454253  0.413390  1
  Si  Si26  1  0.909442  0.548044  0.257064  1
  Si  Si27  1  0.909442  0.951956  0.257064  1
  O  O28  1  0.048258  0.250000  0.706239  1
  O  O29  1  0.222365  0.054759  0.876514  1
  O  O30  1  0.222365  0.445241  0.876514  1
  O  O31  1  0.189574  0.750000  0.969803  1
  O  O32  1  0.132954  0.534170  0.628430  1
  O  O33  1  0.132954  0.965830  0.628430  1
  O  O34  1  0.023590  0.067673  0.243388  1
  O  O35  1  0.023590  0.432327  0.243388  1
  O  O36  1  0.288953  0.750000  0.564228  1
  O  O37  1  0.241075  0.069969  0.462154  1
  O  O38  1  0.241075  0.430031  0.462154  1
  O  O39  1  0.164034  0.039437  0.091908  1
  O  O40  1  0.164034  0.460563  0.091908  1
  O  O41  1  0.382693  0.469141  0.712069  1
  O  O42  1  0.382693  0.030859  0.712069  1
  O  O43  1  0.514445  0.750000  0.826949  1
  O  O44  1  0.600523  0.058943  0.907217  1
  O  O45  1  0.600523  0.441057  0.907217  1
  O  O46  1  0.396878  0.050709  0.325209  1
  O  O47  1  0.396878  0.449291  0.325209  1
  O  O48  1  0.603122  0.550709  0.674791  1
  O  O49  1  0.603122  0.949291  0.674791  1
  O  O50  1  0.399477  0.558943  0.092783  1
  O  O51  1  0.399477  0.941057  0.092783  1
  O  O52  1  0.485555  0.250000  0.173051  1
  O  O53  1  0.617307  0.530859  0.287931  1
  O  O54  1  0.617307  0.969141  0.287931  1
  O  O55  1  0.835966  0.960563  0.908092  1
  O  O56  1  0.835966  0.539437  0.908092  1
  O  O57  1  0.758925  0.569969  0.537846  1
  O  O58  1  0.758925  0.930031  0.537846  1
  O  O59  1  0.711047  0.250000  0.435772  1
  O  O60  1  0.976410  0.567673  0.756612  1
  O  O61  1  0.976410  0.932327  0.756612  1
  O  O62  1  0.867046  0.034170  0.371570  1
  O  O63  1  0.867046  0.465830  0.371570  1
  O  O64  1  0.810426  0.250000  0.030197  1
  O  O65  1  0.777635  0.554759  0.123486  1
  O  O66  1  0.777635  0.945241  0.123486  1
  O  O67  1  0.951742  0.750000  0.293761  1
