# generated using pymatgen
data_Fe3O5F
_symmetry_space_group_name_H-M   'P 1'
_cell_length_a   7.37952373
_cell_length_b   5.54545871
_cell_length_c   5.54545871
_cell_angle_alpha   71.13525207
_cell_angle_beta   70.22991702
_cell_angle_gamma   70.22991702
_symmetry_Int_Tables_number   1
_chemical_formula_structural   Fe3O5F
_chemical_formula_sum   'Fe6 O10 F2'
_cell_volume   195.29929188
_cell_formula_units_Z   2
loop_
 _symmetry_equiv_pos_site_id
 _symmetry_equiv_pos_as_xyz
  1  'x, y, z'
loop_
 _atom_site_type_symbol
 _atom_site_label
 _atom_site_symmetry_multiplicity
 _atom_site_fract_x
 _atom_site_fract_y
 _atom_site_fract_z
 _atom_site_occupancy
  Fe  Fe0  1  0.821185  0.657234  0.657234  1
  Fe  Fe1  1  0.666667  0.333333  0.333333  1
  Fe  Fe2  1  0.338917  0.652388  0.652388  1
  Fe  Fe3  1  0.166667  0.333333  0.333333  1
  Fe  Fe4  1  0.512149  0.009433  0.009433  1
  Fe  Fe5  1  0.994416  0.014278  0.014278  1
  O  O6  1  0.666667  0.018871  0.647795  1
  O  O7  1  0.329065  0.358078  0.971363  1
  O  O8  1  0.952165  0.242422  0.242422  1
  O  O9  1  0.631978  0.552578  0.552578  1
  O  O10  1  0.381169  0.424244  0.424244  1
  O  O11  1  0.701355  0.114088  0.114088  1
  O  O12  1  0.329065  0.971363  0.358078  1
  O  O13  1  0.666667  0.647795  0.018871  1
  O  O14  1  0.004268  0.308588  0.695304  1
  O  O15  1  0.004268  0.695304  0.308588  1
  F  F16  1  0.296336  0.893504  0.893504  1
  F  F17  1  0.036997  0.773163  0.773163  1
