# generated using pymatgen
data_Ho2SO2
_symmetry_space_group_name_H-M   'P 1'
_cell_length_a   3.77726060
_cell_length_b   3.77727681
_cell_length_c   13.31796426
_cell_angle_alpha   89.99994598
_cell_angle_beta   89.99967832
_cell_angle_gamma   120.00011136
_symmetry_Int_Tables_number   1
_chemical_formula_structural   Ho2SO2
_chemical_formula_sum   'Ho4 S2 O4'
_cell_volume   164.55979964
_cell_formula_units_Z   2
loop_
 _symmetry_equiv_pos_site_id
 _symmetry_equiv_pos_as_xyz
  1  'x, y, z'
loop_
 _atom_site_type_symbol
 _atom_site_label
 _atom_site_symmetry_multiplicity
 _atom_site_fract_x
 _atom_site_fract_y
 _atom_site_fract_z
 _atom_site_occupancy
  Ho  Ho0  1  0.333330  0.666710  0.892381  1
  Ho  Ho1  1  0.333330  0.666669  0.607620  1
  Ho  Ho2  1  0.666670  0.333339  0.392381  1
  Ho  Ho3  1  0.666669  0.333373  0.107619  1
  S  S4  1  0.000000  0.000008  0.250001  1
  S  S5  1  -0.000003  0.000011  0.750001  1
  O  O6  1  0.333331  0.666705  0.064725  1
  O  O7  1  0.333329  0.666670  0.435272  1
  O  O8  1  0.666673  0.333376  0.935269  1
  O  O9  1  0.666671  0.333341  0.564731  1
