# generated using pymatgen
data_KPWCO7
_symmetry_space_group_name_H-M   'P 1'
_cell_length_a   10.57929021
_cell_length_b   6.53952996
_cell_length_c   5.34160112
_cell_angle_alpha   90.00000000
_cell_angle_beta   87.66085291
_cell_angle_gamma   90.00000000
_symmetry_Int_Tables_number   1
_chemical_formula_structural   KPWCO7
_chemical_formula_sum   'K2 P2 W2 C2 O14'
_cell_volume   369.24318515
_cell_formula_units_Z   2
loop_
 _symmetry_equiv_pos_site_id
 _symmetry_equiv_pos_as_xyz
  1  'x, y, z'
loop_
 _atom_site_type_symbol
 _atom_site_label
 _atom_site_symmetry_multiplicity
 _atom_site_fract_x
 _atom_site_fract_y
 _atom_site_fract_z
 _atom_site_occupancy
  K  K0  1  0.209021  0.393051  0.240145  1
  K  K1  1  0.790979  0.893051  0.759855  1
  P  P2  1  0.435920  0.274785  0.731855  1
  P  P3  1  0.564080  0.774785  0.268145  1
  W  W4  1  0.348643  0.776751  0.773459  1
  W  W5  1  0.651357  0.276751  0.226541  1
  C  C6  1  0.112979  0.737328  0.711315  1
  C  C7  1  0.887021  0.237328  0.288685  1
  O  O8  1  0.998874  0.209723  0.333355  1
  O  O9  1  0.162316  0.754368  0.934880  1
  O  O10  1  0.208157  0.749837  0.525897  1
  O  O11  1  0.347248  0.088091  0.784875  1
  O  O12  1  0.348839  0.461180  0.794671  1
  O  O13  1  0.452483  0.770126  0.092939  1
  O  O14  1  0.480139  0.282611  0.454536  1
  O  O15  1  0.519861  0.782611  0.545464  1
  O  O16  1  0.547517  0.270126  0.907061  1
  O  O17  1  0.651161  0.961180  0.205329  1
  O  O18  1  0.652752  0.588091  0.215125  1
  O  O19  1  0.791843  0.249837  0.474103  1
  O  O20  1  0.837684  0.254368  0.065120  1
  O  O21  1  0.001126  0.709723  0.666645  1
