# generated using pymatgen
data_Li10Fe9CoO20
_symmetry_space_group_name_H-M   'P 1'
_cell_length_a   21.25559234
_cell_length_b   2.97297356
_cell_length_c   5.97913580
_cell_angle_alpha   90.00000860
_cell_angle_beta   82.45841951
_cell_angle_gamma   90.00000803
_symmetry_Int_Tables_number   1
_chemical_formula_structural   Li10Fe9CoO20
_chemical_formula_sum   'Li10 Fe9 Co1 O20'
_cell_volume   374.56710417
_cell_formula_units_Z   1
loop_
 _symmetry_equiv_pos_site_id
 _symmetry_equiv_pos_as_xyz
  1  'x, y, z'
loop_
 _atom_site_type_symbol
 _atom_site_label
 _atom_site_symmetry_multiplicity
 _atom_site_fract_x
 _atom_site_fract_y
 _atom_site_fract_z
 _atom_site_occupancy
  Li  Li0  1  0.900000  0.500000  0.799994  1
  Li  Li1  1  0.801729  0.000000  0.596916  1
  Li  Li2  1  0.699349  0.500000  0.400334  1
  Li  Li3  1  0.600094  0.000000  0.199749  1
  Li  Li4  1  0.400000  0.000000  0.799964  1
  Li  Li5  1  0.499969  0.500000  0.000013  1
  Li  Li6  1  0.300031  0.500000  0.599971  1
  Li  Li7  1  0.199905  1.000000  0.400295  1
  Li  Li8  1  0.100652  0.500000  0.199688  1
  Li  Li9  1  0.998268  1.000000  0.003125  1
  Fe  Fe10  1  0.701294  0.500000  0.900817  1
  Fe  Fe11  1  0.802219  0.000000  0.104721  1
  Fe  Fe12  1  0.600243  0.000000  0.700770  1
  Fe  Fe13  1  0.500031  0.500000  0.500127  1
  Fe  Fe14  1  0.399998  0.000000  0.299997  1
  Fe  Fe15  1  0.199761  1.000000  0.899226  1
  Fe  Fe16  1  0.299968  0.500000  0.099863  1
  Fe  Fe17  1  0.098703  0.500000  0.699178  1
  Fe  Fe18  1  0.997780  1.000000  0.495269  1
  Co  Co19  1  0.899999  0.500000  0.300002  1
  O  O20  1  0.901753  0.000000  0.519414  1
  O  O21  1  0.993613  0.500000  0.264476  1
  O  O22  1  0.898246  1.000000  0.080576  1
  O  O23  1  0.798935  0.500000  0.866997  1
  O  O24  1  0.806389  0.500000  0.335535  1
  O  O25  1  0.697843  0.000000  0.664894  1
  O  O26  1  0.703798  1.000000  0.136148  1
  O  O27  1  0.603237  0.500000  0.934917  1
  O  O28  1  0.502811  1.000000  0.735046  1
  O  O29  1  0.597359  0.500000  0.465121  1
  O  O30  1  0.497272  0.000000  0.264987  1
  O  O31  1  0.402738  0.500000  0.535050  1
  O  O32  1  0.297190  0.000000  0.864934  1
  O  O33  1  0.302726  1.000000  0.335012  1
  O  O34  1  0.397263  0.500000  0.064948  1
  O  O35  1  0.102159  0.000000  0.935107  1
  O  O36  1  0.196765  0.500000  0.665079  1
  O  O37  1  0.202644  0.500000  0.134883  1
  O  O38  1  0.096203  0.000000  0.463862  1
  O  O39  1  0.001065  0.500000  0.732994  1
