# generated using pymatgen
data_BaSiO3
_symmetry_space_group_name_H-M   'P 1'
_cell_length_a   7.89097115
_cell_length_b   6.42593211
_cell_length_c   12.76680584
_cell_angle_alpha   90.00000000
_cell_angle_beta   84.38722329
_cell_angle_gamma   90.00000000
_symmetry_Int_Tables_number   1
_chemical_formula_structural   BaSiO3
_chemical_formula_sum   'Ba8 Si8 O24'
_cell_volume   644.26072949
_cell_formula_units_Z   8
loop_
 _symmetry_equiv_pos_site_id
 _symmetry_equiv_pos_as_xyz
  1  'x, y, z'
loop_
 _atom_site_type_symbol
 _atom_site_label
 _atom_site_symmetry_multiplicity
 _atom_site_fract_x
 _atom_site_fract_y
 _atom_site_fract_z
 _atom_site_occupancy
  Ba  Ba0  1  0.085449  0.601673  0.125999  1
  Ba  Ba1  1  0.079762  0.907546  0.662829  1
  Ba  Ba2  1  0.414551  0.101673  0.374001  1
  Ba  Ba3  1  0.420238  0.407546  0.837171  1
  Ba  Ba4  1  0.579762  0.592454  0.162829  1
  Ba  Ba5  1  0.585449  0.898327  0.625999  1
  Ba  Ba6  1  0.920238  0.092454  0.337171  1
  Ba  Ba7  1  0.914551  0.398327  0.874001  1
  Si  Si8  1  0.162102  0.648631  0.386697  1
  Si  Si9  1  0.240814  0.414027  0.588940  1
  Si  Si10  1  0.337898  0.148631  0.113303  1
  Si  Si11  1  0.259186  0.914027  0.911060  1
  Si  Si12  1  0.740814  0.085973  0.088940  1
  Si  Si13  1  0.662102  0.851369  0.886697  1
  Si  Si14  1  0.759186  0.585973  0.411060  1
  Si  Si15  1  0.837898  0.351369  0.613303  1
  O  O16  1  0.036110  0.410929  0.647717  1
  O  O17  1  0.149285  0.864370  0.451383  1
  O  O18  1  0.214781  0.159938  0.222014  1
  O  O19  1  0.280750  0.950060  0.039587  1
  O  O20  1  0.169997  0.104956  0.854782  1
  O  O21  1  0.219250  0.450060  0.460413  1
  O  O22  1  0.169201  0.688181  0.903718  1
  O  O23  1  0.285219  0.659937  0.277986  1
  O  O24  1  0.350715  0.364370  0.048617  1
  O  O25  1  0.330799  0.188181  0.596282  1
  O  O26  1  0.330003  0.604956  0.645218  1
  O  O27  1  0.536110  0.089071  0.147717  1
  O  O28  1  0.463890  0.910929  0.852283  1
  O  O29  1  0.669997  0.395044  0.354782  1
  O  O30  1  0.669201  0.811819  0.403718  1
  O  O31  1  0.649285  0.635630  0.951383  1
  O  O32  1  0.714781  0.340062  0.722014  1
  O  O33  1  0.830799  0.311819  0.096282  1
  O  O34  1  0.780750  0.549940  0.539587  1
  O  O35  1  0.830003  0.895044  0.145218  1
  O  O36  1  0.719250  0.049940  0.960413  1
  O  O37  1  0.785219  0.840063  0.777986  1
  O  O38  1  0.850715  0.135630  0.548617  1
  O  O39  1  0.963890  0.589071  0.352283  1
