# generated using pymatgen
data_Li6Mn2P(CO4)4
_symmetry_space_group_name_H-M   'P 1'
_cell_length_a   9.51563153
_cell_length_b   9.51563213
_cell_length_c   9.51563184
_cell_angle_alpha   90.00000009
_cell_angle_beta   59.99999758
_cell_angle_gamma   59.99999858
_symmetry_Int_Tables_number   1
_chemical_formula_structural   Li6Mn2P(CO4)4
_chemical_formula_sum   'Li12 Mn4 P2 C8 O32'
_cell_volume   609.25326938
_cell_formula_units_Z   2
loop_
 _symmetry_equiv_pos_site_id
 _symmetry_equiv_pos_as_xyz
  1  'x, y, z'
loop_
 _atom_site_type_symbol
 _atom_site_label
 _atom_site_symmetry_multiplicity
 _atom_site_fract_x
 _atom_site_fract_y
 _atom_site_fract_z
 _atom_site_occupancy
  Li  Li0  1  0.750000  0.676352  0.926352  1
  Li  Li1  1  0.647297  0.926352  0.676352  1
  Li  Li2  1  0.750000  0.073648  0.926352  1
  Li  Li3  1  0.750000  0.676352  0.323648  1
  Li  Li4  1  0.852703  0.323648  0.073648  1
  Li  Li5  1  0.250000  0.926352  0.676352  1
  Li  Li6  1  0.147297  0.676352  0.926352  1
  Li  Li7  1  0.750000  0.073648  0.323648  1
  Li  Li8  1  0.250000  0.926352  0.073648  1
  Li  Li9  1  0.250000  0.323648  0.676352  1
  Li  Li10  1  0.352703  0.073648  0.323648  1
  Li  Li11  1  0.250000  0.323648  0.073648  1
  Mn  Mn12  1  0.500000  0.500000  0.500000  1
  Mn  Mn13  1  0.500000  0.500000  0.000000  1
  Mn  Mn14  1  0.000000  0.500000  0.500000  1
  Mn  Mn15  1  0.000000  0.000000  0.500000  1
  P  P16  1  0.750000  0.875000  0.125000  1
  P  P17  1  0.250000  0.125000  0.875000  1
  C  C18  1  0.946668  0.276666  0.723334  1
  C  C19  1  0.946668  0.276666  0.329998  1
  C  C20  1  0.553332  0.670002  0.723334  1
  C  C21  1  0.553332  0.276666  0.723334  1
  C  C22  1  0.446668  0.723334  0.276666  1
  C  C23  1  0.446668  0.329998  0.276666  1
  C  C24  1  0.053332  0.723334  0.670002  1
  C  C25  1  0.053332  0.723334  0.276666  1
  O  O26  1  0.921182  0.864154  0.670699  1
  O  O27  1  0.921182  0.714663  0.408117  1
  O  O28  1  0.806546  0.408117  0.864154  1
  O  O29  1  0.693454  0.670699  0.714663  1
  O  O30  1  0.956036  0.135846  0.714663  1
  O  O31  1  0.883439  0.941719  0.058281  1
  O  O32  1  0.956036  0.408117  0.329301  1
  O  O33  1  0.616561  0.941719  0.325158  1
  O  O34  1  0.883439  0.674842  0.058281  1
  O  O35  1  0.421182  0.670699  0.864154  1
  O  O36  1  0.543964  0.670699  0.591883  1
  O  O37  1  0.616561  0.941719  0.058281  1
  O  O38  1  0.543964  0.285337  0.864154  1
  O  O39  1  0.806546  0.285337  0.329301  1
  O  O40  1  0.693454  0.135846  0.591883  1
  O  O41  1  0.578818  0.591883  0.285337  1
  O  O42  1  0.421182  0.408117  0.714663  1
  O  O43  1  0.306546  0.864154  0.408117  1
  O  O44  1  0.193454  0.714663  0.670699  1
  O  O45  1  0.456036  0.714663  0.135846  1
  O  O46  1  0.383439  0.058281  0.941719  1
  O  O47  1  0.456036  0.329301  0.408117  1
  O  O48  1  0.578818  0.329301  0.135846  1
  O  O49  1  0.383439  0.058281  0.674842  1
  O  O50  1  0.116561  0.325158  0.941719  1
  O  O51  1  0.043964  0.591883  0.670699  1
  O  O52  1  0.116561  0.058281  0.941719  1
  O  O53  1  0.043964  0.864154  0.285337  1
  O  O54  1  0.306546  0.329301  0.285337  1
  O  O55  1  0.193454  0.591883  0.135846  1
  O  O56  1  0.078818  0.285337  0.591883  1
  O  O57  1  0.078818  0.135846  0.329301  1
