# generated using pymatgen
data_CdP2(HO2)4
_symmetry_space_group_name_H-M   'P 1'
_cell_length_a   11.66178589
_cell_length_b   11.66178589
_cell_length_c   11.66178615
_cell_angle_alpha   89.40689557
_cell_angle_beta   89.40689563
_cell_angle_gamma   89.40689301
_symmetry_Int_Tables_number   1
_chemical_formula_structural   CdP2(HO2)4
_chemical_formula_sum   'Cd6 P12 H24 O48'
_cell_volume   1585.71767668
_cell_formula_units_Z   6
loop_
 _symmetry_equiv_pos_site_id
 _symmetry_equiv_pos_as_xyz
  1  'x, y, z'
loop_
 _atom_site_type_symbol
 _atom_site_label
 _atom_site_symmetry_multiplicity
 _atom_site_fract_x
 _atom_site_fract_y
 _atom_site_fract_z
 _atom_site_occupancy
  Cd  Cd0  1  0.393234  0.632741  0.854224  1
  Cd  Cd1  1  0.632741  0.854224  0.393234  1
  Cd  Cd2  1  0.854224  0.393234  0.632741  1
  Cd  Cd3  1  0.606766  0.367259  0.145776  1
  Cd  Cd4  1  0.367259  0.145776  0.606766  1
  Cd  Cd5  1  0.145776  0.606766  0.367259  1
  P  P6  1  0.017623  0.366206  0.278740  1
  P  P7  1  0.366206  0.278740  0.017623  1
  P  P8  1  0.278740  0.017623  0.366206  1
  P  P9  1  0.982377  0.633794  0.721260  1
  P  P10  1  0.633794  0.721260  0.982377  1
  P  P11  1  0.721260  0.982377  0.633794  1
  P  P12  1  0.123926  0.207853  0.458527  1
  P  P13  1  0.207853  0.458527  0.123926  1
  P  P14  1  0.458527  0.123926  0.207853  1
  P  P15  1  0.876074  0.792147  0.541473  1
  P  P16  1  0.792147  0.541473  0.876074  1
  P  P17  1  0.541473  0.876074  0.792147  1
  H  H18  1  0.312997  0.780374  0.559316  1
  H  H19  1  0.780374  0.559316  0.312997  1
  H  H20  1  0.559316  0.312997  0.780374  1
  H  H21  1  0.687003  0.219626  0.440684  1
  H  H22  1  0.219626  0.440684  0.687003  1
  H  H23  1  0.440684  0.687003  0.219626  1
  H  H24  1  0.425970  0.663080  0.277994  1
  H  H25  1  0.663080  0.277994  0.425970  1
  H  H26  1  0.277994  0.425970  0.663080  1
  H  H27  1  0.574030  0.336920  0.722006  1
  H  H28  1  0.336920  0.722006  0.574030  1
  H  H29  1  0.722006  0.574030  0.336920  1
  H  H30  1  0.227482  0.517369  0.944702  1
  H  H31  1  0.517369  0.944702  0.227482  1
  H  H32  1  0.944702  0.227482  0.517369  1
  H  H33  1  0.772518  0.482631  0.055298  1
  H  H34  1  0.482631  0.055298  0.772518  1
  H  H35  1  0.055298  0.772518  0.482631  1
  H  H36  1  0.923889  0.878451  0.216718  1
  H  H37  1  0.878451  0.216718  0.923889  1
  H  H38  1  0.216718  0.923889  0.878451  1
  H  H39  1  0.076111  0.121549  0.783282  1
  H  H40  1  0.121549  0.783282  0.076111  1
  H  H41  1  0.783282  0.076111  0.121549  1
  O  O42  1  0.285590  0.874362  0.355078  1
  O  O43  1  0.874362  0.355078  0.285590  1
  O  O44  1  0.355078  0.285590  0.874362  1
  O  O45  1  0.714410  0.125638  0.644922  1
  O  O46  1  0.125638  0.644922  0.714410  1
  O  O47  1  0.644922  0.714410  0.125638  1
  O  O48  1  0.680378  -0.006619  0.509068  1
  O  O49  1  -0.006619  0.509068  0.680378  1
  O  O50  1  0.509068  0.680378  -0.006619  1
  O  O51  1  0.319622  0.006619  0.490932  1
  O  O52  1  0.006619  0.490932  0.319622  1
  O  O53  1  0.490932  0.319622  0.006619  1
  O  O54  1  0.552939  0.203014  0.237387  1
  O  O55  1  0.203014  0.237387  0.552939  1
  O  O56  1  0.237387  0.552939  0.203014  1
  O  O57  1  0.447061  0.796986  0.762613  1
  O  O58  1  0.796986  0.762613  0.447061  1
  O  O59  1  0.762613  0.447061  0.796986  1
  O  O60  1  0.494778  0.000390  0.166081  1
  O  O61  1  0.000390  0.166081  0.494778  1
  O  O62  1  0.166081  0.494778  0.000390  1
  O  O63  1  0.505222  -0.000390  0.833919  1
  O  O64  1  -0.000390  0.833919  0.505222  1
  O  O65  1  0.833919  0.505222  -0.000390  1
  O  O66  1  0.318752  0.380014  0.109254  1
  O  O67  1  0.380014  0.109254  0.318752  1
  O  O68  1  0.109254  0.318752  0.380014  1
  O  O69  1  0.681248  0.619986  0.890746  1
  O  O70  1  0.619986  0.890746  0.681248  1
  O  O71  1  0.890746  0.681248  0.619986  1
  O  O72  1  0.105755  0.380006  0.165126  1
  O  O73  1  0.380006  0.165126  0.105755  1
  O  O74  1  0.165126  0.105755  0.380006  1
  O  O75  1  0.894245  0.619994  0.834874  1
  O  O76  1  0.619994  0.834874  0.894245  1
  O  O77  1  0.834874  0.894245  0.619994  1
  O  O78  1  0.870549  0.235407  0.244951  1
  O  O79  1  0.235407  0.244951  0.870549  1
  O  O80  1  0.244951  0.870549  0.235407  1
  O  O81  1  0.129451  0.764593  0.755049  1
  O  O82  1  0.764593  0.755049  0.129451  1
  O  O83  1  0.755049  0.129451  0.764593  1
  O  O84  1  0.229561  0.229451  -0.005340  1
  O  O85  1  0.229451  -0.005340  0.229561  1
  O  O86  1  -0.005340  0.229561  0.229451  1
  O  O87  1  0.770439  0.770549  0.005340  1
  O  O88  1  0.770549  0.005340  0.770439  1
  O  O89  1  0.005340  0.770439  0.770549  1
