# generated using pymatgen
data_CoSb(PO4)2
_symmetry_space_group_name_H-M   'P 1'
_cell_length_a   10.21297352
_cell_length_b   6.24069067
_cell_length_c   5.00071279
_cell_angle_alpha   90.00000000
_cell_angle_beta   87.55387807
_cell_angle_gamma   90.00000000
_symmetry_Int_Tables_number   1
_chemical_formula_structural   CoSb(PO4)2
_chemical_formula_sum   'Co2 Sb2 P4 O16'
_cell_volume   318.43504949
_cell_formula_units_Z   2
loop_
 _symmetry_equiv_pos_site_id
 _symmetry_equiv_pos_as_xyz
  1  'x, y, z'
loop_
 _atom_site_type_symbol
 _atom_site_label
 _atom_site_symmetry_multiplicity
 _atom_site_fract_x
 _atom_site_fract_y
 _atom_site_fract_z
 _atom_site_occupancy
  Co  Co0  1  0.225676  0.750000  0.454372  1
  Co  Co1  1  0.774324  0.250000  0.545628  1
  Sb  Sb2  1  0.279592  0.250000  0.962610  1
  Sb  Sb3  1  0.720408  0.750000  0.037390  1
  P  P4  1  0.095100  0.250000  0.413120  1
  P  P5  1  0.401380  0.750000  0.899375  1
  P  P6  1  0.598620  0.250000  0.100625  1
  P  P7  1  0.904900  0.750000  0.586880  1
  O  O8  1  0.049408  0.750000  0.639172  1
  O  O9  1  0.115112  0.250000  0.719047  1
  O  O10  1  0.173084  0.057636  0.265731  1
  O  O11  1  0.173084  0.442364  0.265731  1
  O  O12  1  0.331376  0.945185  0.759922  1
  O  O13  1  0.331376  0.554815  0.759922  1
  O  O14  1  0.382204  0.750000  0.201026  1
  O  O15  1  0.451018  0.250000  0.192299  1
  O  O16  1  0.548982  0.750000  0.807701  1
  O  O17  1  0.617796  0.250000  0.798974  1
  O  O18  1  0.668624  0.054815  0.240078  1
  O  O19  1  0.668624  0.445185  0.240078  1
  O  O20  1  0.826916  0.557636  0.734269  1
  O  O21  1  0.826916  0.942364  0.734269  1
  O  O22  1  0.884888  0.750000  0.280953  1
  O  O23  1  0.950592  0.250000  0.360828  1
