# generated using pymatgen
data_Ca2MgB2H16(CO9)2
_symmetry_space_group_name_H-M   'P 1'
_cell_length_a   11.16318061
_cell_length_b   6.80007098
_cell_length_c   10.69058118
_cell_angle_alpha   90.00000000
_cell_angle_beta   116.55727604
_cell_angle_gamma   90.00000000
_symmetry_Int_Tables_number   1
_chemical_formula_structural   Ca2MgB2H16(CO9)2
_chemical_formula_sum   'Ca4 Mg2 B4 H32 C4 O36'
_cell_volume   725.90062231
_cell_formula_units_Z   2
loop_
 _symmetry_equiv_pos_site_id
 _symmetry_equiv_pos_as_xyz
  1  'x, y, z'
loop_
 _atom_site_type_symbol
 _atom_site_label
 _atom_site_symmetry_multiplicity
 _atom_site_fract_x
 _atom_site_fract_y
 _atom_site_fract_z
 _atom_site_occupancy
  Ca  Ca0  1  0.204719  0.500795  0.262964  1
  Ca  Ca1  1  0.704719  0.999205  0.762964  1
  Ca  Ca2  1  0.795281  0.499205  0.737036  1
  Ca  Ca3  1  0.295281  0.000795  0.237036  1
  Mg  Mg4  1  0.000000  0.500000  0.500000  1
  Mg  Mg5  1  0.500000  0.000000  0.000000  1
  B  B6  1  0.995441  0.203506  0.251776  1
  B  B7  1  0.495441  0.296494  0.751776  1
  B  B8  1  0.004559  0.796494  0.748224  1
  B  B9  1  0.504559  0.703506  0.248224  1
  H  H10  1  0.376836  0.670534  0.853988  1
  H  H11  1  0.876836  0.829466  0.353988  1
  H  H12  1  0.623164  0.329466  0.146012  1
  H  H13  1  0.123164  0.170534  0.646012  1
  H  H14  1  0.328434  0.613468  0.089528  1
  H  H15  1  0.828434  0.886532  0.589528  1
  H  H16  1  0.671566  0.386532  0.910472  1
  H  H17  1  0.171566  0.113468  0.410472  1
  H  H18  1  0.166957  0.963690  0.872950  1
  H  H19  1  0.666957  0.536310  0.372950  1
  H  H20  1  0.833043  0.036310  0.127050  1
  H  H21  1  0.333043  0.463690  0.627050  1
  H  H22  1  0.102486  0.817428  0.622620  1
  H  H23  1  0.602486  0.682572  0.122620  1
  H  H24  1  0.897514  0.182572  0.377380  1
  H  H25  1  0.397514  0.317428  0.877380  1
  H  H26  1  0.108506  0.564679  0.879769  1
  H  H27  1  0.608506  0.935321  0.379769  1
  H  H28  1  0.891494  0.435321  0.120231  1
  H  H29  1  0.391494  0.064679  0.620231  1
  H  H30  1  0.046405  0.753230  0.018086  1
  H  H31  1  0.546405  0.746770  0.518086  1
  H  H32  1  0.953595  0.246770  0.981914  1
  H  H33  1  0.453595  0.253230  0.481914  1
  H  H34  1  0.319241  0.844432  0.750945  1
  H  H35  1  0.819241  0.655568  0.250945  1
  H  H36  1  0.680759  0.155568  0.249055  1
  H  H37  1  0.180759  0.344432  0.749055  1
  H  H38  1  0.016245  0.869613  0.134648  1
  H  H39  1  0.516245  0.630387  0.634648  1
  H  H40  1  0.983755  0.130387  0.865352  1
  H  H41  1  0.483755  0.369613  0.365352  1
  C  C42  1  0.222973  0.769401  0.476383  1
  C  C43  1  0.722973  0.730599  0.976383  1
  C  C44  1  0.777027  0.230599  0.523617  1
  C  C45  1  0.277027  0.269401  0.023617  1
  O  O46  1  0.293104  0.789195  0.408277  1
  O  O47  1  0.793104  0.710805  0.908277  1
  O  O48  1  0.706896  0.210805  0.591723  1
  O  O49  1  0.206896  0.289195  0.091723  1
  O  O50  1  0.155993  0.605646  0.458166  1
  O  O51  1  0.655993  0.894354  0.958166  1
  O  O52  1  0.844007  0.394354  0.541834  1
  O  O53  1  0.344007  0.105646  0.041834  1
  O  O54  1  0.086218  0.796709  0.117587  1
  O  O55  1  0.586218  0.703291  0.617587  1
  O  O56  1  0.913782  0.203291  0.882413  1
  O  O57  1  0.413782  0.296709  0.382413  1
  O  O58  1  0.220981  0.907543  0.559526  1
  O  O59  1  0.720981  0.592457  0.059526  1
  O  O60  1  0.779019  0.092457  0.440474  1
  O  O61  1  0.279019  0.407543  0.940474  1
  O  O62  1  0.955708  0.275106  0.358060  1
  O  O63  1  0.455708  0.224894  0.858060  1
  O  O64  1  0.044292  0.724894  0.641940  1
  O  O65  1  0.544292  0.775106  0.141940  1
  O  O66  1  0.928190  0.016005  0.190022  1
  O  O67  1  0.428190  0.483995  0.690022  1
  O  O68  1  0.071810  0.983995  0.809978  1
  O  O69  1  0.571810  0.516005  0.309978  1
  O  O70  1  0.974045  0.358648  0.145922  1
  O  O71  1  0.474045  0.141352  0.645922  1
  O  O72  1  0.025955  0.641352  0.854078  1
  O  O73  1  0.525955  0.858648  0.354078  1
  O  O74  1  0.857189  0.688895  0.351074  1
  O  O75  1  0.357189  0.811105  0.851074  1
  O  O76  1  0.142811  0.311105  0.648926  1
  O  O77  1  0.642811  0.188895  0.148926  1
  O  O78  1  0.143249  0.170234  0.316903  1
  O  O79  1  0.643249  0.329766  0.816903  1
  O  O80  1  0.856751  0.829766  0.683097  1
  O  O81  1  0.356751  0.670234  0.183097  1
