# generated using pymatgen
data_Fe3(O2F)2
_symmetry_space_group_name_H-M   'P 1'
_cell_length_a   7.40541357
_cell_length_b   5.61977935
_cell_length_c   5.61211013
_cell_angle_alpha   70.68391427
_cell_angle_beta   70.63184754
_cell_angle_gamma   70.74297937
_symmetry_Int_Tables_number   1
_chemical_formula_structural   Fe3(O2F)2
_chemical_formula_sum   'Fe6 O8 F4'
_cell_volume   201.48198652
_cell_formula_units_Z   2
loop_
 _symmetry_equiv_pos_site_id
 _symmetry_equiv_pos_as_xyz
  1  'x, y, z'
loop_
 _atom_site_type_symbol
 _atom_site_label
 _atom_site_symmetry_multiplicity
 _atom_site_fract_x
 _atom_site_fract_y
 _atom_site_fract_z
 _atom_site_occupancy
  Fe  Fe0  1  0.843484  0.678991  0.693097  1
  Fe  Fe1  1  0.668027  0.334801  0.344517  1
  Fe  Fe2  1  0.315931  0.642285  0.653918  1
  Fe  Fe3  1  0.170217  0.312189  0.331042  1
  Fe  Fe4  1  0.495656  0.994793  0.002433  1
  Fe  Fe5  1  0.003425  0.030205  0.978719  1
  O  O6  1  0.665627  0.033296  0.651921  1
  O  O7  1  0.332852  0.344916  0.965071  1
  O  O8  1  0.953959  0.238016  0.231145  1
  O  O9  1  0.037637  0.783860  0.771397  1
  O  O10  1  0.380325  0.416315  0.427313  1
  O  O11  1  0.336005  0.951276  0.351779  1
  O  O12  1  0.662062  0.644170  0.042892  1
  O  O13  1  0.003093  0.324936  0.683665  1
  F  F14  1  0.300495  0.886441  0.891484  1
  F  F15  1  0.628962  0.571784  0.575678  1
  F  F16  1  0.701694  0.100794  0.106994  1
  F  F17  1  0.000550  0.710931  0.296934  1
