# generated using pymatgen
data_Li3MgV8O16
_symmetry_space_group_name_H-M   'P 1'
_cell_length_a   6.01150597
_cell_length_b   6.01150597
_cell_length_c   12.00445108
_cell_angle_alpha   59.82818555
_cell_angle_beta   59.82818555
_cell_angle_gamma   59.56886668
_symmetry_Int_Tables_number   1
_chemical_formula_structural   Li3MgV8O16
_chemical_formula_sum   'Li3 Mg1 V8 O16'
_cell_volume   304.95334424
_cell_formula_units_Z   1
loop_
 _symmetry_equiv_pos_site_id
 _symmetry_equiv_pos_as_xyz
  1  'x, y, z'
loop_
 _atom_site_type_symbol
 _atom_site_label
 _atom_site_symmetry_multiplicity
 _atom_site_fract_x
 _atom_site_fract_y
 _atom_site_fract_z
 _atom_site_occupancy
  Li  Li0  1  0.996560  0.996560  0.002750  1
  Li  Li1  1  0.250090  0.250090  0.125840  1
  Li  Li2  1  0.244281  0.244281  0.631198  1
  Mg  Mg3  1  0.626663  0.626663  0.562932  1
  V  V4  1  0.627195  0.131695  0.308131  1
  V  V5  1  0.622347  0.622347  0.063927  1
  V  V6  1  0.001701  0.001701  0.497002  1
  V  V7  1  0.627027  0.627027  0.308064  1
  V  V8  1  0.131695  0.627195  0.308131  1
  V  V9  1  0.609159  0.135889  0.815948  1
  V  V10  1  0.135889  0.609159  0.815948  1
  V  V11  1  0.622191  0.622191  0.813079  1
  O  O12  1  0.845463  0.395544  0.182406  1
  O  O13  1  0.396941  0.396941  0.181110  1
  O  O14  1  0.388839  0.388839  0.417767  1
  O  O15  1  0.395544  0.845463  0.182406  1
  O  O16  1  0.862339  0.862339  0.206867  1
  O  O17  1  0.870636  0.397443  0.432544  1
  O  O18  1  0.397443  0.870636  0.432544  1
  O  O19  1  0.869446  0.869446  0.432518  1
  O  O20  1  0.378825  0.378825  0.701367  1
  O  O21  1  0.833542  0.379750  0.708343  1
  O  O22  1  0.389349  0.389349  0.926216  1
  O  O23  1  0.379750  0.833542  0.708343  1
  O  O24  1  0.860976  0.413518  0.929331  1
  O  O25  1  0.863885  0.863885  0.699401  1
  O  O26  1  0.413518  0.860976  0.929331  1
  O  O27  1  0.858710  0.858710  0.926562  1
