# generated using pymatgen
data_Li2VCrO4
_symmetry_space_group_name_H-M   'P 1'
_cell_length_a   5.17009969
_cell_length_b   6.00615756
_cell_length_c   5.14209759
_cell_angle_alpha   90.02622537
_cell_angle_beta   79.97803901
_cell_angle_gamma   73.14946221
_symmetry_Int_Tables_number   1
_chemical_formula_structural   Li2VCrO4
_chemical_formula_sum   'Li4 V2 Cr2 O8'
_cell_volume   150.26737427
_cell_formula_units_Z   2
loop_
 _symmetry_equiv_pos_site_id
 _symmetry_equiv_pos_as_xyz
  1  'x, y, z'
loop_
 _atom_site_type_symbol
 _atom_site_label
 _atom_site_symmetry_multiplicity
 _atom_site_fract_x
 _atom_site_fract_y
 _atom_site_fract_z
 _atom_site_occupancy
  Li  Li0  1  0.000764  0.000941  0.998737  1
  Li  Li1  1  0.003389  0.244962  0.501679  1
  Li  Li2  1  0.999475  0.498478  0.001537  1
  Li  Li3  1  0.996610  0.755564  0.498533  1
  V  V4  1  0.500586  0.375381  0.249794  1
  V  V5  1  0.501172  0.624087  0.749023  1
  Cr  Cr6  1  0.498917  0.123272  0.750404  1
  Cr  Cr7  1  0.499348  0.877232  0.249907  1
  O  O8  1  0.272280  0.178009  0.120222  1
  O  O9  1  0.723907  0.068867  0.377146  1
  O  O10  1  0.273954  0.431072  0.625152  1
  O  O11  1  0.728400  0.311248  0.879505  1
  O  O12  1  0.274317  0.681833  0.124145  1
  O  O13  1  0.729414  0.574644  0.378613  1
  O  O14  1  0.272677  0.935410  0.619240  1
  O  O15  1  0.724791  0.819002  0.876365  1
