# generated using pymatgen
data_Li2FeSi3O8
_symmetry_space_group_name_H-M   'P 1'
_cell_length_a   6.80989336
_cell_length_b   6.40792595
_cell_length_c   8.40897448
_cell_angle_alpha   90.00000000
_cell_angle_beta   90.00000000
_cell_angle_gamma   106.74586304
_symmetry_Int_Tables_number   1
_chemical_formula_structural   Li2FeSi3O8
_chemical_formula_sum   'Li4 Fe2 Si6 O16'
_cell_volume   351.38354119
_cell_formula_units_Z   2
loop_
 _symmetry_equiv_pos_site_id
 _symmetry_equiv_pos_as_xyz
  1  'x, y, z'
loop_
 _atom_site_type_symbol
 _atom_site_label
 _atom_site_symmetry_multiplicity
 _atom_site_fract_x
 _atom_site_fract_y
 _atom_site_fract_z
 _atom_site_occupancy
  Li  Li0  1  0.212074  0.855539  0.315803  1
  Li  Li1  1  0.516180  0.560643  0.815435  1
  Li  Li2  1  0.483820  0.439357  0.315435  1
  Li  Li3  1  0.787926  0.144461  0.815803  1
  Fe  Fe4  1  0.400275  0.032360  0.998571  1
  Fe  Fe5  1  0.599725  0.967640  0.498571  1
  Si  Si6  1  0.020906  0.416789  0.515680  1
  Si  Si7  1  0.092846  0.239873  0.186266  1
  Si  Si8  1  0.279862  0.168757  0.664454  1
  Si  Si9  1  0.720138  0.831243  0.164454  1
  Si  Si10  1  0.907154  0.760127  0.686266  1
  Si  Si11  1  0.979094  0.583211  0.015680  1
  O  O12  1  0.063575  0.997417  0.737214  1
  O  O13  1  0.995683  0.331156  0.029759  1
  O  O14  1  0.098950  0.415178  0.330441  1
  O  O15  1  0.188477  0.760471  0.063104  1
  O  O16  1  0.216061  0.397497  0.627824  1
  O  O17  1  0.323079  0.225936  0.163788  1
  O  O18  1  0.349057  0.075984  0.501086  1
  O  O19  1  0.450673  0.232258  0.805725  1
  O  O20  1  0.549327  0.767742  0.305725  1
  O  O21  1  0.650943  0.924016  0.001086  1
  O  O22  1  0.676921  0.774064  0.663788  1
  O  O23  1  0.783939  0.602503  0.127824  1
  O  O24  1  0.811523  0.239529  0.563104  1
  O  O25  1  0.901050  0.584822  0.830441  1
  O  O26  1  0.004317  0.668844  0.529759  1
  O  O27  1  0.936425  0.002583  0.237214  1
