# generated using pymatgen
data_Li4V2Co3Sb3O16
_symmetry_space_group_name_H-M   'P 1'
_cell_length_a   6.13703448
_cell_length_b   6.09815662
_cell_length_c   9.74016336
_cell_angle_alpha   89.98111929
_cell_angle_beta   90.79922081
_cell_angle_gamma   119.77830625
_symmetry_Int_Tables_number   1
_chemical_formula_structural   Li4V2Co3Sb3O16
_chemical_formula_sum   'Li4 V2 Co3 Sb3 O16'
_cell_volume   316.34797825
_cell_formula_units_Z   1
loop_
 _symmetry_equiv_pos_site_id
 _symmetry_equiv_pos_as_xyz
  1  'x, y, z'
loop_
 _atom_site_type_symbol
 _atom_site_label
 _atom_site_symmetry_multiplicity
 _atom_site_fract_x
 _atom_site_fract_y
 _atom_site_fract_z
 _atom_site_occupancy
  Li  Li0  1  0.339127  0.669736  0.886704  1
  Li  Li1  1  0.956464  0.978257  0.980583  1
  Li  Li2  1  0.987704  0.993883  0.507888  1
  Li  Li3  1  0.648856  0.324383  0.403384  1
  V  V4  1  0.356565  0.678211  0.499998  1
  V  V5  1  0.694446  0.347312  0.975618  1
  Co  Co6  1  0.658077  0.828990  0.215467  1
  Co  Co7  1  0.850764  0.658115  0.716615  1
  Co  Co8  1  0.851184  0.193244  0.716703  1
  Sb  Sb9  1  0.162648  0.828740  0.215196  1
  Sb  Sb10  1  0.162658  0.333984  0.215205  1
  Sb  Sb11  1  0.353109  0.176319  0.713360  1
  O  O12  1  0.185117  0.844587  0.592758  1
  O  O13  1  0.027192  0.513561  0.338586  1
  O  O14  1  0.312521  0.656310  0.102899  1
  O  O15  1  0.007482  0.003785  0.320273  1
  O  O16  1  0.016318  0.008112  0.797844  1
  O  O17  1  0.185109  0.340426  0.592830  1
  O  O18  1  0.460916  0.954988  0.339650  1
  O  O19  1  0.460889  0.505797  0.339656  1
  O  O20  1  0.312983  0.156597  0.103339  1
  O  O21  1  0.645772  0.822533  0.581320  1
  O  O22  1  0.516573  0.476241  0.844530  1
  O  O23  1  0.516997  0.040060  0.844073  1
  O  O24  1  0.664567  0.332418  0.603462  1
  O  O25  1  0.846544  0.680132  0.103581  1
  O  O26  1  0.973071  0.486727  0.852813  1
  O  O27  1  0.846349  0.166848  0.103502  1
