# generated using pymatgen
data_U4O7
_symmetry_space_group_name_H-M   'P 1'
_cell_length_a   10.15950722
_cell_length_b   5.46801639
_cell_length_c   6.64953745
_cell_angle_alpha   114.23487211
_cell_angle_beta   89.94232684
_cell_angle_gamma   105.56700072
_symmetry_Int_Tables_number   1
_chemical_formula_structural   U4O7
_chemical_formula_sum   'U8 O14'
_cell_volume   321.97150050
_cell_formula_units_Z   2
loop_
 _symmetry_equiv_pos_site_id
 _symmetry_equiv_pos_as_xyz
  1  'x, y, z'
loop_
 _atom_site_type_symbol
 _atom_site_label
 _atom_site_symmetry_multiplicity
 _atom_site_fract_x
 _atom_site_fract_y
 _atom_site_fract_z
 _atom_site_occupancy
  U  U0  1  0.379360  0.116853  0.888786  1
  U  U1  1  0.118690  0.382108  0.625785  1
  U  U2  1  0.507547  0.515351  0.502599  1
  U  U3  1  0.747155  0.260941  0.740313  1
  U  U4  1  0.246784  0.725469  0.239061  1
  U  U5  1  0.007815  0.994438  0.001511  1
  U  U6  1  0.618463  0.862968  0.127549  1
  U  U7  1  0.879119  0.650994  0.388391  1
  O  O8  1  0.194091  0.305231  0.922789  1
  O  O9  1  0.186824  0.810352  0.938992  1
  O  O10  1  0.574249  0.953226  0.831011  1
  O  O11  1  0.075048  0.950138  0.328438  1
  O  O12  1  0.313405  0.684636  0.563647  1
  O  O13  1  0.552806  0.425914  0.799666  1
  O  O14  1  0.052039  0.425604  0.298835  1
  O  O15  1  0.939036  0.565056  0.687544  1
  O  O16  1  0.686391  0.818138  0.442622  1
  O  O17  1  0.932373  0.069863  0.703476  1
  O  O18  1  0.693866  0.312276  0.423336  1
  O  O19  1  0.439433  0.560052  0.186898  1
  O  O20  1  0.430965  0.065397  0.206357  1
  O  O21  1  0.812989  0.693983  0.065951  1
