# generated using pymatgen
data_Li2Mn3(BO3)3
_symmetry_space_group_name_H-M   'P 1'
_cell_length_a   9.04742227
_cell_length_b   7.88814187
_cell_length_c   6.14158364
_cell_angle_alpha   80.53392752
_cell_angle_beta   77.29847357
_cell_angle_gamma   114.05749644
_symmetry_Int_Tables_number   1
_chemical_formula_structural   Li2Mn3(BO3)3
_chemical_formula_sum   'Li4 Mn6 B6 O18'
_cell_volume   374.22017712
_cell_formula_units_Z   2
loop_
 _symmetry_equiv_pos_site_id
 _symmetry_equiv_pos_as_xyz
  1  'x, y, z'
loop_
 _atom_site_type_symbol
 _atom_site_label
 _atom_site_symmetry_multiplicity
 _atom_site_fract_x
 _atom_site_fract_y
 _atom_site_fract_z
 _atom_site_occupancy
  Li  Li0  1  0.053611  0.168321  0.495354  1
  Li  Li1  1  0.712355  0.490851  0.169009  1
  Li  Li2  1  0.275896  0.483850  0.824511  1
  Li  Li3  1  0.396309  0.844753  0.837867  1
  Mn  Mn4  1  0.267475  0.122501  0.118019  1
  Mn  Mn5  1  0.402193  0.192690  0.555059  1
  Mn  Mn6  1  0.063559  0.533422  0.216264  1
  Mn  Mn7  1  0.925450  0.477656  0.764107  1
  Mn  Mn8  1  0.615096  0.821276  0.428233  1
  Mn  Mn9  1  0.736478  0.859425  0.886455  1
  B  B10  1  0.942559  0.141926  0.095976  1
  B  B11  1  0.732751  0.204300  0.555782  1
  B  B12  1  0.399613  0.530104  0.206875  1
  B  B13  1  0.593339  0.472962  0.798033  1
  B  B14  1  0.268751  0.797339  0.472604  1
  B  B15  1  0.062701  0.861527  0.870478  1
  O  O16  1  0.014893  0.067944  0.230453  1
  O  O17  1  0.775131  0.020489  0.097185  1
  O  O18  1  0.645876  0.007541  0.673982  1
  O  O19  1  0.311437  0.338504  0.341913  1
  O  O20  1  0.663855  0.298521  0.441115  1
  O  O21  1  0.325134  0.614528  0.084823  1
  O  O22  1  0.905750  0.307281  0.544993  1
  O  O23  1  0.573992  0.636826  0.185128  1
  O  O24  1  0.968702  0.659618  0.980979  1
  O  O25  1  0.020562  0.338719  0.977910  1
  O  O26  1  0.426500  0.360103  0.801423  1
  O  O27  1  0.102911  0.681643  0.477432  1
  O  O28  1  0.675395  0.388783  0.902103  1
  O  O29  1  0.351804  0.718703  0.584311  1
  O  O30  1  0.668066  0.674481  0.699962  1
  O  O31  1  0.342666  0.992495  0.360067  1
  O  O32  1  0.231909  0.955314  0.867009  1
  O  O33  1  0.990646  0.959801  0.767410  1
