# generated using pymatgen
data_LiTi2V3O12
_symmetry_space_group_name_H-M   'P 1'
_cell_length_a   8.90754267
_cell_length_b   12.53573556
_cell_length_c   9.19613267
_cell_angle_alpha   90.16353269
_cell_angle_beta   90.04130747
_cell_angle_gamma   90.53915064
_symmetry_Int_Tables_number   1
_chemical_formula_structural   LiTi2V3O12
_chemical_formula_sum   'Li4 Ti8 V12 O48'
_cell_volume   1026.81414567
_cell_formula_units_Z   4
loop_
 _symmetry_equiv_pos_site_id
 _symmetry_equiv_pos_as_xyz
  1  'x, y, z'
loop_
 _atom_site_type_symbol
 _atom_site_label
 _atom_site_symmetry_multiplicity
 _atom_site_fract_x
 _atom_site_fract_y
 _atom_site_fract_z
 _atom_site_occupancy
  Li  Li0  1  0.673230  0.689090  0.724444  1
  Li  Li1  1  0.815919  0.815426  0.218910  1
  Li  Li2  1  0.934750  0.656231  0.488985  1
  Li  Li3  1  0.938750  0.298993  0.910741  1
  Ti  Ti4  1  0.251248  0.884301  0.023433  1
  Ti  Ti5  1  0.260133  0.615227  0.520533  1
  Ti  Ti6  1  0.259956  0.376873  0.973256  1
  Ti  Ti7  1  0.248717  0.122957  0.468083  1
  Ti  Ti8  1  0.748039  0.887522  0.533357  1
  Ti  Ti9  1  0.751839  0.615599  0.032364  1
  Ti  Ti10  1  0.753839  0.378521  0.475637  1
  Ti  Ti11  1  0.737259  0.113380  0.976683  1
  V  V12  1  0.033563  0.489550  0.250573  1
  V  V13  1  0.111833  0.852785  0.381365  1
  V  V14  1  0.109970  0.139544  0.112719  1
  V  V15  1  0.387222  0.646594  0.883031  1
  V  V16  1  0.388843  0.360680  0.611630  1
  V  V17  1  0.464875  0.009791  0.748984  1
  V  V18  1  0.532072  0.989089  0.252511  1
  V  V19  1  0.615907  0.641028  0.387350  1
  V  V20  1  0.612935  0.353228  0.119373  1
  V  V21  1  0.887318  0.857322  0.885050  1
  V  V22  1  0.892831  0.146894  0.621846  1
  V  V23  1  0.967202  0.511073  0.751485  1
  O  O24  1  0.066946  0.436420  0.876597  1
  O  O25  1  0.074534  0.892794  0.892150  1
  O  O26  1  0.067025  0.608113  0.656555  1
  O  O27  1  0.073421  0.177366  0.573852  1
  O  O28  1  0.097028  0.586133  0.374555  1
  O  O29  1  0.124804  0.847070  0.192150  1
  O  O30  1  0.144565  0.980629  0.436205  1
  O  O31  1  0.131660  0.252448  0.998390  1
  O  O32  1  0.164608  0.171802  0.289221  1
  O  O33  1  0.182079  0.433326  0.160508  1
  O  O34  1  0.231500  0.764022  0.470267  1
  O  O35  1  0.270171  0.734718  0.973920  1
  O  O36  1  0.224699  0.037778  0.055016  1
  O  O37  1  0.271602  0.462743  0.557953  1
  O  O38  1  0.319662  0.067010  0.658595  1
  O  O39  1  0.336363  0.328535  0.789220  1
  O  O40  1  0.347383  0.517917  0.935795  1
  O  O41  1  0.359361  0.250812  0.499314  1
  O  O42  1  0.372887  0.653346  0.692131  1
  O  O43  1  0.393787  0.917121  0.870242  1
  O  O44  1  0.424418  0.894881  0.163056  1
  O  O45  1  0.427899  0.599280  0.392215  1
  O  O46  1  0.428903  0.319682  0.070693  1
  O  O47  1  0.424535  0.055346  0.376245  1
  O  O48  1  0.577459  0.940252  0.622479  1
  O  O49  1  0.574763  0.676065  0.921334  1
  O  O50  1  0.576712  0.400640  0.597828  1
  O  O51  1  0.576399  0.107544  0.836162  1
  O  O52  1  0.607166  0.084753  0.132005  1
  O  O53  1  0.630869  0.345438  0.306550  1
  O  O54  1  0.641947  0.742632  0.513504  1
  O  O55  1  0.642691  0.484987  0.070698  1
  O  O56  1  0.676712  0.683994  0.215711  1
  O  O57  1  0.686499  0.922623  0.334898  1
  O  O58  1  0.743291  0.546417  0.443832  1
  O  O59  1  0.776227  0.964310  0.935253  1
  O  O60  1  0.740956  0.271556  0.024964  1
  O  O61  1  0.772787  0.232779  0.526397  1
  O  O62  1  0.814665  0.577516  0.834875  1
  O  O63  1  0.825584  0.812840  0.712894  1
  O  O64  1  0.854905  0.757916  0.014322  1
  O  O65  1  0.857972  0.013026  0.575707  1
  O  O66  1  0.873559  0.165649  0.808882  1
  O  O67  1  0.889010  0.417151  0.635418  1
  O  O68  1  0.923984  0.811702  0.421748  1
  O  O69  1  0.925267  0.392984  0.337344  1
  O  O70  1  0.923392  0.102991  0.102350  1
  O  O71  1  0.920889  0.556443  0.122464  1
