# generated using pymatgen
data_Fe3(OF2)2
_symmetry_space_group_name_H-M   'P 1'
_cell_length_a   4.75339961
_cell_length_b   7.92838041
_cell_length_c   5.72249561
_cell_angle_alpha   93.88185173
_cell_angle_beta   90.70071148
_cell_angle_gamma   90.33806255
_symmetry_Int_Tables_number   1
_chemical_formula_structural   Fe3(OF2)2
_chemical_formula_sum   'Fe6 O4 F8'
_cell_volume   215.14655857
_cell_formula_units_Z   2
loop_
 _symmetry_equiv_pos_site_id
 _symmetry_equiv_pos_as_xyz
  1  'x, y, z'
loop_
 _atom_site_type_symbol
 _atom_site_label
 _atom_site_symmetry_multiplicity
 _atom_site_fract_x
 _atom_site_fract_y
 _atom_site_fract_z
 _atom_site_occupancy
  Fe  Fe0  1  0.548834  0.646490  0.162975  1
  Fe  Fe1  1  0.451166  0.020177  0.503692  1
  Fe  Fe2  1  0.500000  0.333333  0.833333  1
  Fe  Fe3  1  0.002129  0.690491  0.686568  1
  Fe  Fe4  1  0.000000  0.333333  0.333333  1
  Fe  Fe5  1  0.997871  0.976176  0.980099  1
  O  O6  1  0.790925  0.762741  0.969752  1
  O  O7  1  0.706540  0.426780  0.145481  1
  O  O8  1  0.293460  0.239886  0.521185  1
  O  O9  1  0.209075  0.903926  0.696915  1
  F  F10  1  0.815051  0.444242  0.627678  1
  F  F11  1  0.797896  0.095442  0.298700  1
  F  F12  1  0.707809  0.096467  0.782124  1
  F  F13  1  0.691968  0.768464  0.461428  1
  F  F14  1  0.292191  0.570200  0.884543  1
  F  F15  1  0.308032  0.898203  0.205238  1
  F  F16  1  0.184949  0.222424  0.038988  1
  F  F17  1  0.202104  0.571225  0.367966  1
