# generated using pymatgen
data_Ca2CeO4
_symmetry_space_group_name_H-M   'P 1'
_cell_length_a   5.84851022
_cell_length_b   10.02701566
_cell_length_c   3.53302438
_cell_angle_alpha   90.00000000
_cell_angle_beta   90.00000000
_cell_angle_gamma   90.00000000
_symmetry_Int_Tables_number   1
_chemical_formula_structural   Ca2CeO4
_chemical_formula_sum   'Ca4 Ce2 O8'
_cell_volume   207.18751461
_cell_formula_units_Z   2
loop_
 _symmetry_equiv_pos_site_id
 _symmetry_equiv_pos_as_xyz
  1  'x, y, z'
loop_
 _atom_site_type_symbol
 _atom_site_label
 _atom_site_symmetry_multiplicity
 _atom_site_fract_x
 _atom_site_fract_y
 _atom_site_fract_z
 _atom_site_occupancy
  Ca  Ca0  1  0.061417  0.678509  0.500000  1
  Ca  Ca1  1  0.438583  0.178509  0.500000  1
  Ca  Ca2  1  0.561417  0.821491  0.500000  1
  Ca  Ca3  1  0.938583  0.321491  0.500000  1
  Ce  Ce4  1  0.000000  0.000000  0.000000  1
  Ce  Ce5  1  0.500000  0.500000  0.000000  1
  O  O6  1  0.152502  0.201653  0.000000  1
  O  O7  1  0.240320  0.959270  0.500000  1
  O  O8  1  0.259680  0.459270  0.500000  1
  O  O9  1  0.347498  0.701653  0.000000  1
  O  O10  1  0.652502  0.298347  0.000000  1
  O  O11  1  0.740320  0.540730  0.500000  1
  O  O12  1  0.759680  0.040730  0.500000  1
  O  O13  1  0.847498  0.798347  0.000000  1
