# generated using pymatgen
data_BaB2H10O9
_symmetry_space_group_name_H-M   'P 1'
_cell_length_a   6.73617066
_cell_length_b   17.93017540
_cell_length_c   8.79567336
_cell_angle_alpha   90.00000000
_cell_angle_beta   90.00000000
_cell_angle_gamma   94.62596216
_symmetry_Int_Tables_number   1
_chemical_formula_structural   BaB2H10O9
_chemical_formula_sum   'Ba4 B8 H40 O36'
_cell_volume   1058.88710864
_cell_formula_units_Z   4
loop_
 _symmetry_equiv_pos_site_id
 _symmetry_equiv_pos_as_xyz
  1  'x, y, z'
loop_
 _atom_site_type_symbol
 _atom_site_label
 _atom_site_symmetry_multiplicity
 _atom_site_fract_x
 _atom_site_fract_y
 _atom_site_fract_z
 _atom_site_occupancy
  Ba  Ba0  1  0.116710  0.205553  0.507074  1
  Ba  Ba1  1  0.883290  0.294447  0.007074  1
  Ba  Ba2  1  0.883290  0.794447  0.492926  1
  Ba  Ba3  1  0.116710  0.705553  0.992926  1
  B  B4  1  0.829074  0.973291  0.293780  1
  B  B5  1  0.170926  0.526709  0.793780  1
  B  B6  1  0.170926  0.026709  0.706220  1
  B  B7  1  0.829074  0.473291  0.206220  1
  B  B8  1  0.342876  0.719385  0.353093  1
  B  B9  1  0.657124  0.780615  0.853093  1
  B  B10  1  0.657124  0.280615  0.646907  1
  B  B11  1  0.342876  0.219385  0.146907  1
  H  H12  1  0.239194  0.391800  0.762002  1
  H  H13  1  0.760806  0.108200  0.262002  1
  H  H14  1  0.760806  0.608200  0.237998  1
  H  H15  1  0.239194  0.891800  0.737998  1
  H  H16  1  0.503456  0.618192  0.767795  1
  H  H17  1  0.496544  0.881808  0.267795  1
  H  H18  1  0.496544  0.381808  0.232205  1
  H  H19  1  0.503456  0.118192  0.732205  1
  H  H20  1  0.719386  0.518322  0.388280  1
  H  H21  1  0.280614  0.981678  0.888280  1
  H  H22  1  0.280614  0.481678  0.611720  1
  H  H23  1  0.719386  0.018322  0.111720  1
  H  H24  1  0.496124  0.622189  0.683216  1
  H  H25  1  0.503876  0.877811  0.183216  1
  H  H26  1  0.503876  0.377811  0.316784  1
  H  H27  1  0.496124  0.122189  0.816784  1
  H  H28  1  0.688746  0.685917  0.212018  1
  H  H29  1  0.311254  0.814083  0.712018  1
  H  H30  1  0.311254  0.314083  0.787982  1
  H  H31  1  0.688746  0.185917  0.287982  1
  H  H32  1  0.367169  0.710475  0.574364  1
  H  H33  1  0.632831  0.789525  0.074364  1
  H  H34  1  0.632831  0.289525  0.425636  1
  H  H35  1  0.367169  0.210475  0.925636  1
  H  H36  1  0.406365  0.629649  0.245311  1
  H  H37  1  0.593635  0.870351  0.745311  1
  H  H38  1  0.593635  0.370351  0.754689  1
  H  H39  1  0.406365  0.129649  0.254689  1
  H  H40  1  0.907603  0.449422  0.661081  1
  H  H41  1  0.092397  0.050578  0.161081  1
  H  H42  1  0.092397  0.550578  0.338919  1
  H  H43  1  0.907603  0.949422  0.838919  1
  H  H44  1  0.002757  0.366231  0.320922  1
  H  H45  1  0.997243  0.133769  0.820922  1
  H  H46  1  0.997243  0.633769  0.679078  1
  H  H47  1  0.002757  0.866231  0.179078  1
  H  H48  1  0.009157  0.627526  0.369252  1
  H  H49  1  0.990843  0.872474  0.869252  1
  H  H50  1  0.990843  0.372474  0.630748  1
  H  H51  1  0.009157  0.127526  0.130748  1
  O  O52  1  0.043633  0.688159  0.671734  1
  O  O53  1  0.956367  0.811841  0.171734  1
  O  O54  1  0.956367  0.311841  0.328266  1
  O  O55  1  0.043633  0.188159  0.828266  1
  O  O56  1  0.207584  0.769820  0.349516  1
  O  O57  1  0.792416  0.730180  0.849516  1
  O  O58  1  0.792416  0.230180  0.650484  1
  O  O59  1  0.207584  0.269820  0.150484  1
  O  O60  1  0.120624  0.598108  0.395148  1
  O  O61  1  0.879376  0.901892  0.895148  1
  O  O62  1  0.879376  0.401892  0.604852  1
  O  O63  1  0.120624  0.098108  0.104852  1
  O  O64  1  0.452537  0.706723  0.485155  1
  O  O65  1  0.547463  0.793277  0.985155  1
  O  O66  1  0.547463  0.293277  0.514845  1
  O  O67  1  0.452537  0.206723  0.014845  1
  O  O68  1  0.813260  0.161783  0.272082  1
  O  O69  1  0.186740  0.338217  0.772082  1
  O  O70  1  0.186740  0.838217  0.727918  1
  O  O71  1  0.813260  0.661783  0.227918  1
  O  O72  1  0.011129  0.463511  0.265885  1
  O  O73  1  0.988871  0.036489  0.765885  1
  O  O74  1  0.988871  0.536489  0.734115  1
  O  O75  1  0.011129  0.963511  0.234115  1
  O  O76  1  0.691555  0.018082  0.221279  1
  O  O77  1  0.308445  0.481918  0.721279  1
  O  O78  1  0.308445  0.981918  0.778721  1
  O  O79  1  0.691555  0.518082  0.278721  1
  O  O80  1  0.407822  0.682828  0.220113  1
  O  O81  1  0.592178  0.817172  0.720113  1
  O  O82  1  0.592178  0.317172  0.779887  1
  O  O83  1  0.407822  0.182828  0.279887  1
  O  O84  1  0.202355  0.061324  0.571496  1
  O  O85  1  0.797645  0.438676  0.071496  1
  O  O86  1  0.797645  0.938676  0.428504  1
  O  O87  1  0.202355  0.561324  0.928504  1
