# generated using pymatgen
data_GeH8N2OF6
_symmetry_space_group_name_H-M   'P 1'
_cell_length_a   8.95367706
_cell_length_b   9.41194451
_cell_length_c   7.48229594
_cell_angle_alpha   90.00000000
_cell_angle_beta   90.00000000
_cell_angle_gamma   90.00000000
_symmetry_Int_Tables_number   1
_chemical_formula_structural   GeH8N2OF6
_chemical_formula_sum   'Ge4 H32 N8 O4 F24'
_cell_volume   630.54438947
_cell_formula_units_Z   4
loop_
 _symmetry_equiv_pos_site_id
 _symmetry_equiv_pos_as_xyz
  1  'x, y, z'
loop_
 _atom_site_type_symbol
 _atom_site_label
 _atom_site_symmetry_multiplicity
 _atom_site_fract_x
 _atom_site_fract_y
 _atom_site_fract_z
 _atom_site_occupancy
  Ge  Ge0  1  0.156672  0.250000  0.989697  1
  Ge  Ge1  1  0.656672  0.250000  0.510303  1
  Ge  Ge2  1  0.843328  0.750000  0.010303  1
  Ge  Ge3  1  0.343328  0.750000  0.489697  1
  H  H4  1  0.439730  0.063850  0.840612  1
  H  H5  1  0.939730  0.436150  0.659388  1
  H  H6  1  0.560270  0.563850  0.159388  1
  H  H7  1  0.060270  0.936150  0.340612  1
  H  H8  1  0.560270  0.936150  0.159388  1
  H  H9  1  0.060270  0.563850  0.340612  1
  H  H10  1  0.439730  0.436150  0.840612  1
  H  H11  1  0.939730  0.063850  0.659388  1
  H  H12  1  0.608992  0.104896  0.939579  1
  H  H13  1  0.108992  0.395104  0.560421  1
  H  H14  1  0.391008  0.604896  0.060421  1
  H  H15  1  0.891008  0.895104  0.439579  1
  H  H16  1  0.391008  0.895104  0.060421  1
  H  H17  1  0.891008  0.604896  0.439579  1
  H  H18  1  0.608992  0.395104  0.939579  1
  H  H19  1  0.108992  0.104896  0.560421  1
  H  H20  1  0.575830  0.937177  0.850128  1
  H  H21  1  0.075830  0.562823  0.649872  1
  H  H22  1  0.424170  0.437177  0.149872  1
  H  H23  1  0.924170  0.062823  0.350128  1
  H  H24  1  0.424170  0.062823  0.149872  1
  H  H25  1  0.924170  0.437177  0.350128  1
  H  H26  1  0.575830  0.562823  0.850128  1
  H  H27  1  0.075830  0.937177  0.649872  1
  H  H28  1  0.749293  0.250000  0.132645  1
  H  H29  1  0.249293  0.250000  0.367355  1
  H  H30  1  0.250707  0.750000  0.867355  1
  H  H31  1  0.750707  0.750000  0.632645  1
  H  H32  1  0.800630  0.250000  0.932319  1
  H  H33  1  0.300630  0.250000  0.567681  1
  H  H34  1  0.199370  0.750000  0.067681  1
  H  H35  1  0.699370  0.750000  0.432319  1
  N  N36  1  0.528769  0.023835  0.915031  1
  N  N37  1  0.028769  0.476165  0.584969  1
  N  N38  1  0.471231  0.523835  0.084969  1
  N  N39  1  0.971231  0.976165  0.415031  1
  N  N40  1  0.471231  0.976165  0.084969  1
  N  N41  1  0.971231  0.523835  0.415031  1
  N  N42  1  0.528769  0.476165  0.915031  1
  N  N43  1  0.028769  0.023835  0.584969  1
  O  O44  1  0.710746  0.250000  0.009732  1
  O  O45  1  0.210746  0.250000  0.490268  1
  O  O46  1  0.289254  0.750000  0.990268  1
  O  O47  1  0.789254  0.750000  0.509732  1
  F  F48  1  0.335337  0.250000  0.127946  1
  F  F49  1  0.835337  0.250000  0.372054  1
  F  F50  1  0.664663  0.750000  0.872054  1
  F  F51  1  0.164663  0.750000  0.627946  1
  F  F52  1  0.990416  0.250000  0.846279  1
  F  F53  1  0.490416  0.250000  0.653721  1
  F  F54  1  0.009584  0.750000  0.153721  1
  F  F55  1  0.509584  0.750000  0.346279  1
  F  F56  1  0.083757  0.113945  0.134370  1
  F  F57  1  0.583757  0.386055  0.365630  1
  F  F58  1  0.916243  0.613945  0.865630  1
  F  F59  1  0.416243  0.886055  0.634370  1
  F  F60  1  0.916243  0.886055  0.865630  1
  F  F61  1  0.416243  0.613945  0.634370  1
  F  F62  1  0.083757  0.386055  0.134370  1
  F  F63  1  0.583757  0.113945  0.365630  1
  F  F64  1  0.242110  0.112352  0.846648  1
  F  F65  1  0.742110  0.387648  0.653352  1
  F  F66  1  0.757890  0.612352  0.153352  1
  F  F67  1  0.257890  0.887648  0.346648  1
  F  F68  1  0.757890  0.887648  0.153352  1
  F  F69  1  0.257890  0.612352  0.346648  1
  F  F70  1  0.242110  0.387648  0.846648  1
  F  F71  1  0.742110  0.112352  0.653352  1
