# generated using pymatgen
data_Li4Fe3Ni3(WO8)2
_symmetry_space_group_name_H-M   'P 1'
_cell_length_a   5.94650818
_cell_length_b   5.93423815
_cell_length_c   9.70643718
_cell_angle_alpha   89.98528202
_cell_angle_beta   89.82318240
_cell_angle_gamma   119.89431204
_symmetry_Int_Tables_number   1
_chemical_formula_structural   Li4Fe3Ni3(WO8)2
_chemical_formula_sum   'Li4 Fe3 Ni3 W2 O16'
_cell_volume   296.94499087
_cell_formula_units_Z   1
loop_
 _symmetry_equiv_pos_site_id
 _symmetry_equiv_pos_as_xyz
  1  'x, y, z'
loop_
 _atom_site_type_symbol
 _atom_site_label
 _atom_site_symmetry_multiplicity
 _atom_site_fract_x
 _atom_site_fract_y
 _atom_site_fract_z
 _atom_site_occupancy
  Li  Li0  1  0.330704  0.665401  0.906397  1
  Li  Li1  1  0.000050  0.000036  0.986103  1
  Li  Li2  1  0.999041  0.999509  0.489540  1
  Li  Li3  1  0.665167  0.332576  0.408242  1
  Fe  Fe4  1  0.176980  0.834226  0.216981  1
  Fe  Fe5  1  0.177117  0.342814  0.217019  1
  Fe  Fe6  1  0.344500  0.172497  0.718001  1
  Ni  Ni7  1  0.659706  0.829862  0.211411  1
  Ni  Ni8  1  0.829429  0.660374  0.713048  1
  Ni  Ni9  1  0.829961  0.169321  0.712580  1
  W  W10  1  0.340801  0.670641  0.488329  1
  W  W11  1  0.676554  0.338467  0.985045  1
  O  O12  1  0.175565  0.829998  0.588144  1
  O  O13  1  0.038957  0.519495  0.349509  1
  O  O14  1  0.319743  0.659926  0.109884  1
  O  O15  1  0.005830  0.002934  0.300887  1
  O  O16  1  0.006629  0.003713  0.798686  1
  O  O17  1  0.175360  0.345257  0.588305  1
  O  O18  1  0.476215  0.960791  0.351935  1
  O  O19  1  0.476278  0.515444  0.351969  1
  O  O20  1  0.344226  0.172092  0.089976  1
  O  O21  1  0.656084  0.828185  0.587354  1
  O  O22  1  0.511626  0.475005  0.850687  1
  O  O23  1  0.511807  0.036672  0.850438  1
  O  O24  1  0.658451  0.328719  0.612026  1
  O  O25  1  0.827348  0.655358  0.086580  1
  O  O26  1  0.958536  0.479027  0.852178  1
  O  O27  1  0.827336  0.171960  0.086585  1
