# generated using pymatgen
data_Na2AlPCO7
_symmetry_space_group_name_H-M   'P 1'
_cell_length_a   8.88698462
_cell_length_b   6.40359332
_cell_length_c   5.17166713
_cell_angle_alpha   90.00000000
_cell_angle_beta   88.22095209
_cell_angle_gamma   90.00000000
_symmetry_Int_Tables_number   1
_chemical_formula_structural   Na2AlPCO7
_chemical_formula_sum   'Na4 Al2 P2 C2 O14'
_cell_volume   294.17065427
_cell_formula_units_Z   2
loop_
 _symmetry_equiv_pos_site_id
 _symmetry_equiv_pos_as_xyz
  1  'x, y, z'
loop_
 _atom_site_type_symbol
 _atom_site_label
 _atom_site_symmetry_multiplicity
 _atom_site_fract_x
 _atom_site_fract_y
 _atom_site_fract_z
 _atom_site_occupancy
  Na  Na0  1  0.227736  0.495295  0.236916  1
  Na  Na1  1  0.227736  0.004705  0.236916  1
  Na  Na2  1  0.772264  0.504705  0.763084  1
  Na  Na3  1  0.772264  0.995295  0.763084  1
  Al  Al4  1  0.349956  0.750000  0.782607  1
  Al  Al5  1  0.650044  0.250000  0.217393  1
  P  P6  1  0.430437  0.250000  0.720782  1
  P  P7  1  0.569563  0.750000  0.279218  1
  C  C8  1  0.083382  0.750000  0.727904  1
  C  C9  1  0.916618  0.250000  0.272096  1
  O  O10  1  0.055007  0.250000  0.308349  1
  O  O11  1  0.145573  0.750000  0.954901  1
  O  O12  1  0.187823  0.750000  0.538182  1
  O  O13  1  0.335936  0.053595  0.784598  1
  O  O14  1  0.335936  0.446405  0.784598  1
  O  O15  1  0.423307  0.750000  0.120527  1
  O  O16  1  0.475230  0.250000  0.425112  1
  O  O17  1  0.524770  0.750000  0.574888  1
  O  O18  1  0.576693  0.250000  0.879473  1
  O  O19  1  0.664064  0.553595  0.215402  1
  O  O20  1  0.664064  0.946405  0.215402  1
  O  O21  1  0.812177  0.250000  0.461818  1
  O  O22  1  0.854427  0.250000  0.045099  1
  O  O23  1  0.944993  0.750000  0.691651  1
