# generated using pymatgen
data_Li3V2P4(HO8)2
_symmetry_space_group_name_H-M   'P 1'
_cell_length_a   13.77166486
_cell_length_b   8.07467682
_cell_length_c   7.88494750
_cell_angle_alpha   89.97889703
_cell_angle_beta   100.04486375
_cell_angle_gamma   90.24502567
_symmetry_Int_Tables_number   1
_chemical_formula_structural   Li3V2P4(HO8)2
_chemical_formula_sum   'Li9 V6 P12 H6 O48'
_cell_volume   863.37159688
_cell_formula_units_Z   3
loop_
 _symmetry_equiv_pos_site_id
 _symmetry_equiv_pos_as_xyz
  1  'x, y, z'
loop_
 _atom_site_type_symbol
 _atom_site_label
 _atom_site_symmetry_multiplicity
 _atom_site_fract_x
 _atom_site_fract_y
 _atom_site_fract_z
 _atom_site_occupancy
  Li  Li0  1  0.179894  0.867691  0.023838  1
  Li  Li1  1  0.148141  0.133138  0.304617  1
  Li  Li2  1  0.151493  0.368844  0.800698  1
  Li  Li3  1  0.487102  0.367944  0.143644  1
  Li  Li4  1  0.514535  0.869469  0.364814  1
  Li  Li5  1  0.518239  0.635189  0.862330  1
  Li  Li6  1  0.851840  0.632707  0.194984  1
  Li  Li7  1  0.819243  0.367125  0.475169  1
  Li  Li8  1  0.848188  0.868303  0.699682  1
  V  V9  1  0.165937  0.503705  0.178549  1
  V  V10  1  0.168523  0.996287  0.664236  1
  V  V11  1  0.498429  0.497368  0.503353  1
  V  V12  1  0.500719  0.005370  0.988216  1
  V  V13  1  0.834155  0.002820  0.322355  1
  V  V14  1  0.831290  0.494891  0.835964  1
  P  P15  1  0.044953  0.848097  0.274484  1
  P  P16  1  0.044915  0.651915  0.785067  1
  P  P17  1  0.289562  0.157383  0.053992  1
  P  P18  1  0.377055  0.657202  0.113225  1
  P  P19  1  0.287759  0.350877  0.555487  1
  P  P20  1  0.378879  0.851007  0.610721  1
  P  P21  1  0.622264  0.153095  0.382619  1
  P  P22  1  0.710834  0.655989  0.446820  1
  P  P23  1  0.622417  0.348845  0.891183  1
  P  P24  1  0.712835  0.850906  0.944085  1
  P  P25  1  0.954976  0.347788  0.225132  1
  P  P26  1  0.955003  0.151933  0.715325  1
  H  H27  1  0.009141  0.510075  0.525958  1
  H  H28  1  0.329251  0.010420  0.323577  1
  H  H29  1  0.337533  0.510327  0.843470  1
  H  H30  1  0.672066  0.509709  0.180473  1
  H  H31  1  0.658657  0.011866  0.645057  1
  H  H32  1  0.990809  0.010289  0.974011  1
  O  O33  1  0.064109  0.946110  0.116368  1
  O  O34  1  0.067265  0.328363  0.215815  1
  O  O35  1  0.089418  0.672592  0.271724  1
  O  O36  1  0.093413  0.948998  0.432600  1
  O  O37  1  0.064384  0.548104  0.627171  1
  O  O38  1  0.235569  0.325125  0.050633  1
  O  O39  1  0.066109  0.172101  0.713200  1
  O  O40  1  0.265544  0.678070  0.118464  1
  O  O41  1  0.097618  0.818364  0.789571  1
  O  O42  1  0.271880  0.062118  0.219712  1
  O  O43  1  0.094727  0.545722  0.943581  1
  O  O44  1  0.237748  0.453965  0.387927  1
  O  O45  1  0.232758  0.184214  0.540210  1
  O  O46  1  0.401132  0.178256  0.049169  1
  O  O47  1  0.270300  0.833257  0.627167  1
  O  O48  1  0.272199  0.439815  0.719863  1
  O  O49  1  0.431025  0.825215  0.116275  1
  O  O50  1  0.240690  0.048709  0.902815  1
  O  O51  1  0.425874  0.548050  0.263950  1
  O  O52  1  0.394710  0.940524  0.446695  1
  O  O53  1  0.396112  0.332839  0.537798  1
  O  O54  1  0.433598  0.684727  0.625954  1
  O  O55  1  0.603636  0.446715  0.051878  1
  O  O56  1  0.429288  0.952704  0.779265  1
  O  O57  1  0.571921  0.047209  0.224721  1
  O  O58  1  0.394627  0.562228  0.947366  1
  O  O59  1  0.570594  0.320331  0.378371  1
  O  O60  1  0.599773  0.675292  0.447555  1
  O  O61  1  0.604235  0.049693  0.540822  1
  O  O62  1  0.570413  0.451838  0.735719  1
  O  O63  1  0.759052  0.951109  0.113158  1
  O  O64  1  0.574958  0.174787  0.895566  1
  O  O65  1  0.729899  0.559875  0.281768  1
  O  O66  1  0.733920  0.175103  0.376435  1
  O  O67  1  0.601063  0.829782  0.956425  1
  O  O68  1  0.765849  0.823175  0.450515  1
  O  O69  1  0.759385  0.547223  0.598521  1
  O  O70  1  0.906822  0.449870  0.067669  1
  O  O71  1  0.728573  0.940348  0.782408  1
  O  O72  1  0.910029  0.172005  0.227143  1
  O  O73  1  0.731841  0.330616  0.879195  1
  O  O74  1  0.932396  0.828801  0.282844  1
  O  O75  1  0.765274  0.682241  0.960035  1
  O  O76  1  0.936158  0.444933  0.383820  1
  O  O77  1  0.904990  0.046223  0.555947  1
  O  O78  1  0.902195  0.318126  0.710325  1
  O  O79  1  0.933743  0.672126  0.787730  1
  O  O80  1  0.935411  0.047894  0.873016  1
