# generated using pymatgen
data_Li3Ta5Cu2O15
_symmetry_space_group_name_H-M   'P 1'
_cell_length_a   5.22489574
_cell_length_b   5.22489554
_cell_length_c   23.62362666
_cell_angle_alpha   83.65089071
_cell_angle_beta   90.00000001
_cell_angle_gamma   59.99999871
_symmetry_Int_Tables_number   1
_chemical_formula_structural   Li3Ta5Cu2O15
_chemical_formula_sum   'Li6 Ta10 Cu4 O30'
_cell_volume   553.93971697
_cell_formula_units_Z   2
loop_
 _symmetry_equiv_pos_site_id
 _symmetry_equiv_pos_as_xyz
  1  'x, y, z'
loop_
 _atom_site_type_symbol
 _atom_site_label
 _atom_site_symmetry_multiplicity
 _atom_site_fract_x
 _atom_site_fract_y
 _atom_site_fract_z
 _atom_site_occupancy
  Li  Li0  1  0.142706  0.714588  0.428118  1
  Li  Li1  1  0.341761  0.316477  0.025285  1
  Li  Li2  1  0.843156  0.313688  0.529466  1
  Li  Li3  1  0.941640  0.116719  0.824921  1
  Li  Li4  1  0.542121  0.915759  0.626363  1
  Li  Li5  1  0.741837  0.516326  0.225511  1
  Ta  Ta6  1  0.999023  0.001952  0.997071  1
  Ta  Ta7  1  0.399196  0.201608  0.197588  1
  Ta  Ta8  1  0.098373  0.803254  0.295118  1
  Ta  Ta9  1  0.297978  0.404043  0.893935  1
  Ta  Ta10  1  0.498978  0.002044  0.496934  1
  Ta  Ta11  1  0.198723  0.602555  0.596168  1
  Ta  Ta12  1  0.698153  0.603694  0.094459  1
  Ta  Ta13  1  0.897782  0.204437  0.693345  1
  Ta  Ta14  1  0.799320  0.401359  0.397961  1
  Ta  Ta15  1  0.598830  0.802338  0.796492  1
  Cu  Cu16  1  0.247725  0.504550  0.743176  1
  Cu  Cu17  1  0.448213  0.103572  0.344641  1
  Cu  Cu18  1  0.047932  0.904136  0.143796  1
  Cu  Cu19  1  0.647862  0.704276  0.943586  1
  O  O20  1  0.142388  0.083357  0.454109  1
  O  O21  1  0.128487  0.122921  0.251774  1
  O  O22  1  0.242102  0.116266  0.752392  1
  O  O23  1  0.042028  0.515680  0.153282  1
  O  O24  1  0.070135  0.488330  0.354014  1
  O  O25  1  0.268965  0.089200  0.952828  1
  O  O26  1  0.042029  0.689006  0.952828  1
  O  O27  1  0.238678  0.290198  0.552854  1
  O  O28  1  0.374696  0.496817  0.251774  1
  O  O29  1  0.574490  0.097598  0.850843  1
  O  O30  1  0.172765  0.898736  0.650167  1
  O  O31  1  0.548903  0.278332  0.650167  1
  O  O32  1  0.348340  0.676916  0.051223  1
  O  O33  1  0.537466  0.320145  0.454109  1
  O  O34  1  0.327913  0.723647  0.850843  1
  O  O35  1  0.641834  0.316137  0.952828  1
  O  O36  1  0.441535  0.716121  0.354014  1
  O  O37  1  0.668962  0.289010  0.153282  1
  O  O38  1  0.471123  0.685824  0.552854  1
  O  O39  1  0.442292  0.888746  0.153282  1
  O  O40  1  0.641633  0.489710  0.752392  1
  O  O41  1  0.842345  0.087520  0.354014  1
  O  O42  1  0.974744  0.297117  0.051223  1
  O  O43  1  0.774255  0.688278  0.454109  1
  O  O44  1  0.948441  0.477070  0.850843  1
  O  O45  1  0.748591  0.876713  0.251774  1
  O  O46  1  0.728139  0.923521  0.051223  1
  O  O47  1  0.928500  0.522597  0.650167  1
  O  O48  1  0.843053  0.918269  0.552854  1
  O  O49  1  0.868657  0.889240  0.752392  1
