# generated using pymatgen
data_Li4Ni5Sb3O16
_symmetry_space_group_name_H-M   'P 1'
_cell_length_a   6.00262057
_cell_length_b   6.05178566
_cell_length_c   9.65975673
_cell_angle_alpha   89.98166117
_cell_angle_beta   90.85755451
_cell_angle_gamma   120.26711945
_symmetry_Int_Tables_number   1
_chemical_formula_structural   Li4Ni5Sb3O16
_chemical_formula_sum   'Li4 Ni5 Sb3 O16'
_cell_volume   303.02755975
_cell_formula_units_Z   1
loop_
 _symmetry_equiv_pos_site_id
 _symmetry_equiv_pos_as_xyz
  1  'x, y, z'
loop_
 _atom_site_type_symbol
 _atom_site_label
 _atom_site_symmetry_multiplicity
 _atom_site_fract_x
 _atom_site_fract_y
 _atom_site_fract_z
 _atom_site_occupancy
  Li  Li0  1  0.337735  0.669045  0.876977  1
  Li  Li1  1  0.957623  0.978654  0.992246  1
  Li  Li2  1  0.974061  0.987016  0.504013  1
  Li  Li3  1  0.658961  0.329734  0.397026  1
  Ni  Ni4  1  0.340502  0.670015  0.495882  1
  Ni  Ni5  1  0.664929  0.832445  0.216765  1
  Ni  Ni6  1  0.692186  0.346099  0.982075  1
  Ni  Ni7  1  0.832039  0.661784  0.714207  1
  Ni  Ni8  1  0.832124  0.170197  0.714453  1
  Sb  Sb9  1  0.172508  0.833036  0.215285  1
  Sb  Sb10  1  0.172460  0.339530  0.215254  1
  Sb  Sb11  1  0.341835  0.170975  0.714445  1
  O  O12  1  0.157915  0.840838  0.602985  1
  O  O13  1  0.029929  0.514992  0.337678  1
  O  O14  1  0.327003  0.663535  0.099326  1
  O  O15  1  0.010455  0.005308  0.319288  1
  O  O16  1  0.001622  0.999421  0.810222  1
  O  O17  1  0.158142  0.316684  0.603313  1
  O  O18  1  0.475091  0.964979  0.340171  1
  O  O19  1  0.475049  0.510395  0.340115  1
  O  O20  1  0.320236  0.160132  0.101076  1
  O  O21  1  0.677829  0.838778  0.611834  1
  O  O22  1  0.525920  0.486012  0.835592  1
  O  O23  1  0.525569  0.040047  0.835348  1
  O  O24  1  0.666412  0.334490  0.604331  1
  O  O25  1  0.854031  0.682144  0.101642  1
  O  O26  1  0.963705  0.482095  0.824765  1
  O  O27  1  0.854128  0.171923  0.101522  1
