# generated using pymatgen
data_Li4Ti2Mn3(Fe2O9)2
_symmetry_space_group_name_H-M   'P 1'
_cell_length_a   8.99782776
_cell_length_b   25.46082095
_cell_length_c   2.93519980
_cell_angle_alpha   89.99995499
_cell_angle_beta   89.99992882
_cell_angle_gamma   89.99132800
_symmetry_Int_Tables_number   1
_chemical_formula_structural   Li4Ti2Mn3(Fe2O9)2
_chemical_formula_sum   'Li8 Ti4 Mn6 Fe8 O36'
_cell_volume   672.43102445
_cell_formula_units_Z   2
loop_
 _symmetry_equiv_pos_site_id
 _symmetry_equiv_pos_as_xyz
  1  'x, y, z'
loop_
 _atom_site_type_symbol
 _atom_site_label
 _atom_site_symmetry_multiplicity
 _atom_site_fract_x
 _atom_site_fract_y
 _atom_site_fract_z
 _atom_site_occupancy
  Li  Li0  1  0.193127  0.989238  0.999999  1
  Li  Li1  1  0.197585  0.205040  1.000000  1
  Li  Li2  1  0.302755  0.705243  0.000000  1
  Li  Li3  1  0.306928  0.489212  -0.000000  1
  Li  Li4  1  0.693090  0.510819  0.999999  1
  Li  Li5  1  0.696701  0.294742  0.999999  1
  Li  Li6  1  0.802706  0.794773  0.999999  1
  Li  Li7  1  0.806883  0.010820  0.999999  1
  Ti  Ti8  1  0.002957  0.101878  0.000002  1
  Ti  Ti9  1  0.497039  0.601872  0.999999  1
  Ti  Ti10  1  0.502971  0.398113  0.999999  1
  Ti  Ti11  1  0.997074  0.898145  -0.000002  1
  Mn  Mn12  1  0.000034  0.499929  0.000012  1
  Mn  Mn13  1  0.146239  0.807247  0.500016  1
  Mn  Mn14  1  0.353716  0.307306  0.500001  1
  Mn  Mn15  1  0.499927  0.000103  -0.000001  1
  Mn  Mn16  1  0.646261  0.692703  0.500000  1
  Mn  Mn17  1  0.853733  0.192740  0.499996  1
  Fe  Fe18  1  0.020707  0.304117  0.000000  1
  Fe  Fe19  1  0.138913  0.589041  0.500000  1
  Fe  Fe20  1  0.361182  0.089041  0.500001  1
  Fe  Fe21  1  0.479202  0.804139  0.999997  1
  Fe  Fe22  1  0.520767  0.195836  0.000001  1
  Fe  Fe23  1  0.638928  0.910954  0.499998  1
  Fe  Fe24  1  0.861223  0.410942  0.499999  1
  Fe  Fe25  1  0.979235  0.695853  0.999999  1
  O  O26  1  0.003323  0.424949  0.000001  1
  O  O27  1  0.996681  0.575151  0.999998  1
  O  O28  1  0.062748  0.940797  0.500001  1
  O  O29  1  0.046406  0.158357  0.499999  1
  O  O30  1  0.102002  0.665930  0.499998  1
  O  O31  1  0.096609  0.760412  0.000001  1
  O  O32  1  0.144566  0.505009  0.500001  1
  O  O33  1  0.154765  0.278334  0.500001  1
  O  O34  1  0.192661  0.853505  0.000002  1
  O  O35  1  0.203075  0.084069  0.000001  1
  O  O36  1  0.296893  0.584063  -0.000001  1
  O  O37  1  0.307397  0.353535  1.000000  1
  O  O38  1  0.345224  0.778317  0.500000  1
  O  O39  1  0.355501  0.005001  0.499997  1
  O  O40  1  0.403363  0.260372  0.000000  1
  O  O41  1  0.397949  0.165926  0.499999  1
  O  O42  1  0.453611  0.658382  0.500000  1
  O  O43  1  0.437320  0.440820  0.500000  1
  O  O44  1  0.503344  0.075090  0.999997  1
  O  O45  1  0.496691  0.924876  0.000001  1
  O  O46  1  0.562783  0.559213  0.499999  1
  O  O47  1  0.546427  0.341609  0.499998  1
  O  O48  1  0.601950  0.834097  0.499998  1
  O  O49  1  0.596608  0.739613  0.000001  1
  O  O50  1  0.644629  0.995005  0.500002  1
  O  O51  1  0.654725  0.221670  0.500002  1
  O  O52  1  0.692694  0.646492  -0.000001  1
  O  O53  1  0.703148  0.415921  -0.000001  1
  O  O54  1  0.796872  0.915947  0.000000  1
  O  O55  1  0.807326  0.146470  1.000000  1
  O  O56  1  0.845229  0.721688  0.499999  1
  O  O57  1  0.855420  0.495027  0.500001  1
  O  O58  1  0.903223  0.239577  0.999998  1
  O  O59  1  0.898137  0.334100  0.499998  1
  O  O60  1  0.953583  0.841639  0.499999  1
  O  O61  1  0.937229  0.059188  0.500001  1
