# generated using pymatgen
data_Mn3FeSn2(PO4)6
_symmetry_space_group_name_H-M   'P 1'
_cell_length_a   8.58728124
_cell_length_b   8.58728052
_cell_length_c   8.58728095
_cell_angle_alpha   61.73453017
_cell_angle_beta   61.73452824
_cell_angle_gamma   61.73453043
_symmetry_Int_Tables_number   1
_chemical_formula_structural   Mn3FeSn2(PO4)6
_chemical_formula_sum   'Mn3 Fe1 Sn2 P6 O24'
_cell_volume   465.17220235
_cell_formula_units_Z   1
loop_
 _symmetry_equiv_pos_site_id
 _symmetry_equiv_pos_as_xyz
  1  'x, y, z'
loop_
 _atom_site_type_symbol
 _atom_site_label
 _atom_site_symmetry_multiplicity
 _atom_site_fract_x
 _atom_site_fract_y
 _atom_site_fract_z
 _atom_site_occupancy
  Mn  Mn0  1  0.152363  0.152363  0.152363  1
  Mn  Mn1  1  0.346738  0.346738  0.346738  1
  Mn  Mn2  1  0.651140  0.651140  0.651140  1
  Fe  Fe3  1  0.849399  0.849399  0.849399  1
  Sn  Sn4  1  0.000754  0.000754  0.000754  1
  Sn  Sn5  1  0.500115  0.500115  0.500115  1
  P  P6  1  0.049464  0.750911  0.450411  1
  P  P7  1  0.450411  0.049464  0.750911  1
  P  P8  1  0.248975  0.555446  0.944943  1
  P  P9  1  0.555446  0.944943  0.248975  1
  P  P10  1  0.944943  0.248975  0.555446  1
  P  P11  1  0.750911  0.450411  0.049464  1
  O  O12  1  0.090862  0.319962  0.523546  1
  O  O13  1  0.319962  0.523546  0.090862  1
  O  O14  1  0.069570  0.903116  0.247730  1
  O  O15  1  0.523546  0.090862  0.319962  1
  O  O16  1  0.997335  0.828416  0.602400  1
  O  O17  1  0.251817  0.602738  0.437420  1
  O  O18  1  0.247730  0.069570  0.903116  1
  O  O19  1  0.437420  0.251817  0.602738  1
  O  O20  1  0.178169  0.405655  0.982999  1
  O  O21  1  0.602738  0.437420  0.251817  1
  O  O22  1  0.092645  0.758044  0.924907  1
  O  O23  1  0.405655  0.982999  0.178169  1
  O  O24  1  0.602400  0.997335  0.828416  1
  O  O25  1  0.903116  0.247730  0.069570  1
  O  O26  1  0.398269  0.577396  0.741131  1
  O  O27  1  0.828416  0.602400  0.997335  1
  O  O28  1  0.577396  0.741131  0.398269  1
  O  O29  1  0.758044  0.924907  0.092645  1
  O  O30  1  0.741131  0.398269  0.577396  1
  O  O31  1  0.982999  0.178169  0.405655  1
  O  O32  1  0.484114  0.905891  0.675209  1
  O  O33  1  0.924907  0.092645  0.758044  1
  O  O34  1  0.675209  0.484114  0.905891  1
  O  O35  1  0.905891  0.675209  0.484114  1
