# generated using pymatgen
data_CaAl2Si4(H2O7)2
_symmetry_space_group_name_H-M   'P 1'
_cell_length_a   7.58697416
_cell_length_b   9.95837739
_cell_length_c   9.95837739
_cell_angle_alpha   97.30852417
_cell_angle_beta   75.12677637
_cell_angle_gamma   104.87322363
_symmetry_Int_Tables_number   1
_chemical_formula_structural   CaAl2Si4(H2O7)2
_chemical_formula_sum   'Ca2 Al4 Si8 H8 O28'
_cell_volume   701.30677211
_cell_formula_units_Z   2
loop_
 _symmetry_equiv_pos_site_id
 _symmetry_equiv_pos_as_xyz
  1  'x, y, z'
loop_
 _atom_site_type_symbol
 _atom_site_label
 _atom_site_symmetry_multiplicity
 _atom_site_fract_x
 _atom_site_fract_y
 _atom_site_fract_z
 _atom_site_occupancy
  Ca  Ca0  1  0.732507  0.758191  0.241809  1
  Ca  Ca1  1  0.267493  0.241809  0.758191  1
  Al  Al2  1  0.739882  0.817239  0.564138  1
  Al  Al3  1  0.260118  0.564138  0.817239  1
  Al  Al4  1  0.260118  0.182761  0.435862  1
  Al  Al5  1  0.739882  0.435862  0.182761  1
  Si  Si6  1  0.155907  0.858127  0.377251  1
  Si  Si7  1  0.844093  0.377251  0.858127  1
  Si  Si8  1  0.844093  0.141873  0.622749  1
  Si  Si9  1  0.155907  0.622749  0.141873  1
  Si  Si10  1  0.327125  0.697813  0.535652  1
  Si  Si11  1  0.672875  0.535652  0.697813  1
  Si  Si12  1  0.672875  0.302187  0.464348  1
  Si  Si13  1  0.327125  0.464348  0.302187  1
  H  H14  1  0.723477  0.094524  0.273526  1
  H  H15  1  0.276523  0.273526  0.094524  1
  H  H16  1  0.276523  0.905476  0.726474  1
  H  H17  1  0.723477  0.726474  0.905476  1
  H  H18  1  0.679090  0.010878  0.046631  1
  H  H19  1  0.320910  0.046631  0.010878  1
  H  H20  1  0.320910  0.989122  0.953369  1
  H  H21  1  0.679090  0.953369  0.989122  1
  O  O22  1  0.231235  0.762288  0.237712  1
  O  O23  1  0.768765  0.237712  0.762288  1
  O  O24  1  0.925964  0.824647  0.410542  1
  O  O25  1  0.074036  0.410542  0.824647  1
  O  O26  1  0.074036  0.175353  0.589458  1
  O  O27  1  0.925964  0.589458  0.175353  1
  O  O28  1  0.553823  0.753192  0.475950  1
  O  O29  1  0.446177  0.475950  0.753192  1
  O  O30  1  0.446177  0.246808  0.524050  1
  O  O31  1  0.553823  0.524050  0.246808  1
  O  O32  1  0.215696  0.809910  0.508647  1
  O  O33  1  0.784304  0.508647  0.809910  1
  O  O34  1  0.784304  0.190090  0.491353  1
  O  O35  1  0.215696  0.491353  0.190090  1
  O  O36  1  0.749276  0.981360  0.647686  1
  O  O37  1  0.250724  0.647686  0.981360  1
  O  O38  1  0.250724  0.018640  0.352314  1
  O  O39  1  0.749276  0.352314  0.018640  1
  O  O40  1  0.257221  0.548225  0.451775  1
  O  O41  1  0.742779  0.451775  0.548225  1
  O  O42  1  0.275349  0.686889  0.701661  1
  O  O43  1  0.724651  0.701661  0.686889  1
  O  O44  1  0.724651  0.313111  0.298339  1
  O  O45  1  0.275349  0.298339  0.313111  1
  O  O46  1  0.699977  0.992701  0.274237  1
  O  O47  1  0.300023  0.274237  0.992701  1
  O  O48  1  0.300023  0.007299  0.725763  1
  O  O49  1  0.699977  0.725763  0.007299  1
