# generated using pymatgen
data_Na6W10O33
_symmetry_space_group_name_H-M   'P 1'
_cell_length_a   8.24552078
_cell_length_b   12.32350931
_cell_length_c   7.73855344
_cell_angle_alpha   107.19758598
_cell_angle_beta   100.85392215
_cell_angle_gamma   71.12206172
_symmetry_Int_Tables_number   1
_chemical_formula_structural   Na6W10O33
_chemical_formula_sum   'Na6 W10 O33'
_cell_volume   707.03740205
_cell_formula_units_Z   1
loop_
 _symmetry_equiv_pos_site_id
 _symmetry_equiv_pos_as_xyz
  1  'x, y, z'
loop_
 _atom_site_type_symbol
 _atom_site_label
 _atom_site_symmetry_multiplicity
 _atom_site_fract_x
 _atom_site_fract_y
 _atom_site_fract_z
 _atom_site_occupancy
  Na  Na0  1  0.155676  0.228460  0.143503  1
  Na  Na1  1  0.343122  0.785190  0.896194  1
  Na  Na2  1  0.612932  0.240203  0.633162  1
  Na  Na3  1  0.387068  0.759796  0.366838  1
  Na  Na4  1  0.656878  0.214810  0.103806  1
  Na  Na5  1  0.844324  0.771540  0.856497  1
  W  W6  1  0.067561  0.319087  0.677364  1
  W  W7  1  0.390041  0.019638  0.711361  1
  W  W8  1  0.226568  0.499731  0.553954  1
  W  W9  1  0.017070  0.972323  0.280924  1
  W  W10  1  0.229605  0.492599  0.051240  1
  W  W11  1  0.770395  0.507401  0.948760  1
  W  W12  1  0.982930  0.027677  0.719076  1
  W  W13  1  0.773432  0.500269  0.446046  1
  W  W14  1  0.609959  0.980362  0.288639  1
  W  W15  1  0.932439  0.680913  0.322636  1
  O  O16  1  0.034147  0.380233  0.939234  1
  O  O17  1  0.185392  0.074828  0.854140  1
  O  O18  1  0.059026  0.378171  0.464502  1
  O  O19  1  0.275497  0.209495  0.671707  1
  O  O20  1  0.187219  0.469677  0.781522  1
  O  O21  1  0.008269  0.894708  0.778931  1
  O  O22  1  0.162602  0.521611  0.301492  1
  O  O23  1  0.074542  0.770570  0.388260  1
  O  O24  1  0.529189  0.079145  0.887970  1
  O  O25  1  0.500000  0.000000  0.500000  1
  O  O26  1  0.286833  0.629121  0.667411  1
  O  O27  1  0.420717  0.387242  0.513285  1
  O  O28  1  0.385237  0.357054  0.062594  1
  O  O29  1  0.156403  0.993042  0.518725  1
  O  O30  1  0.542920  0.133361  0.290525  1
  O  O31  1  0.178850  0.863232  0.151241  1
  O  O32  1  0.343624  0.598413  0.101574  1
  O  O33  1  0.656376  0.401587  0.898426  1
  O  O34  1  0.821150  0.136768  0.848759  1
  O  O35  1  0.457080  0.866639  0.709475  1
  O  O36  1  0.843597  0.006958  0.481275  1
  O  O37  1  0.614763  0.642946  0.937406  1
  O  O38  1  0.579283  0.612758  0.486715  1
  O  O39  1  0.713167  0.370879  0.332589  1
  O  O40  1  0.470811  0.920855  0.112030  1
  O  O41  1  0.925458  0.229430  0.611740  1
  O  O42  1  0.837398  0.478389  0.698508  1
  O  O43  1  0.991731  0.105292  0.221069  1
  O  O44  1  0.812781  0.530323  0.218478  1
  O  O45  1  0.724503  0.790505  0.328293  1
  O  O46  1  0.940974  0.621829  0.535498  1
  O  O47  1  0.814608  0.925172  0.145860  1
  O  O48  1  0.965853  0.619767  0.060766  1
