# generated using pymatgen
data_Li3Ti(PO4)2
_symmetry_space_group_name_H-M   'P 1'
_cell_length_a   7.97051902
_cell_length_b   5.49695282
_cell_length_c   6.25314725
_cell_angle_alpha   89.86518908
_cell_angle_beta   38.65560305
_cell_angle_gamma   69.69044942
_symmetry_Int_Tables_number   1
_chemical_formula_structural   Li3Ti(PO4)2
_chemical_formula_sum   'Li3 Ti1 P2 O8'
_cell_volume   142.61572271
_cell_formula_units_Z   1
loop_
 _symmetry_equiv_pos_site_id
 _symmetry_equiv_pos_as_xyz
  1  'x, y, z'
loop_
 _atom_site_type_symbol
 _atom_site_label
 _atom_site_symmetry_multiplicity
 _atom_site_fract_x
 _atom_site_fract_y
 _atom_site_fract_z
 _atom_site_occupancy
  Li  Li0  1  0.158238  0.669223  0.121064  1
  Li  Li1  1  0.502933  0.999386  0.996432  1
  Li  Li2  1  0.843941  0.323696  0.877754  1
  Ti  Ti3  1  0.498885  0.002885  0.502226  1
  P  P4  1  0.199164  0.654354  0.569857  1
  P  P5  1  0.801940  0.352016  0.433875  1
  O  O6  1  0.014065  0.247849  0.420494  1
  O  O7  1  0.010746  0.247276  0.019189  1
  O  O8  1  0.432389  0.310702  0.340573  1
  O  O9  1  0.430564  0.766727  0.340727  1
  O  O10  1  0.569464  0.241152  0.662125  1
  O  O11  1  0.570431  0.696117  0.662128  1
  O  O12  1  0.989475  0.759250  0.984771  1
  O  O13  1  0.988925  0.759762  0.580285  1
