# generated using pymatgen
data_Ca2P6O17
_symmetry_space_group_name_H-M   'P 1'
_cell_length_a   5.86184700
_cell_length_b   18.40467364
_cell_length_c   7.79773559
_cell_angle_alpha   90.00000000
_cell_angle_beta   112.05819796
_cell_angle_gamma   90.00000000
_symmetry_Int_Tables_number   1
_chemical_formula_structural   Ca2P6O17
_chemical_formula_sum   'Ca4 P12 O34'
_cell_volume   779.68373560
_cell_formula_units_Z   2
loop_
 _symmetry_equiv_pos_site_id
 _symmetry_equiv_pos_as_xyz
  1  'x, y, z'
loop_
 _atom_site_type_symbol
 _atom_site_label
 _atom_site_symmetry_multiplicity
 _atom_site_fract_x
 _atom_site_fract_y
 _atom_site_fract_z
 _atom_site_occupancy
  Ca  Ca0  1  0.093252  0.426679  0.855555  1
  Ca  Ca1  1  0.089023  0.074496  0.355990  1
  Ca  Ca2  1  0.906748  0.926679  0.644445  1
  Ca  Ca3  1  0.910977  0.574496  0.144010  1
  P  P4  1  0.315352  0.679644  0.977075  1
  P  P5  1  0.273187  0.667726  0.583405  1
  P  P6  1  0.315305  0.821196  0.476784  1
  P  P7  1  0.482559  0.028393  0.806377  1
  P  P8  1  0.517441  0.528393  0.693623  1
  P  P9  1  0.271976  0.832945  0.081263  1
  P  P10  1  0.726813  0.167726  0.916595  1
  P  P11  1  0.493868  0.472421  0.303941  1
  P  P12  1  0.506132  0.972421  0.196059  1
  P  P13  1  0.684647  0.179644  0.522925  1
  P  P14  1  0.728024  0.332945  0.418737  1
  P  P15  1  0.684695  0.321196  0.023216  1
  O  O16  1  0.061316  0.861879  0.923389  1
  O  O17  1  0.196148  0.688165  0.750722  1
  O  O18  1  0.108157  0.840410  0.534007  1
  O  O19  1  0.064555  0.637780  0.425727  1
  O  O20  1  0.234022  0.013252  0.657947  1
  O  O21  1  0.287114  0.502718  0.712417  1
  O  O22  1  0.453195  0.363878  0.966414  1
  O  O23  1  0.198795  0.812738  0.250467  1
  O  O24  1  0.492744  0.116660  0.836931  1
  O  O25  1  0.108098  0.660554  0.034146  1
  O  O26  1  0.600248  0.236968  0.962382  1
  O  O27  1  0.399752  0.736968  0.537618  1
  O  O28  1  0.238179  0.488899  0.167842  1
  O  O29  1  0.507256  0.616660  0.663069  1
  O  O30  1  0.285772  0.991464  0.237836  1
  O  O31  1  0.454750  0.136237  0.466513  1
  O  O32  1  0.546805  0.863878  0.533586  1
  O  O33  1  0.531145  0.504064  0.502169  1
  O  O34  1  0.712886  0.002718  0.787583  1
  O  O35  1  0.495677  0.385034  0.345084  1
  O  O36  1  0.765978  0.513252  0.842053  1
  O  O37  1  0.598912  0.263675  0.462116  1
  O  O38  1  0.401088  0.763675  0.037884  1
  O  O39  1  0.891843  0.340410  0.965993  1
  O  O40  1  0.504323  0.885034  0.154916  1
  O  O41  1  0.803852  0.188165  0.749278  1
  O  O42  1  0.468855  0.004064  0.997831  1
  O  O43  1  0.545250  0.636237  0.033487  1
  O  O44  1  0.714228  0.491464  0.262164  1
  O  O45  1  0.761821  0.988899  0.332158  1
  O  O46  1  0.938684  0.361879  0.576611  1
  O  O47  1  0.891902  0.160554  0.465854  1
  O  O48  1  0.801205  0.312738  0.249533  1
  O  O49  1  0.935445  0.137780  0.074273  1
