# generated using pymatgen
data_Ti2Cr3Sb3O16
_symmetry_space_group_name_H-M   'P 1'
_cell_length_a   6.09592329
_cell_length_b   6.11115264
_cell_length_c   9.10620858
_cell_angle_alpha   90.00068469
_cell_angle_beta   90.37279240
_cell_angle_gamma   120.08353721
_symmetry_Int_Tables_number   1
_chemical_formula_structural   Ti2Cr3Sb3O16
_chemical_formula_sum   'Ti2 Cr3 Sb3 O16'
_cell_volume   293.52990551
_cell_formula_units_Z   1
loop_
 _symmetry_equiv_pos_site_id
 _symmetry_equiv_pos_as_xyz
  1  'x, y, z'
loop_
 _atom_site_type_symbol
 _atom_site_label
 _atom_site_symmetry_multiplicity
 _atom_site_fract_x
 _atom_site_fract_y
 _atom_site_fract_z
 _atom_site_occupancy
  Ti  Ti0  1  0.299311  0.649665  0.476409  1
  Ti  Ti1  1  0.644704  0.322355  0.005727  1
  Cr  Cr2  1  0.169378  0.832635  0.209047  1
  Cr  Cr3  1  0.169367  0.336740  0.209038  1
  Cr  Cr4  1  0.343006  0.171524  0.710021  1
  Sb  Sb5  1  0.666002  0.832999  0.210665  1
  Sb  Sb6  1  0.837942  0.170913  0.712366  1
  Sb  Sb7  1  0.837951  0.667059  0.712367  1
  O  O8  1  0.164892  0.828300  0.600300  1
  O  O9  1  0.045421  0.522714  0.338953  1
  O  O10  1  0.337101  0.668555  0.101196  1
  O  O11  1  0.999516  0.999764  0.310888  1
  O  O12  1  0.007145  0.003591  0.820109  1
  O  O13  1  0.164891  0.336623  0.600304  1
  O  O14  1  0.474437  0.948795  0.344272  1
  O  O15  1  0.474413  0.525640  0.344267  1
  O  O16  1  0.344464  0.172237  0.099956  1
  O  O17  1  0.671335  0.835675  0.601600  1
  O  O18  1  0.531430  0.478773  0.838573  1
  O  O19  1  0.531417  0.052680  0.838568  1
  O  O20  1  0.671523  0.335772  0.594090  1
  O  O21  1  0.823652  0.655285  0.098282  1
  O  O22  1  0.967063  0.483546  0.840447  1
  O  O23  1  0.823637  0.168361  0.098274  1
