# generated using pymatgen
data_NaMnPCO7
_symmetry_space_group_name_H-M   'P 1'
_cell_length_a   18.36314802
_cell_length_b   6.24815254
_cell_length_c   5.24620392
_cell_angle_alpha   90.00000000
_cell_angle_beta   87.52387391
_cell_angle_gamma   90.00000000
_symmetry_Int_Tables_number   1
_chemical_formula_structural   NaMnPCO7
_chemical_formula_sum   'Na4 Mn4 P4 C4 O28'
_cell_volume   601.36512801
_cell_formula_units_Z   4
loop_
 _symmetry_equiv_pos_site_id
 _symmetry_equiv_pos_as_xyz
  1  'x, y, z'
loop_
 _atom_site_type_symbol
 _atom_site_label
 _atom_site_symmetry_multiplicity
 _atom_site_fract_x
 _atom_site_fract_y
 _atom_site_fract_z
 _atom_site_occupancy
  Na  Na0  1  0.119343  0.027953  0.241338  1
  Na  Na1  1  0.380657  0.527953  0.758662  1
  Na  Na2  1  0.619343  0.472047  0.241338  1
  Na  Na3  1  0.880657  0.972047  0.758662  1
  Mn  Mn4  1  0.172328  0.733307  0.783018  1
  Mn  Mn5  1  0.327672  0.233307  0.216982  1
  Mn  Mn6  1  0.672328  0.766693  0.783018  1
  Mn  Mn7  1  0.827672  0.266693  0.216982  1
  P  P8  1  0.217424  0.239804  0.722461  1
  P  P9  1  0.282576  0.739804  0.277539  1
  P  P10  1  0.717424  0.260196  0.722461  1
  P  P11  1  0.782576  0.760196  0.277539  1
  C  C12  1  0.042131  0.745423  0.725991  1
  C  C13  1  0.457869  0.245423  0.274009  1
  C  C14  1  0.542131  0.754577  0.725991  1
  C  C15  1  0.957869  0.254577  0.274009  1
  O  O16  1  0.023591  0.248034  0.306201  1
  O  O17  1  0.072843  0.742094  0.949114  1
  O  O18  1  0.093397  0.742389  0.538544  1
  O  O19  1  0.167301  0.045936  0.791845  1
  O  O20  1  0.166188  0.430340  0.785687  1
  O  O21  1  0.238348  0.232358  0.432233  1
  O  O22  1  0.213041  0.747095  0.125711  1
  O  O23  1  0.286959  0.247095  0.874289  1
  O  O24  1  0.261652  0.732358  0.567767  1
  O  O25  1  0.332699  0.545936  0.208155  1
  O  O26  1  0.333812  0.930340  0.214313  1
  O  O27  1  0.406603  0.242389  0.461456  1
  O  O28  1  0.427157  0.242094  0.050886  1
  O  O29  1  0.476409  0.748034  0.693799  1
  O  O30  1  0.523591  0.251966  0.306201  1
  O  O31  1  0.572843  0.757906  0.949114  1
  O  O32  1  0.593397  0.757611  0.538544  1
  O  O33  1  0.666188  0.069660  0.785687  1
  O  O34  1  0.667301  0.454064  0.791845  1
  O  O35  1  0.738348  0.267642  0.432233  1
  O  O36  1  0.713041  0.752905  0.125711  1
  O  O37  1  0.786959  0.252905  0.874289  1
  O  O38  1  0.761652  0.767642  0.567767  1
  O  O39  1  0.833812  0.569660  0.214313  1
  O  O40  1  0.832699  0.954064  0.208155  1
  O  O41  1  0.906603  0.257611  0.461456  1
  O  O42  1  0.927157  0.257906  0.050886  1
  O  O43  1  0.976409  0.751966  0.693799  1
