# generated using pymatgen
data_Li4V3P8O29
_symmetry_space_group_name_H-M   'P 1'
_cell_length_a   9.78132392
_cell_length_b   9.72332670
_cell_length_c   14.24306458
_cell_angle_alpha   90.19229110
_cell_angle_beta   90.53613140
_cell_angle_gamma   60.31164836
_symmetry_Int_Tables_number   1
_chemical_formula_structural   Li4V3P8O29
_chemical_formula_sum   'Li8 V6 P16 O58'
_cell_volume   1176.74513307
_cell_formula_units_Z   2
loop_
 _symmetry_equiv_pos_site_id
 _symmetry_equiv_pos_as_xyz
  1  'x, y, z'
loop_
 _atom_site_type_symbol
 _atom_site_label
 _atom_site_symmetry_multiplicity
 _atom_site_fract_x
 _atom_site_fract_y
 _atom_site_fract_z
 _atom_site_occupancy
  Li  Li0  1  0.908339  0.328780  0.556160  1
  Li  Li1  1  0.338891  0.895779  0.060382  1
  Li  Li2  1  0.331084  0.766532  0.557011  1
  Li  Li3  1  0.664022  0.097205  0.943340  1
  Li  Li4  1  0.093295  0.672472  0.437592  1
  Li  Li5  1  0.088882  0.228276  0.944871  1
  Li  Li6  1  0.990749  0.952999  0.016613  1
  Li  Li7  1  0.942044  0.042224  0.492612  1
  V  V8  1  0.567981  0.433426  0.246303  1
  V  V9  1  0.435090  0.563922  0.755344  1
  V  V10  1  0.567931  0.997705  0.740754  1
  V  V11  1  0.435702  0.001769  0.258183  1
  V  V12  1  0.998676  0.566001  0.245799  1
  V  V13  1  0.999531  0.439003  0.753961  1
  P  P14  1  0.915948  0.784943  0.836570  1
  P  P15  1  0.782763  0.915843  0.339713  1
  P  P16  1  0.913703  0.309000  0.338781  1
  P  P17  1  0.659763  0.672672  0.133528  1
  P  P18  1  0.663730  0.662587  0.632037  1
  P  P19  1  0.776888  0.307056  0.843708  1
  P  P20  1  0.692002  0.227269  0.658517  1
  P  P21  1  0.320087  0.912781  0.842827  1
  P  P22  1  0.686807  0.085203  0.157156  1
  P  P23  1  0.316737  0.770764  0.343036  1
  P  P24  1  0.220818  0.695059  0.161074  1
  P  P25  1  0.333062  0.340610  0.367018  1
  P  P26  1  0.339848  0.324816  0.866596  1
  P  P27  1  0.089265  0.686225  0.655632  1
  P  P28  1  0.219288  0.086028  0.661749  1
  P  P29  1  0.090482  0.218506  0.159485  1
  O  O30  1  0.022113  0.763798  0.563555  1
  O  O31  1  0.917043  0.741899  0.336691  1
  O  O32  1  0.767651  0.014113  0.066634  1
  O  O33  1  0.740134  0.919419  0.831552  1
  O  O34  1  0.920883  0.621781  0.826679  1
  O  O35  1  0.808151  0.669796  0.172867  1
  O  O36  1  0.919292  0.463412  0.325900  1
  O  O37  1  0.019376  0.201760  0.069888  1
  O  O38  1  0.916392  0.339859  0.842301  1
  O  O39  1  0.667448  0.813133  0.674416  1
  O  O40  1  0.620670  0.920929  0.329552  1
  O  O41  1  0.812399  0.514307  0.670612  1
  O  O42  1  0.635270  0.686311  0.030092  1
  O  O43  1  0.648398  0.668076  0.528066  1
  O  O44  1  0.662998  0.521177  0.176839  1
  O  O45  1  0.475730  0.910550  0.822826  1
  O  O46  1  0.512799  0.816702  0.182252  1
  O  O47  1  0.740928  0.344102  0.328459  1
  O  O48  1  0.798673  0.204290  0.750105  1
  O  O49  1  0.788973  0.215534  0.575426  1
  O  O50  1  0.779473  0.212671  0.926229  1
  O  O51  1  0.619269  0.465990  0.828420  1
  O  O52  1  0.513610  0.671715  0.678684  1
  O  O53  1  0.653028  0.258665  0.166031  1
  O  O54  1  0.472140  0.616889  0.326492  1
  O  O55  1  0.345293  0.914295  0.338570  1
  O  O56  1  0.802729  0.991763  0.243007  1
  O  O57  1  0.796692  0.001479  0.421808  1
  O  O58  1  0.211446  0.993686  0.580443  1
  O  O59  1  0.655704  0.088367  0.663402  1
  O  O60  1  0.537368  0.385510  0.671202  1
  O  O61  1  0.345749  0.742361  0.835348  1
  O  O62  1  0.475482  0.341173  0.317010  1
  O  O63  1  0.381447  0.542695  0.167878  1
  O  O64  1  0.200100  0.803223  0.080888  1
  O  O65  1  0.235264  0.770986  0.432227  1
  O  O66  1  0.200171  0.794287  0.257241  1
  O  O67  1  0.261404  0.658466  0.666984  1
  O  O68  1  0.487811  0.181083  0.820743  1
  O  O69  1  0.532574  0.081923  0.173309  1
  O  O70  1  0.336429  0.475604  0.820455  1
  O  O71  1  0.355752  0.317698  0.970549  1
  O  O72  1  0.341970  0.336188  0.470930  1
  O  O73  1  0.183156  0.490042  0.329639  1
  O  O74  1  0.379030  0.085259  0.671849  1
  O  O75  1  0.333557  0.189453  0.322356  1
  O  O76  1  0.086476  0.655394  0.165327  1
  O  O77  1  0.992079  0.804261  0.740608  1
  O  O78  1  0.996006  0.803338  0.920179  1
  O  O79  1  0.090674  0.530691  0.673950  1
  O  O80  1  0.188610  0.323509  0.831516  1
  O  O81  1  0.088978  0.375164  0.171541  1
  O  O82  1  0.263594  0.077294  0.167797  1
  O  O83  1  0.244914  0.991581  0.933621  1
  O  O84  1  0.200149  0.010549  0.758856  1
  O  O85  1  0.080940  0.258633  0.663524  1
  O  O86  1  0.981332  0.225111  0.429946  1
  O  O87  1  0.003597  0.196602  0.250378  1
