# generated using pymatgen
data_Ca9LaTi6Mn4O30
_symmetry_space_group_name_H-M   'P 1'
_cell_length_a   5.41380125
_cell_length_b   5.46916819
_cell_length_c   38.42007073
_cell_angle_alpha   89.94115510
_cell_angle_beta   90.05487439
_cell_angle_gamma   89.91859979
_symmetry_Int_Tables_number   1
_chemical_formula_structural   Ca9LaTi6Mn4O30
_chemical_formula_sum   'Ca18 La2 Ti12 Mn8 O60'
_cell_volume   1137.57720381
_cell_formula_units_Z   2
loop_
 _symmetry_equiv_pos_site_id
 _symmetry_equiv_pos_as_xyz
  1  'x, y, z'
loop_
 _atom_site_type_symbol
 _atom_site_label
 _atom_site_symmetry_multiplicity
 _atom_site_fract_x
 _atom_site_fract_y
 _atom_site_fract_z
 _atom_site_occupancy
  Ca  Ca0  1  0.012104  0.963777  0.150635  1
  Ca  Ca1  1  0.012023  0.963917  0.350356  1
  Ca  Ca2  1  0.011322  0.964847  0.550063  1
  Ca  Ca3  1  0.012585  0.967468  0.751587  1
  Ca  Ca4  1  0.489615  0.460634  0.350486  1
  Ca  Ca5  1  0.489747  0.460868  0.150654  1
  Ca  Ca6  1  0.491119  0.460193  0.549262  1
  Ca  Ca7  1  0.492920  0.458956  0.752777  1
  Ca  Ca8  1  0.491015  0.462932  0.948027  1
  Ca  Ca9  1  0.509018  0.537101  0.049185  1
  Ca  Ca10  1  0.510208  0.539096  0.249260  1
  Ca  Ca11  1  0.510116  0.539128  0.448896  1
  Ca  Ca12  1  0.510364  0.538122  0.851127  1
  Ca  Ca13  1  0.988852  0.035452  0.050103  1
  Ca  Ca14  1  0.987718  0.036140  0.249443  1
  Ca  Ca15  1  0.987659  0.032718  0.650782  1
  Ca  Ca16  1  0.987744  0.036051  0.449189  1
  Ca  Ca17  1  0.987758  0.036283  0.849845  1
  La  La18  1  0.005718  0.974330  0.948007  1
  La  La19  1  0.503506  0.529467  0.650850  1
  Ti  Ti20  1  0.998204  0.499611  0.100434  1
  Ti  Ti21  1  -0.000104  0.500086  0.299836  1
  Ti  Ti22  1  0.002359  0.499969  0.499119  1
  Ti  Ti23  1  0.002076  0.498641  0.702769  1
  Ti  Ti24  1  0.498740  0.998730  0.099710  1
  Ti  Ti25  1  0.499826  0.999970  0.299961  1
  Ti  Ti26  1  0.502425  0.000067  0.500125  1
  Ti  Ti27  1  0.000370  0.498976  0.000531  1
  Ti  Ti28  1  0.000664  0.500031  0.200151  1
  Ti  Ti29  1  0.999059  0.499804  0.399516  1
  Ti  Ti30  1  -0.000031  0.498239  0.598694  1
  Ti  Ti31  1  0.000744  0.502733  0.801728  1
  Mn  Mn32  1  0.000681  0.499505  0.899073  1
  Mn  Mn33  1  0.499420  0.999367  0.000038  1
  Mn  Mn34  1  0.500353  0.000139  0.199926  1
  Mn  Mn35  1  0.499437  0.999826  0.400049  1
  Mn  Mn36  1  0.502791  0.999816  0.701540  1
  Mn  Mn37  1  0.499911  0.999616  0.898434  1
  Mn  Mn38  1  0.500067  0.999533  0.599687  1
  Mn  Mn39  1  0.500248  0.000397  0.800365  1
  O  O40  1  0.077731  0.483276  0.049440  1
  O  O41  1  0.078397  0.482703  0.249797  1
  O  O42  1  0.078400  0.482540  0.449913  1
  O  O43  1  0.061890  0.487498  0.650005  1
  O  O44  1  0.076367  0.484936  0.850233  1
  O  O45  1  0.214305  0.215196  0.108206  1
  O  O46  1  0.215374  0.216088  0.308441  1
  O  O47  1  0.221467  0.218124  0.191309  1
  O  O48  1  0.212937  0.217425  0.508714  1
  O  O49  1  0.224729  0.221910  0.708313  1
  O  O50  1  0.220530  0.217700  0.391394  1
  O  O51  1  0.224747  0.222325  0.591754  1
  O  O52  1  0.223585  0.223878  0.907292  1
  O  O53  1  0.218536  0.219107  0.791993  1
  O  O54  1  0.225568  0.219885  0.992025  1
  O  O55  1  0.283383  0.721332  0.191493  1
  O  O56  1  0.284212  0.716069  0.308375  1
  O  O57  1  0.283328  0.720599  0.391573  1
  O  O58  1  0.284166  0.714621  0.108267  1
  O  O59  1  0.285498  0.719173  0.592130  1
  O  O60  1  0.281570  0.717308  0.508493  1
  O  O61  1  0.286172  0.718102  0.708049  1
  O  O62  1  0.280684  0.721025  0.791957  1
  O  O63  1  0.279238  0.719750  0.908278  1
  O  O64  1  0.281727  0.722068  0.991240  1
  O  O65  1  0.419132  0.980208  0.050069  1
  O  O66  1  0.418912  0.982153  0.249477  1
  O  O67  1  0.419938  0.990993  0.649292  1
  O  O68  1  0.417414  0.979231  0.849570  1
  O  O69  1  0.418318  0.982760  0.449314  1
  O  O70  1  0.581231  0.017986  0.350405  1
  O  O71  1  0.580716  0.017593  0.150510  1
  O  O72  1  0.582251  0.017840  0.549259  1
  O  O73  1  0.583465  0.018758  0.751108  1
  O  O74  1  0.566776  0.015787  0.950555  1
  O  O75  1  0.722292  0.274578  0.007763  1
  O  O76  1  0.715591  0.283760  0.091282  1
  O  O77  1  0.716752  0.278806  0.208323  1
  O  O78  1  0.715641  0.284114  0.291535  1
  O  O79  1  0.721064  0.276035  0.607775  1
  O  O80  1  0.716932  0.278732  0.408420  1
  O  O81  1  0.713164  0.286959  0.491642  1
  O  O82  1  0.724141  0.277884  0.891911  1
  O  O83  1  0.722753  0.275763  0.692734  1
  O  O84  1  0.714636  0.281739  0.808250  1
  O  O85  1  0.780378  0.781927  0.007610  1
  O  O86  1  0.779066  0.782340  0.208481  1
  O  O87  1  0.784617  0.783082  0.091333  1
  O  O88  1  0.778830  0.781737  0.408631  1
  O  O89  1  0.776996  0.781210  0.608919  1
  O  O90  1  0.777781  0.779796  0.691679  1
  O  O91  1  0.779322  0.782275  0.808392  1
  O  O92  1  0.784621  0.784055  0.291460  1
  O  O93  1  0.783435  0.784773  0.491393  1
  O  O94  1  0.786094  0.782393  0.891926  1
  O  O95  1  0.921626  0.517062  0.149986  1
  O  O96  1  0.921191  0.517455  0.350131  1
  O  O97  1  0.920315  0.520187  0.550292  1
  O  O98  1  0.924313  0.518117  0.750252  1
  O  O99  1  0.927407  0.506744  0.949417  1
