# generated using pymatgen
data_Zr2N2O
_symmetry_space_group_name_H-M   'P 1'
_cell_length_a   5.88464323
_cell_length_b   9.61823446
_cell_length_c   8.10432712
_cell_angle_alpha   66.59900949
_cell_angle_beta   94.52702747
_cell_angle_gamma   74.17553406
_symmetry_Int_Tables_number   1
_chemical_formula_structural   Zr2N2O
_chemical_formula_sum   'Zr12 N12 O6'
_cell_volume   395.80968994
_cell_formula_units_Z   6
loop_
 _symmetry_equiv_pos_site_id
 _symmetry_equiv_pos_as_xyz
  1  'x, y, z'
loop_
 _atom_site_type_symbol
 _atom_site_label
 _atom_site_symmetry_multiplicity
 _atom_site_fract_x
 _atom_site_fract_y
 _atom_site_fract_z
 _atom_site_occupancy
  Zr  Zr0  1  0.295425  0.996901  0.356199  1
  Zr  Zr1  1  0.707600  0.996872  0.146946  1
  Zr  Zr2  1  0.275901  0.996496  0.862685  1
  Zr  Zr3  1  0.727620  0.996492  0.640748  1
  Zr  Zr4  1  0.617812  0.334040  0.191808  1
  Zr  Zr5  1  0.048849  0.332686  0.474839  1
  Zr  Zr6  1  0.939074  0.670154  0.025880  1
  Zr  Zr7  1  0.371213  0.669816  0.310489  1
  Zr  Zr8  1  0.048151  0.333988  0.974166  1
  Zr  Zr9  1  0.618530  0.332625  0.692462  1
  Zr  Zr10  1  0.390793  0.670144  0.803935  1
  Zr  Zr11  1  0.959020  0.669790  0.519746  1
  N  N12  1  0.399934  0.200108  0.150055  1
  N  N13  1  0.032229  0.233808  0.783862  1
  N  N14  1  0.734086  0.233795  0.482320  1
  N  N15  1  0.932578  0.432885  0.184340  1
  N  N16  1  0.266756  0.466584  0.516735  1
  N  N17  1  0.396322  0.900928  0.151807  1
  N  N18  1  0.270286  0.765795  0.514836  1
  N  N19  1  0.963896  0.765783  0.219388  1
  N  N20  1  0.634548  0.432825  0.882793  1
  N  N21  1  0.069475  0.861045  0.819458  1
  N  N22  1  0.702697  0.900827  0.447313  1
  N  N23  1  0.597199  0.805615  0.847126  1
  O  O24  1  0.302620  0.101583  0.549604  1
  O  O25  1  0.934785  0.130356  0.184811  1
  O  O26  1  0.364009  0.565158  0.117070  1
  O  O27  1  0.595834  0.101529  0.848841  1
  O  O28  1  0.731910  0.536269  0.481882  1
  O  O29  1  0.070847  0.565104  0.817853  1
