# generated using pymatgen
data_LiMn3(BO3)3
_symmetry_space_group_name_H-M   'P 1'
_cell_length_a   7.76637415
_cell_length_b   9.16629393
_cell_length_c   6.18968718
_cell_angle_alpha   106.38637838
_cell_angle_beta   83.01119201
_cell_angle_gamma   66.29453880
_symmetry_Int_Tables_number   1
_chemical_formula_structural   LiMn3(BO3)3
_chemical_formula_sum   'Li2 Mn6 B6 O18'
_cell_volume   372.95012787
_cell_formula_units_Z   2
loop_
 _symmetry_equiv_pos_site_id
 _symmetry_equiv_pos_as_xyz
  1  'x, y, z'
loop_
 _atom_site_type_symbol
 _atom_site_label
 _atom_site_symmetry_multiplicity
 _atom_site_fract_x
 _atom_site_fract_y
 _atom_site_fract_z
 _atom_site_occupancy
  Li  Li0  1  0.718203  0.950398  0.606173  1
  Li  Li1  1  0.615131  0.382935  0.060494  1
  Mn  Mn2  1  0.004348  0.392937  0.742069  1
  Mn  Mn3  1  0.688278  0.287787  0.562725  1
  Mn  Mn4  1  0.645055  0.045546  0.103942  1
  Mn  Mn5  1  0.328986  0.940396  0.924598  1
  Mn  Mn6  1  0.314396  0.740196  0.431026  1
  Mn  Mn7  1  0.018938  0.593137  0.235641  1
  B  B8  1  0.966803  0.069123  0.785656  1
  B  B9  1  0.366530  0.264210  0.881010  1
  B  B10  1  0.692509  0.625448  0.568080  1
  B  B11  1  0.319737  0.385170  0.415386  1
  B  B12  1  0.640825  0.707886  0.098587  1
  B  B13  1  0.013596  0.948163  0.251281  1
  O  O14  1  0.880284  0.238814  0.800696  1
  O  O15  1  0.846002  0.632776  0.023098  1
  O  O16  1  0.863818  0.988356  0.830311  1
  O  O17  1  0.812854  0.023392  0.350486  1
  O  O18  1  0.453049  0.094520  0.865971  1
  O  O19  1  0.797838  0.464578  0.577499  1
  O  O20  1  0.469515  0.344978  0.836355  1
  O  O21  1  0.781163  0.711553  0.496133  1
  O  O22  1  0.487332  0.700558  0.643568  1
  O  O23  1  0.520479  0.309942  0.316180  1
  O  O24  1  0.236319  0.298426  0.493905  1
  O  O25  1  0.552171  0.621780  0.170534  1
  O  O26  1  0.212043  0.549210  0.416212  1
  O  O27  1  0.535496  0.868755  0.089168  1
  O  O28  1  0.173928  0.973419  0.696533  1
  O  O29  1  0.097014  0.034907  0.172761  1
  O  O30  1  0.159406  0.359915  0.970133  1
  O  O31  1  0.121291  0.784124  0.250455  1
