# generated using pymatgen
data_LiMn3(BO3)3
_symmetry_space_group_name_H-M   'P 1'
_cell_length_a   9.22963189
_cell_length_b   5.31386374
_cell_length_c   8.19776036
_cell_angle_alpha   92.26673311
_cell_angle_beta   73.75090880
_cell_angle_gamma   106.14327093
_symmetry_Int_Tables_number   1
_chemical_formula_structural   LiMn3(BO3)3
_chemical_formula_sum   'Li2 Mn6 B6 O18'
_cell_volume   370.45949362
_cell_formula_units_Z   2
loop_
 _symmetry_equiv_pos_site_id
 _symmetry_equiv_pos_as_xyz
  1  'x, y, z'
loop_
 _atom_site_type_symbol
 _atom_site_label
 _atom_site_symmetry_multiplicity
 _atom_site_fract_x
 _atom_site_fract_y
 _atom_site_fract_z
 _atom_site_occupancy
  Li  Li0  1  0.372339  0.355793  0.039332  1
  Li  Li1  1  0.031712  0.687003  0.711742  1
  Mn  Mn2  1  0.778661  0.184216  0.030196  1
  Mn  Mn3  1  0.880485  0.128159  0.626166  1
  Mn  Mn4  1  0.562357  0.494975  0.297062  1
  Mn  Mn5  1  0.446832  0.532276  0.688928  1
  Mn  Mn6  1  0.116215  0.858822  0.364725  1
  Mn  Mn7  1  0.220052  0.808267  0.963274  1
  B  B8  1  0.892156  0.773451  0.138442  1
  B  B9  1  0.778101  0.559405  0.528227  1
  B  B10  1  0.449388  0.897664  0.171843  1
  B  B11  1  0.551820  0.104090  0.814695  1
  B  B12  1  0.221483  0.430522  0.481174  1
  B  B13  1  0.103398  0.227875  0.868160  1
  O  O14  1  0.886497  0.025524  0.145790  1
  O  O15  1  0.975551  0.301651  0.838656  1
  O  O16  1  0.890459  0.752248  0.581658  1
  O  O17  1  0.767614  0.562647  0.124963  1
  O  O18  1  0.787419  0.309575  0.510170  1
  O  O19  1  0.658234  0.626273  0.483296  1
  O  O20  1  0.573068  0.100617  0.195684  1
  O  O21  1  0.691530  0.051049  0.823717  1
  O  O22  1  0.448494  0.640106  0.169056  1
  O  O23  1  0.534693  0.346412  0.835507  1
  O  O24  1  0.322815  0.973629  0.146692  1
  O  O25  1  0.429176  0.886555  0.800291  1
  O  O26  1  0.364052  0.375170  0.474977  1
  O  O27  1  0.203246  0.672203  0.512559  1
  O  O28  1  0.222562  0.421049  0.907317  1
  O  O29  1  0.096327  0.216370  0.469882  1
  O  O30  1  0.028448  0.716587  0.151730  1
  O  O31  1  0.113280  0.976311  0.839580  1
