# generated using pymatgen
data_Li2Mn7F16
_symmetry_space_group_name_H-M   'P 1'
_cell_length_a   6.51771236
_cell_length_b   9.58739007
_cell_length_c   6.51771276
_cell_angle_alpha   109.87143346
_cell_angle_beta   59.99999555
_cell_angle_gamma   109.87143302
_symmetry_Int_Tables_number   1
_chemical_formula_structural   Li2Mn7F16
_chemical_formula_sum   'Li2 Mn7 F16'
_cell_volume   324.40919594
_cell_formula_units_Z   1
loop_
 _symmetry_equiv_pos_site_id
 _symmetry_equiv_pos_as_xyz
  1  'x, y, z'
loop_
 _atom_site_type_symbol
 _atom_site_label
 _atom_site_symmetry_multiplicity
 _atom_site_fract_x
 _atom_site_fract_y
 _atom_site_fract_z
 _atom_site_occupancy
  Li  Li0  1  0.334036  0.002109  0.334036  1
  Li  Li1  1  0.665964  0.997891  0.665964  1
  Mn  Mn2  1  0.000000  0.000000  0.000000  1
  Mn  Mn3  1  0.254618  0.664282  0.520418  1
  Mn  Mn4  1  0.110753  0.335718  0.745382  1
  Mn  Mn5  1  0.479582  0.335718  0.110753  1
  Mn  Mn6  1  0.520418  0.664282  0.889247  1
  Mn  Mn7  1  0.889247  0.664282  0.254618  1
  Mn  Mn8  1  0.745382  0.335718  0.479582  1
  F  F9  1  0.237417  0.712249  0.237417  1
  F  F10  1  0.245363  0.892568  0.652303  1
  F  F11  1  0.159142  0.410305  0.405149  1
  F  F12  1  0.153986  0.589695  0.840858  1
  F  F13  1  0.005097  0.107432  0.754637  1
  F  F14  1  0.347697  0.107432  0.005097  1
  F  F15  1  0.594851  0.589695  0.153986  1
  F  F16  1  0.416350  0.249052  0.416350  1
  F  F17  1  0.583650  0.750948  0.583650  1
  F  F18  1  0.405149  0.410305  0.846014  1
  F  F19  1  0.652303  0.892568  0.994903  1
  F  F20  1  0.994903  0.892568  0.245363  1
  F  F21  1  0.846014  0.410305  0.159142  1
  F  F22  1  0.840858  0.589695  0.594851  1
  F  F23  1  0.754637  0.107432  0.347697  1
  F  F24  1  0.762583  0.287751  0.762583  1
