# generated using pymatgen
data_Li5V2Co5O12
_symmetry_space_group_name_H-M   'P 1'
_cell_length_a   5.20091600
_cell_length_b   5.20091582
_cell_length_c   9.85829595
_cell_angle_alpha   84.60869809
_cell_angle_beta   95.39129776
_cell_angle_gamma   58.12165737
_symmetry_Int_Tables_number   1
_chemical_formula_structural   Li5V2Co5O12
_chemical_formula_sum   'Li5 V2 Co5 O12'
_cell_volume   222.16529329
_cell_formula_units_Z   1
loop_
 _symmetry_equiv_pos_site_id
 _symmetry_equiv_pos_as_xyz
  1  'x, y, z'
loop_
 _atom_site_type_symbol
 _atom_site_label
 _atom_site_symmetry_multiplicity
 _atom_site_fract_x
 _atom_site_fract_y
 _atom_site_fract_z
 _atom_site_occupancy
  Li  Li0  1  0.171146  0.676554  0.501973  1
  Li  Li1  1  0.326871  0.828653  0.995337  1
  Li  Li2  1  0.676554  0.171146  0.998027  1
  Li  Li3  1  0.828653  0.326871  0.504663  1
  Li  Li4  1  0.922230  0.922230  0.750000  1
  V  V5  1  0.259482  0.259482  0.750000  1
  V  V6  1  0.747266  0.747266  0.250000  1
  Co  Co7  1  0.078008  0.078008  0.250000  1
  Co  Co8  1  0.997203  0.506374  0.996310  1
  Co  Co9  1  0.506374  0.997203  0.503690  1
  Co  Co10  1  0.419014  0.419014  0.250000  1
  Co  Co11  1  0.583473  0.583473  0.750000  1
  O  O12  1  0.947105  0.239916  0.866236  1
  O  O13  1  0.239916  0.947105  0.633764  1
  O  O14  1  0.102742  0.395779  0.364914  1
  O  O15  1  0.395779  0.102742  0.135086  1
  O  O16  1  0.290856  0.521468  0.867999  1
  O  O17  1  0.521468  0.290856  0.632001  1
  O  O18  1  0.475847  0.710896  0.371351  1
  O  O19  1  0.710896  0.475847  0.128649  1
  O  O20  1  0.591989  0.897277  0.864565  1
  O  O21  1  0.897277  0.591989  0.635435  1
  O  O22  1  0.784949  0.024903  0.372017  1
  O  O23  1  0.024903  0.784949  0.127983  1
