# generated using pymatgen
data_LiMnF6
_symmetry_space_group_name_H-M   'P 1'
_cell_length_a   5.05804617
_cell_length_b   5.38946690
_cell_length_c   5.05804701
_cell_angle_alpha   117.98581160
_cell_angle_beta   60.00000306
_cell_angle_gamma   117.98581370
_symmetry_Int_Tables_number   1
_chemical_formula_structural   LiMnF6
_chemical_formula_sum   'Li1 Mn1 F6'
_cell_volume   100.36173116
_cell_formula_units_Z   1
loop_
 _symmetry_equiv_pos_site_id
 _symmetry_equiv_pos_as_xyz
  1  'x, y, z'
loop_
 _atom_site_type_symbol
 _atom_site_label
 _atom_site_symmetry_multiplicity
 _atom_site_fract_x
 _atom_site_fract_y
 _atom_site_fract_z
 _atom_site_occupancy
  Li  Li0  1  0.500000  0.500000  0.500000  1
  Mn  Mn1  1  0.000000  0.000000  0.000000  1
  F  F2  1  0.232193  0.766792  0.644927  1
  F  F3  1  0.355073  0.233208  0.110329  1
  F  F4  1  0.110329  0.233208  0.767807  1
  F  F5  1  0.889671  0.766792  0.232193  1
  F  F6  1  0.644927  0.766792  0.889671  1
  F  F7  1  0.767807  0.233208  0.355073  1
