# generated using pymatgen
data_LiCuPO4
_symmetry_space_group_name_H-M   'P 1'
_cell_length_a   7.43573019
_cell_length_b   7.65962331
_cell_length_c   9.47296087
_cell_angle_alpha   92.96185941
_cell_angle_beta   88.47498349
_cell_angle_gamma   121.00115045
_symmetry_Int_Tables_number   1
_chemical_formula_structural   LiCuPO4
_chemical_formula_sum   'Li6 Cu6 P6 O24'
_cell_volume   461.84536976
_cell_formula_units_Z   6
loop_
 _symmetry_equiv_pos_site_id
 _symmetry_equiv_pos_as_xyz
  1  'x, y, z'
loop_
 _atom_site_type_symbol
 _atom_site_label
 _atom_site_symmetry_multiplicity
 _atom_site_fract_x
 _atom_site_fract_y
 _atom_site_fract_z
 _atom_site_occupancy
  Li  Li0  1  0.201875  0.951223  0.250793  1
  Li  Li1  1  0.052015  0.257853  0.258303  1
  Li  Li2  1  0.259728  0.041398  0.749153  1
  Li  Li3  1  0.740272  0.781669  0.249153  1
  Li  Li4  1  0.798125  0.749347  0.750793  1
  Li  Li5  1  0.947985  0.205837  0.758303  1
  Cu  Cu6  1  0.050396  0.600944  0.465937  1
  Cu  Cu7  1  0.571448  0.979421  0.458211  1
  Cu  Cu8  1  0.419044  0.475174  0.480914  1
  Cu  Cu9  1  0.428552  0.407974  0.958211  1
  Cu  Cu10  1  0.580956  0.056130  0.980914  1
  Cu  Cu11  1  0.949604  0.550548  0.965937  1
  P  P12  1  0.325366  0.667310  0.172844  1
  P  P13  1  0.998490  -0.000153  0.003507  1
  P  P14  1  0.001510  0.001357  0.503507  1
  P  P15  1  0.340934  0.662690  0.772983  1
  P  P16  1  0.674634  0.341944  0.672844  1
  P  P17  1  0.659066  0.321756  0.272983  1
  O  O18  1  0.098172  0.876345  0.441085  1
  O  O19  1  0.154449  0.707946  0.120848  1
  O  O20  1  0.390766  0.879966  0.821310  1
  O  O21  1  0.123811  0.495176  0.827358  1
  O  O22  1  0.279977  0.452484  0.122930  1
  O  O23  1  0.318911  0.675060  0.341780  1
  O  O24  1  0.998244  0.002536  0.165633  1
  O  O25  1  0.001756  0.004293  0.665633  1
  O  O26  1  0.339750  0.645412  0.607546  1
  O  O27  1  0.123128  0.217941  0.445086  1
  O  O28  1  0.546173  0.833803  0.128132  1
  O  O29  1  0.231026  0.119430  0.947857  1
  O  O30  1  0.513340  0.626562  0.827681  1
  O  O31  1  0.768974  0.888403  0.447857  1
  O  O32  1  0.453827  0.287630  0.628132  1
  O  O33  1  0.486660  0.113221  0.327681  1
  O  O34  1  0.609234  0.489200  0.321310  1
  O  O35  1  0.845551  0.553498  0.620848  1
  O  O36  1  0.681089  0.356150  0.841780  1
  O  O37  1  0.660250  0.305663  0.107546  1
  O  O38  1  0.901828  0.778173  0.941085  1
  O  O39  1  0.720023  0.172508  0.622930  1
  O  O40  1  0.876189  0.371366  0.327358  1
  O  O41  1  0.876871  0.094812  0.945086  1
