# generated using pymatgen
data_Ni3OF5
_symmetry_space_group_name_H-M   'P 1'
_cell_length_a   7.33416936
_cell_length_b   5.63391094
_cell_length_c   5.62720743
_cell_angle_alpha   72.39749881
_cell_angle_beta   72.33036587
_cell_angle_gamma   72.33622135
_symmetry_Int_Tables_number   1
_chemical_formula_structural   Ni3OF5
_chemical_formula_sum   'Ni6 O2 F10'
_cell_volume   205.35985975
_cell_formula_units_Z   2
loop_
 _symmetry_equiv_pos_site_id
 _symmetry_equiv_pos_as_xyz
  1  'x, y, z'
loop_
 _atom_site_type_symbol
 _atom_site_label
 _atom_site_symmetry_multiplicity
 _atom_site_fract_x
 _atom_site_fract_y
 _atom_site_fract_z
 _atom_site_occupancy
  Ni  Ni0  1  0.837624  0.658511  0.666250  1
  Ni  Ni1  1  0.332435  0.660329  0.661889  1
  Ni  Ni2  1  0.659885  0.331912  0.336033  1
  Ni  Ni3  1  0.167706  0.336818  0.345203  1
  Ni  Ni4  1  0.499982  0.997410  0.000329  1
  Ni  Ni5  1  0.000440  0.011867  0.991321  1
  O  O6  1  0.369209  0.432339  0.437742  1
  O  O7  1  0.002289  0.307027  0.695516  1
  F  F8  1  0.670385  0.024792  0.638117  1
  F  F9  1  0.329650  0.360671  0.974216  1
  F  F10  1  0.300056  0.895064  0.894670  1
  F  F11  1  0.631727  0.564466  0.566067  1
  F  F12  1  0.961893  0.237797  0.236547  1
  F  F13  1  0.701598  0.101114  0.099847  1
  F  F14  1  0.035110  0.769636  0.767164  1
  F  F15  1  0.333025  0.969111  0.362206  1
  F  F16  1  0.666314  0.635413  0.030804  1
  F  F17  1  0.000673  0.705722  0.296076  1
