# generated using pymatgen
data_LiCuPO4
_symmetry_space_group_name_H-M   'P 1'
_cell_length_a   8.57675826
_cell_length_b   7.57794985
_cell_length_c   15.12518336
_cell_angle_alpha   90.00000000
_cell_angle_beta   90.76979340
_cell_angle_gamma   90.00000000
_symmetry_Int_Tables_number   1
_chemical_formula_structural   LiCuPO4
_chemical_formula_sum   'Li12 Cu12 P12 O48'
_cell_volume   982.96113247
_cell_formula_units_Z   12
loop_
 _symmetry_equiv_pos_site_id
 _symmetry_equiv_pos_as_xyz
  1  'x, y, z'
loop_
 _atom_site_type_symbol
 _atom_site_label
 _atom_site_symmetry_multiplicity
 _atom_site_fract_x
 _atom_site_fract_y
 _atom_site_fract_z
 _atom_site_occupancy
  Li  Li0  1  0.222568  0.975557  0.932627  1
  Li  Li1  1  0.232614  0.029482  0.588250  1
  Li  Li2  1  0.250010  0.905708  0.246422  1
  Li  Li3  1  0.249990  0.405708  0.253578  1
  Li  Li4  1  0.267386  0.529482  0.911750  1
  Li  Li5  1  0.277432  0.475557  0.567373  1
  Li  Li6  1  0.722568  0.524443  0.432627  1
  Li  Li7  1  0.732614  0.470518  0.088250  1
  Li  Li8  1  0.750010  0.594292  0.746422  1
  Li  Li9  1  0.749990  0.094292  0.753578  1
  Li  Li10  1  0.767386  0.970518  0.411750  1
  Li  Li11  1  0.777432  0.024443  0.067373  1
  Cu  Cu12  1  0.058826  0.672870  0.405664  1
  Cu  Cu13  1  0.080157  0.818070  0.759611  1
  Cu  Cu14  1  0.095054  0.676784  0.079681  1
  Cu  Cu15  1  0.404946  0.176784  0.420319  1
  Cu  Cu16  1  0.419843  0.318070  0.740389  1
  Cu  Cu17  1  0.441174  0.172870  0.094336  1
  Cu  Cu18  1  0.558826  0.827130  0.905664  1
  Cu  Cu19  1  0.580157  0.681930  0.259611  1
  Cu  Cu20  1  0.595054  0.823216  0.579681  1
  Cu  Cu21  1  0.904946  0.323216  0.920319  1
  Cu  Cu22  1  0.919843  0.181930  0.240389  1
  Cu  Cu23  1  0.941174  0.327130  0.594336  1
  P  P24  1  0.054157  0.268057  0.409875  1
  P  P25  1  0.081644  0.223478  0.770064  1
  P  P26  1  0.107360  0.271901  0.075844  1
  P  P27  1  0.392640  0.771901  0.424156  1
  P  P28  1  0.418356  0.723478  0.729936  1
  P  P29  1  0.445843  0.768057  0.090125  1
  P  P30  1  0.554157  0.231943  0.909875  1
  P  P31  1  0.581644  0.276522  0.270064  1
  P  P32  1  0.607360  0.228099  0.575844  1
  P  P33  1  0.892640  0.728099  0.924156  1
  P  P34  1  0.918356  0.776522  0.229936  1
  P  P35  1  0.945843  0.731943  0.590125  1
  O  O36  1  0.042631  0.559334  0.604686  1
  O  O37  1  0.045794  0.882599  0.630950  1
  O  O38  1  0.061811  0.766514  0.958382  1
  O  O39  1  0.085071  0.047025  0.823257  1
  O  O40  1  0.087358  0.371875  0.840576  1
  O  O41  1  0.073716  0.766741  0.284502  1
  O  O42  1  0.089110  0.235173  0.509746  1
  O  O43  1  0.101480  0.286331  0.178025  1
  O  O44  1  0.172489  0.447562  0.037206  1
  O  O45  1  0.215903  0.232379  0.702631  1
  O  O46  1  0.213170  0.282811  0.362687  1
  O  O47  1  0.220871  0.126072  0.045440  1
  O  O48  1  0.279129  0.626072  0.454560  1
  O  O49  1  0.286830  0.782811  0.137313  1
  O  O50  1  0.284097  0.732379  0.797369  1
  O  O51  1  0.327511  0.947562  0.462794  1
  O  O52  1  0.398520  0.786331  0.321975  1
  O  O53  1  0.410890  0.735173  0.990254  1
  O  O54  1  0.412642  0.871875  0.659424  1
  O  O55  1  0.426284  0.266741  0.215498  1
  O  O56  1  0.414929  0.547025  0.676743  1
  O  O57  1  0.438189  0.266514  0.541618  1
  O  O58  1  0.454206  0.382599  0.869050  1
  O  O59  1  0.457369  0.059334  0.895314  1
  O  O60  1  0.542631  0.940666  0.104686  1
  O  O61  1  0.545794  0.617401  0.130950  1
  O  O62  1  0.561811  0.733486  0.458382  1
  O  O63  1  0.585071  0.452975  0.323257  1
  O  O64  1  0.573716  0.733259  0.784502  1
  O  O65  1  0.587358  0.128125  0.340576  1
  O  O66  1  0.589110  0.264827  0.009746  1
  O  O67  1  0.601480  0.213669  0.678025  1
  O  O68  1  0.672489  0.052438  0.537206  1
  O  O69  1  0.715903  0.267621  0.202631  1
  O  O70  1  0.713170  0.217189  0.862687  1
  O  O71  1  0.720871  0.373928  0.545440  1
  O  O72  1  0.779129  0.873928  0.954560  1
  O  O73  1  0.786830  0.717189  0.637313  1
  O  O74  1  0.784097  0.767621  0.297369  1
  O  O75  1  0.827511  0.552438  0.962794  1
  O  O76  1  0.898520  0.713669  0.821975  1
  O  O77  1  0.910890  0.764827  0.490254  1
  O  O78  1  0.926284  0.233259  0.715498  1
  O  O79  1  0.912642  0.628125  0.159424  1
  O  O80  1  0.914929  0.952975  0.176743  1
  O  O81  1  0.938189  0.233486  0.041618  1
  O  O82  1  0.954206  0.117401  0.369050  1
  O  O83  1  0.957369  0.440666  0.395314  1
