# generated using pymatgen
data_Mn6OF11
_symmetry_space_group_name_H-M   'P 1'
_cell_length_a   4.93253256
_cell_length_b   5.90670025
_cell_length_c   16.23680195
_cell_angle_alpha   89.60793526
_cell_angle_beta   90.00000000
_cell_angle_gamma   90.00000000
_symmetry_Int_Tables_number   1
_chemical_formula_structural   Mn6OF11
_chemical_formula_sum   'Mn12 O2 F22'
_cell_volume   473.04800817
_cell_formula_units_Z   2
loop_
 _symmetry_equiv_pos_site_id
 _symmetry_equiv_pos_as_xyz
  1  'x, y, z'
loop_
 _atom_site_type_symbol
 _atom_site_label
 _atom_site_symmetry_multiplicity
 _atom_site_fract_x
 _atom_site_fract_y
 _atom_site_fract_z
 _atom_site_occupancy
  Mn  Mn0  1  0.001130  0.168023  0.415901  1
  Mn  Mn1  1  0.008885  0.836574  0.244383  1
  Mn  Mn2  1  0.995851  0.175857  0.071586  1
  Mn  Mn3  1  0.004189  0.171016  0.752862  1
  Mn  Mn4  1  0.000700  0.829676  0.585356  1
  Mn  Mn5  1  0.007376  0.853310  0.919824  1
  Mn  Mn6  1  0.501130  0.331977  0.584099  1
  Mn  Mn7  1  0.495851  0.324143  0.928414  1
  Mn  Mn8  1  0.504189  0.328984  0.247138  1
  Mn  Mn9  1  0.507376  0.646690  0.080176  1
  Mn  Mn10  1  0.500700  0.670324  0.414644  1
  Mn  Mn11  1  0.508885  0.663426  0.755617  1
  O  O12  1  0.209531  0.127538  0.972277  1
  O  O13  1  0.709531  0.372462  0.027723  1
  F  F14  1  0.235405  0.103289  0.305478  1
  F  F15  1  0.228527  0.106910  0.642260  1
  F  F16  1  0.232762  0.899175  0.131902  1
  F  F17  1  0.230967  0.894430  0.474297  1
  F  F18  1  0.222431  0.885769  0.806966  1
  F  F19  1  0.255520  0.395657  0.140749  1
  F  F20  1  0.268111  0.604930  0.305118  1
  F  F21  1  0.269347  0.395903  0.473887  1
  F  F22  1  0.272177  0.602872  0.644781  1
  F  F23  1  0.290203  0.379713  0.816972  1
  F  F24  1  0.266889  0.619601  0.973684  1
  F  F25  1  0.722431  0.614231  0.193034  1
  F  F26  1  0.728527  0.393090  0.357740  1
  F  F27  1  0.730967  0.605570  0.525703  1
  F  F28  1  0.732762  0.600825  0.868098  1
  F  F29  1  0.735405  0.396711  0.694522  1
  F  F30  1  0.790203  0.120287  0.183028  1
  F  F31  1  0.769347  0.104097  0.526113  1
  F  F32  1  0.772177  0.897128  0.355219  1
  F  F33  1  0.766889  0.880399  0.026316  1
  F  F34  1  0.755520  0.104343  0.859251  1
  F  F35  1  0.768111  0.895070  0.694882  1
