# generated using pymatgen
data_K3CrC5N6O
_symmetry_space_group_name_H-M   'P 1'
_cell_length_a   8.66731312
_cell_length_b   10.57268880
_cell_length_c   13.84831523
_cell_angle_alpha   90.00000000
_cell_angle_beta   90.00000000
_cell_angle_gamma   90.00000000
_symmetry_Int_Tables_number   1
_chemical_formula_structural   K3CrC5N6O
_chemical_formula_sum   'K12 Cr4 C20 N24 O4'
_cell_volume   1269.01535331
_cell_formula_units_Z   4
loop_
 _symmetry_equiv_pos_site_id
 _symmetry_equiv_pos_as_xyz
  1  'x, y, z'
loop_
 _atom_site_type_symbol
 _atom_site_label
 _atom_site_symmetry_multiplicity
 _atom_site_fract_x
 _atom_site_fract_y
 _atom_site_fract_z
 _atom_site_occupancy
  K  K0  1  0.500929  0.000000  0.000000  1
  K  K1  1  0.499785  0.230854  0.250409  1
  K  K2  1  0.999785  0.730854  0.749591  1
  K  K3  1  0.249203  0.000000  0.500000  1
  K  K4  1  0.749876  0.727049  0.249163  1
  K  K5  1  0.499785  0.769146  0.749591  1
  K  K6  1  0.999785  0.269146  0.250409  1
  K  K7  1  0.249876  0.227049  0.750837  1
  K  K8  1  0.749876  0.272951  0.750837  1
  K  K9  1  0.000929  0.500000  0.000000  1
  K  K10  1  0.749203  0.500000  0.500000  1
  K  K11  1  0.249876  0.772951  0.249163  1
  Cr  Cr12  1  0.750229  0.000000  0.500000  1
  Cr  Cr13  1  0.999698  0.000000  0.000000  1
  Cr  Cr14  1  0.250229  0.500000  0.500000  1
  Cr  Cr15  1  0.499698  0.500000  0.000000  1
  C  C16  1  0.916592  0.941677  0.401205  1
  C  C17  1  0.667207  0.557670  0.901859  1
  C  C18  1  0.416592  0.558323  0.401205  1
  C  C19  1  0.332624  0.557882  0.901713  1
  C  C20  1  0.832624  0.057882  0.098287  1
  C  C21  1  0.167207  0.057670  0.098141  1
  C  C22  1  0.332624  0.442118  0.098287  1
  C  C23  1  0.083342  0.441746  0.598828  1
  C  C24  1  0.750203  0.823208  0.564876  1
  C  C25  1  0.167207  0.942330  0.901859  1
  C  C26  1  0.416592  0.441677  0.598795  1
  C  C27  1  0.916592  0.058323  0.598795  1
  C  C28  1  0.667207  0.442330  0.098141  1
  C  C29  1  0.750203  0.176792  0.435124  1
  C  C30  1  0.583342  0.941746  0.401172  1
  C  C31  1  0.250203  0.323208  0.435124  1
  C  C32  1  0.583342  0.058254  0.598828  1
  C  C33  1  0.250203  0.676792  0.564876  1
  C  C34  1  0.832624  0.942118  0.901713  1
  C  C35  1  0.083342  0.558254  0.401172  1
  N  N36  1  0.009600  0.907509  0.345536  1
  N  N37  1  0.999754  0.843863  0.056245  1
  N  N38  1  0.737239  0.909845  0.846464  1
  N  N39  1  0.250266  0.225085  0.395538  1
  N  N40  1  0.509600  0.407509  0.654464  1
  N  N41  1  0.237239  0.590155  0.846464  1
  N  N42  1  0.499754  0.656137  0.056245  1
  N  N43  1  0.750266  0.274915  0.395538  1
  N  N44  1  0.009600  0.092491  0.654464  1
  N  N45  1  0.263308  0.911272  0.846678  1
  N  N46  1  0.999754  0.156137  0.943755  1
  N  N47  1  0.763308  0.411272  0.153322  1
  N  N48  1  0.490416  0.091432  0.654857  1
  N  N49  1  0.990416  0.408568  0.654857  1
  N  N50  1  0.750266  0.725085  0.604462  1
  N  N51  1  0.263308  0.088728  0.153322  1
  N  N52  1  0.509600  0.592491  0.345536  1
  N  N53  1  0.490416  0.908568  0.345143  1
  N  N54  1  0.737239  0.090155  0.153536  1
  N  N55  1  0.250266  0.774915  0.604462  1
  N  N56  1  0.499754  0.343863  0.943755  1
  N  N57  1  0.237239  0.409845  0.153536  1
  N  N58  1  0.990416  0.591432  0.345143  1
  N  N59  1  0.763308  0.588728  0.846678  1
  O  O60  1  0.499757  0.758272  0.098935  1
  O  O61  1  0.999757  0.741728  0.098935  1
  O  O62  1  0.499757  0.241728  0.901065  1
  O  O63  1  0.999757  0.258272  0.901065  1
