# generated using pymatgen
data_Li6Ca3MnC6(O9F)2
_symmetry_space_group_name_H-M   'P 1'
_cell_length_a   7.73282438
_cell_length_b   8.73922725
_cell_length_c   6.71847294
_cell_angle_alpha   84.79665990
_cell_angle_beta   101.88369815
_cell_angle_gamma   116.90557688
_symmetry_Int_Tables_number   1
_chemical_formula_structural   Li6Ca3MnC6(O9F)2
_chemical_formula_sum   'Li6 Ca3 Mn1 C6 O18 F2'
_cell_volume   396.20105899
_cell_formula_units_Z   1
loop_
 _symmetry_equiv_pos_site_id
 _symmetry_equiv_pos_as_xyz
  1  'x, y, z'
loop_
 _atom_site_type_symbol
 _atom_site_label
 _atom_site_symmetry_multiplicity
 _atom_site_fract_x
 _atom_site_fract_y
 _atom_site_fract_z
 _atom_site_occupancy
  Li  Li0  1  0.240386  0.678160  0.517210  1
  Li  Li1  1  0.182513  0.231933  0.688832  1
  Li  Li2  1  0.165489  0.214413  0.181075  1
  Li  Li3  1  0.567347  0.337322  0.023579  1
  Li  Li4  1  0.943989  0.783955  0.677577  1
  Li  Li5  1  0.950651  0.771544  0.182752  1
  Ca  Ca6  1  0.249219  0.631837  0.022361  1
  Ca  Ca7  1  0.699427  0.975965  0.846513  1
  Ca  Ca8  1  0.722252  0.031753  0.347027  1
  Mn  Mn9  1  0.612499  0.368103  0.525988  1
  C  C10  1  0.311164  0.996593  0.993210  1
  C  C11  1  0.554006  0.604929  0.800078  1
  C  C12  1  0.557378  0.615768  0.313726  1
  C  C13  1  0.317838  0.004399  0.493285  1
  C  C14  1  0.938289  0.379122  0.802667  1
  C  C15  1  0.939847  0.395684  0.309112  1
  O  O16  1  0.150091  0.853864  0.966267  1
  O  O17  1  0.156483  0.864229  0.476645  1
  O  O18  1  0.029244  0.553213  0.253087  1
  O  O19  1  0.069708  0.334344  0.904771  1
  O  O20  1  0.032964  0.306193  0.381108  1
  O  O21  1  0.486928  0.998285  0.537579  1
  O  O22  1  0.440269  0.683126  0.774236  1
  O  O23  1  0.307310  0.142918  0.981462  1
  O  O24  1  0.497477  0.732832  0.312075  1
  O  O25  1  0.480585  0.446966  0.738999  1
  O  O26  1  0.445758  0.476313  0.206574  1
  O  O27  1  0.316804  0.154204  0.466130  1
  O  O28  1  0.735449  0.688600  0.886026  1
  O  O29  1  0.726375  0.637002  0.421708  1
  O  O30  1  0.480534  0.988225  0.033900  1
  O  O31  1  0.750909  0.273062  0.787809  1
  O  O32  1  0.744889  0.319456  0.289715  1
  O  O33  1  0.990065  0.528704  0.717736  1
  F  F34  1  0.899222  0.992037  0.148002  1
  F  F35  1  0.907077  0.004943  0.642397  1
