# generated using pymatgen
data_LiTi(PO3)4
_symmetry_space_group_name_H-M   'P 1'
_cell_length_a   5.27033863
_cell_length_b   10.51518474
_cell_length_c   10.51518474
_cell_angle_alpha   70.20668352
_cell_angle_beta   99.05130699
_cell_angle_gamma   99.05130699
_symmetry_Int_Tables_number   1
_chemical_formula_structural   LiTi(PO3)4
_chemical_formula_sum   'Li2 Ti2 P8 O24'
_cell_volume   538.07584186
_cell_formula_units_Z   2
loop_
 _symmetry_equiv_pos_site_id
 _symmetry_equiv_pos_as_xyz
  1  'x, y, z'
loop_
 _atom_site_type_symbol
 _atom_site_label
 _atom_site_symmetry_multiplicity
 _atom_site_fract_x
 _atom_site_fract_y
 _atom_site_fract_z
 _atom_site_occupancy
  Li  Li0  1  0.364533  0.434535  0.434535  1
  Li  Li1  1  0.635467  0.565465  0.565465  1
  Ti  Ti2  1  0.000000  0.500000  0.000000  1
  Ti  Ti3  1  0.000000  0.000000  0.500000  1
  P  P4  1  0.172571  0.366291  0.784543  1
  P  P5  1  0.172571  0.784543  0.366291  1
  P  P6  1  0.537419  0.936935  0.695263  1
  P  P7  1  0.537419  0.695263  0.936935  1
  P  P8  1  0.462581  0.063065  0.304737  1
  P  P9  1  0.462581  0.304737  0.063065  1
  P  P10  1  0.827429  0.215457  0.633709  1
  P  P11  1  0.827429  0.633709  0.215457  1
  O  O12  1  0.000000  0.227836  0.772164  1
  O  O13  1  0.000000  0.772164  0.227836  1
  O  O14  1  0.247516  0.664313  0.917367  1
  O  O15  1  0.247516  0.917367  0.664313  1
  O  O16  1  0.998386  0.170943  0.557113  1
  O  O17  1  0.998386  0.557113  0.170943  1
  O  O18  1  0.313758  0.436326  0.663283  1
  O  O19  1  0.313758  0.663283  0.436326  1
  O  O20  1  0.376539  0.913917  0.296783  1
  O  O21  1  0.376539  0.296783  0.913917  1
  O  O22  1  0.614883  0.851016  0.851016  1
  O  O23  1  0.308119  0.099166  0.393989  1
  O  O24  1  0.308119  0.393989  0.099166  1
  O  O25  1  0.691881  0.606011  0.900834  1
  O  O26  1  0.691881  0.900834  0.606011  1
  O  O27  1  0.385117  0.148984  0.148984  1
  O  O28  1  0.623461  0.086083  0.703217  1
  O  O29  1  0.623461  0.703217  0.086083  1
  O  O30  1  0.686242  0.336717  0.563674  1
  O  O31  1  0.686242  0.563674  0.336717  1
  O  O32  1  0.001614  0.442887  0.829057  1
  O  O33  1  0.001614  0.829057  0.442887  1
  O  O34  1  0.752484  0.082633  0.335687  1
  O  O35  1  0.752484  0.335687  0.082633  1
