# generated using pymatgen
data_Li4MnFe3O8
_symmetry_space_group_name_H-M   'P 1'
_cell_length_a   5.90944804
_cell_length_b   6.02498270
_cell_length_c   6.01901554
_cell_angle_alpha   120.64261186
_cell_angle_beta   119.43813379
_cell_angle_gamma   60.58151255
_symmetry_Int_Tables_number   1
_chemical_formula_structural   Li4MnFe3O8
_chemical_formula_sum   'Li4 Mn1 Fe3 O8'
_cell_volume   152.06300325
_cell_formula_units_Z   1
loop_
 _symmetry_equiv_pos_site_id
 _symmetry_equiv_pos_as_xyz
  1  'x, y, z'
loop_
 _atom_site_type_symbol
 _atom_site_label
 _atom_site_symmetry_multiplicity
 _atom_site_fract_x
 _atom_site_fract_y
 _atom_site_fract_z
 _atom_site_occupancy
  Li  Li0  1  0.999963  0.000021  0.500000  1
  Li  Li1  1  0.999971  0.500019  0.499985  1
  Li  Li2  1  0.500005  0.000012  0.499997  1
  Li  Li3  1  0.499994  0.499991  0.499977  1
  Mn  Mn4  1  0.000149  0.999914  0.000108  1
  Fe  Fe5  1  -0.000017  0.499991  0.000001  1
  Fe  Fe6  1  0.499992  0.000050  0.000012  1
  Fe  Fe7  1  0.500017  0.499972  0.999987  1
  O  O8  1  0.260471  0.250391  0.769938  1
  O  O9  1  0.234387  0.238997  0.222600  1
  O  O10  1  0.248988  0.763015  0.778772  1
  O  O11  1  0.258108  0.723996  0.240954  1
  O  O12  1  0.741897  0.275974  0.759028  1
  O  O13  1  0.751006  0.236994  0.221219  1
  O  O14  1  0.765592  0.761014  0.777391  1
  O  O15  1  0.739508  0.749614  0.230026  1
