# generated using pymatgen
data_Mn6O7F5
_symmetry_space_group_name_H-M   'P 1'
_cell_length_a   4.60132041
_cell_length_b   5.60531021
_cell_length_c   15.36608475
_cell_angle_alpha   89.86375931
_cell_angle_beta   90.12155937
_cell_angle_gamma   90.88513563
_symmetry_Int_Tables_number   1
_chemical_formula_structural   Mn6O7F5
_chemical_formula_sum   'Mn12 O14 F10'
_cell_volume   396.27014550
_cell_formula_units_Z   2
loop_
 _symmetry_equiv_pos_site_id
 _symmetry_equiv_pos_as_xyz
  1  'x, y, z'
loop_
 _atom_site_type_symbol
 _atom_site_label
 _atom_site_symmetry_multiplicity
 _atom_site_fract_x
 _atom_site_fract_y
 _atom_site_fract_z
 _atom_site_occupancy
  Mn  Mn0  1  0.019613  0.164402  0.410241  1
  Mn  Mn1  1  0.994646  0.843478  0.247979  1
  Mn  Mn2  1  0.023877  0.178791  0.077815  1
  Mn  Mn3  1  0.012809  0.167803  0.745573  1
  Mn  Mn4  1  0.002720  0.851219  0.574832  1
  Mn  Mn5  1  0.052649  0.847584  0.914210  1
  Mn  Mn6  1  0.494207  0.344142  0.586496  1
  Mn  Mn7  1  0.485404  0.355588  0.920837  1
  Mn  Mn8  1  0.504578  0.348783  0.253798  1
  Mn  Mn9  1  0.518377  0.620675  0.085937  1
  Mn  Mn10  1  0.496581  0.637217  0.427088  1
  Mn  Mn11  1  0.486729  0.644157  0.752422  1
  O  O12  1  0.210756  0.114811  0.300451  1
  O  O13  1  0.215955  0.106961  0.633927  1
  O  O14  1  0.234961  0.119797  0.968609  1
  O  O15  1  0.227883  0.887263  0.467118  1
  O  O16  1  0.223638  0.894890  0.800958  1
  O  O17  1  0.288288  0.392300  0.145119  1
  O  O18  1  0.276969  0.392070  0.478028  1
  O  O19  1  0.273121  0.403020  0.815094  1
  O  O20  1  0.292337  0.603575  0.979870  1
  O  O21  1  0.718043  0.381394  0.025705  1
  O  O22  1  0.735710  0.606730  0.195102  1
  O  O23  1  0.723858  0.390961  0.362660  1
  O  O24  1  0.716549  0.618618  0.530097  1
  O  O25  1  0.714474  0.385194  0.695679  1
  F  F26  1  0.256891  0.876572  0.134466  1
  F  F27  1  0.254143  0.623005  0.316348  1
  F  F28  1  0.232088  0.609405  0.641825  1
  F  F29  1  0.752113  0.616493  0.868021  1
  F  F30  1  0.770587  0.099484  0.186281  1
  F  F31  1  0.771232  0.121972  0.516541  1
  F  F32  1  0.737466  0.878067  0.361717  1
  F  F33  1  0.782781  0.868502  0.027537  1
  F  F34  1  0.751976  0.126494  0.861906  1
  F  F35  1  0.745994  0.878584  0.689710  1
