# generated using pymatgen
data_Li7CuAs4ClO14
_symmetry_space_group_name_H-M   'P 1'
_cell_length_a   6.65671660
_cell_length_b   6.65671660
_cell_length_c   15.15804100
_cell_angle_alpha   85.74469447
_cell_angle_beta   94.25530553
_cell_angle_gamma   100.71693398
_symmetry_Int_Tables_number   1
_chemical_formula_structural   Li7CuAs4ClO14
_chemical_formula_sum   'Li14 Cu2 As8 Cl2 O28'
_cell_volume   656.89467292
_cell_formula_units_Z   2
loop_
 _symmetry_equiv_pos_site_id
 _symmetry_equiv_pos_as_xyz
  1  'x, y, z'
loop_
 _atom_site_type_symbol
 _atom_site_label
 _atom_site_symmetry_multiplicity
 _atom_site_fract_x
 _atom_site_fract_y
 _atom_site_fract_z
 _atom_site_occupancy
  Li  Li0  1  0.006111  0.413764  0.819383  1
  Li  Li1  1  0.617342  0.800394  0.822561  1
  Li  Li2  1  0.586236  0.993889  0.319383  1
  Li  Li3  1  0.199606  0.382658  0.322561  1
  Li  Li4  1  0.889264  0.960564  0.495367  1
  Li  Li5  1  0.515820  0.365493  0.808641  1
  Li  Li6  1  0.039436  0.110736  0.995367  1
  Li  Li7  1  0.880199  0.581546  0.973539  1
  Li  Li8  1  0.634507  0.484180  0.308641  1
  Li  Li9  1  0.418454  0.119801  0.473539  1
  Li  Li10  1  0.495826  0.023496  0.004320  1
  Li  Li11  1  0.976504  0.504174  0.504320  1
  Li  Li12  1  0.689625  0.131586  0.658377  1
  Li  Li13  1  0.868414  0.310375  0.158377  1
  Cu  Cu14  1  0.287840  0.720823  0.659916  1
  Cu  Cu15  1  0.279177  0.712160  0.159916  1
  As  As16  1  0.129872  0.901648  0.829838  1
  As  As17  1  0.098352  0.870128  0.329838  1
  As  As18  1  0.372004  0.519452  0.982947  1
  As  As19  1  0.480548  0.627996  0.482947  1
  As  As20  1  0.169370  0.202782  0.655083  1
  As  As21  1  0.797218  0.830630  0.155083  1
  As  As22  1  0.762411  0.620783  0.657166  1
  As  As23  1  0.379217  0.237589  0.157166  1
  Cl  Cl24  1  0.724518  0.126591  0.884625  1
  Cl  Cl25  1  0.873408  0.275482  0.384625  1
  O  O26  1  0.312277  0.800436  0.782218  1
  O  O27  1  0.199564  0.687723  0.282218  1
  O  O28  1  0.120429  0.416779  0.959545  1
  O  O29  1  0.268880  0.607680  0.542518  1
  O  O30  1  0.583221  0.879571  0.459545  1
  O  O31  1  0.392319  0.731120  0.042518  1
  O  O32  1  0.612285  0.791660  0.681329  1
  O  O33  1  0.270365  0.400600  0.721241  1
  O  O34  1  0.541939  0.556260  0.903414  1
  O  O35  1  0.022420  0.047074  0.741092  1
  O  O36  1  0.208340  0.387715  0.181329  1
  O  O37  1  0.599400  0.729635  0.221241  1
  O  O38  1  0.443740  0.458061  0.403414  1
  O  O39  1  0.952926  0.977580  0.241092  1
  O  O40  1  0.925154  0.717140  0.855367  1
  O  O41  1  0.236151  0.049972  0.912908  1
  O  O42  1  0.657061  0.507982  0.555019  1
  O  O43  1  0.991610  0.741086  0.619341  1
  O  O44  1  0.282860  0.074846  0.355367  1
  O  O45  1  0.353743  0.099633  0.610299  1
  O  O46  1  0.950028  0.763849  0.412908  1
  O  O47  1  0.492018  0.342939  0.055019  1
  O  O48  1  0.755185  0.410069  0.728162  1
  O  O49  1  0.258914  0.008390  0.119341  1
  O  O50  1  0.900367  0.646257  0.110299  1
  O  O51  1  0.589931  0.244815  0.228162  1
  O  O52  1  0.961824  0.219299  0.583218  1
  O  O53  1  0.780701  0.038176  0.083218  1
