# generated using pymatgen
data_Li2VO2F
_symmetry_space_group_name_H-M   'P 1'
_cell_length_a   3.01555676
_cell_length_b   13.10317952
_cell_length_c   7.35729602
_cell_angle_alpha   90.22924719
_cell_angle_beta   89.99019277
_cell_angle_gamma   96.60011395
_symmetry_Int_Tables_number   1
_chemical_formula_structural   Li2VO2F
_chemical_formula_sum   'Li10 V5 O10 F5'
_cell_volume   288.78264074
_cell_formula_units_Z   5
loop_
 _symmetry_equiv_pos_site_id
 _symmetry_equiv_pos_as_xyz
  1  'x, y, z'
loop_
 _atom_site_type_symbol
 _atom_site_label
 _atom_site_symmetry_multiplicity
 _atom_site_fract_x
 _atom_site_fract_y
 _atom_site_fract_z
 _atom_site_occupancy
  Li  Li0  1  0.469363  0.942267  0.141084  1
  Li  Li1  1  0.073478  0.140086  0.160202  1
  Li  Li2  1  0.267867  0.539028  0.130718  1
  Li  Li3  1  0.320118  0.644434  0.867035  1
  Li  Li4  1  0.135964  0.270006  0.840339  1
  Li  Li5  1  0.672040  0.339394  0.157972  1
  Li  Li6  1  0.849503  0.713359  0.140715  1
  Li  Li7  1  0.926133  0.857303  0.851031  1
  Li  Li8  1  0.537718  0.073753  0.843649  1
  Li  Li9  1  0.737128  0.474959  0.856427  1
  V  V10  1  0.009414  0.005672  0.506506  1
  V  V11  1  0.206134  0.397002  0.499477  1
  V  V12  1  0.412899  0.792712  0.516813  1
  V  V13  1  0.595462  0.200112  0.498651  1
  V  V14  1  0.798160  0.596989  0.499679  1
  O  O15  1  0.484339  0.932071  0.639062  1
  O  O16  1  0.266736  0.531197  0.644452  1
  O  O17  1  0.051763  0.131770  0.656457  1
  O  O18  1  0.141301  0.262289  0.346694  1
  O  O19  1  0.334254  0.671370  0.356210  1
  O  O20  1  0.673639  0.328370  0.652034  1
  O  O21  1  0.873517  0.736042  0.654267  1
  O  O22  1  0.734594  0.461440  0.354105  1
  O  O23  1  0.522327  0.064768  0.346100  1
  O  O24  1  0.796476  0.595972  0.000311  1
  F  F25  1  0.001467  0.002441  0.998610  1
  F  F26  1  0.196325  0.389173  0.000345  1
  F  F27  1  0.405357  0.812948  0.007576  1
  F  F28  1  0.948359  0.868496  0.339757  1
  F  F29  1  0.601046  0.196651  0.001611  1
