# generated using pymatgen
data_Li6Mn3Sb3O16
_symmetry_space_group_name_H-M   'P 1'
_cell_length_a   6.08609596
_cell_length_b   6.03135710
_cell_length_c   10.03026001
_cell_angle_alpha   90.00144757
_cell_angle_beta   89.78311628
_cell_angle_gamma   119.70308261
_symmetry_Int_Tables_number   1
_chemical_formula_structural   Li6Mn3Sb3O16
_chemical_formula_sum   'Li6 Mn3 Sb3 O16'
_cell_volume   319.80421684
_cell_formula_units_Z   1
loop_
 _symmetry_equiv_pos_site_id
 _symmetry_equiv_pos_as_xyz
  1  'x, y, z'
loop_
 _atom_site_type_symbol
 _atom_site_label
 _atom_site_symmetry_multiplicity
 _atom_site_fract_x
 _atom_site_fract_y
 _atom_site_fract_z
 _atom_site_occupancy
  Li  Li0  1  0.337746  0.668884  0.506401  1
  Li  Li1  1  0.327775  0.663896  0.874199  1
  Li  Li2  1  0.973119  0.986558  0.997699  1
  Li  Li3  1  0.986472  0.993242  0.506611  1
  Li  Li4  1  0.683358  0.341698  0.994255  1
  Li  Li5  1  0.661643  0.330838  0.382215  1
  Mn  Mn6  1  0.668083  0.834062  0.218772  1
  Mn  Mn7  1  0.832870  0.664254  0.716184  1
  Mn  Mn8  1  0.832872  0.168628  0.716190  1
  Sb  Sb9  1  0.171834  0.833411  0.214517  1
  Sb  Sb10  1  0.171841  0.338456  0.214515  1
  Sb  Sb11  1  0.339196  0.169604  0.716880  1
  O  O12  1  0.149783  0.843588  0.611990  1
  O  O13  1  0.027879  0.513959  0.328886  1
  O  O14  1  0.307293  0.653658  0.094540  1
  O  O15  1  0.032689  0.016367  0.327695  1
  O  O16  1  0.990024  0.995013  0.816244  1
  O  O17  1  0.149793  0.306209  0.611994  1
  O  O18  1  0.485229  0.969603  0.320433  1
  O  O19  1  0.485230  0.515668  0.320430  1
  O  O20  1  0.306809  0.153412  0.099275  1
  O  O21  1  0.697532  0.848765  0.617436  1
  O  O22  1  0.521421  0.490900  0.822575  1
  O  O23  1  0.521405  0.030531  0.822572  1
  O  O24  1  0.678597  0.339311  0.608918  1
  O  O25  1  0.849069  0.695812  0.114653  1
  O  O26  1  0.961363  0.480692  0.817111  1
  O  O27  1  0.849072  0.153280  0.114649  1
