# generated using pymatgen
data_Na5LiMn2P2(CO7)2
_symmetry_space_group_name_H-M   'P 1'
_cell_length_a   8.96649428
_cell_length_b   6.81677414
_cell_length_c   10.33163375
_cell_angle_alpha   89.88888425
_cell_angle_beta   89.78104000
_cell_angle_gamma   90.29750426
_symmetry_Int_Tables_number   1
_chemical_formula_structural   Na5LiMn2P2(CO7)2
_chemical_formula_sum   'Na10 Li2 Mn4 P4 C4 O28'
_cell_volume   631.48163260
_cell_formula_units_Z   2
loop_
 _symmetry_equiv_pos_site_id
 _symmetry_equiv_pos_as_xyz
  1  'x, y, z'
loop_
 _atom_site_type_symbol
 _atom_site_label
 _atom_site_symmetry_multiplicity
 _atom_site_fract_x
 _atom_site_fract_y
 _atom_site_fract_z
 _atom_site_occupancy
  Na  Na0  1  0.083072  0.252349  0.878712  1
  Na  Na1  1  0.083725  0.251906  0.381119  1
  Na  Na2  1  0.257606  0.001290  0.624004  1
  Na  Na3  1  0.259582  0.001767  0.123704  1
  Na  Na4  1  0.259131  0.498342  0.123593  1
  Na  Na5  1  0.741846  0.501801  0.875107  1
  Na  Na6  1  0.741451  0.998316  0.875290  1
  Na  Na7  1  0.741146  0.501908  0.377039  1
  Na  Na8  1  0.741042  0.998224  0.377391  1
  Na  Na9  1  0.916767  0.750298  0.120599  1
  Li  Li10  1  0.266650  0.490737  0.620444  1
  Li  Li11  1  0.917855  0.745920  0.622159  1
  Mn  Mn12  1  0.360626  0.749022  0.886813  1
  Mn  Mn13  1  0.360353  0.747685  0.391166  1
  Mn  Mn14  1  0.639907  0.249684  0.612062  1
  Mn  Mn15  1  0.637875  0.250132  0.110400  1
  P  P16  1  0.409272  0.253100  0.849514  1
  P  P17  1  0.410503  0.249784  0.353742  1
  P  P18  1  0.591459  0.746304  0.649455  1
  P  P19  1  0.588458  0.750023  0.148715  1
  C  C20  1  0.059384  0.748324  0.862120  1
  C  C21  1  0.055366  0.749172  0.372450  1
  C  C22  1  0.943941  0.256100  0.631597  1
  C  C23  1  0.939852  0.250067  0.132153  1
  O  O24  1  0.088542  0.267644  0.641194  1
  O  O25  1  0.083957  0.249116  0.142830  1
  O  O26  1  0.117596  0.749624  0.977596  1
  O  O27  1  0.108895  0.748422  0.489392  1
  O  O28  1  0.146537  0.744859  0.761108  1
  O  O29  1  0.145852  0.748153  0.272679  1
  O  O30  1  0.318082  0.067099  0.888770  1
  O  O31  1  0.318101  0.433505  0.895150  1
  O  O32  1  0.318709  0.064769  0.393789  1
  O  O33  1  0.318323  0.431207  0.398174  1
  O  O34  1  0.424195  0.262016  0.698156  1
  O  O35  1  0.431535  0.736567  0.590434  1
  O  O36  1  0.427411  0.252890  0.202929  1
  O  O37  1  0.430715  0.750415  0.087575  1
  O  O38  1  0.568108  0.250167  0.908772  1
  O  O39  1  0.572920  0.748716  0.799820  1
  O  O40  1  0.568942  0.249845  0.413192  1
  O  O41  1  0.570208  0.749403  0.299293  1
  O  O42  1  0.689438  0.567978  0.609365  1
  O  O43  1  0.681438  0.931663  0.606821  1
  O  O44  1  0.680712  0.567356  0.107556  1
  O  O45  1  0.681258  0.933646  0.107505  1
  O  O46  1  0.860229  0.249666  0.735136  1
  O  O47  1  0.855438  0.250441  0.235128  1
  O  O48  1  0.880177  0.250141  0.518805  1
  O  O49  1  0.877660  0.250744  0.018500  1
  O  O50  1  0.915633  0.750822  0.846498  1
  O  O51  1  0.912519  0.750864  0.354481  1
