# generated using pymatgen
data_Li4Ti2Nb3Cr3O16
_symmetry_space_group_name_H-M   'P 1'
_cell_length_a   6.05400845
_cell_length_b   6.00607225
_cell_length_c   9.75156758
_cell_angle_alpha   90.00008618
_cell_angle_beta   89.64798833
_cell_angle_gamma   119.73820399
_symmetry_Int_Tables_number   1
_chemical_formula_structural   Li4Ti2Nb3Cr3O16
_chemical_formula_sum   'Li4 Ti2 Nb3 Cr3 O16'
_cell_volume   307.87003475
_cell_formula_units_Z   1
loop_
 _symmetry_equiv_pos_site_id
 _symmetry_equiv_pos_as_xyz
  1  'x, y, z'
loop_
 _atom_site_type_symbol
 _atom_site_label
 _atom_site_symmetry_multiplicity
 _atom_site_fract_x
 _atom_site_fract_y
 _atom_site_fract_z
 _atom_site_occupancy
  Li  Li0  1  0.334744  0.667386  0.904472  1
  Li  Li1  1  0.019743  0.009869  0.992577  1
  Li  Li2  1  0.012405  0.006217  0.495366  1
  Li  Li3  1  0.668051  0.334031  0.386101  1
  Ti  Ti4  1  0.325577  0.662804  0.488466  1
  Ti  Ti5  1  0.658338  0.329175  0.996265  1
  Nb  Nb6  1  0.664735  0.832372  0.217955  1
  Nb  Nb7  1  0.823993  0.637395  0.713308  1
  Nb  Nb8  1  0.823994  0.186621  0.713307  1
  Cr  Cr9  1  0.171839  0.830269  0.214354  1
  Cr  Cr10  1  0.171837  0.341599  0.214347  1
  Cr  Cr11  1  0.331017  0.165521  0.710984  1
  O  O12  1  0.161528  0.827025  0.596847  1
  O  O13  1  0.047490  0.523758  0.341037  1
  O  O14  1  0.339893  0.669961  0.106304  1
  O  O15  1  0.006296  0.003164  0.311309  1
  O  O16  1  0.003316  0.001668  0.808315  1
  O  O17  1  0.161529  0.334525  0.596848  1
  O  O18  1  0.480129  0.959918  0.340922  1
  O  O19  1  0.480130  0.520227  0.340917  1
  O  O20  1  0.338954  0.169489  0.097623  1
  O  O21  1  0.662789  0.831407  0.591372  1
  O  O22  1  0.522782  0.480348  0.841151  1
  O  O23  1  0.522782  0.042457  0.841150  1
  O  O24  1  0.636999  0.318511  0.586239  1
  O  O25  1  0.830675  0.669516  0.099745  1
  O  O26  1  0.967765  0.483891  0.860808  1
  O  O27  1  0.830670  0.161172  0.099745  1
