# generated using pymatgen
data_Na3Mn8O16
_symmetry_space_group_name_H-M   'P 1'
_cell_length_a   6.16774207
_cell_length_b   12.37360863
_cell_length_c   8.43208693
_cell_angle_alpha   89.99792567
_cell_angle_beta   89.96210551
_cell_angle_gamma   90.00239840
_symmetry_Int_Tables_number   1
_chemical_formula_structural   Na3Mn8O16
_chemical_formula_sum   'Na6 Mn16 O32'
_cell_volume   643.51334717
_cell_formula_units_Z   2
loop_
 _symmetry_equiv_pos_site_id
 _symmetry_equiv_pos_as_xyz
  1  'x, y, z'
loop_
 _atom_site_type_symbol
 _atom_site_label
 _atom_site_symmetry_multiplicity
 _atom_site_fract_x
 _atom_site_fract_y
 _atom_site_fract_z
 _atom_site_occupancy
  Na  Na0  1  0.750141  0.000011  0.121490  1
  Na  Na1  1  0.749907  0.749156  0.373207  1
  Na  Na2  1  0.749903  0.250813  0.373159  1
  Na  Na3  1  0.250066  0.750836  0.626809  1
  Na  Na4  1  0.250071  0.249170  0.626845  1
  Na  Na5  1  0.249868  0.499973  0.878522  1
  Mn  Mn6  1  0.499809  0.249877  0.000113  1
  Mn  Mn7  1  0.499858  0.750130  0.999975  1
  Mn  Mn8  1  0.000129  0.750128  0.000000  1
  Mn  Mn9  1  0.000118  0.249854  0.000122  1
  Mn  Mn10  1  0.249992  0.623174  0.247929  1
  Mn  Mn11  1  0.250069  0.377109  0.247735  1
  Mn  Mn12  1  0.249948  0.875553  0.247716  1
  Mn  Mn13  1  0.249950  0.124366  0.247732  1
  Mn  Mn14  1  0.001633  0.999998  0.502541  1
  Mn  Mn15  1  0.498223  0.000001  0.502554  1
  Mn  Mn16  1  0.501766  0.499980  0.496966  1
  Mn  Mn17  1  0.998473  0.499981  0.497007  1
  Mn  Mn18  1  0.750054  0.624384  0.752740  1
  Mn  Mn19  1  0.749981  0.877501  0.752144  1
  Mn  Mn20  1  0.750097  0.375512  0.752744  1
  Mn  Mn21  1  0.750038  0.122620  0.752109  1
  O  O22  1  0.250288  0.855856  0.016799  1
  O  O23  1  0.250302  0.647404  0.014112  1
  O  O24  1  0.250289  0.144116  0.016823  1
  O  O25  1  0.250326  0.352601  0.014191  1
  O  O26  1  0.459697  0.747104  0.228940  1
  O  O27  1  0.040303  0.747128  0.228918  1
  O  O28  1  0.459696  0.252872  0.228933  1
  O  O29  1  0.040277  0.252863  0.228904  1
  O  O30  1  0.038721  0.500050  0.263259  1
  O  O31  1  0.461332  0.500043  0.263288  1
  O  O32  1  0.033709  0.999960  0.272781  1
  O  O33  1  0.466267  0.999955  0.272765  1
  O  O34  1  0.249455  0.393688  0.476010  1
  O  O35  1  0.249642  0.893154  0.478665  1
  O  O36  1  0.249470  0.606303  0.476031  1
  O  O37  1  0.249645  0.106832  0.478668  1
  O  O38  1  0.750616  0.606842  0.521286  1
  O  O39  1  0.750300  0.893704  0.523974  1
  O  O40  1  0.750609  0.393119  0.521290  1
  O  O41  1  0.750318  0.106284  0.523972  1
  O  O42  1  0.538691  0.999960  0.736682  1
  O  O43  1  0.961221  0.999950  0.736682  1
  O  O44  1  0.533681  0.499938  0.727240  1
  O  O45  1  0.966386  0.499927  0.727219  1
  O  O46  1  0.540273  0.752962  0.771051  1
  O  O47  1  0.959681  0.752936  0.771072  1
  O  O48  1  0.540313  0.247152  0.771072  1
  O  O49  1  0.959678  0.247158  0.771104  1
  O  O50  1  0.749694  0.355866  0.983202  1
  O  O51  1  0.749688  0.644157  0.983195  1
  O  O52  1  0.749678  0.852613  0.985878  1
  O  O53  1  0.749661  0.147378  0.985835  1
