# generated using pymatgen
data_Na3Ni2P2(CO7)2
_symmetry_space_group_name_H-M   'P 1'
_cell_length_a   8.91951030
_cell_length_b   10.31440139
_cell_length_c   6.44060697
_cell_angle_alpha   90.22864185
_cell_angle_beta   90.88165900
_cell_angle_gamma   88.20601435
_symmetry_Int_Tables_number   1
_chemical_formula_structural   Na3Ni2P2(CO7)2
_chemical_formula_sum   'Na6 Ni4 P4 C4 O28'
_cell_volume   592.16784377
_cell_formula_units_Z   2
loop_
 _symmetry_equiv_pos_site_id
 _symmetry_equiv_pos_as_xyz
  1  'x, y, z'
loop_
 _atom_site_type_symbol
 _atom_site_label
 _atom_site_symmetry_multiplicity
 _atom_site_fract_x
 _atom_site_fract_y
 _atom_site_fract_z
 _atom_site_occupancy
  Na  Na0  1  0.251638  0.124675  0.013898  1
  Na  Na1  1  0.249857  0.120509  0.486086  1
  Na  Na2  1  0.268553  0.622435  0.452386  1
  Na  Na3  1  0.738651  0.367916  0.979113  1
  Na  Na4  1  0.744746  0.885901  0.974273  1
  Na  Na5  1  0.914166  0.606296  0.734721  1
  Ni  Ni6  1  0.343135  0.392645  0.753373  1
  Ni  Ni7  1  0.344737  0.887899  0.753647  1
  Ni  Ni8  1  0.658279  0.108873  0.262201  1
  Ni  Ni9  1  0.657333  0.609074  0.255005  1
  P  P10  1  0.427565  0.358173  0.251464  1
  P  P11  1  0.430489  0.861569  0.252512  1
  P  P12  1  0.573185  0.141482  0.753750  1
  P  P13  1  0.572157  0.640154  0.751836  1
  C  C14  1  0.073023  0.357979  0.747636  1
  C  C15  1  0.075726  0.855142  0.749980  1
  C  C16  1  0.926456  0.143515  0.251193  1
  C  C17  1  0.926332  0.646159  0.248320  1
  O  O18  1  0.064658  0.161638  0.246037  1
  O  O19  1  0.063574  0.666194  0.250702  1
  O  O20  1  0.131322  0.471733  0.740187  1
  O  O21  1  0.133719  0.969316  0.751334  1
  O  O22  1  0.172691  0.262712  0.745924  1
  O  O23  1  0.176850  0.761268  0.739920  1
  O  O24  1  0.320816  0.383579  0.063638  1
  O  O25  1  0.327419  0.395262  0.437639  1
  O  O26  1  0.326595  0.899403  0.065824  1
  O  O27  1  0.329106  0.897981  0.438647  1
  O  O28  1  0.424587  0.067855  0.752852  1
  O  O29  1  0.425896  0.567000  0.744506  1
  O  O30  1  0.465265  0.208430  0.258389  1
  O  O31  1  0.468926  0.713927  0.256080  1
  O  O32  1  0.530792  0.288840  0.762316  1
  O  O33  1  0.532583  0.787793  0.765294  1
  O  O34  1  0.572957  0.432508  0.242666  1
  O  O35  1  0.577928  0.934234  0.249011  1
  O  O36  1  0.674214  0.107171  0.569910  1
  O  O37  1  0.675336  0.106886  0.943222  1
  O  O38  1  0.676566  0.611276  0.566343  1
  O  O39  1  0.679485  0.602205  0.936487  1
  O  O40  1  0.825274  0.236888  0.256457  1
  O  O41  1  0.823807  0.738704  0.245644  1
  O  O42  1  0.868604  0.030030  0.252477  1
  O  O43  1  0.870903  0.531101  0.251337  1
  O  O44  1  0.934936  0.343747  0.757419  1
  O  O45  1  0.938834  0.833953  0.758811  1
