# generated using pymatgen
data_Li5Sn(P2O7)2
_symmetry_space_group_name_H-M   'P 1'
_cell_length_a   8.68764068
_cell_length_b   9.72956028
_cell_length_c   7.16271084
_cell_angle_alpha   77.77776405
_cell_angle_beta   110.72092694
_cell_angle_gamma   102.91131421
_symmetry_Int_Tables_number   1
_chemical_formula_structural   Li5Sn(P2O7)2
_chemical_formula_sum   'Li10 Sn2 P8 O28'
_cell_volume   546.08791096
_cell_formula_units_Z   2
loop_
 _symmetry_equiv_pos_site_id
 _symmetry_equiv_pos_as_xyz
  1  'x, y, z'
loop_
 _atom_site_type_symbol
 _atom_site_label
 _atom_site_symmetry_multiplicity
 _atom_site_fract_x
 _atom_site_fract_y
 _atom_site_fract_z
 _atom_site_occupancy
  Li  Li0  1  0.187581  0.723790  0.667770  1
  Li  Li1  1  0.259873  0.428556  0.719082  1
  Li  Li2  1  0.269166  0.906300  0.249444  1
  Li  Li3  1  0.497663  0.857579  0.960072  1
  Li  Li4  1  0.484470  0.648061  0.575533  1
  Li  Li5  1  0.515530  0.351939  0.424467  1
  Li  Li6  1  0.502337  0.142421  0.039928  1
  Li  Li7  1  0.730834  0.093700  0.750556  1
  Li  Li8  1  0.740127  0.571444  0.280918  1
  Li  Li9  1  0.812419  0.276210  0.332230  1
  Sn  Sn10  1  0.134567  0.238273  0.133882  1
  Sn  Sn11  1  0.865433  0.761727  0.866118  1
  P  P12  1  0.129115  0.030853  0.832156  1
  P  P13  1  0.101880  0.542099  0.303929  1
  P  P14  1  0.345232  0.054829  0.592867  1
  P  P15  1  0.367211  0.570294  0.117627  1
  P  P16  1  0.632789  0.429706  0.882373  1
  P  P17  1  0.654768  0.945171  0.407133  1
  P  P18  1  0.898120  0.457901  0.696071  1
  P  P19  1  0.870885  0.969147  0.167844  1
  O  O20  1  0.051329  0.382663  0.787428  1
  O  O21  1  0.153410  0.873317  0.903786  1
  O  O22  1  0.049855  0.952052  0.217195  1
  O  O23  1  0.055950  0.377588  0.316430  1
  O  O24  1  0.254474  0.126102  0.990299  1
  O  O25  1  0.224122  0.589529  0.503399  1
  O  O26  1  0.180452  0.084638  0.630695  1
  O  O27  1  0.367795  0.657422  0.915870  1
  O  O28  1  0.312939  0.903343  0.547332  1
  O  O29  1  0.199591  0.600379  0.141857  1
  O  O30  1  0.351658  0.171883  0.409802  1
  O  O31  1  0.342208  0.406010  0.122316  1
  O  O32  1  0.496582  0.076412  0.783619  1
  O  O33  1  0.479857  0.393344  0.700706  1
  O  O34  1  0.520143  0.606656  0.299294  1
  O  O35  1  0.503418  0.923588  0.216381  1
  O  O36  1  0.657792  0.593990  0.877684  1
  O  O37  1  0.648342  0.828117  0.590198  1
  O  O38  1  0.800409  0.399621  0.858143  1
  O  O39  1  0.687061  0.096657  0.452668  1
  O  O40  1  0.632205  0.342578  0.084130  1
  O  O41  1  0.819548  0.915362  0.369305  1
  O  O42  1  0.775878  0.410471  0.496601  1
  O  O43  1  0.745526  0.873898  0.009701  1
  O  O44  1  0.944050  0.622412  0.683570  1
  O  O45  1  0.950145  0.047948  0.782805  1
  O  O46  1  0.846590  0.126683  0.096214  1
  O  O47  1  0.948671  0.617337  0.212572  1
