# generated using pymatgen
data_Li2TmPCO7
_symmetry_space_group_name_H-M   'P 1'
_cell_length_a   8.96827333
_cell_length_b   6.74673191
_cell_length_c   4.90168460
_cell_angle_alpha   90.00000000
_cell_angle_beta   87.18458201
_cell_angle_gamma   90.00000000
_symmetry_Int_Tables_number   1
_chemical_formula_structural   Li2TmPCO7
_chemical_formula_sum   'Li4 Tm2 P2 C2 O14'
_cell_volume   296.22596540
_cell_formula_units_Z   2
loop_
 _symmetry_equiv_pos_site_id
 _symmetry_equiv_pos_as_xyz
  1  'x, y, z'
loop_
 _atom_site_type_symbol
 _atom_site_label
 _atom_site_symmetry_multiplicity
 _atom_site_fract_x
 _atom_site_fract_y
 _atom_site_fract_z
 _atom_site_occupancy
  Li  Li0  1  0.206100  0.013235  0.207370  1
  Li  Li1  1  0.206100  0.486765  0.207370  1
  Li  Li2  1  0.793900  0.513235  0.792630  1
  Li  Li3  1  0.793900  0.986765  0.792630  1
  Tm  Tm4  1  0.358635  0.750000  0.750616  1
  Tm  Tm5  1  0.641365  0.250000  0.249384  1
  P  P6  1  0.411352  0.250000  0.721083  1
  P  P7  1  0.588648  0.750000  0.278917  1
  C  C8  1  0.057414  0.750000  0.739394  1
  C  C9  1  0.942586  0.250000  0.260606  1
  O  O10  1  0.083219  0.250000  0.280330  1
  O  O11  1  0.121526  0.750000  0.974346  1
  O  O12  1  0.150551  0.750000  0.521698  1
  O  O13  1  0.336727  0.064208  0.849807  1
  O  O14  1  0.336727  0.435792  0.849807  1
  O  O15  1  0.415964  0.750000  0.231678  1
  O  O16  1  0.401893  0.250000  0.405191  1
  O  O17  1  0.598107  0.750000  0.594809  1
  O  O18  1  0.584036  0.250000  0.768322  1
  O  O19  1  0.663273  0.564208  0.150193  1
  O  O20  1  0.663273  0.935792  0.150193  1
  O  O21  1  0.849449  0.250000  0.478302  1
  O  O22  1  0.878474  0.250000  0.025654  1
  O  O23  1  0.916781  0.750000  0.719670  1
