# generated using pymatgen
data_Li3V(PO4)2
_symmetry_space_group_name_H-M   'P 1'
_cell_length_a   8.76497370
_cell_length_b   9.19945475
_cell_length_c   8.72930221
_cell_angle_alpha   87.20347998
_cell_angle_beta   112.63823100
_cell_angle_gamma   93.17351038
_symmetry_Int_Tables_number   1
_chemical_formula_structural   Li3V(PO4)2
_chemical_formula_sum   'Li12 V4 P8 O32'
_cell_volume   648.35430142
_cell_formula_units_Z   4
loop_
 _symmetry_equiv_pos_site_id
 _symmetry_equiv_pos_as_xyz
  1  'x, y, z'
loop_
 _atom_site_type_symbol
 _atom_site_label
 _atom_site_symmetry_multiplicity
 _atom_site_fract_x
 _atom_site_fract_y
 _atom_site_fract_z
 _atom_site_occupancy
  Li  Li0  1  0.351451  0.791968  0.872874  1
  Li  Li1  1  0.128044  0.297112  0.632445  1
  Li  Li2  1  0.039609  0.455422  0.154292  1
  Li  Li3  1  0.071417  0.768441  0.106406  1
  Li  Li4  1  0.564612  0.762441  0.589947  1
  Li  Li5  1  0.902607  0.228497  0.889504  1
  Li  Li6  1  0.436594  0.245166  0.431548  1
  Li  Li7  1  0.963760  0.537438  0.840700  1
  Li  Li8  1  0.147208  0.032186  0.040206  1
  Li  Li9  1  0.873192  0.671229  0.390905  1
  Li  Li10  1  0.627158  0.224060  0.135177  1
  Li  Li11  1  0.723741  0.893559  0.106081  1
  V  V12  1  0.228962  0.908684  0.485375  1
  V  V13  1  0.510146  0.409411  0.767267  1
  V  V14  1  0.492072  0.593187  0.231468  1
  V  V15  1  0.771162  0.090731  0.511965  1
  P  P16  1  0.017260  0.930797  0.717014  1
  P  P17  1  0.288287  0.431592  0.985113  1
  P  P18  1  0.239963  0.569438  0.428102  1
  P  P19  1  0.575936  0.069865  0.763890  1
  P  P20  1  0.431403  0.927585  0.241795  1
  P  P21  1  0.765187  0.428514  0.567397  1
  P  P22  1  0.716095  0.577561  0.007885  1
  P  P23  1  0.987176  0.079484  0.278447  1
  O  O24  1  0.030884  0.876006  0.888850  1
  O  O25  1  0.114062  0.387936  0.978266  1
  O  O26  1  0.159717  0.867606  0.677848  1
  O  O27  1  0.316222  0.366423  0.838084  1
  O  O28  1  0.051983  0.556888  0.367865  1
  O  O29  1  0.628655  0.055530  0.951968  1
  O  O30  1  0.969678  0.907311  0.278196  1
  O  O31  1  0.686830  0.409560  0.022195  1
  O  O32  1  0.578656  0.621338  0.835301  1
  O  O33  1  0.153300  0.112761  0.431885  1
  O  O34  1  0.471997  0.937003  0.667043  1
  O  O35  1  0.327846  0.434604  0.530354  1
  O  O36  1  0.316978  0.708174  0.528064  1
  O  O37  1  0.473884  0.207627  0.686949  1
  O  O38  1  0.276106  0.580289  0.264941  1
  O  O39  1  0.736026  0.089733  0.725660  1
  O  O40  1  0.261091  0.915611  0.264370  1
  O  O41  1  0.727875  0.420256  0.729510  1
  O  O42  1  0.532112  0.792369  0.328497  1
  O  O43  1  0.684207  0.291851  0.465998  1
  O  O44  1  0.682976  0.563504  0.458972  1
  O  O45  1  0.527751  0.064033  0.334802  1
  O  O46  1  0.847353  0.885219  0.573824  1
  O  O47  1  0.428599  0.382833  0.154715  1
  O  O48  1  0.318018  0.601283  0.983046  1
  O  O49  1  0.021105  0.101841  0.698882  1
  O  O50  1  0.388841  0.936259  0.055918  1
  O  O51  1  0.952728  0.443165  0.625932  1
  O  O52  1  0.686460  0.660569  0.147098  1
  O  O53  1  0.837679  0.135393  0.310483  1
  O  O54  1  0.891753  0.615547  0.015076  1
  O  O55  1  0.998213  0.145879  0.119426  1
