# generated using pymatgen
data_Hf2N2O
_symmetry_space_group_name_H-M   'P 1'
_cell_length_a   8.74641138
_cell_length_b   8.72397757
_cell_length_c   8.75524545
_cell_angle_alpha   109.52555243
_cell_angle_beta   109.60349066
_cell_angle_gamma   109.47941080
_symmetry_Int_Tables_number   1
_chemical_formula_structural   Hf2N2O
_chemical_formula_sum   'Hf16 N16 O8'
_cell_volume   513.02914090
_cell_formula_units_Z   8
loop_
 _symmetry_equiv_pos_site_id
 _symmetry_equiv_pos_as_xyz
  1  'x, y, z'
loop_
 _atom_site_type_symbol
 _atom_site_label
 _atom_site_symmetry_multiplicity
 _atom_site_fract_x
 _atom_site_fract_y
 _atom_site_fract_z
 _atom_site_occupancy
  Hf  Hf0  1  0.965009  0.250829  0.213848  1
  Hf  Hf1  1  0.507050  0.995808  0.996914  1
  Hf  Hf2  1  0.711005  0.460188  0.242460  1
  Hf  Hf3  1  0.789270  0.033942  0.759239  1
  Hf  Hf4  1  0.753965  0.287901  0.530798  1
  Hf  Hf5  1  0.743313  0.778216  0.032014  1
  Hf  Hf6  1  0.492482  0.508695  0.510693  1
  Hf  Hf7  1  0.457721  0.250762  0.721582  1
  Hf  Hf8  1  0.538675  0.749538  0.284622  1
  Hf  Hf9  1  0.009760  0.507093  0.996937  1
  Hf  Hf10  1  0.007609  0.994928  0.505092  1
  Hf  Hf11  1  0.258446  0.718793  0.470614  1
  Hf  Hf12  1  0.240622  0.212998  0.954414  1
  Hf  Hf13  1  0.283410  0.538127  0.750600  1
  Hf  Hf14  1  0.212538  0.953418  0.247890  1
  Hf  Hf15  1  0.037178  0.751561  0.787188  1
  N  N16  1  0.743293  0.231456  0.277442  1
  N  N17  1  0.773677  0.727040  0.264892  1
  N  N18  1  0.048851  0.278456  0.014404  1
  N  N19  1  0.487135  0.762856  0.036525  1
  N  N20  1  0.271802  0.736257  0.225592  1
  N  N21  1  0.226621  0.452963  0.461734  1
  N  N22  1  0.513690  0.243346  0.968446  1
  N  N23  1  0.986576  0.951430  0.725494  1
  N  N24  1  0.546702  0.532136  0.770307  1
  N  N25  1  0.959572  0.732177  0.993500  1
  N  N26  1  0.536187  0.772046  0.544545  1
  N  N27  1  0.222923  0.271577  0.737987  1
  N  N28  1  0.025828  0.483395  0.755354  1
  N  N29  1  0.728549  0.987922  0.955498  1
  N  N30  1  0.237229  0.968629  0.506977  1
  N  N31  1  0.259829  0.777172  0.728261  1
  O  O32  1  0.758353  0.036078  0.488335  1
  O  O33  1  0.274360  0.014883  0.050317  1
  O  O34  1  0.961765  0.509285  0.235048  1
  O  O35  1  0.469349  0.226896  0.449488  1
  O  O36  1  0.458028  0.464451  0.230934  1
  O  O37  1  0.722127  0.254548  0.765707  1
  O  O38  1  0.010924  0.048356  0.275011  1
  O  O39  1  0.768577  0.543846  0.533299  1
