# generated using pymatgen
data_Na2Be2O3
_symmetry_space_group_name_H-M   'P 1'
_cell_length_a   6.27976488
_cell_length_b   7.26879776
_cell_length_c   5.75444983
_cell_angle_alpha   90.00000000
_cell_angle_beta   131.54081174
_cell_angle_gamma   90.00000000
_symmetry_Int_Tables_number   1
_chemical_formula_structural   Na2Be2O3
_chemical_formula_sum   'Na4 Be4 O6'
_cell_volume   196.60385802
_cell_formula_units_Z   2
loop_
 _symmetry_equiv_pos_site_id
 _symmetry_equiv_pos_as_xyz
  1  'x, y, z'
loop_
 _atom_site_type_symbol
 _atom_site_label
 _atom_site_symmetry_multiplicity
 _atom_site_fract_x
 _atom_site_fract_y
 _atom_site_fract_z
 _atom_site_occupancy
  Na  Na0  1  0.277719  0.360056  0.390601  1
  Na  Na1  1  0.722281  0.860056  0.109399  1
  Na  Na2  1  0.277719  0.139944  0.890601  1
  Na  Na3  1  0.722281  0.639944  0.609399  1
  Be  Be4  1  0.295662  0.517204  0.808431  1
  Be  Be5  1  0.295662  0.982796  0.308432  1
  Be  Be6  1  0.704338  0.017204  0.691569  1
  Be  Be7  1  0.704338  0.482796  0.191569  1
  O  O8  1  0.000000  0.500000  0.500000  1
  O  O9  1  0.000000  0.000000  0.000000  1
  O  O10  1  0.425434  0.061918  0.633698  1
  O  O11  1  0.574566  0.561917  0.866302  1
  O  O12  1  0.425434  0.438082  0.133698  1
  O  O13  1  0.574566  0.938083  0.366302  1
