# generated using pymatgen
data_Li4V3Co3(SbO8)2
_symmetry_space_group_name_H-M   'P 1'
_cell_length_a   5.96479660
_cell_length_b   5.97163875
_cell_length_c   9.69838939
_cell_angle_alpha   90.26128889
_cell_angle_beta   90.00679958
_cell_angle_gamma   120.45336455
_symmetry_Int_Tables_number   1
_chemical_formula_structural   Li4V3Co3(SbO8)2
_chemical_formula_sum   'Li4 V3 Co3 Sb2 O16'
_cell_volume   297.79058195
_cell_formula_units_Z   1
loop_
 _symmetry_equiv_pos_site_id
 _symmetry_equiv_pos_as_xyz
  1  'x, y, z'
loop_
 _atom_site_type_symbol
 _atom_site_label
 _atom_site_symmetry_multiplicity
 _atom_site_fract_x
 _atom_site_fract_y
 _atom_site_fract_z
 _atom_site_occupancy
  Li  Li0  1  0.338901  0.664309  0.903275  1
  Li  Li1  1  0.997822  0.001983  0.992274  1
  Li  Li2  1  0.997577  0.004669  0.490325  1
  Li  Li3  1  0.671969  0.329034  0.397344  1
  V  V4  1  0.653941  0.830287  0.220320  1
  V  V5  1  0.823699  0.653747  0.714130  1
  V  V6  1  0.823640  0.174127  0.721156  1
  Co  Co7  1  0.175999  0.834987  0.209395  1
  Co  Co8  1  0.168307  0.346695  0.214628  1
  Co  Co9  1  0.339659  0.167081  0.708894  1
  Sb  Sb10  1  0.321664  0.661297  0.489259  1
  Sb  Sb11  1  0.662848  0.338406  0.992137  1
  O  O12  1  0.153181  0.828987  0.590916  1
  O  O13  1  0.035194  0.510380  0.343675  1
  O  O14  1  0.364427  0.675625  0.105037  1
  O  O15  1  0.982750  -0.002334  0.301094  1
  O  O16  1  0.981836  0.004008  0.801723  1
  O  O17  1  0.160174  0.331993  0.595443  1
  O  O18  1  0.494078  0.961413  0.350949  1
  O  O19  1  0.476105  0.512953  0.339242  1
  O  O20  1  0.328813  0.167154  0.092444  1
  O  O21  1  0.661023  0.830291  0.594948  1
  O  O22  1  0.526658  0.488600  0.844908  1
  O  O23  1  0.529575  0.036144  0.848501  1
  O  O24  1  0.690422  0.325254  0.603833  1
  O  O25  1  0.831427  0.672937  0.093668  1
  O  O26  1  0.966523  0.475741  0.848072  1
  O  O27  1  0.841789  0.174532  0.100253  1
