# generated using pymatgen
data_Li3V2(CO5)2
_symmetry_space_group_name_H-M   'P 1'
_cell_length_a   9.58908829
_cell_length_b   11.90259029
_cell_length_c   5.76585753
_cell_angle_alpha   90.00012636
_cell_angle_beta   90.00000000
_cell_angle_gamma   90.00000000
_symmetry_Int_Tables_number   1
_chemical_formula_structural   Li3V2(CO5)2
_chemical_formula_sum   'Li12 V8 C8 O40'
_cell_volume   658.08608674
_cell_formula_units_Z   4
loop_
 _symmetry_equiv_pos_site_id
 _symmetry_equiv_pos_as_xyz
  1  'x, y, z'
loop_
 _atom_site_type_symbol
 _atom_site_label
 _atom_site_symmetry_multiplicity
 _atom_site_fract_x
 _atom_site_fract_y
 _atom_site_fract_z
 _atom_site_occupancy
  Li  Li0  1  0.002872  0.496543  0.995568  1
  Li  Li1  1  0.002870  0.496542  0.504432  1
  Li  Li2  1  0.997891  0.001557  0.750005  1
  Li  Li3  1  0.003371  0.279129  0.249997  1
  Li  Li4  1  0.496629  0.779129  0.249997  1
  Li  Li5  1  0.502109  0.501557  0.750005  1
  Li  Li6  1  0.497128  0.996543  0.995568  1
  Li  Li7  1  0.497130  0.996542  0.504432  1
  Li  Li8  1  0.502209  0.220175  0.249997  1
  Li  Li9  1  0.502321  0.218168  0.750003  1
  Li  Li10  1  0.997791  0.720175  0.249997  1
  Li  Li11  1  0.997679  0.718168  0.750003  1
  V  V12  1  0.239723  0.111488  0.500113  1
  V  V13  1  0.239740  0.111487  0.999892  1
  V  V14  1  0.260260  0.611487  0.999892  1
  V  V15  1  0.260277  0.611488  0.500113  1
  V  V16  1  0.743671  0.388205  0.000317  1
  V  V17  1  0.743667  0.388202  0.499687  1
  V  V18  1  0.756329  0.888205  0.000317  1
  V  V19  1  0.756333  0.888202  0.499687  1
  C  C20  1  0.237607  0.862221  0.499490  1
  C  C21  1  0.237582  0.862225  0.000503  1
  C  C22  1  0.262418  0.362225  0.000503  1
  C  C23  1  0.262393  0.362221  0.499490  1
  C  C24  1  0.740588  0.638974  0.000064  1
  C  C25  1  0.740595  0.638973  0.499935  1
  C  C26  1  0.759412  0.138974  0.000064  1
  C  C27  1  0.759405  0.138973  0.499935  1
  O  O28  1  0.126827  0.147665  0.250013  1
  O  O29  1  0.124201  0.143331  0.749984  1
  O  O30  1  0.131779  0.575994  0.250011  1
  O  O31  1  0.129617  0.577859  0.749993  1
  O  O32  1  0.131728  0.363171  0.011935  1
  O  O33  1  0.131732  0.363171  0.488064  1
  O  O34  1  0.161472  0.954430  0.510103  1
  O  O35  1  0.161477  0.954426  0.989898  1
  O  O36  1  0.164805  0.767067  0.998741  1
  O  O37  1  0.164794  0.767068  0.501257  1
  O  O38  1  0.335195  0.267067  0.998741  1
  O  O39  1  0.335206  0.267068  0.501257  1
  O  O40  1  0.338523  0.454426  0.989898  1
  O  O41  1  0.338528  0.454430  0.510103  1
  O  O42  1  0.368272  0.863171  0.011935  1
  O  O43  1  0.368268  0.863171  0.488064  1
  O  O44  1  0.368221  0.075994  0.250011  1
  O  O45  1  0.370383  0.077859  0.749993  1
  O  O46  1  0.373173  0.647665  0.250013  1
  O  O47  1  0.375799  0.643331  0.749984  1
  O  O48  1  0.626730  0.352656  0.250002  1
  O  O49  1  0.621713  0.354573  0.749996  1
  O  O50  1  0.630512  0.923958  0.250004  1
  O  O51  1  0.635288  0.925508  0.749997  1
  O  O52  1  0.626597  0.137611  0.000248  1
  O  O53  1  0.626600  0.137610  0.499751  1
  O  O54  1  0.665446  0.546648  0.993967  1
  O  O55  1  0.665444  0.546648  0.506033  1
  O  O56  1  0.669595  0.733018  0.006194  1
  O  O57  1  0.669592  0.733021  0.493806  1
  O  O58  1  0.830408  0.233021  0.493806  1
  O  O59  1  0.830405  0.233018  0.006194  1
  O  O60  1  0.834554  0.046648  0.993967  1
  O  O61  1  0.834556  0.046648  0.506033  1
  O  O62  1  0.873403  0.637611  0.000248  1
  O  O63  1  0.873400  0.637610  0.499751  1
  O  O64  1  0.869488  0.423958  0.250004  1
  O  O65  1  0.864712  0.425508  0.749997  1
  O  O66  1  0.873270  0.852656  0.250002  1
  O  O67  1  0.878287  0.854573  0.749996  1
