# generated using pymatgen
data_Ti2(SO4)3
_symmetry_space_group_name_H-M   'P 1'
_cell_length_a   8.38892548
_cell_length_b   9.05076138
_cell_length_c   8.38892461
_cell_angle_alpha   117.60914880
_cell_angle_beta   60.00000052
_cell_angle_gamma   117.60914659
_symmetry_Int_Tables_number   1
_chemical_formula_structural   Ti2(SO4)3
_chemical_formula_sum   'Ti4 S6 O24'
_cell_volume   465.97885623
_cell_formula_units_Z   2
loop_
 _symmetry_equiv_pos_site_id
 _symmetry_equiv_pos_as_xyz
  1  'x, y, z'
loop_
 _atom_site_type_symbol
 _atom_site_label
 _atom_site_symmetry_multiplicity
 _atom_site_fract_x
 _atom_site_fract_y
 _atom_site_fract_z
 _atom_site_occupancy
  Ti  Ti0  1  0.144451  0.433355  0.144451  1
  Ti  Ti1  1  0.348932  0.046796  0.348932  1
  Ti  Ti2  1  0.651068  0.953204  0.651068  1
  Ti  Ti3  1  0.855549  0.566645  0.855549  1
  S  S4  1  0.038751  0.247912  0.458893  1
  S  S5  1  0.541107  0.752088  0.249732  1
  S  S6  1  0.249732  0.752088  0.961249  1
  S  S7  1  0.750268  0.247912  0.038751  1
  S  S8  1  0.458893  0.247912  0.750268  1
  S  S9  1  0.961249  0.752088  0.541107  1
  O  O10  1  0.218027  0.891566  0.150833  1
  O  O11  1  0.150833  0.891566  0.522706  1
  O  O12  1  0.010045  0.415285  0.608870  1
  O  O13  1  0.125592  0.270723  0.265912  1
  O  O14  1  0.522706  0.891566  0.218027  1
  O  O15  1  0.120782  0.729277  0.874408  1
  O  O16  1  0.391130  0.584715  0.203631  1
  O  O17  1  0.168801  0.198822  0.483711  1
  O  O18  1  0.516289  0.801178  0.453690  1
  O  O19  1  0.203631  0.584715  0.989955  1
  O  O20  1  0.734087  0.729277  0.120782  1
  O  O21  1  0.453690  0.801178  0.831199  1
  O  O22  1  0.546310  0.198822  0.168801  1
  O  O23  1  0.265912  0.270723  0.879218  1
  O  O24  1  0.796369  0.415285  0.010045  1
  O  O25  1  0.483711  0.198822  0.546310  1
  O  O26  1  0.831199  0.801178  0.516289  1
  O  O27  1  0.608870  0.415285  0.796369  1
  O  O28  1  0.879218  0.270723  0.125592  1
  O  O29  1  0.477294  0.108434  0.781973  1
  O  O30  1  0.874408  0.729277  0.734087  1
  O  O31  1  0.989955  0.584715  0.391130  1
  O  O32  1  0.849167  0.108434  0.477294  1
  O  O33  1  0.781973  0.108434  0.849167  1
