# generated using pymatgen
data_LiV4OF11
_symmetry_space_group_name_H-M   'P 1'
_cell_length_a   5.40940087
_cell_length_b   5.66769375
_cell_length_c   16.67548657
_cell_angle_alpha   88.62971750
_cell_angle_beta   98.83928631
_cell_angle_gamma   118.75270682
_symmetry_Int_Tables_number   1
_chemical_formula_structural   LiV4OF11
_chemical_formula_sum   'Li2 V8 O2 F22'
_cell_volume   442.15394374
_cell_formula_units_Z   2
loop_
 _symmetry_equiv_pos_site_id
 _symmetry_equiv_pos_as_xyz
  1  'x, y, z'
loop_
 _atom_site_type_symbol
 _atom_site_label
 _atom_site_symmetry_multiplicity
 _atom_site_fract_x
 _atom_site_fract_y
 _atom_site_fract_z
 _atom_site_occupancy
  Li  Li0  1  0.861966  0.899095  0.818049  1
  Li  Li1  1  0.438508  0.296934  0.575220  1
  V  V2  1  -0.001668  0.504269  0.498630  1
  V  V3  1  0.755165  0.370797  0.124321  1
  V  V4  1  0.504859  0.242553  0.747623  1
  V  V5  1  0.501564  0.748204  0.249171  1
  V  V6  1  0.244203  0.123028  0.373437  1
  V  V7  1  0.734736  0.895577  0.626024  1
  V  V8  1  0.239694  0.639639  0.881582  1
  V  V9  1  0.007697  0.991277  -0.000179  1
  O  O10  1  0.572051  0.091449  0.660881  1
  O  O11  1  0.088870  0.829848  0.911955  1
  F  F12  1  0.926917  0.160146  0.086890  1
  F  F13  1  0.012091  0.199511  0.563886  1
  F  F14  1  0.981988  0.684132  0.064934  1
  F  F15  1  0.529659  0.059969  0.187904  1
  F  F16  1  0.923183  0.488134  0.784827  1
  F  F17  1  0.925005  0.959281  0.284175  1
  F  F18  1  0.900802  0.654148  0.588672  1
  F  F19  1  0.429681  0.213484  0.037186  1
  F  F20  1  0.554064  0.276352  0.471426  1
  F  F21  1  0.577952  0.581854  0.162597  1
  F  F22  1  0.478539  0.439448  0.315160  1
  F  F23  1  0.497517  0.544441  0.678191  1
  F  F24  1  0.427072  0.428767  0.834525  1
  F  F25  1  0.428290  0.712232  0.531732  1
  F  F26  1  0.427571  0.915379  0.339505  1
  F  F27  1  0.581424  0.774063  0.964989  1
  F  F28  1  0.056363  0.021812  0.723269  1
  F  F29  1  0.063749  0.329561  0.408682  1
  F  F30  1  0.080685  0.534864  0.213669  1
  F  F31  1  0.512677  0.938624  0.815541  1
  F  F32  1  0.015942  0.291236  0.930590  1
  F  F33  1  0.016285  0.817692  0.436874  1
