# generated using pymatgen
data_Li11Mn12(BO3)12
_symmetry_space_group_name_H-M   'P 1'
_cell_length_a   10.43594801
_cell_length_b   8.88994546
_cell_length_c   8.85187028
_cell_angle_alpha   107.88069522
_cell_angle_beta   98.41556340
_cell_angle_gamma   98.72590899
_symmetry_Int_Tables_number   1
_chemical_formula_structural   Li11Mn12(BO3)12
_chemical_formula_sum   'Li11 Mn12 B12 O36'
_cell_volume   756.09625172
_cell_formula_units_Z   1
loop_
 _symmetry_equiv_pos_site_id
 _symmetry_equiv_pos_as_xyz
  1  'x, y, z'
loop_
 _atom_site_type_symbol
 _atom_site_label
 _atom_site_symmetry_multiplicity
 _atom_site_fract_x
 _atom_site_fract_y
 _atom_site_fract_z
 _atom_site_occupancy
  Li  Li0  1  0.978345  0.260921  0.278820  1
  Li  Li1  1  0.729178  0.011670  0.028954  1
  Li  Li2  1  0.954240  0.654682  0.937144  1
  Li  Li3  1  0.454523  0.154285  0.436675  1
  Li  Li4  1  0.938821  0.959036  0.659103  1
  Li  Li5  1  0.690916  0.708902  0.408768  1
  Li  Li6  1  0.443502  0.458857  0.159697  1
  Li  Li7  1  0.229282  0.512181  0.529636  1
  Li  Li8  1  0.480721  0.762396  0.778685  1
  Li  Li9  1  0.203816  0.904145  0.186903  1
  Li  Li10  1  0.191531  0.208722  0.908603  1
  Mn  Mn11  1  0.433259  0.071440  0.063119  1
  Mn  Mn12  1  0.929330  0.569985  0.566142  1
  Mn  Mn13  1  0.682509  0.321552  0.319120  1
  Mn  Mn14  1  0.664817  0.647255  0.015120  1
  Mn  Mn15  1  0.912946  0.898922  0.271701  1
  Mn  Mn16  1  0.901581  0.280170  0.913498  1
  Mn  Mn17  1  0.651399  0.035774  0.665013  1
  Mn  Mn18  1  0.164422  0.150914  0.523084  1
  Mn  Mn19  1  0.419405  0.402242  0.768828  1
  Mn  Mn20  1  0.154993  0.525320  0.165595  1
  Mn  Mn21  1  0.403440  0.776849  0.415085  1
  Mn  Mn22  1  0.181685  0.821801  0.811084  1
  B  B23  1  0.874692  0.540526  0.209102  1
  B  B24  1  0.876462  0.202906  0.540844  1
  B  B25  1  0.375638  0.042544  0.708808  1
  B  B26  1  0.623537  0.291714  0.963063  1
  B  B27  1  0.000079  0.001497  0.000927  1
  B  B28  1  0.495846  0.499301  0.494316  1
  B  B29  1  0.751862  0.758603  0.751925  1
  B  B30  1  0.249670  0.249033  0.249888  1
  B  B31  1  0.375317  0.708471  0.040818  1
  B  B32  1  0.626566  0.956765  0.290926  1
  B  B33  1  0.124266  0.791156  0.458725  1
  B  B34  1  0.126480  0.457221  0.790571  1
  O  O35  1  0.922236  0.036707  0.117370  1
  O  O36  1  0.950071  0.421797  0.169323  1
  O  O37  1  0.955056  0.088939  0.502836  1
  O  O38  1  0.867786  0.307942  0.453777  1
  O  O39  1  0.620407  0.058687  0.200912  1
  O  O40  1  0.869120  0.646468  0.121596  1
  O  O41  1  0.557297  0.300128  0.090945  1
  O  O42  1  0.806738  0.552000  0.334566  1
  O  O43  1  0.810327  0.205448  0.665680  1
  O  O44  1  0.700358  0.173300  0.921261  1
  O  O45  1  0.450165  0.591138  0.008677  1
  O  O46  1  0.700987  0.838324  0.257676  1
  O  O47  1  0.315192  0.121671  0.237283  1
  O  O48  1  0.831177  0.648798  0.748805  1
  O  O49  1  0.552197  0.367375  0.470750  1
  O  O50  1  0.752500  0.844383  0.642365  1
  O  O51  1  0.259570  0.337925  0.144776  1
  O  O52  1  0.508156  0.593999  0.393952  1
  O  O53  1  0.366170  0.143952  0.617201  1
  O  O54  1  0.613706  0.395327  0.878263  1
  O  O55  1  0.306642  0.053284  0.833060  1
  O  O56  1  0.556863  0.973754  0.416543  1
  O  O57  1  0.304567  0.724693  0.164965  1
  O  O58  1  0.421773  0.540613  0.615695  1
  O  O59  1  0.172838  0.287750  0.367146  1
  O  O60  1  0.671626  0.790445  0.867113  1
  O  O61  1  0.456096  0.929133  0.674252  1
  O  O62  1  0.201352  0.674488  0.422379  1
  O  O63  1  0.202343  0.340213  0.758447  1
  O  O64  1  0.007895  0.090389  0.895840  1
  O  O65  1  0.119765  0.559525  0.700392  1
  O  O66  1  0.369527  0.811106  0.950191  1
  O  O67  1  0.117488  0.895295  0.369055  1
  O  O68  1  0.055596  0.803672  0.583477  1
  O  O69  1  0.055798  0.472297  0.915005  1
  O  O70  1  0.070392  0.878344  0.991349  1
