# generated using pymatgen
data_Li3Bi2(BO3)3
_symmetry_space_group_name_H-M   'P 1'
_cell_length_a   9.00552076
_cell_length_b   14.14903715
_cell_length_c   5.88216341
_cell_angle_alpha   90.00000000
_cell_angle_beta   104.15255041
_cell_angle_gamma   90.00000000
_symmetry_Int_Tables_number   1
_chemical_formula_structural   Li3Bi2(BO3)3
_chemical_formula_sum   'Li12 Bi8 B12 O36'
_cell_volume   726.75325576
_cell_formula_units_Z   4
loop_
 _symmetry_equiv_pos_site_id
 _symmetry_equiv_pos_as_xyz
  1  'x, y, z'
loop_
 _atom_site_type_symbol
 _atom_site_label
 _atom_site_symmetry_multiplicity
 _atom_site_fract_x
 _atom_site_fract_y
 _atom_site_fract_z
 _atom_site_occupancy
  Li  Li0  1  0.005674  0.835003  0.425134  1
  Li  Li1  1  0.215633  0.785125  0.779180  1
  Li  Li2  1  0.284367  0.285125  0.720820  1
  Li  Li3  1  0.205160  0.888354  0.144680  1
  Li  Li4  1  0.294840  0.388354  0.355320  1
  Li  Li5  1  0.505674  0.664997  0.925134  1
  Li  Li6  1  0.494326  0.335003  0.074866  1
  Li  Li7  1  0.705160  0.611646  0.644680  1
  Li  Li8  1  0.794840  0.111646  0.855320  1
  Li  Li9  1  0.715633  0.714875  0.279180  1
  Li  Li10  1  0.784367  0.214875  0.220820  1
  Li  Li11  1  0.994326  0.164997  0.574866  1
  Bi  Bi12  1  0.154624  0.508197  0.804946  1
  Bi  Bi13  1  0.190630  0.161359  0.140675  1
  Bi  Bi14  1  0.345376  0.008197  0.695054  1
  Bi  Bi15  1  0.309370  0.661359  0.359325  1
  Bi  Bi16  1  0.690630  0.338641  0.640675  1
  Bi  Bi17  1  0.654624  0.991803  0.304946  1
  Bi  Bi18  1  0.809370  0.838641  0.859325  1
  Bi  Bi19  1  0.845376  0.491803  0.195054  1
  B  B20  1  0.017017  0.321393  0.905747  1
  B  B21  1  0.019656  0.983116  0.753544  1
  B  B22  1  0.030077  0.335874  0.417461  1
  B  B23  1  0.480344  0.483116  0.746456  1
  B  B24  1  0.482983  0.821393  0.594253  1
  B  B25  1  0.530077  0.164126  0.917461  1
  B  B26  1  0.469923  0.835874  0.082539  1
  B  B27  1  0.517017  0.178607  0.405747  1
  B  B28  1  0.519656  0.516884  0.253544  1
  B  B29  1  0.969923  0.664126  0.582539  1
  B  B30  1  0.980344  0.016884  0.246456  1
  B  B31  1  0.982983  0.678607  0.094253  1
  O  O32  1  0.085353  0.894953  0.769680  1
  O  O33  1  0.110849  0.064159  0.769373  1
  O  O34  1  0.174491  0.330944  0.971729  1
  O  O35  1  0.094167  0.426462  0.433016  1
  O  O36  1  0.128924  0.667686  0.641575  1
  O  O37  1  0.053959  0.765059  0.147539  1
  O  O38  1  0.074002  0.596646  0.117979  1
  O  O39  1  0.121575  0.256530  0.451611  1
  O  O40  1  0.137617  0.007461  0.277404  1
  O  O41  1  0.371076  0.167686  0.858425  1
  O  O42  1  0.325509  0.830944  0.528271  1
  O  O43  1  0.389151  0.564159  0.730627  1
  O  O44  1  0.414647  0.394953  0.730320  1
  O  O45  1  0.362383  0.507461  0.222596  1
  O  O46  1  0.378425  0.756530  0.048389  1
  O  O47  1  0.425998  0.096646  0.382021  1
  O  O48  1  0.446041  0.265059  0.352461  1
  O  O49  1  0.405833  0.926462  0.066984  1
  O  O50  1  0.594167  0.073538  0.933016  1
  O  O51  1  0.553959  0.734941  0.647539  1
  O  O52  1  0.574002  0.903354  0.617979  1
  O  O53  1  0.621575  0.243470  0.951611  1
  O  O54  1  0.637617  0.492539  0.777404  1
  O  O55  1  0.585353  0.605047  0.269680  1
  O  O56  1  0.610849  0.435841  0.269373  1
  O  O57  1  0.674491  0.169056  0.471729  1
  O  O58  1  0.628924  0.832314  0.141575  1
  O  O59  1  0.862383  0.992539  0.722596  1
  O  O60  1  0.878425  0.743470  0.548389  1
  O  O61  1  0.925998  0.403354  0.882021  1
  O  O62  1  0.946041  0.234941  0.852461  1
  O  O63  1  0.871076  0.332314  0.358425  1
  O  O64  1  0.905833  0.573538  0.566984  1
  O  O65  1  0.825509  0.669056  0.028271  1
  O  O66  1  0.889151  0.935841  0.230627  1
  O  O67  1  0.914647  0.105047  0.230320  1
