# generated using pymatgen
data_UH10N2O7
_symmetry_space_group_name_H-M   'P 1'
_cell_length_a   5.81744751
_cell_length_b   11.57151680
_cell_length_c   11.72515934
_cell_angle_alpha   90.00000000
_cell_angle_beta   90.00000000
_cell_angle_gamma   90.00000000
_symmetry_Int_Tables_number   1
_chemical_formula_structural   UH10N2O7
_chemical_formula_sum   'U4 H40 N8 O28'
_cell_volume   789.29893519
_cell_formula_units_Z   4
loop_
 _symmetry_equiv_pos_site_id
 _symmetry_equiv_pos_as_xyz
  1  'x, y, z'
loop_
 _atom_site_type_symbol
 _atom_site_label
 _atom_site_symmetry_multiplicity
 _atom_site_fract_x
 _atom_site_fract_y
 _atom_site_fract_z
 _atom_site_occupancy
  U  U0  1  0.500000  0.500000  0.000000  1
  U  U1  1  0.000000  0.000000  0.500000  1
  U  U2  1  0.000000  0.000000  0.000000  1
  U  U3  1  0.500000  0.500000  0.500000  1
  H  H4  1  0.723593  0.461117  0.759904  1
  H  H5  1  0.776407  0.038883  0.259904  1
  H  H6  1  0.223593  0.038883  0.240096  1
  H  H7  1  0.276407  0.461117  0.740096  1
  H  H8  1  0.276407  0.538883  0.240096  1
  H  H9  1  0.223593  0.961117  0.740096  1
  H  H10  1  0.776407  0.961117  0.759904  1
  H  H11  1  0.723593  0.538883  0.259904  1
  H  H12  1  0.838171  0.577934  0.808063  1
  H  H13  1  0.661829  0.922066  0.308063  1
  H  H14  1  0.338171  0.922066  0.191937  1
  H  H15  1  0.161829  0.577934  0.691937  1
  H  H16  1  0.161829  0.422066  0.191937  1
  H  H17  1  0.338171  0.077934  0.691937  1
  H  H18  1  0.661829  0.077934  0.808063  1
  H  H19  1  0.838171  0.422066  0.308063  1
  H  H20  1  0.850275  0.706249  0.034241  1
  H  H21  1  0.649725  0.793751  0.534241  1
  H  H22  1  0.350275  0.793751  0.965759  1
  H  H23  1  0.149725  0.706249  0.465759  1
  H  H24  1  0.149725  0.293751  0.965759  1
  H  H25  1  0.350275  0.206249  0.465759  1
  H  H26  1  0.649725  0.206249  0.034241  1
  H  H27  1  0.850275  0.293751  0.534241  1
  H  H28  1  0.978367  0.584704  0.083562  1
  H  H29  1  0.521633  0.915296  0.583562  1
  H  H30  1  0.478367  0.915296  0.916438  1
  H  H31  1  0.021633  0.584704  0.416438  1
  H  H32  1  0.021633  0.415296  0.916438  1
  H  H33  1  0.478367  0.084704  0.416438  1
  H  H34  1  0.521633  0.084704  0.083562  1
  H  H35  1  0.978367  0.415296  0.583562  1
  H  H36  1  0.080072  0.740625  0.802346  1
  H  H37  1  0.419928  0.759375  0.302346  1
  H  H38  1  0.580072  0.759375  0.197654  1
  H  H39  1  0.919928  0.740625  0.697654  1
  H  H40  1  0.919928  0.259375  0.197654  1
  H  H41  1  0.580072  0.240625  0.697654  1
  H  H42  1  0.419928  0.240625  0.802346  1
  H  H43  1  0.080072  0.259375  0.302346  1
  N  N44  1  0.826391  0.620429  0.055628  1
  N  N45  1  0.673609  0.879571  0.555628  1
  N  N46  1  0.326391  0.879571  0.944372  1
  N  N47  1  0.173609  0.620429  0.444372  1
  N  N48  1  0.173609  0.379571  0.944372  1
  N  N49  1  0.326391  0.120429  0.444372  1
  N  N50  1  0.673609  0.120429  0.055628  1
  N  N51  1  0.826391  0.379571  0.555628  1
  O  O52  1  0.340023  0.626289  0.946271  1
  O  O53  1  0.159977  0.873711  0.446271  1
  O  O54  1  0.840023  0.873711  0.053729  1
  O  O55  1  0.659977  0.626289  0.553729  1
  O  O56  1  0.659977  0.373711  0.053729  1
  O  O57  1  0.840023  0.126289  0.553729  1
  O  O58  1  0.159977  0.126289  0.946271  1
  O  O59  1  0.340023  0.373711  0.446271  1
  O  O60  1  0.659960  0.614765  0.143811  1
  O  O61  1  0.840040  0.885235  0.643811  1
  O  O62  1  0.159960  0.885235  0.856189  1
  O  O63  1  0.340040  0.614765  0.356189  1
  O  O64  1  0.340040  0.385235  0.856189  1
  O  O65  1  0.159960  0.114765  0.356189  1
  O  O66  1  0.840040  0.114765  0.143811  1
  O  O67  1  0.659960  0.385235  0.643811  1
  O  O68  1  0.762977  0.503963  0.832426  1
  O  O69  1  0.737023  0.996037  0.332426  1
  O  O70  1  0.262977  0.996037  0.167574  1
  O  O71  1  0.237023  0.503963  0.667574  1
  O  O72  1  0.237023  0.496037  0.167574  1
  O  O73  1  0.262977  0.003963  0.667574  1
  O  O74  1  0.737023  0.003963  0.832426  1
  O  O75  1  0.762977  0.496037  0.332426  1
  O  O76  1  0.000000  0.686623  0.750000  1
  O  O77  1  0.500000  0.813377  0.250000  1
  O  O78  1  0.000000  0.313377  0.250000  1
  O  O79  1  0.500000  0.186623  0.750000  1
