# generated using pymatgen
data_Li4MnCr(WO6)2
_symmetry_space_group_name_H-M   'P 1'
_cell_length_a   5.35385350
_cell_length_b   10.68736242
_cell_length_c   9.40964387
_cell_angle_alpha   28.42792892
_cell_angle_beta   51.57065479
_cell_angle_gamma   56.88165258
_symmetry_Int_Tables_number   1
_chemical_formula_structural   Li4MnCr(WO6)2
_chemical_formula_sum   'Li4 Mn1 Cr1 W2 O12'
_cell_volume   200.78682160
_cell_formula_units_Z   1
loop_
 _symmetry_equiv_pos_site_id
 _symmetry_equiv_pos_as_xyz
  1  'x, y, z'
loop_
 _atom_site_type_symbol
 _atom_site_label
 _atom_site_symmetry_multiplicity
 _atom_site_fract_x
 _atom_site_fract_y
 _atom_site_fract_z
 _atom_site_occupancy
  Li  Li0  1  0.290388  0.001996  0.288957  1
  Li  Li1  1  0.292974  0.499814  0.288344  1
  Li  Li2  1  0.767449  0.000210  0.766925  1
  Li  Li3  1  0.768009  0.500121  0.770301  1
  Mn  Mn4  1  0.001541  0.499253  0.001568  1
  Cr  Cr5  1  0.001178  0.003783  0.999327  1
  W  W6  1  0.501471  0.999206  0.504038  1
  W  W7  1  0.506800  0.502855  0.498499  1
  O  O8  1  0.362372  0.301548  0.133013  1
  O  O9  1  0.240897  0.117722  0.630383  1
  O  O10  1  0.129526  0.309963  0.741789  1
  O  O11  1  0.866870  0.195128  0.239473  1
  O  O12  1  0.362964  0.801523  0.136373  1
  O  O13  1  0.736677  0.383371  0.364198  1
  O  O14  1  0.240987  0.617839  0.631107  1
  O  O15  1  0.628389  0.188021  0.864846  1
  O  O16  1  0.132043  0.810479  0.741320  1
  O  O17  1  0.868810  0.695514  0.240454  1
  O  O18  1  0.740326  0.885022  0.362989  1
  O  O19  1  0.631529  0.686634  0.867298  1
