# generated using pymatgen
data_NaSb3O8
_symmetry_space_group_name_H-M   'P 1'
_cell_length_a   7.48619830
_cell_length_b   7.34385999
_cell_length_c   7.34385999
_cell_angle_alpha   121.43689063
_cell_angle_beta   120.64325237
_cell_angle_gamma   59.35674763
_symmetry_Int_Tables_number   1
_chemical_formula_structural   NaSb3O8
_chemical_formula_sum   'Na2 Sb6 O16'
_cell_volume   279.54760256
_cell_formula_units_Z   2
loop_
 _symmetry_equiv_pos_site_id
 _symmetry_equiv_pos_as_xyz
  1  'x, y, z'
loop_
 _atom_site_type_symbol
 _atom_site_label
 _atom_site_symmetry_multiplicity
 _atom_site_fract_x
 _atom_site_fract_y
 _atom_site_fract_z
 _atom_site_occupancy
  Na  Na0  1  0.250000  0.000000  0.000000  1
  Na  Na1  1  0.750000  0.000000  0.000000  1
  Sb  Sb2  1  0.752889  0.508257  0.014035  1
  Sb  Sb3  1  0.747111  0.014035  0.508257  1
  Sb  Sb4  1  0.750000  0.500000  0.500000  1
  Sb  Sb5  1  0.250000  0.500000  0.500000  1
  Sb  Sb6  1  0.252889  0.985965  0.491743  1
  Sb  Sb7  1  0.247111  0.491743  0.985965  1
  O  O8  1  0.567858  0.434855  0.160834  1
  O  O9  1  0.158121  0.434855  0.160834  1
  O  O10  1  0.932142  0.160834  0.434855  1
  O  O11  1  0.341879  0.160834  0.434855  1
  O  O12  1  0.923380  0.460805  0.307565  1
  O  O13  1  0.576620  0.307565  0.460805  1
  O  O14  1  0.163522  0.824656  0.151699  1
  O  O15  1  0.336478  0.151699  0.824656  1
  O  O16  1  0.663521  0.848301  0.175344  1
  O  O17  1  0.836479  0.175344  0.848301  1
  O  O18  1  0.423380  0.692435  0.539195  1
  O  O19  1  0.076620  0.539195  0.692435  1
  O  O20  1  0.658121  0.839166  0.565145  1
  O  O21  1  0.841879  0.565145  0.839166  1
  O  O22  1  0.067858  0.839166  0.565145  1
  O  O23  1  0.432142  0.565145  0.839166  1
