# generated using pymatgen
data_NaCa9TaTi9(SiO5)10
_symmetry_space_group_name_H-M   'P 1'
_cell_length_a   5.50629545
_cell_length_b   27.54860278
_cell_length_c   7.88601008
_cell_angle_alpha   61.56884358
_cell_angle_beta   114.29384740
_cell_angle_gamma   105.76059015
_symmetry_Int_Tables_number   1
_chemical_formula_structural   NaCa9TaTi9(SiO5)10
_chemical_formula_sum   'Na1 Ca9 Ta1 Ti9 Si10 O50'
_cell_volume   954.51260807
_cell_formula_units_Z   1
loop_
 _symmetry_equiv_pos_site_id
 _symmetry_equiv_pos_as_xyz
  1  'x, y, z'
loop_
 _atom_site_type_symbol
 _atom_site_label
 _atom_site_symmetry_multiplicity
 _atom_site_fract_x
 _atom_site_fract_y
 _atom_site_fract_z
 _atom_site_occupancy
  Na  Na0  1  0.173782  0.816500  0.758721  1
  Ca  Ca1  1  0.170598  0.615019  0.754158  1
  Ca  Ca2  1  0.169702  0.415894  0.750153  1
  Ca  Ca3  1  0.828280  0.984215  0.245746  1
  Ca  Ca4  1  0.169484  0.215958  0.750284  1
  Ca  Ca5  1  0.826062  0.786327  0.232905  1
  Ca  Ca6  1  0.169168  0.016053  0.750378  1
  Ca  Ca7  1  0.830225  0.583414  0.251547  1
  Ca  Ca8  1  0.830017  0.383812  0.250382  1
  Ca  Ca9  1  0.829957  0.183829  0.250574  1
  Ta  Ta10  1  0.504714  0.800558  0.505307  1
  Ti  Ti11  1  0.494438  0.900552  0.989710  1
  Ti  Ti12  1  0.500458  0.599269  0.504131  1
  Ti  Ti13  1  0.498623  0.698713  0.007867  1
  Ti  Ti14  1  0.499551  0.399757  0.501417  1
  Ti  Ti15  1  0.500606  0.499244  0.002353  1
  Ti  Ti16  1  0.499718  0.199993  0.499977  1
  Ti  Ti17  1  0.500294  0.299764  0.000735  1
  Ti  Ti18  1  0.498343  0.000409  0.495457  1
  Ti  Ti19  1  0.499918  0.100394  0.998570  1
  Si  Si20  1  0.181573  0.915100  0.243417  1
  Si  Si21  1  0.181453  0.712418  0.251168  1
  Si  Si22  1  0.821725  0.887760  0.752048  1
  Si  Si23  1  0.182607  0.513180  0.251193  1
  Si  Si24  1  0.816858  0.685063  0.753739  1
  Si  Si25  1  0.182386  0.313488  0.249982  1
  Si  Si26  1  0.817655  0.486164  0.750812  1
  Si  Si27  1  0.182337  0.113766  0.249069  1
  Si  Si28  1  0.817527  0.286509  0.749775  1
  Si  Si29  1  0.817182  0.086765  0.748467  1
  O  O30  1  0.120312  0.869594  0.912813  1
  O  O31  1  0.431284  0.964630  0.747349  1
  O  O32  1  0.118930  0.667496  0.913106  1
  O  O33  1  0.251631  0.943061  0.405116  1
  O  O34  1  0.186148  0.846680  0.369115  1
  O  O35  1  0.614523  0.862205  0.882777  1
  O  O36  1  0.425752  0.762882  0.754420  1
  O  O37  1  0.119496  0.467728  0.910622  1
  O  O38  1  0.244364  0.742361  0.406835  1
  O  O39  1  0.393759  0.940226  0.115877  1
  O  O40  1  0.185372  0.644570  0.386543  1
  O  O41  1  0.814844  0.955486  0.615405  1
  O  O42  1  0.606637  0.660219  0.882860  1
  O  O43  1  0.745642  0.859435  0.589986  1
  O  O44  1  0.430482  0.563246  0.751307  1
  O  O45  1  0.119449  0.268205  0.909502  1
  O  O46  1  0.575693  0.836658  0.247144  1
  O  O47  1  0.249780  0.541355  0.411308  1
  O  O48  1  0.402415  0.736100  0.132839  1
  O  O49  1  0.186124  0.445188  0.381912  1
  O  O50  1  0.805275  0.752969  0.617153  1
  O  O51  1  0.608632  0.460557  0.882280  1
  O  O52  1  0.751656  0.656748  0.594212  1
  O  O53  1  0.431311  0.363861  0.750051  1
  O  O54  1  0.119248  0.068526  0.909133  1
  O  O55  1  0.879727  0.932933  0.087129  1
  O  O56  1  0.567282  0.634805  0.251637  1
  O  O57  1  0.250253  0.341906  0.409719  1
  O  O58  1  0.391603  0.538598  0.119664  1
  O  O59  1  0.186058  0.245472  0.381166  1
  O  O60  1  0.813812  0.554098  0.620425  1
  O  O61  1  0.608475  0.261004  0.881124  1
  O  O62  1  0.749797  0.457996  0.590330  1
  O  O63  1  0.430824  0.164168  0.749109  1
  O  O64  1  0.880469  0.730472  0.091482  1
  O  O65  1  0.569867  0.436021  0.250578  1
  O  O66  1  0.250463  0.142041  0.409255  1
  O  O67  1  0.391478  0.338983  0.118690  1
  O  O68  1  0.186244  0.045767  0.379380  1
  O  O69  1  0.813750  0.354502  0.618666  1
  O  O70  1  0.608144  0.061435  0.879935  1
  O  O71  1  0.749929  0.258141  0.589883  1
  O  O72  1  0.881033  0.531646  0.090621  1
  O  O73  1  0.569215  0.236303  0.249523  1
  O  O74  1  0.391473  0.139388  0.117678  1
  O  O75  1  0.813579  0.154769  0.617874  1
  O  O76  1  0.750132  0.058517  0.588694  1
  O  O77  1  0.880651  0.331894  0.090156  1
  O  O78  1  0.570991  0.036930  0.248446  1
  O  O79  1  0.880754  0.132337  0.089129  1
