# generated using pymatgen
data_Li3Mn3CrO8
_symmetry_space_group_name_H-M   'P 1'
_cell_length_a   5.97763516
_cell_length_b   5.84814843
_cell_length_c   9.53996520
_cell_angle_alpha   90.24918166
_cell_angle_beta   89.51856729
_cell_angle_gamma   120.71471713
_symmetry_Int_Tables_number   1
_chemical_formula_structural   Li3Mn3CrO8
_chemical_formula_sum   'Li6 Mn6 Cr2 O16'
_cell_volume   286.70603659
_cell_formula_units_Z   2
loop_
 _symmetry_equiv_pos_site_id
 _symmetry_equiv_pos_as_xyz
  1  'x, y, z'
loop_
 _atom_site_type_symbol
 _atom_site_label
 _atom_site_symmetry_multiplicity
 _atom_site_fract_x
 _atom_site_fract_y
 _atom_site_fract_z
 _atom_site_occupancy
  Li  Li0  1  0.833701  0.186543  0.443692  1
  Li  Li1  1  0.348339  0.183770  0.443600  1
  Li  Li2  1  0.835193  0.666472  0.441995  1
  Li  Li3  1  0.168771  0.333588  0.941963  1
  Li  Li4  1  0.647697  0.813409  0.943694  1
  Li  Li5  1  0.165293  0.817053  0.943336  1
  Mn  Mn6  1  0.834659  0.173693  0.715017  1
  Mn  Mn7  1  0.340720  0.172050  0.715326  1
  Mn  Mn8  1  0.835372  0.671201  0.710918  1
  Mn  Mn9  1  0.164384  0.328777  0.211013  1
  Mn  Mn10  1  0.661337  0.826559  0.214899  1
  Mn  Mn11  1  0.168166  0.827449  0.215470  1
  Cr  Cr12  1  0.655362  0.314525  0.989608  1
  Cr  Cr13  1  0.340502  0.684955  0.489515  1
  O  O14  1  0.816899  0.133307  0.091141  1
  O  O15  1  0.518558  0.023956  0.837990  1
  O  O16  1  0.700429  0.353335  0.599876  1
  O  O17  1  0.972059  0.988416  0.822288  1
  O  O18  1  0.982839  0.012696  0.323020  1
  O  O19  1  0.308652  0.134973  0.091272  1
  O  O20  1  0.962032  0.466685  0.851516  1
  O  O21  1  0.511335  0.466518  0.846046  1
  O  O22  1  0.827150  0.664140  0.103574  1
  O  O23  1  0.161626  0.336870  0.603117  1
  O  O24  1  0.495975  0.533517  0.351783  1
  O  O25  1  0.348184  0.645621  0.099472  1
  O  O26  1  0.044413  0.532740  0.346109  1
  O  O27  1  0.683237  0.866503  0.591746  1
  O  O28  1  0.492999  0.975060  0.336993  1
  O  O29  1  0.173883  0.865378  0.590623  1
