# generated using pymatgen
data_Li2VSiCO7
_symmetry_space_group_name_H-M   'P 1'
_cell_length_a   8.58050290
_cell_length_b   6.32257716
_cell_length_c   5.07844036
_cell_angle_alpha   90.00000000
_cell_angle_beta   87.13123921
_cell_angle_gamma   90.00000000
_symmetry_Int_Tables_number   1
_chemical_formula_structural   Li2VSiCO7
_chemical_formula_sum   'Li4 V2 Si2 C2 O14'
_cell_volume   275.16464688
_cell_formula_units_Z   2
loop_
 _symmetry_equiv_pos_site_id
 _symmetry_equiv_pos_as_xyz
  1  'x, y, z'
loop_
 _atom_site_type_symbol
 _atom_site_label
 _atom_site_symmetry_multiplicity
 _atom_site_fract_x
 _atom_site_fract_y
 _atom_site_fract_z
 _atom_site_occupancy
  Li  Li0  1  0.221594  0.508230  0.233396  1
  Li  Li1  1  0.221594  0.991770  0.233396  1
  Li  Li2  1  0.778406  0.491770  0.766604  1
  Li  Li3  1  0.778406  0.008230  0.766604  1
  V  V4  1  0.343573  0.750000  0.806130  1
  V  V5  1  0.656427  0.250000  0.193870  1
  Si  Si6  1  0.426544  0.250000  0.699051  1
  Si  Si7  1  0.573456  0.750000  0.300949  1
  C  C8  1  0.056598  0.750000  0.730192  1
  C  C9  1  0.943402  0.250000  0.269808  1
  O  O10  1  0.088981  0.250000  0.298565  1
  O  O11  1  0.117339  0.750000  0.964175  1
  O  O12  1  0.161698  0.750000  0.531904  1
  O  O13  1  0.326450  0.042554  0.801477  1
  O  O14  1  0.326450  0.457446  0.801477  1
  O  O15  1  0.402156  0.750000  0.170424  1
  O  O16  1  0.449816  0.250000  0.376344  1
  O  O17  1  0.550184  0.750000  0.623656  1
  O  O18  1  0.597844  0.250000  0.829576  1
  O  O19  1  0.673550  0.542554  0.198523  1
  O  O20  1  0.673550  0.957446  0.198523  1
  O  O21  1  0.838302  0.250000  0.468096  1
  O  O22  1  0.882661  0.250000  0.035825  1
  O  O23  1  0.911019  0.750000  0.701435  1
