# generated using pymatgen
data_NaCoCSO7
_symmetry_space_group_name_H-M   'P 1'
_cell_length_a   8.94552479
_cell_length_b   6.64615348
_cell_length_c   5.16044368
_cell_angle_alpha   90.00000000
_cell_angle_beta   87.93524744
_cell_angle_gamma   90.00000000
_symmetry_Int_Tables_number   1
_chemical_formula_structural   NaCoCSO7
_chemical_formula_sum   'Na2 Co2 C2 S2 O14'
_cell_volume   306.60637012
_cell_formula_units_Z   2
loop_
 _symmetry_equiv_pos_site_id
 _symmetry_equiv_pos_as_xyz
  1  'x, y, z'
loop_
 _atom_site_type_symbol
 _atom_site_label
 _atom_site_symmetry_multiplicity
 _atom_site_fract_x
 _atom_site_fract_y
 _atom_site_fract_z
 _atom_site_occupancy
  Na  Na0  1  0.231528  0.479480  0.234324  1
  Na  Na1  1  0.768472  0.979480  0.765676  1
  Co  Co2  1  0.344467  0.764170  0.782795  1
  Co  Co3  1  0.655533  0.264170  0.217205  1
  C  C4  1  0.082655  0.742909  0.724145  1
  C  C5  1  0.917345  0.242909  0.275855  1
  S  S6  1  0.427582  0.254281  0.723248  1
  S  S7  1  0.572418  0.754281  0.276752  1
  O  O8  1  0.053739  0.245743  0.308554  1
  O  O9  1  0.146754  0.746567  0.949694  1
  O  O10  1  0.187565  0.739465  0.537072  1
  O  O11  1  0.333050  0.077180  0.778353  1
  O  O12  1  0.341288  0.435317  0.803713  1
  O  O13  1  0.427874  0.743636  0.138877  1
  O  O14  1  0.464949  0.269103  0.436397  1
  O  O15  1  0.535051  0.769103  0.563603  1
  O  O16  1  0.572126  0.243636  0.861123  1
  O  O17  1  0.658712  0.935317  0.196287  1
  O  O18  1  0.666950  0.577180  0.221647  1
  O  O19  1  0.812435  0.239465  0.462928  1
  O  O20  1  0.853246  0.246567  0.050306  1
  O  O21  1  0.946261  0.745743  0.691446  1
