# generated using pymatgen
data_Li9V3P8O29
_symmetry_space_group_name_H-M   'P 1'
_cell_length_a   9.91623501
_cell_length_b   9.91484089
_cell_length_c   13.75402774
_cell_angle_alpha   90.02389069
_cell_angle_beta   89.80292826
_cell_angle_gamma   60.08978524
_symmetry_Int_Tables_number   1
_chemical_formula_structural   Li9V3P8O29
_chemical_formula_sum   'Li18 V6 P16 O58'
_cell_volume   1172.14520638
_cell_formula_units_Z   2
loop_
 _symmetry_equiv_pos_site_id
 _symmetry_equiv_pos_as_xyz
  1  'x, y, z'
loop_
 _atom_site_type_symbol
 _atom_site_label
 _atom_site_symmetry_multiplicity
 _atom_site_fract_x
 _atom_site_fract_y
 _atom_site_fract_z
 _atom_site_occupancy
  Li  Li0  1  0.901819  0.760306  0.073563  1
  Li  Li1  1  0.757177  0.905809  0.563164  1
  Li  Li2  1  0.899779  0.336222  0.562187  1
  Li  Li3  1  0.683409  0.656853  0.376767  1
  Li  Li4  1  0.665065  0.666548  0.880503  1
  Li  Li5  1  0.771274  0.333091  0.066451  1
  Li  Li6  1  0.333806  0.898618  0.065262  1
  Li  Li7  1  0.670310  0.236574  0.433150  1
  Li  Li8  1  0.340389  0.770095  0.567844  1
  Li  Li9  1  0.668173  0.098337  0.937918  1
  Li  Li10  1  0.234702  0.668342  0.937949  1
  Li  Li11  1  0.339413  0.325234  0.625457  1
  Li  Li12  1  0.316386  0.344223  0.120901  1
  Li  Li13  1  0.226126  0.104194  0.433369  1
  Li  Li14  1  0.988504  0.559955  0.233964  1
  Li  Li15  1  0.097482  0.233755  0.939998  1
  Li  Li16  1  0.001718  0.003855  0.007371  1
  Li  Li17  1  0.982966  0.046895  0.498207  1
  V  V18  1  0.568576  0.434497  0.246264  1
  V  V19  1  0.436365  0.564783  0.750396  1
  V  V20  1  0.564784  0.999875  0.750910  1
  V  V21  1  0.434809  0.998263  0.248531  1
  V  V22  1  0.104833  0.655458  0.430736  1
  V  V23  1  -0.000075  0.432386  0.751747  1
  P  P24  1  0.909702  0.774177  0.843806  1
  P  P25  1  0.770890  0.916212  0.346240  1
  P  P26  1  0.908359  0.320053  0.344723  1
  P  P27  1  0.661946  0.671583  0.122305  1
  P  P28  1  0.668163  0.666550  0.623045  1
  P  P29  1  0.773348  0.315496  0.845575  1
  P  P30  1  0.685292  0.225907  0.655853  1
  P  P31  1  0.315490  0.910588  0.844433  1
  P  P32  1  0.685133  0.088148  0.155110  1
  P  P33  1  0.319428  0.772565  0.339883  1
  P  P34  1  0.226008  0.681855  0.152681  1
  P  P35  1  0.341243  0.329651  0.380931  1
  P  P36  1  0.333153  0.333670  0.875999  1
  P  P37  1  0.093548  0.676758  0.656347  1
  P  P38  1  0.225299  0.089696  0.654775  1
  P  P39  1  0.092750  0.226091  0.155114  1
  O  O40  1  0.001523  0.753348  0.560932  1
  O  O41  1  0.921879  0.756227  0.349646  1
  O  O42  1  0.776445  0.993496  0.066702  1
  O  O43  1  0.750486  0.922418  0.844672  1
  O  O44  1  0.890593  0.629833  0.833244  1
  O  O45  1  0.799216  0.684880  0.158322  1
  O  O46  1  0.891992  0.479601  0.343307  1
  O  O47  1  0.999108  0.221622  0.067412  1
  O  O48  1  0.922583  0.325917  0.845818  1
  O  O49  1  0.675861  0.810826  0.662605  1
  O  O50  1  0.630874  0.891540  0.335860  1
  O  O51  1  0.812067  0.514221  0.661530  1
  O  O52  1  0.649167  0.670502  0.012572  1
  O  O53  1  0.665648  0.668972  0.513360  1
  O  O54  1  0.673471  0.515021  0.161755  1
  O  O55  1  0.479498  0.890451  0.833091  1
  O  O56  1  0.505095  0.811353  0.164484  1
  O  O57  1  0.749400  0.326168  0.341479  1
  O  O58  1  0.786203  0.213907  0.750087  1
  O  O59  1  0.777276  0.227232  0.566825  1
  O  O60  1  0.769457  0.225713  0.934021  1
  O  O61  1  0.630442  0.479177  0.834185  1
  O  O62  1  0.515725  0.674399  0.663138  1
  O  O63  1  0.674296  0.247449  0.153258  1
  O  O64  1  0.480793  0.629195  0.335361  1
  O  O65  1  0.324962  0.922966  0.348116  1
  O  O66  1  0.786814  0.000643  0.250947  1
  O  O67  1  0.766363  0.010428  0.435524  1
  O  O68  1  0.225861  0.997462  0.565485  1
  O  O69  1  0.672346  0.078052  0.655497  1
  O  O70  1  0.522125  0.370268  0.665092  1
  O  O71  1  0.326807  0.750602  0.843647  1
  O  O72  1  0.490459  0.321998  0.339695  1
  O  O73  1  0.372523  0.519617  0.167428  1
  O  O74  1  0.237277  0.770472  0.065231  1
  O  O75  1  0.226417  0.763960  0.431007  1
  O  O76  1  0.214900  0.786160  0.249384  1
  O  O77  1  0.249222  0.673180  0.652460  1
  O  O78  1  0.485150  0.189190  0.835814  1
  O  O79  1  0.521526  0.107321  0.166911  1
  O  O80  1  0.324803  0.485560  0.835286  1
  O  O81  1  0.335472  0.333994  0.985439  1
  O  O82  1  0.331513  0.345903  0.491067  1
  O  O83  1  0.194156  0.484403  0.343154  1
  O  O84  1  0.369930  0.108277  0.663793  1
  O  O85  1  0.328558  0.188185  0.344751  1
  O  O86  1  0.080337  0.671326  0.153270  1
  O  O87  1  0.993646  0.787970  0.743502  1
  O  O88  1  0.007143  0.770573  0.929428  1
  O  O89  1  0.115328  0.513765  0.667777  1
  O  O90  1  0.188691  0.324780  0.837790  1
  O  O91  1  0.116750  0.364590  0.160505  1
  O  O92  1  0.248782  0.071014  0.158060  1
  O  O93  1  0.225780  0.003962  0.933098  1
  O  O94  1  0.214312  0.999511  0.749191  1
  O  O95  1  0.076683  0.249590  0.654711  1
  O  O96  1  0.998206  0.218965  0.433194  1
  O  O97  1  0.000217  0.218672  0.250644  1
