# generated using pymatgen
data_Sr5Fe3F19
_symmetry_space_group_name_H-M   'P 1'
_cell_length_a   8.85572265
_cell_length_b   9.81258312
_cell_length_c   10.72573523
_cell_angle_alpha   83.79976684
_cell_angle_beta   67.19557435
_cell_angle_gamma   73.66895877
_symmetry_Int_Tables_number   1
_chemical_formula_structural   Sr5Fe3F19
_chemical_formula_sum   'Sr10 Fe6 F38'
_cell_volume   824.51921468
_cell_formula_units_Z   2
loop_
 _symmetry_equiv_pos_site_id
 _symmetry_equiv_pos_as_xyz
  1  'x, y, z'
loop_
 _atom_site_type_symbol
 _atom_site_label
 _atom_site_symmetry_multiplicity
 _atom_site_fract_x
 _atom_site_fract_y
 _atom_site_fract_z
 _atom_site_occupancy
  Sr  Sr0  1  0.949953  0.699297  0.129725  1
  Sr  Sr1  1  0.391246  0.270257  0.072072  1
  Sr  Sr2  1  0.330497  0.463394  0.469707  1
  Sr  Sr3  1  0.189852  0.855009  0.669213  1
  Sr  Sr4  1  0.360626  0.860352  0.275884  1
  Sr  Sr5  1  0.480173  0.168342  0.694616  1
  Sr  Sr6  1  0.845748  0.173815  0.320332  1
  Sr  Sr7  1  0.681568  0.568409  0.539424  1
  Sr  Sr8  1  0.640227  0.765264  0.865084  1
  Sr  Sr9  1  0.921881  0.358547  0.837868  1
  Fe  Fe10  1  0.228854  0.021572  0.986046  1
  Fe  Fe11  1  0.134776  0.217111  0.503286  1
  Fe  Fe12  1  0.782919  0.041200  0.057759  1
  Fe  Fe13  1  0.299876  0.532118  0.832766  1
  Fe  Fe14  1  0.659031  0.511695  0.160023  1
  Fe  Fe15  1  0.901378  0.835313  0.504479  1
  F  F16  1  0.931994  0.279272  0.463445  1
  F  F17  1  0.186460  0.098825  0.164842  1
  F  F18  1  0.067071  0.404653  0.580942  1
  F  F19  1  0.256167  0.300346  0.326269  1
  F  F20  1  0.219883  0.508013  0.032762  1
  F  F21  1  0.033282  0.913277  0.336772  1
  F  F22  1  0.293998  0.990617  0.788918  1
  F  F23  1  0.216801  0.218861  0.936405  1
  F  F24  1  0.089550  0.675571  0.864465  1
  F  F25  1  0.349122  0.191258  0.530257  1
  F  F26  1  0.345972  0.844089  0.050276  1
  F  F27  1  0.218074  0.404915  0.755927  1
  F  F28  1  0.415392  0.592155  0.259749  1
  F  F29  1  0.539363  0.056029  0.155928  1
  F  F30  1  0.619263  0.328374  0.229477  1
  F  F31  1  0.189844  0.019068  0.463273  1
  F  F32  1  0.753243  0.513358  0.298238  1
  F  F33  1  0.459722  0.771223  0.458061  1
  F  F34  1  0.589338  0.340199  0.512593  1
  F  F35  1  0.367561  0.590723  0.638839  1
  F  F36  1  0.753154  0.035706  0.523490  1
  F  F37  1  0.419657  0.669532  0.828136  1
  F  F38  1  0.488422  0.365421  0.820998  1
  F  F39  1  0.657119  0.715713  0.128894  1
  F  F40  1  0.485733  0.031132  0.905338  1
  F  F41  1  0.715422  0.194942  0.945921  1
  F  F42  1  0.676829  0.801171  0.614144  1
  F  F43  1  0.921842  0.162226  0.067889  1
  F  F44  1  0.898569  0.477147  0.040088  1
  F  F45  1  0.793096  0.953253  0.224977  1
  F  F46  1  0.031518  0.150346  0.690791  1
  F  F47  1  0.619778  0.500886  0.998791  1
  F  F48  1  0.776711  0.551463  0.731921  1
  F  F49  1  0.906779  0.688634  0.385939  1
  F  F50  1  0.063613  0.913893  0.001557  1
  F  F51  1  0.806953  0.887364  0.955925  1
  F  F52  1  0.894176  0.867052  0.684867  1
  F  F53  1  0.132426  0.719698  0.496312  1
