# generated using pymatgen
data_Li3Cu4F15
_symmetry_space_group_name_H-M   'P 1'
_cell_length_a   3.80176145
_cell_length_b   16.64234578
_cell_length_c   18.13714598
_cell_angle_alpha   90.00000000
_cell_angle_beta   90.00000000
_cell_angle_gamma   90.00000000
_symmetry_Int_Tables_number   1
_chemical_formula_structural   Li3Cu4F15
_chemical_formula_sum   'Li12 Cu16 F60'
_cell_volume   1147.54137274
_cell_formula_units_Z   4
loop_
 _symmetry_equiv_pos_site_id
 _symmetry_equiv_pos_as_xyz
  1  'x, y, z'
loop_
 _atom_site_type_symbol
 _atom_site_label
 _atom_site_symmetry_multiplicity
 _atom_site_fract_x
 _atom_site_fract_y
 _atom_site_fract_z
 _atom_site_occupancy
  Li  Li0  1  0.000000  0.042269  0.165507  1
  Li  Li1  1  0.000000  0.346305  0.014854  1
  Li  Li2  1  0.000000  0.322999  0.394591  1
  Li  Li3  1  0.000000  0.818500  0.145950  1
  Li  Li4  1  0.000000  0.577792  0.385135  1
  Li  Li5  1  0.000000  0.824048  0.528150  1
  Li  Li6  1  0.500000  0.175952  0.028150  1
  Li  Li7  1  0.500000  0.181500  0.645950  1
  Li  Li8  1  0.500000  0.422208  0.885135  1
  Li  Li9  1  0.500000  0.653695  0.514854  1
  Li  Li10  1  0.500000  0.677001  0.894591  1
  Li  Li11  1  0.500000  0.957731  0.665507  1
  Cu  Cu12  1  0.000000  0.029280  0.824503  1
  Cu  Cu13  1  0.000000  0.966296  0.016832  1
  Cu  Cu14  1  0.000000  0.467871  0.531576  1
  Cu  Cu15  1  0.000000  0.318278  0.679242  1
  Cu  Cu16  1  0.000000  0.247141  0.876423  1
  Cu  Cu17  1  0.000000  0.531396  0.723675  1
  Cu  Cu18  1  0.000000  0.747720  0.671182  1
  Cu  Cu19  1  0.000000  0.816431  0.870087  1
  Cu  Cu20  1  0.500000  0.252280  0.171182  1
  Cu  Cu21  1  0.500000  0.532129  0.031576  1
  Cu  Cu22  1  0.500000  0.468604  0.223675  1
  Cu  Cu23  1  0.500000  0.681722  0.179242  1
  Cu  Cu24  1  0.500000  0.033704  0.516832  1
  Cu  Cu25  1  0.500000  0.183569  0.370087  1
  Cu  Cu26  1  0.500000  0.752859  0.376423  1
  Cu  Cu27  1  0.500000  0.970720  0.324503  1
  F  F28  1  0.000000  0.067850  0.062262  1
  F  F29  1  0.000000  0.251729  0.167215  1
  F  F30  1  0.000000  0.529258  0.032634  1
  F  F31  1  0.000000  0.192899  0.371752  1
  F  F32  1  0.000000  0.033638  0.515893  1
  F  F33  1  0.000000  0.470167  0.223397  1
  F  F34  1  0.000000  0.024166  0.722976  1
  F  F35  1  0.000000  0.691788  0.177527  1
  F  F36  1  0.000000  0.424259  0.437859  1
  F  F37  1  0.000000  0.212760  0.642107  1
  F  F38  1  0.000000  0.367036  0.581519  1
  F  F39  1  0.000000  0.028355  0.927749  1
  F  F40  1  0.000000  0.925144  0.113598  1
  F  F41  1  0.000000  0.142694  0.835580  1
  F  F42  1  0.000000  0.573524  0.488678  1
  F  F43  1  0.000000  0.276882  0.777495  1
  F  F44  1  0.000000  0.749101  0.382049  1
  F  F45  1  0.000000  0.529303  0.620406  1
  F  F46  1  0.000000  0.416366  0.729139  1
  F  F47  1  0.000000  0.217723  0.978618  1
  F  F48  1  0.000000  0.971093  0.322359  1
  F  F49  1  0.000000  0.712315  0.570241  1
  F  F50  1  0.000000  0.360228  0.904150  1
  F  F51  1  0.000000  0.645136  0.713457  1
  F  F52  1  0.000000  0.533695  0.823378  1
  F  F53  1  0.000000  0.854303  0.636758  1
  F  F54  1  0.000000  0.779214  0.770021  1
  F  F55  1  0.000000  0.709838  0.903324  1
  F  F56  1  0.000000  0.915576  0.823070  1
  F  F57  1  0.000000  0.863740  0.969878  1
  F  F58  1  0.500000  0.287685  0.070241  1
  F  F59  1  0.500000  0.220786  0.270021  1
  F  F60  1  0.500000  0.084424  0.323070  1
  F  F61  1  0.500000  0.308212  0.677527  1
  F  F62  1  0.500000  0.074856  0.613598  1
  F  F63  1  0.500000  0.290162  0.403324  1
  F  F64  1  0.500000  0.354864  0.213457  1
  F  F65  1  0.500000  0.632964  0.081519  1
  F  F66  1  0.500000  0.723118  0.277495  1
  F  F67  1  0.500000  0.966362  0.015893  1
  F  F68  1  0.500000  0.028907  0.822359  1
  F  F69  1  0.500000  0.145697  0.136758  1
  F  F70  1  0.500000  0.250899  0.882049  1
  F  F71  1  0.500000  0.466305  0.323378  1
  F  F72  1  0.500000  0.583634  0.229139  1
  F  F73  1  0.500000  0.748271  0.667215  1
  F  F74  1  0.500000  0.136260  0.469878  1
  F  F75  1  0.500000  0.470697  0.120406  1
  F  F76  1  0.500000  0.639772  0.404150  1
  F  F77  1  0.500000  0.782277  0.478618  1
  F  F78  1  0.500000  0.975834  0.222976  1
  F  F79  1  0.500000  0.529833  0.723397  1
  F  F80  1  0.500000  0.857306  0.335580  1
  F  F81  1  0.500000  0.971645  0.427749  1
  F  F82  1  0.500000  0.426476  0.988678  1
  F  F83  1  0.500000  0.470742  0.532634  1
  F  F84  1  0.500000  0.787240  0.142107  1
  F  F85  1  0.500000  0.807101  0.871752  1
  F  F86  1  0.500000  0.932150  0.562262  1
  F  F87  1  0.500000  0.575741  0.937859  1
