# generated using pymatgen
data_Na22In5O15
_symmetry_space_group_name_H-M   'P 1'
_cell_length_a   9.71210677
_cell_length_b   9.71998996
_cell_length_c   9.71998996
_cell_angle_alpha   109.60001429
_cell_angle_beta   109.53455286
_cell_angle_gamma   109.53455286
_symmetry_Int_Tables_number   1
_chemical_formula_structural   Na22In5O15
_chemical_formula_sum   'Na22 In5 O15'
_cell_volume   704.11931417
_cell_formula_units_Z   1
loop_
 _symmetry_equiv_pos_site_id
 _symmetry_equiv_pos_as_xyz
  1  'x, y, z'
loop_
 _atom_site_type_symbol
 _atom_site_label
 _atom_site_symmetry_multiplicity
 _atom_site_fract_x
 _atom_site_fract_y
 _atom_site_fract_z
 _atom_site_occupancy
  Na  Na0  1  0.721265  0.461405  0.002182  1
  Na  Na1  1  0.721265  0.002182  0.461405  1
  Na  Na2  1  0.435332  -0.000023  0.218142  1
  Na  Na3  1  0.435332  0.218142  -0.000023  1
  Na  Na4  1  0.737288  0.288323  0.288323  1
  Na  Na5  1  0.210992  0.985535  0.426289  1
  Na  Na6  1  0.210992  0.426289  0.985535  1
  Na  Na7  1  0.477460  0.723399  0.023738  1
  Na  Na8  1  0.561202  0.262511  0.561284  1
  Na  Na9  1  0.477460  0.023738  0.723399  1
  Na  Na10  1  0.561202  0.561284  0.262511  1
  Na  Na11  1  0.779139  0.567618  0.567618  1
  Na  Na12  1  0.991233  0.426704  0.203588  1
  Na  Na13  1  0.991233  0.203588  0.426704  1
  Na  Na14  1  0.279275  0.724413  0.271563  1
  Na  Na15  1  0.279275  0.271563  0.724413  1
  Na  Na16  1  0.562928  0.568751  0.784782  1
  Na  Na17  1  0.562928  0.784782  0.568751  1
  Na  Na18  1  0.259094  0.545657  0.545657  1
  Na  Na19  1  0.982755  0.716832  0.439800  1
  Na  Na20  1  0.982755  0.439800  0.716832  1
  Na  Na21  1  0.222300  0.776849  0.776849  1
  In  In22  1  0.711087  0.008546  0.008546  1
  In  In23  1  0.997814  0.005527  0.005527  1
  In  In24  1  0.301535  0.295313  0.295313  1
  In  In25  1  0.008979  0.720653  0.009086  1
  In  In26  1  0.008979  0.009086  0.720653  1
  O  O27  1  0.684229  0.219141  0.014722  1
  O  O28  1  0.684229  0.014722  0.219141  1
  O  O29  1  0.478255  0.987044  0.475702  1
  O  O30  1  0.478255  0.475702  0.987044  1
  O  O31  1  0.526066  0.311609  0.311609  1
  O  O32  1  0.782207  0.785597  0.512657  1
  O  O33  1  0.213692  0.991851  0.689215  1
  O  O34  1  0.213692  0.689215  0.991851  1
  O  O35  1  0.782207  0.512657  0.785597  1
  O  O36  1  0.305147  0.516090  0.303454  1
  O  O37  1  0.305147  0.303454  0.516090  1
  O  O38  1  0.010472  0.675449  0.207727  1
  O  O39  1  0.010472  0.207727  0.675449  1
  O  O40  1  0.998717  0.504561  0.504561  1
  O  O41  1  0.486698  0.786260  0.786260  1
