# generated using pymatgen
data_Li2Sn2(SO4)3
_symmetry_space_group_name_H-M   'P 1'
_cell_length_a   9.20909919
_cell_length_b   9.36440575
_cell_length_c   26.61449952
_cell_angle_alpha   90.00000000
_cell_angle_beta   90.00000000
_cell_angle_gamma   90.00000000
_symmetry_Int_Tables_number   1
_chemical_formula_structural   Li2Sn2(SO4)3
_chemical_formula_sum   'Li16 Sn16 S24 O96'
_cell_volume   2295.17432729
_cell_formula_units_Z   8
loop_
 _symmetry_equiv_pos_site_id
 _symmetry_equiv_pos_as_xyz
  1  'x, y, z'
loop_
 _atom_site_type_symbol
 _atom_site_label
 _atom_site_symmetry_multiplicity
 _atom_site_fract_x
 _atom_site_fract_y
 _atom_site_fract_z
 _atom_site_occupancy
  Li  Li0  1  0.044900  0.620878  0.289407  1
  Li  Li1  1  0.044900  0.879122  0.789407  1
  Li  Li2  1  0.127771  0.925617  0.012158  1
  Li  Li3  1  0.127771  0.574383  0.512158  1
  Li  Li4  1  0.372229  0.074383  0.512158  1
  Li  Li5  1  0.372229  0.425617  0.012158  1
  Li  Li6  1  0.455100  0.120878  0.289407  1
  Li  Li7  1  0.455100  0.379122  0.789407  1
  Li  Li8  1  0.544900  0.620878  0.210593  1
  Li  Li9  1  0.544900  0.879122  0.710593  1
  Li  Li10  1  0.627771  0.574383  0.987842  1
  Li  Li11  1  0.627771  0.925617  0.487842  1
  Li  Li12  1  0.872229  0.425617  0.487842  1
  Li  Li13  1  0.872229  0.074383  0.987842  1
  Li  Li14  1  0.955100  0.120878  0.210593  1
  Li  Li15  1  0.955100  0.379122  0.710593  1
  Sn  Sn16  1  0.000017  0.407531  0.070055  1
  Sn  Sn17  1  0.000017  0.092469  0.570055  1
  Sn  Sn18  1  0.997407  0.785894  0.173673  1
  Sn  Sn19  1  0.997407  0.714106  0.673673  1
  Sn  Sn20  1  0.502593  0.285894  0.173673  1
  Sn  Sn21  1  0.502593  0.214106  0.673673  1
  Sn  Sn22  1  0.499983  0.592469  0.570055  1
  Sn  Sn23  1  0.499983  0.907531  0.070055  1
  Sn  Sn24  1  0.500017  0.407531  0.429945  1
  Sn  Sn25  1  0.500017  0.092469  0.929945  1
  Sn  Sn26  1  0.497407  0.714106  0.826327  1
  Sn  Sn27  1  0.497407  0.785894  0.326327  1
  Sn  Sn28  1  0.002593  0.285894  0.326327  1
  Sn  Sn29  1  0.002593  0.214106  0.826327  1
  Sn  Sn30  1  -0.000017  0.907531  0.429945  1
  Sn  Sn31  1  -0.000017  0.592469  0.929945  1
  S  S32  1  0.147800  0.942660  0.293062  1
  S  S33  1  0.147800  0.557340  0.793062  1
  S  S34  1  0.154264  0.261052  0.456898  1
  S  S35  1  0.154264  0.238948  0.956898  1
  S  S36  1  0.175376  0.086964  0.113437  1
  S  S37  1  0.175376  0.413036  0.613437  1
  S  S38  1  0.324624  0.586964  0.113437  1
  S  S39  1  0.324624  0.913036  0.613437  1
  S  S40  1  0.345736  0.761052  0.456898  1
  S  S41  1  0.345736  0.738948  0.956898  1
  S  S42  1  0.352200  0.442660  0.293062  1
  S  S43  1  0.352200  0.057340  0.793062  1
  S  S44  1  0.647800  0.557340  0.706938  1
  S  S45  1  0.647800  0.942660  0.206938  1
  S  S46  1  0.654264  0.261052  0.043102  1
  S  S47  1  0.654264  0.238948  0.543102  1
  S  S48  1  0.675376  0.086964  0.386563  1
  S  S49  1  0.675376  0.413036  0.886563  1
  S  S50  1  0.824624  0.586964  0.386563  1
  S  S51  1  0.824624  0.913036  0.886563  1
  S  S52  1  0.845736  0.761052  0.043102  1
  S  S53  1  0.845736  0.738948  0.543102  1
  S  S54  1  0.852200  0.442660  0.206938  1
  S  S55  1  0.852200  0.057340  0.706938  1
  O  O56  1  0.083789  0.398541  0.470532  1
  O  O57  1  0.083789  0.101459  0.970532  1
  O  O58  1  0.072065  0.066035  0.269111  1
  O  O59  1  0.072065  0.433965  0.769111  1
  O  O60  1  0.081319  0.138956  0.483694  1
  O  O61  1  0.081319  0.361044  0.983694  1
  O  O62  1  0.098031  0.927048  0.345556  1
  O  O63  1  0.098031  0.572952  0.845556  1
  O  O64  1  0.082098  0.183550  0.082796  1
  O  O65  1  0.082098  0.316450  0.582796  1
  O  O66  1  0.115421  0.808142  0.264557  1
  O  O67  1  0.115421  0.691858  0.764557  1
  O  O68  1  0.085565  0.030254  0.156216  1
  O  O69  1  0.085565  0.469746  0.656216  1
  O  O70  1  0.146852  0.236819  0.401949  1
  O  O71  1  0.146852  0.263181  0.901949  1
  O  O72  1  0.191952  0.469245  0.292097  1
  O  O73  1  0.191952  0.030755  0.792097  1
  O  O74  1  0.196278  0.662445  0.133519  1
  O  O75  1  0.196278  0.837555  0.633519  1
  O  O76  1  0.190158  0.760297  0.473859  1
  O  O77  1  0.190158  0.739703  0.973859  1
  O  O78  1  0.277684  0.033549  0.580229  1
  O  O79  1  0.277684  0.466451  0.080229  1
  O  O80  1  0.222316  0.533549  0.580229  1
  O  O81  1  0.222316  0.966451  0.080229  1
  O  O82  1  0.309842  0.239703  0.973859  1
  O  O83  1  0.309842  0.260297  0.473859  1
  O  O84  1  0.303722  0.162445  0.133519  1
  O  O85  1  0.303722  0.337555  0.633519  1
  O  O86  1  0.308048  0.969245  0.292097  1
  O  O87  1  0.308048  0.530755  0.792097  1
  O  O88  1  0.353148  0.736819  0.401949  1
  O  O89  1  0.353148  0.763181  0.901949  1
  O  O90  1  0.414435  0.969746  0.656216  1
  O  O91  1  0.414435  0.530254  0.156216  1
  O  O92  1  0.384579  0.308142  0.264557  1
  O  O93  1  0.384579  0.191858  0.764557  1
  O  O94  1  0.417902  0.683550  0.082796  1
  O  O95  1  0.417902  0.816450  0.582796  1
  O  O96  1  0.401969  0.072952  0.845556  1
  O  O97  1  0.401969  0.427048  0.345556  1
  O  O98  1  0.418681  0.861044  0.983694  1
  O  O99  1  0.418681  0.638956  0.483694  1
  O  O100  1  0.427935  0.566035  0.269111  1
  O  O101  1  0.427935  0.933965  0.769111  1
  O  O102  1  0.416211  0.601459  0.970532  1
  O  O103  1  0.416211  0.898541  0.470532  1
  O  O104  1  0.583789  0.398541  0.029468  1
  O  O105  1  0.583789  0.101459  0.529468  1
  O  O106  1  0.572065  0.066035  0.230889  1
  O  O107  1  0.572065  0.433965  0.730889  1
  O  O108  1  0.581319  0.138956  0.016306  1
  O  O109  1  0.581319  0.361044  0.516306  1
  O  O110  1  0.598031  0.572952  0.654444  1
  O  O111  1  0.598031  0.927048  0.154444  1
  O  O112  1  0.582098  0.183550  0.417204  1
  O  O113  1  0.582098  0.316450  0.917204  1
  O  O114  1  0.615421  0.808142  0.235443  1
  O  O115  1  0.615421  0.691858  0.735443  1
  O  O116  1  0.585565  0.030254  0.343784  1
  O  O117  1  0.585565  0.469746  0.843784  1
  O  O118  1  0.646852  0.236819  0.098051  1
  O  O119  1  0.646852  0.263181  0.598051  1
  O  O120  1  0.691952  0.469245  0.207903  1
  O  O121  1  0.691952  0.030755  0.707903  1
  O  O122  1  0.696278  0.662445  0.366481  1
  O  O123  1  0.696278  0.837555  0.866481  1
  O  O124  1  0.690158  0.760297  0.026141  1
  O  O125  1  0.690158  0.739703  0.526141  1
  O  O126  1  0.777684  0.466451  0.419771  1
  O  O127  1  0.777684  0.033549  0.919771  1
  O  O128  1  0.722316  0.966451  0.419771  1
  O  O129  1  0.722316  0.533549  0.919771  1
  O  O130  1  0.809842  0.260297  0.026141  1
  O  O131  1  0.809842  0.239703  0.526141  1
  O  O132  1  0.803722  0.162445  0.366481  1
  O  O133  1  0.803722  0.337555  0.866481  1
  O  O134  1  0.808048  0.530755  0.707903  1
  O  O135  1  0.808048  0.969245  0.207903  1
  O  O136  1  0.853148  0.736819  0.098051  1
  O  O137  1  0.853148  0.763181  0.598051  1
  O  O138  1  0.914435  0.530254  0.343784  1
  O  O139  1  0.914435  0.969746  0.843784  1
  O  O140  1  0.884579  0.308142  0.235443  1
  O  O141  1  0.884579  0.191858  0.735443  1
  O  O142  1  0.917902  0.683550  0.417204  1
  O  O143  1  0.917902  0.816450  0.917204  1
  O  O144  1  0.901969  0.427048  0.154444  1
  O  O145  1  0.901969  0.072952  0.654444  1
  O  O146  1  0.918681  0.638956  0.016306  1
  O  O147  1  0.918681  0.861044  0.516306  1
  O  O148  1  0.927935  0.566035  0.230889  1
  O  O149  1  0.927935  0.933965  0.730889  1
  O  O150  1  0.916211  0.601459  0.529468  1
  O  O151  1  0.916211  0.898541  0.029468  1
