# generated using pymatgen
data_Li4Mn2OF7
_symmetry_space_group_name_H-M   'P 1'
_cell_length_a   5.97378407
_cell_length_b   5.99329912
_cell_length_c   6.23724236
_cell_angle_alpha   120.60026341
_cell_angle_beta   88.82544889
_cell_angle_gamma   61.39992298
_symmetry_Int_Tables_number   1
_chemical_formula_structural   Li4Mn2OF7
_chemical_formula_sum   'Li4 Mn2 O1 F7'
_cell_volume   158.11159990
_cell_formula_units_Z   1
loop_
 _symmetry_equiv_pos_site_id
 _symmetry_equiv_pos_as_xyz
  1  'x, y, z'
loop_
 _atom_site_type_symbol
 _atom_site_label
 _atom_site_symmetry_multiplicity
 _atom_site_fract_x
 _atom_site_fract_y
 _atom_site_fract_z
 _atom_site_occupancy
  Li  Li0  1  0.004006  0.992476  0.494630  1
  Li  Li1  1  0.513810  0.981427  0.493434  1
  Li  Li2  1  0.106501  0.249347  0.137435  1
  Li  Li3  1  0.875481  0.770620  0.874663  1
  Mn  Mn4  1  0.510311  0.499779  0.490840  1
  Mn  Mn5  1  0.512968  0.500198  0.007526  1
  O  O6  1  0.708911  0.505700  0.271374  1
  F  F7  1  0.744301  0.007993  0.728509  1
  F  F8  1  0.736145  0.027248  0.276697  1
  F  F9  1  0.283883  0.495221  0.732984  1
  F  F10  1  0.754709  0.490184  0.738841  1
  F  F11  1  0.240197  0.513619  0.261647  1
  F  F12  1  0.259531  0.972100  0.726492  1
  F  F13  1  0.249248  0.994088  0.264927  1
