# generated using pymatgen
data_Li2Mn(PO4)2
_symmetry_space_group_name_H-M   'P 1'
_cell_length_a   9.08316259
_cell_length_b   8.95602735
_cell_length_c   13.43648159
_cell_angle_alpha   90.00000000
_cell_angle_beta   90.00000000
_cell_angle_gamma   90.00000000
_symmetry_Int_Tables_number   1
_chemical_formula_structural   Li2Mn(PO4)2
_chemical_formula_sum   'Li16 Mn8 P16 O64'
_cell_volume   1093.04504736
_cell_formula_units_Z   8
loop_
 _symmetry_equiv_pos_site_id
 _symmetry_equiv_pos_as_xyz
  1  'x, y, z'
loop_
 _atom_site_type_symbol
 _atom_site_label
 _atom_site_symmetry_multiplicity
 _atom_site_fract_x
 _atom_site_fract_y
 _atom_site_fract_z
 _atom_site_occupancy
  Li  Li0  1  0.041343  0.215637  0.372997  1
  Li  Li1  1  0.041343  0.284363  0.872997  1
  Li  Li2  1  0.226341  0.954367  0.373423  1
  Li  Li3  1  0.226341  0.545633  0.873423  1
  Li  Li4  1  0.273659  0.045633  0.873423  1
  Li  Li5  1  0.273659  0.454367  0.373423  1
  Li  Li6  1  0.458657  0.715637  0.372997  1
  Li  Li7  1  0.458657  0.784363  0.872997  1
  Li  Li8  1  0.541343  0.215637  0.127003  1
  Li  Li9  1  0.541343  0.284363  0.627003  1
  Li  Li10  1  0.726341  0.545633  0.626577  1
  Li  Li11  1  0.726341  0.954367  0.126577  1
  Li  Li12  1  0.773659  0.045633  0.626577  1
  Li  Li13  1  0.773659  0.454367  0.126577  1
  Li  Li14  1  0.958657  0.784363  0.627003  1
  Li  Li15  1  0.958657  0.715637  0.127003  1
  Mn  Mn16  1  0.139653  0.104554  0.123865  1
  Mn  Mn17  1  0.139653  0.395446  0.623865  1
  Mn  Mn18  1  0.360347  0.895446  0.623865  1
  Mn  Mn19  1  0.360347  0.604554  0.123865  1
  Mn  Mn20  1  0.639653  0.104554  0.376135  1
  Mn  Mn21  1  0.639653  0.395446  0.876135  1
  Mn  Mn22  1  0.860347  0.604554  0.376135  1
  Mn  Mn23  1  0.860347  0.895446  0.876135  1
  P  P24  1  0.073487  0.065483  0.719565  1
  P  P25  1  0.073487  0.434517  0.219565  1
  P  P26  1  0.159918  0.813592  0.989655  1
  P  P27  1  0.159918  0.686408  0.489655  1
  P  P28  1  0.340082  0.186408  0.489655  1
  P  P29  1  0.340082  0.313592  0.989655  1
  P  P30  1  0.426513  0.565483  0.719565  1
  P  P31  1  0.426513  0.934517  0.219565  1
  P  P32  1  0.573487  0.434517  0.280435  1
  P  P33  1  0.573487  0.065483  0.780435  1
  P  P34  1  0.659918  0.686408  0.010345  1
  P  P35  1  0.659918  0.813592  0.510345  1
  P  P36  1  0.840082  0.186408  0.010345  1
  P  P37  1  0.840082  0.313592  0.510345  1
  P  P38  1  0.926513  0.565483  0.780435  1
  P  P39  1  0.926513  0.934517  0.280435  1
  O  O40  1  0.990330  0.701980  0.474246  1
  O  O41  1  0.990330  0.798020  0.974246  1
  O  O42  1  0.023755  0.000633  0.358954  1
  O  O43  1  0.023755  0.499367  0.858954  1
  O  O44  1  0.021110  0.468217  0.330530  1
  O  O45  1  0.021110  0.031783  0.830530  1
  O  O46  1  0.078372  0.258948  0.220565  1
  O  O47  1  0.078372  0.241052  0.720565  1
  O  O48  1  0.189545  0.723574  0.087197  1
  O  O49  1  0.189545  0.776426  0.587197  1
  O  O50  1  0.201698  0.979086  0.013375  1
  O  O51  1  0.201698  0.520914  0.513375  1
  O  O52  1  0.234714  0.003203  0.718648  1
  O  O53  1  0.234714  0.496797  0.218648  1
  O  O54  1  0.247177  0.735078  0.400009  1
  O  O55  1  0.247177  0.764922  0.900009  1
  O  O56  1  0.252823  0.235078  0.400009  1
  O  O57  1  0.252823  0.264922  0.900009  1
  O  O58  1  0.265286  0.996797  0.218648  1
  O  O59  1  0.265286  0.503203  0.718648  1
  O  O60  1  0.298302  0.020914  0.513375  1
  O  O61  1  0.298302  0.479086  0.013375  1
  O  O62  1  0.310455  0.223574  0.087197  1
  O  O63  1  0.310455  0.276426  0.587197  1
  O  O64  1  0.421628  0.741052  0.720565  1
  O  O65  1  0.421628  0.758948  0.220565  1
  O  O66  1  0.478890  0.531783  0.830530  1
  O  O67  1  0.478890  0.968217  0.330530  1
  O  O68  1  0.476245  0.500633  0.358954  1
  O  O69  1  0.476245  0.999367  0.858954  1
  O  O70  1  0.509670  0.201980  0.474246  1
  O  O71  1  0.509670  0.298020  0.974246  1
  O  O72  1  0.490330  0.701980  0.025754  1
  O  O73  1  0.490330  0.798020  0.525754  1
  O  O74  1  0.523755  0.499367  0.641046  1
  O  O75  1  0.523755  0.000633  0.141046  1
  O  O76  1  0.521110  0.468217  0.169470  1
  O  O77  1  0.521110  0.031783  0.669470  1
  O  O78  1  0.578372  0.241052  0.779435  1
  O  O79  1  0.578372  0.258948  0.279435  1
  O  O80  1  0.689545  0.723574  0.412803  1
  O  O81  1  0.689545  0.776426  0.912803  1
  O  O82  1  0.701698  0.520914  0.986625  1
  O  O83  1  0.701698  0.979086  0.486625  1
  O  O84  1  0.734714  0.003203  0.781352  1
  O  O85  1  0.734714  0.496797  0.281352  1
  O  O86  1  0.747177  0.735078  0.099991  1
  O  O87  1  0.747177  0.764922  0.599991  1
  O  O88  1  0.752823  0.235078  0.099991  1
  O  O89  1  0.752823  0.264922  0.599991  1
  O  O90  1  0.765286  0.503203  0.781352  1
  O  O91  1  0.765286  0.996797  0.281352  1
  O  O92  1  0.798302  0.020914  0.986625  1
  O  O93  1  0.798302  0.479086  0.486625  1
  O  O94  1  0.810455  0.223574  0.412803  1
  O  O95  1  0.810455  0.276426  0.912803  1
  O  O96  1  0.921628  0.741052  0.779435  1
  O  O97  1  0.921628  0.758948  0.279435  1
  O  O98  1  0.978890  0.531783  0.669470  1
  O  O99  1  0.978890  0.968217  0.169470  1
  O  O100  1  0.976245  0.999367  0.641046  1
  O  O101  1  0.976245  0.500633  0.141046  1
  O  O102  1  0.009670  0.201980  0.025754  1
  O  O103  1  0.009670  0.298020  0.525754  1
