# generated using pymatgen
data_BaY3F11
_symmetry_space_group_name_H-M   'P 1'
_cell_length_a   16.26670543
_cell_length_b   8.68051688
_cell_length_c   4.42929914
_cell_angle_alpha   90.00000000
_cell_angle_beta   90.00000000
_cell_angle_gamma   90.00000000
_symmetry_Int_Tables_number   1
_chemical_formula_structural   BaY3F11
_chemical_formula_sum   'Ba2 Y6 F22'
_cell_volume   625.43214720
_cell_formula_units_Z   2
loop_
 _symmetry_equiv_pos_site_id
 _symmetry_equiv_pos_as_xyz
  1  'x, y, z'
loop_
 _atom_site_type_symbol
 _atom_site_label
 _atom_site_symmetry_multiplicity
 _atom_site_fract_x
 _atom_site_fract_y
 _atom_site_fract_z
 _atom_site_occupancy
  Ba  Ba0  1  0.014784  0.500000  0.000000  1
  Ba  Ba1  1  0.985216  0.000000  0.000000  1
  Y  Y2  1  0.235516  0.748897  0.000000  1
  Y  Y3  1  0.235516  0.251103  0.000000  1
  Y  Y4  1  0.500000  0.250000  0.000000  1
  Y  Y5  1  0.500000  0.750000  0.000000  1
  Y  Y6  1  0.764484  0.248897  0.000000  1
  Y  Y7  1  0.764484  0.751103  0.000000  1
  F  F8  1  0.074846  0.500000  0.500000  1
  F  F9  1  0.101921  0.216542  0.000000  1
  F  F10  1  0.101921  0.783458  0.000000  1
  F  F11  1  0.207471  0.500000  0.000000  1
  F  F12  1  0.240603  0.756669  0.500000  1
  F  F13  1  0.240603  0.243331  0.500000  1
  F  F14  1  0.253674  0.000000  0.000000  1
  F  F15  1  0.368004  0.301072  0.000000  1
  F  F16  1  0.368004  0.698928  0.000000  1
  F  F17  1  0.473551  0.000000  0.000000  1
  F  F18  1  0.500000  0.250000  0.500000  1
  F  F19  1  0.500000  0.750000  0.500000  1
  F  F20  1  0.526449  0.500000  0.000000  1
  F  F21  1  0.631996  0.198928  0.000000  1
  F  F22  1  0.631996  0.801072  0.000000  1
  F  F23  1  0.746326  0.500000  0.000000  1
  F  F24  1  0.759397  0.256669  0.500000  1
  F  F25  1  0.759397  0.743331  0.500000  1
  F  F26  1  0.792529  0.000000  0.000000  1
  F  F27  1  0.898079  0.283458  0.000000  1
  F  F28  1  0.898079  0.716542  0.000000  1
  F  F29  1  0.925154  0.000000  0.500000  1
