# generated using pymatgen
data_Li3Mn4F15
_symmetry_space_group_name_H-M   'P 1'
_cell_length_a   3.94353162
_cell_length_b   17.90613282
_cell_length_c   17.97340226
_cell_angle_alpha   90.00000000
_cell_angle_beta   90.00000000
_cell_angle_gamma   90.00000000
_symmetry_Int_Tables_number   1
_chemical_formula_structural   Li3Mn4F15
_chemical_formula_sum   'Li12 Mn16 F60'
_cell_volume   1269.16306054
_cell_formula_units_Z   4
loop_
 _symmetry_equiv_pos_site_id
 _symmetry_equiv_pos_as_xyz
  1  'x, y, z'
loop_
 _atom_site_type_symbol
 _atom_site_label
 _atom_site_symmetry_multiplicity
 _atom_site_fract_x
 _atom_site_fract_y
 _atom_site_fract_z
 _atom_site_occupancy
  Li  Li0  1  0.000000  0.005354  0.178553  1
  Li  Li1  1  0.000000  0.339202  0.024702  1
  Li  Li2  1  0.000000  0.315912  0.407651  1
  Li  Li3  1  0.000000  0.508970  0.370829  1
  Li  Li4  1  0.000000  0.812048  0.133262  1
  Li  Li5  1  0.000000  0.808116  0.517703  1
  Li  Li6  1  0.500000  0.491030  0.870829  1
  Li  Li7  1  0.500000  0.660798  0.524702  1
  Li  Li8  1  0.500000  0.684088  0.907651  1
  Li  Li9  1  0.500000  0.191884  0.017703  1
  Li  Li10  1  0.500000  0.187952  0.633262  1
  Li  Li11  1  0.500000  0.994646  0.678553  1
  Mn  Mn12  1  0.000000  0.026235  0.823012  1
  Mn  Mn13  1  0.000000  0.963333  0.023500  1
  Mn  Mn14  1  0.000000  0.464699  0.525360  1
  Mn  Mn15  1  0.000000  0.314828  0.674258  1
  Mn  Mn16  1  0.000000  0.239184  0.880099  1
  Mn  Mn17  1  0.000000  0.525046  0.727630  1
  Mn  Mn18  1  0.000000  0.734772  0.667883  1
  Mn  Mn19  1  0.000000  0.814482  0.872178  1
  Mn  Mn20  1  0.500000  0.265228  0.167883  1
  Mn  Mn21  1  0.500000  0.474954  0.227630  1
  Mn  Mn22  1  0.500000  0.685172  0.174258  1
  Mn  Mn23  1  0.500000  0.036667  0.523500  1
  Mn  Mn24  1  0.500000  0.185518  0.372178  1
  Mn  Mn25  1  0.500000  0.535301  0.025360  1
  Mn  Mn26  1  0.500000  0.760816  0.380099  1
  Mn  Mn27  1  0.500000  0.973765  0.323012  1
  F  F28  1  0.000000  0.050085  0.078115  1
  F  F29  1  0.000000  0.270372  0.163217  1
  F  F30  1  0.000000  0.037085  0.518164  1
  F  F31  1  0.000000  0.532730  0.031465  1
  F  F32  1  0.000000  0.197694  0.376748  1
  F  F33  1  0.000000  0.473973  0.234680  1
  F  F34  1  0.000000  0.010681  0.718066  1
  F  F35  1  0.000000  0.696820  0.169896  1
  F  F36  1  0.000000  0.416055  0.424833  1
  F  F37  1  0.000000  0.216309  0.634788  1
  F  F38  1  0.000000  0.913122  0.121774  1
  F  F39  1  0.000000  0.368785  0.570293  1
  F  F40  1  0.000000  0.024786  0.929008  1
  F  F41  1  0.000000  0.142862  0.836791  1
  F  F42  1  0.000000  0.553887  0.473109  1
  F  F43  1  0.000000  0.276684  0.781558  1
  F  F44  1  0.000000  0.765391  0.388158  1
  F  F45  1  0.000000  0.527163  0.622435  1
  F  F46  1  0.000000  0.410425  0.715986  1
  F  F47  1  0.000000  0.204772  0.982535  1
  F  F48  1  0.000000  0.335226  0.919128  1
  F  F49  1  0.000000  0.972652  0.315367  1
  F  F50  1  0.000000  0.693391  0.565885  1
  F  F51  1  0.000000  0.507520  0.831555  1
  F  F52  1  0.000000  0.641545  0.717938  1
  F  F53  1  0.000000  0.826800  0.622247  1
  F  F54  1  0.000000  0.779187  0.764347  1
  F  F55  1  0.000000  0.714546  0.908137  1
  F  F56  1  0.000000  0.910485  0.832689  1
  F  F57  1  0.000000  0.866798  0.977268  1
  F  F58  1  0.500000  0.220813  0.264347  1
  F  F59  1  0.500000  0.285454  0.408137  1
  F  F60  1  0.500000  0.306609  0.065885  1
  F  F61  1  0.500000  0.234609  0.888158  1
  F  F62  1  0.500000  0.086878  0.621774  1
  F  F63  1  0.500000  0.358455  0.217938  1
  F  F64  1  0.500000  0.631215  0.070293  1
  F  F65  1  0.500000  0.664774  0.419128  1
  F  F66  1  0.500000  0.723316  0.281558  1
  F  F67  1  0.500000  0.583945  0.924833  1
  F  F68  1  0.500000  0.089515  0.332689  1
  F  F69  1  0.500000  0.133202  0.477268  1
  F  F70  1  0.500000  0.303180  0.669896  1
  F  F71  1  0.500000  0.446113  0.973109  1
  F  F72  1  0.500000  0.472837  0.122435  1
  F  F73  1  0.500000  0.989319  0.218066  1
  F  F74  1  0.500000  0.027348  0.815367  1
  F  F75  1  0.500000  0.492480  0.331555  1
  F  F76  1  0.500000  0.589575  0.215986  1
  F  F77  1  0.500000  0.467270  0.531465  1
  F  F78  1  0.500000  0.783691  0.134788  1
  F  F79  1  0.500000  0.526027  0.734680  1
  F  F80  1  0.500000  0.795228  0.482535  1
  F  F81  1  0.500000  0.857138  0.336791  1
  F  F82  1  0.500000  0.729628  0.663217  1
  F  F83  1  0.500000  0.949915  0.578115  1
  F  F84  1  0.500000  0.802306  0.876748  1
  F  F85  1  0.500000  0.173200  0.122247  1
  F  F86  1  0.500000  0.975214  0.429008  1
  F  F87  1  0.500000  0.962915  0.018164  1
