# generated using pymatgen
data_LiV4OF11
_symmetry_space_group_name_H-M   'P 1'
_cell_length_a   5.25769185
_cell_length_b   5.52291099
_cell_length_c   9.03582467
_cell_angle_alpha   73.31818214
_cell_angle_beta   89.56694680
_cell_angle_gamma   61.95906867
_symmetry_Int_Tables_number   1
_chemical_formula_structural   LiV4OF11
_chemical_formula_sum   'Li1 V4 O1 F11'
_cell_volume   219.30102369
_cell_formula_units_Z   1
loop_
 _symmetry_equiv_pos_site_id
 _symmetry_equiv_pos_as_xyz
  1  'x, y, z'
loop_
 _atom_site_type_symbol
 _atom_site_label
 _atom_site_symmetry_multiplicity
 _atom_site_fract_x
 _atom_site_fract_y
 _atom_site_fract_z
 _atom_site_occupancy
  Li  Li0  1  0.141871  0.714805  0.370286  1
  V  V1  1  0.248728  0.493578  0.757126  1
  V  V2  1  0.499234  -0.000850  0.501149  1
  V  V3  1  0.760976  0.517345  0.238317  1
  V  V4  1  0.995007  0.987976  0.008464  1
  O  O5  1  0.931286  0.749882  0.183122  1
  F  F6  1  0.069352  0.256581  0.430435  1
  F  F7  1  0.068172  0.252247  0.823047  1
  F  F8  1  0.010581  0.761049  0.865808  1
  F  F9  1  0.474229  0.255243  0.620809  1
  F  F10  1  0.572985  0.256251  0.327549  1
  F  F11  1  0.563463  0.251627  0.930557  1
  F  F12  1  0.433197  0.738732  0.069400  1
  F  F13  1  0.429070  0.743534  0.676617  1
  F  F14  1  0.491549  0.757698  0.377106  1
  F  F15  1  0.001020  0.233609  0.129583  1
  F  F16  1  0.942228  0.743827  0.558256  1
