# generated using pymatgen
data_V2O3F
_symmetry_space_group_name_H-M   'P 1'
_cell_length_a   4.66308330
_cell_length_b   4.66308330
_cell_length_c   15.24241483
_cell_angle_alpha   90.00000000
_cell_angle_beta   90.00000000
_cell_angle_gamma   93.54685196
_symmetry_Int_Tables_number   1
_chemical_formula_structural   V2O3F
_chemical_formula_sum   'V10 O15 F5'
_cell_volume   330.80148779
_cell_formula_units_Z   5
loop_
 _symmetry_equiv_pos_site_id
 _symmetry_equiv_pos_as_xyz
  1  'x, y, z'
loop_
 _atom_site_type_symbol
 _atom_site_label
 _atom_site_symmetry_multiplicity
 _atom_site_fract_x
 _atom_site_fract_y
 _atom_site_fract_z
 _atom_site_occupancy
  V  V0  1  0.000487  0.999513  0.400543  1
  V  V1  1  0.992553  0.007446  0.200000  1
  V  V2  1  0.000487  0.999513  0.999457  1
  V  V3  1  0.016374  0.983626  0.601322  1
  V  V4  1  0.016374  0.983626  0.798678  1
  V  V5  1  0.539527  0.460473  0.100037  1
  V  V6  1  0.462484  0.537516  0.499028  1
  V  V7  1  0.486007  0.513993  0.700000  1
  V  V8  1  0.462484  0.537516  0.900972  1
  V  V9  1  0.539527  0.460473  0.299963  1
  O  O10  1  0.196900  0.803100  0.899539  1
  O  O11  1  0.193814  0.806186  0.700000  1
  O  O12  1  0.196900  0.803100  0.500461  1
  O  O13  1  0.307739  0.307632  0.000296  1
  O  O14  1  0.308831  0.305640  0.200000  1
  O  O15  1  0.307739  0.307632  0.399704  1
  O  O16  1  0.294422  0.301709  0.596660  1
  O  O17  1  0.294422  0.301709  0.803340  1
  O  O18  1  0.692368  0.692261  0.000296  1
  O  O19  1  0.694360  0.691169  0.200000  1
  O  O20  1  0.692368  0.692261  0.399704  1
  O  O21  1  0.698291  0.705578  0.596660  1
  O  O22  1  0.698291  0.705578  0.803340  1
  O  O23  1  0.802600  0.197400  0.099435  1
  O  O24  1  0.802600  0.197400  0.300565  1
  F  F25  1  0.200691  0.799309  0.100444  1
  F  F26  1  0.200691  0.799309  0.299556  1
  F  F27  1  0.800491  0.199509  0.501186  1
  F  F28  1  0.800491  0.199509  0.898814  1
  F  F29  1  0.799687  0.200313  0.700000  1
