# generated using pymatgen
data_Ti17(NO4)6
_symmetry_space_group_name_H-M   'P 1'
_cell_length_a   11.46748927
_cell_length_b   9.67277163
_cell_length_c   10.74096175
_cell_angle_alpha   90.00000000
_cell_angle_beta   69.16935954
_cell_angle_gamma   90.00000000
_symmetry_Int_Tables_number   1
_chemical_formula_structural   Ti17(NO4)6
_chemical_formula_sum   'Ti34 N12 O48'
_cell_volume   1113.53733876
_cell_formula_units_Z   2
loop_
 _symmetry_equiv_pos_site_id
 _symmetry_equiv_pos_as_xyz
  1  'x, y, z'
loop_
 _atom_site_type_symbol
 _atom_site_label
 _atom_site_symmetry_multiplicity
 _atom_site_fract_x
 _atom_site_fract_y
 _atom_site_fract_z
 _atom_site_occupancy
  Ti  Ti0  1  0.021343  0.856110  0.422506  1
  Ti  Ti1  1  0.136792  0.859144  0.077043  1
  Ti  Ti2  1  0.083780  0.196468  0.248255  1
  Ti  Ti3  1  0.191095  0.359826  0.425365  1
  Ti  Ti4  1  0.082263  0.302030  0.750113  1
  Ti  Ti5  1  0.142238  0.640174  0.574635  1
  Ti  Ti6  1  0.019745  0.637419  0.942758  1
  Ti  Ti7  1  0.313588  0.362581  0.057242  1
  Ti  Ti8  1  0.251070  0.697970  0.249887  1
  Ti  Ti9  1  0.311991  0.143890  0.577494  1
  Ti  Ti10  1  0.196541  0.140856  0.922957  1
  Ti  Ti11  1  0.416667  0.197568  0.250000  1
  Ti  Ti12  1  0.249553  0.803532  0.751745  1
  Ti  Ti13  1  0.356606  0.864246  0.430772  1
  Ti  Ti14  1  0.476728  0.864246  0.069228  1
  Ti  Ti15  1  0.476439  0.636894  0.570377  1
  Ti  Ti16  1  0.356894  0.636894  0.929623  1
  Ti  Ti17  1  0.582263  0.697970  0.250113  1
  Ti  Ti18  1  0.642238  0.359826  0.074635  1
  Ti  Ti19  1  0.519745  0.362581  0.442758  1
  Ti  Ti20  1  0.521343  0.143890  0.922506  1
  Ti  Ti21  1  0.636792  0.140856  0.577043  1
  Ti  Ti22  1  0.583780  0.803532  0.748255  1
  Ti  Ti23  1  0.696541  0.859144  0.422957  1
  Ti  Ti24  1  0.811991  0.856110  0.077494  1
  Ti  Ti25  1  0.749553  0.196468  0.251745  1
  Ti  Ti26  1  0.751070  0.302030  0.749887  1
  Ti  Ti27  1  0.976439  0.363106  0.070377  1
  Ti  Ti28  1  0.813588  0.637419  0.557242  1
  Ti  Ti29  1  0.691095  0.640174  0.925365  1
  Ti  Ti30  1  0.856894  0.363106  0.429623  1
  Ti  Ti31  1  0.916667  0.802432  0.750000  1
  Ti  Ti32  1  0.976728  0.135754  0.569228  1
  Ti  Ti33  1  0.856606  0.135754  0.930772  1
  N  N34  1  0.094878  0.779056  0.250151  1
  N  N35  1  0.250643  0.269117  0.249452  1
  N  N36  1  0.082690  0.730883  0.750548  1
  N  N37  1  0.238455  0.220944  0.749849  1
  N  N38  1  0.416667  0.772742  0.250000  1
  N  N39  1  0.416667  0.732858  0.750000  1
  N  N40  1  0.582690  0.269117  0.250548  1
  N  N41  1  0.594878  0.220944  0.750151  1
  N  N42  1  0.738455  0.779056  0.249849  1
  N  N43  1  0.916667  0.267142  0.250000  1
  N  N44  1  0.750643  0.730883  0.749452  1
  N  N45  1  0.916667  0.227258  0.750000  1
  O  O46  1  0.123060  0.047762  0.120437  1
  O  O47  1  0.145815  0.310581  0.062778  1
  O  O48  1  0.038837  0.048192  0.382472  1
  O  O49  1  0.022374  0.311240  0.433901  1
  O  O50  1  0.144197  0.190108  0.562821  1
  O  O51  1  0.040870  0.451140  0.877455  1
  O  O52  1  0.292463  0.548860  0.122545  1
  O  O53  1  0.020147  0.186998  0.934241  1
  O  O54  1  0.127070  0.452543  0.618013  1
  O  O55  1  0.206263  0.547457  0.381987  1
  O  O56  1  0.313186  0.813002  0.065759  1
  O  O57  1  0.189136  0.809892  0.437179  1
  O  O58  1  0.479054  0.310883  0.063002  1
  O  O59  1  0.294496  0.951808  0.617528  1
  O  O60  1  0.462838  0.047740  0.120699  1
  O  O61  1  0.370496  0.047740  0.379301  1
  O  O62  1  0.354280  0.310883  0.436998  1
  O  O63  1  0.310960  0.688760  0.566099  1
  O  O64  1  0.187519  0.689419  0.937222  1
  O  O65  1  0.210273  0.952238  0.879563  1
  O  O66  1  0.644197  0.809892  0.062821  1
  O  O67  1  0.483286  0.176621  0.550217  1
  O  O68  1  0.369563  0.456743  0.891102  1
  O  O69  1  0.350047  0.176621  0.949783  1
  O  O70  1  0.463771  0.456743  0.608898  1
  O  O71  1  0.627070  0.547457  0.118013  1
  O  O72  1  0.540870  0.548860  0.377455  1
  O  O73  1  0.520147  0.813002  0.434241  1
  O  O74  1  0.794496  0.048192  0.117528  1
  O  O75  1  0.645815  0.689419  0.562778  1
  O  O76  1  0.522374  0.688760  0.933901  1
  O  O77  1  0.623060  0.952238  0.620437  1
  O  O78  1  0.538837  0.951808  0.882472  1
  O  O79  1  0.710273  0.047762  0.379563  1
  O  O80  1  0.810960  0.311240  0.066099  1
  O  O81  1  0.687519  0.310581  0.437222  1
  O  O82  1  0.813186  0.186998  0.565759  1
  O  O83  1  0.706263  0.452543  0.881987  1
  O  O84  1  0.963771  0.543257  0.108898  1
  O  O85  1  0.850047  0.823379  0.449783  1
  O  O86  1  0.983286  0.823379  0.050217  1
  O  O87  1  0.689136  0.190108  0.937179  1
  O  O88  1  0.792463  0.451140  0.622545  1
  O  O89  1  0.869563  0.543257  0.391102  1
  O  O90  1  0.854280  0.689117  0.936998  1
  O  O91  1  0.962838  0.952260  0.620699  1
  O  O92  1  0.979054  0.689117  0.563002  1
  O  O93  1  0.870496  0.952260  0.879301  1
