# generated using pymatgen
data_Li2Cu2Si2O7
_symmetry_space_group_name_H-M   'P 1'
_cell_length_a   8.07437323
_cell_length_b   13.15279945
_cell_length_c   5.49347801
_cell_angle_alpha   90.00000000
_cell_angle_beta   89.07880202
_cell_angle_gamma   90.00000000
_symmetry_Int_Tables_number   1
_chemical_formula_structural   Li2Cu2Si2O7
_chemical_formula_sum   'Li8 Cu8 Si8 O28'
_cell_volume   583.33532169
_cell_formula_units_Z   4
loop_
 _symmetry_equiv_pos_site_id
 _symmetry_equiv_pos_as_xyz
  1  'x, y, z'
loop_
 _atom_site_type_symbol
 _atom_site_label
 _atom_site_symmetry_multiplicity
 _atom_site_fract_x
 _atom_site_fract_y
 _atom_site_fract_z
 _atom_site_occupancy
  Li  Li0  1  0.120620  0.349730  0.155488  1
  Li  Li1  1  0.179825  0.743463  0.790708  1
  Li  Li2  1  0.320175  0.243463  0.709292  1
  Li  Li3  1  0.379380  0.849730  0.344512  1
  Li  Li4  1  0.620620  0.150270  0.655488  1
  Li  Li5  1  0.679825  0.756537  0.290708  1
  Li  Li6  1  0.820175  0.256537  0.209292  1
  Li  Li7  1  0.879380  0.650270  0.844512  1
  Cu  Cu8  1  0.100429  0.082054  0.346644  1
  Cu  Cu9  1  0.184529  0.488784  0.645379  1
  Cu  Cu10  1  0.315471  0.988784  0.854621  1
  Cu  Cu11  1  0.399571  0.582054  0.153356  1
  Cu  Cu12  1  0.600429  0.417946  0.846644  1
  Cu  Cu13  1  0.684529  0.011216  0.145379  1
  Cu  Cu14  1  0.815471  0.511216  0.354621  1
  Cu  Cu15  1  0.899571  0.917946  0.653356  1
  Si  Si16  1  0.039066  0.882944  0.171354  1
  Si  Si17  1  0.053855  0.669046  0.312569  1
  Si  Si18  1  0.446145  0.169046  0.187431  1
  Si  Si19  1  0.460934  0.382944  0.328646  1
  Si  Si20  1  0.539066  0.617056  0.671354  1
  Si  Si21  1  0.553855  0.830954  0.812569  1
  Si  Si22  1  0.946145  0.330954  0.687431  1
  Si  Si23  1  0.960934  0.117056  0.828646  1
  O  O24  1  0.045775  0.792971  0.383564  1
  O  O25  1  0.026531  0.169284  0.076481  1
  O  O26  1  0.080620  0.026946  0.702452  1
  O  O27  1  0.089219  0.620012  0.581165  1
  O  O28  1  0.130887  0.360490  0.794325  1
  O  O29  1  0.192705  0.653973  0.098700  1
  O  O30  1  0.225456  0.931328  0.159986  1
  O  O31  1  0.274544  0.431328  0.340014  1
  O  O32  1  0.307295  0.153973  0.401300  1
  O  O33  1  0.369113  0.860490  0.705675  1
  O  O34  1  0.410781  0.120012  0.918835  1
  O  O35  1  0.419380  0.526946  0.797548  1
  O  O36  1  0.473469  0.669284  0.423519  1
  O  O37  1  0.454225  0.292971  0.116436  1
  O  O38  1  0.545775  0.707029  0.883564  1
  O  O39  1  0.526531  0.330716  0.576481  1
  O  O40  1  0.580620  0.473054  0.202452  1
  O  O41  1  0.589219  0.879988  0.081165  1
  O  O42  1  0.630887  0.139510  0.294325  1
  O  O43  1  0.692705  0.846027  0.598700  1
  O  O44  1  0.725456  0.568672  0.659986  1
  O  O45  1  0.774544  0.068672  0.840014  1
  O  O46  1  0.807295  0.346027  0.901300  1
  O  O47  1  0.869113  0.639510  0.205675  1
  O  O48  1  0.910781  0.379988  0.418835  1
  O  O49  1  0.919380  0.973054  0.297548  1
  O  O50  1  0.973469  0.830716  0.923519  1
  O  O51  1  0.954225  0.207029  0.616436  1
