# generated using pymatgen
data_LiFePHO5
_symmetry_space_group_name_H-M   'P 1'
_cell_length_a   5.17902542
_cell_length_b   10.85089039
_cell_length_c   7.39502627
_cell_angle_alpha   106.31173748
_cell_angle_beta   109.46248753
_cell_angle_gamma   97.77563366
_symmetry_Int_Tables_number   1
_chemical_formula_structural   LiFePHO5
_chemical_formula_sum   'Li4 Fe4 P4 H4 O20'
_cell_volume   363.83282074
_cell_formula_units_Z   4
loop_
 _symmetry_equiv_pos_site_id
 _symmetry_equiv_pos_as_xyz
  1  'x, y, z'
loop_
 _atom_site_type_symbol
 _atom_site_label
 _atom_site_symmetry_multiplicity
 _atom_site_fract_x
 _atom_site_fract_y
 _atom_site_fract_z
 _atom_site_occupancy
  Li  Li0  1  0.252430  0.800596  0.196448  1
  Li  Li1  1  0.257482  0.302547  0.223358  1
  Li  Li2  1  0.748219  0.699942  0.808078  1
  Li  Li3  1  0.750132  0.199631  0.805939  1
  Fe  Fe4  1  0.999894  0.501150  0.503604  1
  Fe  Fe5  1  0.001241  0.499322  0.002222  1
  Fe  Fe6  1  0.000542  0.000798  0.002736  1
  Fe  Fe7  1  0.000789  0.999846  0.502137  1
  P  P8  1  0.324933  0.819840  0.770494  1
  P  P9  1  0.324807  0.319165  0.767841  1
  P  P10  1  0.676389  0.680878  0.234657  1
  P  P11  1  0.675476  0.180881  0.236085  1
  H  H12  1  0.356411  0.534022  0.346060  1
  H  H13  1  0.643927  0.967541  0.659437  1
  H  H14  1  0.358245  0.031429  0.344660  1
  H  H15  1  0.643733  0.469089  0.661345  1
  O  O16  1  0.115336  0.831231  0.879529  1
  O  O17  1  0.112439  0.331184  0.873875  1
  O  O18  1  0.160364  0.975533  0.279078  1
  O  O19  1  0.271962  0.895159  0.617323  1
  O  O20  1  0.308622  0.671955  0.665423  1
  O  O21  1  0.160102  0.476470  0.280251  1
  O  O22  1  0.274309  0.394348  0.613577  1
  O  O23  1  0.308958  0.171471  0.663171  1
  O  O24  1  0.634701  0.876639  0.929917  1
  O  O25  1  0.366350  0.623986  0.075146  1
  O  O26  1  0.633868  0.376020  0.928290  1
  O  O27  1  0.366159  0.125056  0.076967  1
  O  O28  1  0.692616  0.828634  0.340098  1
  O  O29  1  0.728742  0.605331  0.388081  1
  O  O30  1  0.840500  0.525360  0.726159  1
  O  O31  1  0.693197  0.328687  0.343559  1
  O  O32  1  0.727789  0.104393  0.387810  1
  O  O33  1  0.840842  0.024354  0.725549  1
  O  O34  1  0.886212  0.669273  0.126000  1
  O  O35  1  0.886284  0.170188  0.128095  1
