# generated using pymatgen
data_Li3V3P8O29
_symmetry_space_group_name_H-M   'P 1'
_cell_length_a   9.79065594
_cell_length_b   9.76463585
_cell_length_c   14.49893156
_cell_angle_alpha   90.07868058
_cell_angle_beta   90.33491529
_cell_angle_gamma   60.02405989
_symmetry_Int_Tables_number   1
_chemical_formula_structural   Li3V3P8O29
_chemical_formula_sum   'Li6 V6 P16 O58'
_cell_volume   1200.69195594
_cell_formula_units_Z   2
loop_
 _symmetry_equiv_pos_site_id
 _symmetry_equiv_pos_as_xyz
  1  'x, y, z'
loop_
 _atom_site_type_symbol
 _atom_site_label
 _atom_site_symmetry_multiplicity
 _atom_site_fract_x
 _atom_site_fract_y
 _atom_site_fract_z
 _atom_site_occupancy
  Li  Li0  1  0.304874  0.774819  0.559829  1
  Li  Li1  1  0.302815  0.920025  0.054915  1
  Li  Li2  1  0.696970  0.214152  0.453644  1
  Li  Li3  1  0.782707  0.295233  0.048823  1
  Li  Li4  1  0.915422  0.311635  0.563691  1
  Li  Li5  1  0.919337  0.779637  0.050792  1
  V  V6  1  0.999197  0.567220  0.253696  1
  V  V7  1  0.434623  0.002183  0.251864  1
  V  V8  1  0.429152  0.568826  0.753502  1
  V  V9  1  0.565821  0.435355  0.246294  1
  V  V10  1  0.569566  0.995763  0.745539  1
  V  V11  1  0.003327  0.434435  0.749663  1
  P  P12  1  0.085145  0.229002  0.166263  1
  P  P13  1  0.227233  0.085775  0.663088  1
  P  P14  1  0.085041  0.688029  0.659149  1
  P  P15  1  0.337169  0.334161  0.365237  1
  P  P16  1  0.336789  0.328408  0.865602  1
  P  P17  1  0.224745  0.687018  0.165239  1
  P  P18  1  0.321378  0.768686  0.341618  1
  P  P19  1  0.685349  0.084344  0.159190  1
  P  P20  1  0.318605  0.915164  0.841828  1
  P  P21  1  0.678848  0.231916  0.662624  1
  P  P22  1  0.771745  0.320573  0.837879  1
  P  P23  1  0.667380  0.667240  0.132953  1
  P  P24  1  0.662989  0.663104  0.630349  1
  P  P25  1  0.910452  0.318969  0.343835  1
  P  P26  1  0.771735  0.915709  0.339965  1
  P  P27  1  0.912009  0.771277  0.837453  1
  O  O28  1  0.977522  0.257520  0.436259  1
  O  O29  1  0.084002  0.257507  0.661036  1
  O  O30  1  0.201839  0.017761  0.759655  1
  O  O31  1  0.251607  0.984026  0.932812  1
  O  O32  1  0.091604  0.383652  0.181540  1
  O  O33  1  0.255503  0.085354  0.163737  1
  O  O34  1  0.183534  0.336228  0.821557  1
  O  O35  1  0.092539  0.525817  0.677520  1
  O  O36  1  0.985935  0.761796  0.928392  1
  O  O37  1  0.080117  0.661992  0.163262  1
  O  O38  1  0.337112  0.185432  0.320923  1
  O  O39  1  0.185635  0.481742  0.323279  1
  O  O40  1  0.381946  0.091292  0.674996  1
  O  O41  1  0.345559  0.328941  0.467077  1
  O  O42  1  0.333815  0.332915  0.967599  1
  O  O43  1  0.524906  0.092380  0.177020  1
  O  O44  1  0.338247  0.478503  0.822967  1
  O  O45  1  0.479558  0.181621  0.821082  1
  O  O46  1  0.257510  0.659154  0.664301  1
  O  O47  1  0.201805  0.780526  0.261480  1
  O  O48  1  0.232719  0.776926  0.085571  1
  O  O49  1  0.264193  0.759256  0.433465  1
  O  O50  1  0.379081  0.523194  0.178822  1
  O  O51  1  0.486241  0.333296  0.322631  1
  O  O52  1  0.655181  0.087207  0.665056  1
  O  O53  1  0.339594  0.746993  0.827850  1
  O  O54  1  0.519864  0.383880  0.678143  1
  O  O55  1  0.226368  0.990878  0.583545  1
  O  O56  1  0.765734  0.002276  0.424529  1
  O  O57  1  0.481233  0.617827  0.315989  1
  O  O58  1  0.659613  0.255738  0.160425  1
  O  O59  1  0.789206  0.004483  0.250982  1
  O  O60  1  0.341474  0.914815  0.324940  1
  O  O61  1  0.513683  0.664272  0.672255  1
  O  O62  1  0.618273  0.481377  0.819812  1
  O  O63  1  0.768643  0.247272  0.926509  1
  O  O64  1  0.759841  0.239634  0.576581  1
  O  O65  1  0.787947  0.209870  0.751189  1
  O  O66  1  0.744182  0.335779  0.331654  1
  O  O67  1  0.518148  0.816640  0.172409  1
  O  O68  1  0.478458  0.904952  0.820534  1
  O  O69  1  0.668898  0.514605  0.174901  1
  O  O70  1  0.654852  0.666505  0.527859  1
  O  O71  1  0.667777  0.659015  0.030715  1
  O  O72  1  0.617933  0.907000  0.321640  1
  O  O73  1  0.815581  0.512559  0.668181  1
  O  O74  1  0.661088  0.813449  0.674082  1
  O  O75  1  0.915722  0.344092  0.826663  1
  O  O76  1  0.014858  0.203258  0.262226  1
  O  O77  1  0.988201  0.235441  0.086075  1
  O  O78  1  0.901229  0.480489  0.321425  1
  O  O79  1  0.816754  0.667198  0.174221  1
  O  O80  1  0.744221  0.915325  0.825712  1
  O  O81  1  0.901482  0.618997  0.816632  1
  O  O82  1  0.770787  0.993358  0.076684  1
  O  O83  1  0.913383  0.745041  0.331166  1
  O  O84  1  -0.000259  0.771973  0.575391  1
  O  O85  1  0.010179  0.786098  0.754302  1
