# generated using pymatgen
data_ZnH16C3N8O7
_symmetry_space_group_name_H-M   'P 1'
_cell_length_a   8.21034895
_cell_length_b   8.21034895
_cell_length_c   10.52835628
_cell_angle_alpha   67.70202173
_cell_angle_beta   112.29797827
_cell_angle_gamma   96.91078828
_symmetry_Int_Tables_number   1
_chemical_formula_structural   ZnH16C3N8O7
_chemical_formula_sum   'Zn2 H32 C6 N16 O14'
_cell_volume   607.31093845
_cell_formula_units_Z   2
loop_
 _symmetry_equiv_pos_site_id
 _symmetry_equiv_pos_as_xyz
  1  'x, y, z'
loop_
 _atom_site_type_symbol
 _atom_site_label
 _atom_site_symmetry_multiplicity
 _atom_site_fract_x
 _atom_site_fract_y
 _atom_site_fract_z
 _atom_site_occupancy
  Zn  Zn0  1  0.083625  0.074757  -0.004183  1
  Zn  Zn1  1  0.925243  0.916375  0.495817  1
  H  H2  1  0.983999  0.382872  0.996861  1
  H  H3  1  0.617128  0.016001  0.496861  1
  H  H4  1  0.902172  0.230935  0.108621  1
  H  H5  1  0.769065  0.097828  0.608621  1
  H  H6  1  0.654947  0.355726  0.893045  1
  H  H7  1  0.644274  0.345053  0.393045  1
  H  H8  1  0.863130  0.854960  0.110038  1
  H  H9  1  0.145040  0.136870  0.610038  1
  H  H10  1  0.053106  0.834951  0.254076  1
  H  H11  1  0.165049  0.946894  0.754076  1
  H  H12  1  0.974508  0.584748  0.158785  1
  H  H13  1  0.415252  0.025492  0.658785  1
  H  H14  1  0.405953  0.967374  0.216660  1
  H  H15  1  0.032626  0.594047  0.716660  1
  H  H16  1  0.334927  0.139457  0.234095  1
  H  H17  1  0.860543  0.665073  0.734095  1
  H  H18  1  0.557436  0.245416  0.136813  1
  H  H19  1  0.754584  0.442564  0.636813  1
  H  H20  1  0.511013  0.936314  0.982214  1
  H  H21  1  0.063686  0.488987  0.482214  1
  H  H22  1  0.607499  0.816495  0.161284  1
  H  H23  1  0.183505  0.392500  0.661284  1
  H  H24  1  0.557126  0.687160  0.932412  1
  H  H25  1  0.312840  0.442874  0.432412  1
  H  H26  1  0.625031  0.572028  0.113505  1
  H  H27  1  0.427972  0.374969  0.613505  1
  H  H28  1  0.407756  0.650499  0.017246  1
  H  H29  1  0.349501  0.592244  0.517246  1
  H  H30  1  0.757736  0.870106  0.814632  1
  H  H31  1  0.129894  0.242264  0.314632  1
  H  H32  1  0.612426  0.783378  0.712913  1
  H  H33  1  0.216622  0.387574  0.212913  1
  C  C34  1  0.716032  0.187957  0.809936  1
  C  C35  1  0.812043  0.283968  0.309936  1
  C  C36  1  0.129916  0.712954  0.036039  1
  C  C37  1  0.287046  0.870084  0.536039  1
  C  C38  1  0.356993  0.315020  0.933086  1
  C  C39  1  0.684980  0.643007  0.433086  1
  N  N40  1  0.921782  0.264304  0.010769  1
  N  N41  1  0.735696  0.078218  0.510769  1
  N  N42  1  0.756925  0.289760  0.893870  1
  N  N43  1  0.710240  0.243075  0.393870  1
  N  N44  1  -0.000955  0.845864  0.145672  1
  N  N45  1  0.154136  0.000955  0.645672  1
  N  N46  1  0.048559  0.694441  0.133672  1
  N  N47  1  0.305559  0.951441  0.633672  1
  N  N48  1  0.343513  0.089241  0.159972  1
  N  N49  1  0.910759  0.656487  0.659972  1
  N  N50  1  0.443147  0.201905  0.077766  1
  N  N51  1  0.798095  0.556853  0.577766  1
  N  N52  1  0.538771  0.677753  0.027132  1
  N  N53  1  0.322247  0.461229  0.527132  1
  N  N54  1  0.601396  0.836488  0.056854  1
  N  N55  1  0.163512  0.398604  0.556854  1
  O  O56  1  0.836570  0.089942  0.821949  1
  O  O57  1  0.910058  0.163430  0.321949  1
  O  O58  1  0.558012  0.201074  0.718123  1
  O  O59  1  0.798926  0.441988  0.218123  1
  O  O60  1  0.170443  0.867187  0.963155  1
  O  O61  1  0.132813  0.829557  0.463155  1
  O  O62  1  0.168192  0.571717  0.027735  1
  O  O63  1  0.428283  0.831808  0.527735  1
  O  O64  1  0.194275  0.286084  0.868077  1
  O  O65  1  0.713916  0.805724  0.368077  1
  O  O66  1  0.448277  0.432996  0.874776  1
  O  O67  1  0.567004  0.551723  0.374776  1
  O  O68  1  0.711328  0.754862  0.809290  1
  O  O69  1  0.245138  0.288672  0.309290  1
