# generated using pymatgen
data_VH12C2S2(O2F)6
_symmetry_space_group_name_H-M   'P 1'
_cell_length_a   10.08222427
_cell_length_b   10.08222427
_cell_length_c   6.64779830
_cell_angle_alpha   77.20447344
_cell_angle_beta   102.79552656
_cell_angle_gamma   138.80673134
_symmetry_Int_Tables_number   1
_chemical_formula_structural   VH12C2S2(O2F)6
_chemical_formula_sum   'V1 H12 C2 S2 O12 F6'
_cell_volume   432.41838993
_cell_formula_units_Z   1
loop_
 _symmetry_equiv_pos_site_id
 _symmetry_equiv_pos_as_xyz
  1  'x, y, z'
loop_
 _atom_site_type_symbol
 _atom_site_label
 _atom_site_symmetry_multiplicity
 _atom_site_fract_x
 _atom_site_fract_y
 _atom_site_fract_z
 _atom_site_occupancy
  V  V0  1  0.000000  0.000000  0.000000  1
  H  H1  1  0.182719  0.043514  0.690037  1
  H  H2  1  0.956486  0.817281  0.690037  1
  H  H3  1  0.817281  0.956486  0.309963  1
  H  H4  1  0.043514  0.182719  0.309963  1
  H  H5  1  0.173215  0.335578  0.700839  1
  H  H6  1  0.664422  0.826785  0.700839  1
  H  H7  1  0.826785  0.664422  0.299161  1
  H  H8  1  0.335578  0.173215  0.299161  1
  H  H9  1  0.222445  0.400833  0.927153  1
  H  H10  1  0.599167  0.777555  0.927153  1
  H  H11  1  0.777555  0.599167  0.072847  1
  H  H12  1  0.400833  0.222445  0.072847  1
  C  C13  1  0.725740  0.274260  0.711569  1
  C  C14  1  0.274260  0.725740  0.288431  1
  S  S15  1  0.624532  0.375468  0.689725  1
  S  S16  1  0.375468  0.624532  0.310275  1
  O  O17  1  0.617308  0.382692  0.904041  1
  O  O18  1  0.382692  0.617308  0.095959  1
  O  O19  1  0.772928  0.575084  0.575548  1
  O  O20  1  0.424916  0.227072  0.575548  1
  O  O21  1  0.227072  0.424916  0.424452  1
  O  O22  1  0.575084  0.772928  0.424452  1
  O  O23  1  0.051158  0.948842  0.746089  1
  O  O24  1  0.948842  0.051158  0.253911  1
  O  O25  1  0.143139  0.286342  0.845943  1
  O  O26  1  0.713658  0.856861  0.845943  1
  O  O27  1  0.856861  0.713658  0.154057  1
  O  O28  1  0.286342  0.143139  0.154057  1
  F  F29  1  0.739291  0.260709  0.520186  1
  F  F30  1  0.260709  0.739291  0.479814  1
  F  F31  1  0.911230  0.399103  0.814509  1
  F  F32  1  0.600897  0.088770  0.814509  1
  F  F33  1  0.088770  0.600897  0.185491  1
  F  F34  1  0.399103  0.911230  0.185491  1
