# generated using pymatgen
data_Ti(SO4)2
_symmetry_space_group_name_H-M   'P 1'
_cell_length_a   9.18215834
_cell_length_b   9.12525569
_cell_length_c   13.53200246
_cell_angle_alpha   90.00000000
_cell_angle_beta   90.00000000
_cell_angle_gamma   90.00000000
_symmetry_Int_Tables_number   1
_chemical_formula_structural   Ti(SO4)2
_chemical_formula_sum   'Ti8 S16 O64'
_cell_volume   1133.84029711
_cell_formula_units_Z   8
loop_
 _symmetry_equiv_pos_site_id
 _symmetry_equiv_pos_as_xyz
  1  'x, y, z'
loop_
 _atom_site_type_symbol
 _atom_site_label
 _atom_site_symmetry_multiplicity
 _atom_site_fract_x
 _atom_site_fract_y
 _atom_site_fract_z
 _atom_site_occupancy
  Ti  Ti0  1  0.144421  0.108625  0.126691  1
  Ti  Ti1  1  0.144421  0.391375  0.626691  1
  Ti  Ti2  1  0.355579  0.608625  0.126691  1
  Ti  Ti3  1  0.355579  0.891375  0.626691  1
  Ti  Ti4  1  0.644421  0.108625  0.373309  1
  Ti  Ti5  1  0.644421  0.391375  0.873309  1
  Ti  Ti6  1  0.855579  0.608625  0.373309  1
  Ti  Ti7  1  0.855579  0.891375  0.873309  1
  S  S8  1  0.072908  0.062814  0.717113  1
  S  S9  1  0.072908  0.437186  0.217113  1
  S  S10  1  0.159034  0.685359  0.484493  1
  S  S11  1  0.159034  0.814641  0.984493  1
  S  S12  1  0.340966  0.185359  0.484493  1
  S  S13  1  0.340966  0.314641  0.984493  1
  S  S14  1  0.427092  0.937186  0.217113  1
  S  S15  1  0.427092  0.562814  0.717113  1
  S  S16  1  0.572908  0.437186  0.282887  1
  S  S17  1  0.572908  0.062814  0.782887  1
  S  S18  1  0.659034  0.685359  0.015507  1
  S  S19  1  0.659034  0.814641  0.515507  1
  S  S20  1  0.840966  0.185359  0.015507  1
  S  S21  1  0.840966  0.314641  0.515507  1
  S  S22  1  0.927092  0.562814  0.782887  1
  S  S23  1  0.927092  0.937186  0.282887  1
  O  O24  1  0.996544  0.694401  0.468296  1
  O  O25  1  0.996544  0.805599  0.968296  1
  O  O26  1  0.016362  0.982838  0.363209  1
  O  O27  1  0.016362  0.517162  0.863209  1
  O  O28  1  0.015229  0.481196  0.317488  1
  O  O29  1  0.015229  0.018804  0.817488  1
  O  O30  1  0.097268  0.227008  0.719953  1
  O  O31  1  0.097268  0.272992  0.219953  1
  O  O32  1  0.190502  0.717216  0.073203  1
  O  O33  1  0.190502  0.782784  0.573203  1
  O  O34  1  0.189190  0.967399  0.020802  1
  O  O35  1  0.189190  0.532601  0.520802  1
  O  O36  1  0.224714  0.994993  0.714016  1
  O  O37  1  0.224714  0.505007  0.214016  1
  O  O38  1  0.242315  0.722891  0.399444  1
  O  O39  1  0.242315  0.777109  0.899444  1
  O  O40  1  0.257685  0.222891  0.399444  1
  O  O41  1  0.257685  0.277109  0.899444  1
  O  O42  1  0.275286  0.005007  0.214016  1
  O  O43  1  0.275286  0.494993  0.714016  1
  O  O44  1  0.310810  0.032601  0.520802  1
  O  O45  1  0.310810  0.467399  0.020802  1
  O  O46  1  0.309498  0.217216  0.073203  1
  O  O47  1  0.309498  0.282784  0.573203  1
  O  O48  1  0.402732  0.772992  0.219953  1
  O  O49  1  0.402732  0.727008  0.719953  1
  O  O50  1  0.484771  0.518804  0.817488  1
  O  O51  1  0.484771  0.981196  0.317488  1
  O  O52  1  0.483638  0.482838  0.363209  1
  O  O53  1  0.483638  0.017162  0.863209  1
  O  O54  1  0.503456  0.194401  0.468296  1
  O  O55  1  0.503456  0.305599  0.968296  1
  O  O56  1  0.496544  0.694401  0.031704  1
  O  O57  1  0.496544  0.805599  0.531704  1
  O  O58  1  0.516362  0.517162  0.636791  1
  O  O59  1  0.516362  0.982838  0.136790  1
  O  O60  1  0.515229  0.481196  0.182512  1
  O  O61  1  0.515229  0.018804  0.682512  1
  O  O62  1  0.597268  0.272992  0.280047  1
  O  O63  1  0.597268  0.227008  0.780047  1
  O  O64  1  0.690502  0.717216  0.426797  1
  O  O65  1  0.690502  0.782784  0.926797  1
  O  O66  1  0.689190  0.532601  0.979198  1
  O  O67  1  0.689190  0.967399  0.479198  1
  O  O68  1  0.724714  0.505007  0.285984  1
  O  O69  1  0.724714  0.994993  0.785984  1
  O  O70  1  0.742315  0.722891  0.100556  1
  O  O71  1  0.742315  0.777109  0.600556  1
  O  O72  1  0.757685  0.222891  0.100556  1
  O  O73  1  0.757685  0.277109  0.600556  1
  O  O74  1  0.775286  0.494993  0.785984  1
  O  O75  1  0.775286  0.005007  0.285984  1
  O  O76  1  0.810810  0.467399  0.479198  1
  O  O77  1  0.810810  0.032601  0.979198  1
  O  O78  1  0.809498  0.217216  0.426797  1
  O  O79  1  0.809498  0.282784  0.926797  1
  O  O80  1  0.902732  0.727008  0.780047  1
  O  O81  1  0.902732  0.772992  0.280047  1
  O  O82  1  0.984771  0.518804  0.682512  1
  O  O83  1  0.984771  0.981196  0.182512  1
  O  O84  1  0.983638  0.017162  0.636791  1
  O  O85  1  0.983638  0.482838  0.136790  1
  O  O86  1  0.003456  0.194401  0.031704  1
  O  O87  1  0.003456  0.305599  0.531704  1
