# generated using pymatgen
data_Li32Mn13Cr3O48
_symmetry_space_group_name_H-M   'P 1'
_cell_length_a   5.00938948
_cell_length_b   8.67195738
_cell_length_c   19.46779400
_cell_angle_alpha   98.25280132
_cell_angle_beta   94.84679426
_cell_angle_gamma   89.79676792
_symmetry_Int_Tables_number   1
_chemical_formula_structural   Li32Mn13Cr3O48
_chemical_formula_sum   'Li32 Mn13 Cr3 O48'
_cell_volume   833.92242310
_cell_formula_units_Z   1
loop_
 _symmetry_equiv_pos_site_id
 _symmetry_equiv_pos_as_xyz
  1  'x, y, z'
loop_
 _atom_site_type_symbol
 _atom_site_label
 _atom_site_symmetry_multiplicity
 _atom_site_fract_x
 _atom_site_fract_y
 _atom_site_fract_z
 _atom_site_occupancy
  Li  Li0  1  0.994338  0.169311  0.250103  1
  Li  Li1  1  0.878461  0.374218  0.374712  1
  Li  Li2  1  0.749457  0.249702  0.000200  1
  Li  Li3  1  0.742158  0.920248  0.000561  1
  Li  Li4  1  0.992313  0.168843  0.749126  1
  Li  Li5  1  0.757306  0.581968  0.499653  1
  Li  Li6  1  0.875915  0.375790  0.875307  1
  Li  Li7  1  0.746632  0.248661  0.499967  1
  Li  Li8  1  0.744229  0.918898  0.499922  1
  Li  Li9  1  0.624890  0.125085  0.125037  1
  Li  Li10  1  0.756166  0.580497  0.999891  1
  Li  Li11  1  0.505682  0.330788  0.249975  1
  Li  Li12  1  0.624630  0.125416  0.624995  1
  Li  Li13  1  0.500358  0.999922  0.249933  1
  Li  Li14  1  0.491608  0.668877  0.249247  1
  Li  Li15  1  0.508966  0.330829  0.750468  1
  Li  Li16  1  0.375975  0.875076  0.375304  1
  Li  Li17  1  0.498217  0.999650  0.749779  1
  Li  Li18  1  0.249277  0.749533  0.000169  1
  Li  Li19  1  0.495177  0.669496  0.750306  1
  Li  Li20  1  0.243534  0.419043  0.000126  1
  Li  Li21  1  0.378032  0.874628  0.874752  1
  Li  Li22  1  0.256458  0.080636  0.499756  1
  Li  Li23  1  0.250384  0.749858  0.499812  1
  Li  Li24  1  0.124740  0.625009  0.124988  1
  Li  Li25  1  0.243667  0.419628  0.500340  1
  Li  Li26  1  0.006876  0.831237  0.250390  1
  Li  Li27  1  0.258623  0.081398  0.000134  1
  Li  Li28  1  0.124978  0.626895  0.625003  1
  Li  Li29  1  0.000054  0.499691  0.250010  1
  Li  Li30  1  0.005873  0.831257  0.750165  1
  Li  Li31  1  0.998384  0.499644  0.750285  1
  Mn  Mn32  1  0.876672  0.709967  0.375729  1
  Mn  Mn33  1  0.874814  0.041380  0.375011  1
  Mn  Mn34  1  0.872054  0.707637  0.874311  1
  Mn  Mn35  1  0.626013  0.791349  0.125061  1
  Mn  Mn36  1  0.624330  0.458569  0.125132  1
  Mn  Mn37  1  0.626084  0.791434  0.624960  1
  Mn  Mn38  1  0.623720  0.458965  0.624813  1
  Mn  Mn39  1  0.372255  0.207325  0.374234  1
  Mn  Mn40  1  0.374912  0.541553  0.875180  1
  Mn  Mn41  1  0.376526  0.210130  0.875923  1
  Mn  Mn42  1  0.124233  0.958504  0.125056  1
  Mn  Mn43  1  0.125860  0.291502  0.125103  1
  Mn  Mn44  1  0.123962  0.958015  0.625005  1
  Cr  Cr45  1  0.882029  0.041449  0.874927  1
  Cr  Cr46  1  0.382500  0.541003  0.374713  1
  Cr  Cr47  1  0.124913  0.294529  0.625031  1
  O  O48  1  0.963697  0.106783  0.068855  1
  O  O49  1  0.928042  0.785117  0.068963  1
  O  O50  1  0.927229  0.427697  0.068053  1
  O  O51  1  0.966857  0.106299  0.568821  1
  O  O52  1  0.821951  0.964809  0.181010  1
  O  O53  1  0.822526  0.322299  0.182013  1
  O  O54  1  0.928112  0.784511  0.569070  1
  O  O55  1  0.927152  0.425868  0.567854  1
  O  O56  1  0.786514  0.643193  0.181094  1
  O  O57  1  0.713165  0.857326  0.318982  1
  O  O58  1  0.821675  0.964815  0.680997  1
  O  O59  1  0.817612  0.323674  0.682768  1
  O  O60  1  0.677782  0.536988  0.318794  1
  O  O61  1  0.676957  0.178006  0.317955  1
  O  O62  1  0.788052  0.643093  0.680908  1
  O  O63  1  0.711662  0.853383  0.818065  1
  O  O64  1  0.463446  0.606826  0.068927  1
  O  O65  1  0.576388  0.717763  0.431695  1
  O  O66  1  0.572615  0.072046  0.431890  1
  O  O67  1  0.677677  0.533911  0.818993  1
  O  O68  1  0.676435  0.175209  0.818080  1
  O  O69  1  0.427148  0.927523  0.067897  1
  O  O70  1  0.428290  0.285327  0.069156  1
  O  O71  1  0.530505  0.393461  0.430922  1
  O  O72  1  0.462550  0.606979  0.568821  1
  O  O73  1  0.570792  0.714940  0.930935  1
  O  O74  1  0.569759  0.073138  0.932508  1
  O  O75  1  0.322812  0.822226  0.182076  1
  O  O76  1  0.321990  0.464963  0.181148  1
  O  O77  1  0.427429  0.927652  0.568098  1
  O  O78  1  0.434212  0.286171  0.568272  1
  O  O79  1  0.538414  0.394117  0.931246  1
  O  O80  1  0.286697  0.142840  0.180947  1
  O  O81  1  0.210919  0.352597  0.317826  1
  O  O82  1  0.322574  0.821478  0.681952  1
  O  O83  1  0.322040  0.462654  0.680966  1
  O  O84  1  0.175876  0.676026  0.317889  1
  O  O85  1  0.177639  0.033787  0.318888  1
  O  O86  1  0.284254  0.142215  0.681099  1
  O  O87  1  0.213320  0.357225  0.818970  1
  O  O88  1  0.070307  0.573123  0.432446  1
  O  O89  1  0.070826  0.215021  0.430942  1
  O  O90  1  0.177016  0.677856  0.817980  1
  O  O91  1  0.178698  0.036897  0.819002  1
  O  O92  1  0.038612  0.894078  0.431126  1
  O  O93  1  0.072681  0.572268  0.932024  1
  O  O94  1  0.075518  0.216955  0.931500  1
  O  O95  1  0.029338  0.893823  0.930973  1
