# generated using pymatgen
data_LiCuCO3
_symmetry_space_group_name_H-M   'P 1'
_cell_length_a   14.37378025
_cell_length_b   14.37116480
_cell_length_c   3.05134228
_cell_angle_alpha   89.32054631
_cell_angle_beta   90.44400690
_cell_angle_gamma   119.95902505
_symmetry_Int_Tables_number   1
_chemical_formula_structural   LiCuCO3
_chemical_formula_sum   'Li9 Cu9 C9 O27'
_cell_volume   546.04972583
_cell_formula_units_Z   9
loop_
 _symmetry_equiv_pos_site_id
 _symmetry_equiv_pos_as_xyz
  1  'x, y, z'
loop_
 _atom_site_type_symbol
 _atom_site_label
 _atom_site_symmetry_multiplicity
 _atom_site_fract_x
 _atom_site_fract_y
 _atom_site_fract_z
 _atom_site_occupancy
  Li  Li0  1  0.094477  0.881354  0.511966  1
  Li  Li1  1  0.117371  0.564244  0.482442  1
  Li  Li2  1  0.446462  0.881704  0.556130  1
  Li  Li3  1  0.117945  0.213024  0.510916  1
  Li  Li4  1  0.434820  0.553673  0.454973  1
  Li  Li5  1  0.456146  0.254172  0.503319  1
  Li  Li6  1  0.786953  0.905693  0.490839  1
  Li  Li7  1  0.797535  0.543690  0.488343  1
  Li  Li8  1  0.745086  0.201892  0.503720  1
  Cu  Cu9  1  0.232461  0.791221  0.064883  1
  Cu  Cu10  1  0.207621  0.441302  0.010283  1
  Cu  Cu11  1  0.229575  0.115672  0.019227  1
  Cu  Cu12  1  0.558202  0.767566  0.939741  1
  Cu  Cu13  1  0.566672  0.464281  0.967361  1
  Cu  Cu14  1  0.535304  0.102807  0.038511  1
  Cu  Cu15  1  0.885327  0.770313  0.984592  1
  Cu  Cu16  1  0.896247  0.432495  0.980450  1
  Cu  Cu17  1  0.884000  0.113942  0.005227  1
  C  C18  1  0.008018  0.663368  0.001329  1
  C  C19  1  0.332843  0.666728  0.997647  1
  C  C20  1  0.335847  0.344875  0.989925  1
  C  C21  1  0.654791  0.991573  0.009562  1
  C  C22  1  0.332601  0.012110  0.527031  1
  C  C23  1  0.678762  0.667050  0.467594  1
  C  C24  1  0.666008  0.333054  0.997500  1
  C  C25  1  0.999705  0.999858  0.003585  1
  C  C26  1  0.986850  0.320279  0.505208  1
  O  O27  1  0.017198  0.919321  0.001362  1
  O  O28  1  0.027360  0.584029  0.979530  1
  O  O29  1  0.086718  0.761851  0.060572  1
  O  O30  1  0.332912  0.922300  0.557569  1
  O  O31  1  0.076788  0.410468  0.503539  1
  O  O32  1  0.233571  0.588500  0.007515  1
  O  O33  1  0.354852  0.765268  0.052007  1
  O  O34  1  0.080504  0.097662  0.017511  1
  O  O35  1  0.556363  0.972033  0.043968  1
  O  O36  1  0.236874  0.324431  0.041766  1
  O  O37  1  0.410487  0.646542  0.937519  1
  O  O38  1  0.674552  0.913246  0.936551  1
  O  O39  1  0.354220  0.265244  0.967187  1
  O  O40  1  0.415061  0.443786  0.966586  1
  O  O41  1  0.241393  0.011918  0.510871  1
  O  O42  1  0.588767  0.667184  0.450706  1
  O  O43  1  0.679126  0.576089  0.474003  1
  O  O44  1  0.423581  0.103255  0.515587  1
  O  O45  1  0.901474  0.982451  0.996568  1
  O  O46  1  0.769664  0.758325  0.475890  1
  O  O47  1  0.572046  0.325796  0.002352  1
  O  O48  1  0.673398  0.246351  0.001133  1
  O  O49  1  0.752579  0.427166  0.989481  1
  O  O50  1  0.910077  0.645013  0.966357  1
  O  O51  1  0.734275  0.089313  0.044917  1
  O  O52  1  0.895752  0.320189  0.497581  1
  O  O53  1  0.987252  0.229237  0.514887  1
