# generated using pymatgen
data_LiV2OF5
_symmetry_space_group_name_H-M   'P 1'
_cell_length_a   8.75371324
_cell_length_b   8.71230779
_cell_length_c   4.57955113
_cell_angle_alpha   90.63963409
_cell_angle_beta   89.84291046
_cell_angle_gamma   119.81604379
_symmetry_Int_Tables_number   1
_chemical_formula_structural   LiV2OF5
_chemical_formula_sum   'Li3 V6 O3 F15'
_cell_volume   303.00638852
_cell_formula_units_Z   3
loop_
 _symmetry_equiv_pos_site_id
 _symmetry_equiv_pos_as_xyz
  1  'x, y, z'
loop_
 _atom_site_type_symbol
 _atom_site_label
 _atom_site_symmetry_multiplicity
 _atom_site_fract_x
 _atom_site_fract_y
 _atom_site_fract_z
 _atom_site_occupancy
  Li  Li0  1  0.333717  0.666511  0.500781  1
  Li  Li1  1  0.000075  0.998857  0.004646  1
  Li  Li2  1  0.663876  0.332396  0.507739  1
  V  V3  1  0.006763  0.648995  0.984418  1
  V  V4  1  0.003244  0.332859  0.515115  1
  V  V5  1  0.350323  0.337427  0.984410  1
  V  V6  1  0.326444  0.012955  0.514856  1
  V  V7  1  0.675882  0.687609  0.481841  1
  V  V8  1  0.650977  0.987186  0.017532  1
  O  O9  1  0.092675  0.536830  0.744256  1
  O  O10  1  0.577181  0.794548  0.263593  1
  O  O11  1  0.427576  0.219744  0.735860  1
  F  F12  1  0.108240  0.882534  0.757816  1
  F  F13  1  0.213146  0.778279  0.265331  1
  F  F14  1  0.440762  0.894466  0.750141  1
  F  F15  1  0.226410  0.436291  0.262812  1
  F  F16  1  0.116329  0.227111  0.771350  1
  F  F17  1  0.219671  0.112613  0.234846  1
  F  F18  1  0.459312  0.565745  0.738339  1
  F  F19  1  0.783684  0.894611  0.764804  1
  F  F20  1  0.560365  0.453616  0.250309  1
  F  F21  1  0.541235  0.107062  0.260117  1
  F  F22  1  0.893855  0.768988  0.229379  1
  F  F23  1  0.784594  0.566367  0.733584  1
  F  F24  1  0.886371  0.432375  0.255960  1
  F  F25  1  0.771068  0.206813  0.738807  1
  F  F26  1  0.886127  0.117212  0.231357  1
