# generated using pymatgen
data_Li4V3P8O29
_symmetry_space_group_name_H-M   'P 1'
_cell_length_a   9.76173049
_cell_length_b   9.75629057
_cell_length_c   14.19676535
_cell_angle_alpha   89.57502240
_cell_angle_beta   90.03313794
_cell_angle_gamma   59.89729104
_symmetry_Int_Tables_number   1
_chemical_formula_structural   Li4V3P8O29
_chemical_formula_sum   'Li8 V6 P16 O58'
_cell_volume   1169.67136416
_cell_formula_units_Z   2
loop_
 _symmetry_equiv_pos_site_id
 _symmetry_equiv_pos_as_xyz
  1  'x, y, z'
loop_
 _atom_site_type_symbol
 _atom_site_label
 _atom_site_symmetry_multiplicity
 _atom_site_fract_x
 _atom_site_fract_y
 _atom_site_fract_z
 _atom_site_occupancy
  Li  Li0  1  0.762008  0.901105  0.553024  1
  Li  Li1  1  0.766662  0.334196  0.054820  1
  Li  Li2  1  0.330137  0.903990  0.058682  1
  Li  Li3  1  0.326398  0.763694  0.562508  1
  Li  Li4  1  0.675190  0.092837  0.943168  1
  Li  Li5  1  0.230145  0.098918  0.442877  1
  Li  Li6  1  0.025012  0.951891  0.000365  1
  Li  Li7  1  0.944888  0.041376  0.492647  1
  V  V8  1  0.565560  0.435863  0.256208  1
  V  V9  1  0.434012  0.562498  0.746074  1
  V  V10  1  0.565047  0.999817  0.751365  1
  V  V11  1  0.433960  0.001848  0.247270  1
  V  V12  1  0.000868  0.564605  0.246823  1
  V  V13  1  0.999294  0.437181  0.753332  1
  P  P14  1  0.918638  0.778428  0.845453  1
  P  P15  1  0.776707  0.909976  0.338629  1
  P  P16  1  0.919349  0.304666  0.341194  1
  P  P17  1  0.666261  0.662206  0.131813  1
  P  P18  1  0.667558  0.670738  0.632081  1
  P  P19  1  0.774242  0.311760  0.839968  1
  P  P20  1  0.695378  0.219374  0.657829  1
  P  P21  1  0.314032  0.907380  0.841105  1
  P  P22  1  0.686523  0.092789  0.158473  1
  P  P23  1  0.312281  0.775920  0.346293  1
  P  P24  1  0.221003  0.694848  0.164259  1
  P  P25  1  0.329462  0.334251  0.367429  1
  P  P26  1  0.335199  0.331497  0.866912  1
  P  P27  1  0.078942  0.696193  0.658877  1
  P  P28  1  0.221883  0.092641  0.662123  1
  P  P29  1  0.081954  0.223771  0.155459  1
  O  O30  1  0.986025  0.795321  0.576989  1
  O  O31  1  0.916644  0.738079  0.328389  1
  O  O32  1  0.770647  0.020558  0.068859  1
  O  O33  1  0.741162  0.916892  0.837985  1
  O  O34  1  0.924649  0.617155  0.834044  1
  O  O35  1  0.811074  0.664033  0.178921  1
  O  O36  1  0.925194  0.458582  0.330278  1
  O  O37  1  0.992692  0.214085  0.073226  1
  O  O38  1  0.917062  0.340128  0.832577  1
  O  O39  1  0.670060  0.819227  0.677662  1
  O  O40  1  0.619611  0.912416  0.325105  1
  O  O41  1  0.809639  0.526139  0.683045  1
  O  O42  1  0.673601  0.648066  0.027328  1
  O  O43  1  0.679374  0.683724  0.528235  1
  O  O44  1  0.671394  0.510652  0.176778  1
  O  O45  1  0.470513  0.910459  0.826027  1
  O  O46  1  0.512450  0.812299  0.167231  1
  O  O47  1  0.743777  0.343038  0.335271  1
  O  O48  1  0.794982  0.196379  0.753895  1
  O  O49  1  0.795870  0.196158  0.575288  1
  O  O50  1  0.778898  0.226366  0.929622  1
  O  O51  1  0.620258  0.468530  0.825355  1
  O  O52  1  0.511736  0.676838  0.663596  1
  O  O53  1  0.656495  0.264925  0.165380  1
  O  O54  1  0.471997  0.620051  0.328184  1
  O  O55  1  0.338436  0.920135  0.336368  1
  O  O56  1  0.795416  0.003056  0.248878  1
  O  O57  1  0.789099  0.982579  0.428057  1
  O  O58  1  0.226293  0.006090  0.573455  1
  O  O59  1  0.655223  0.082432  0.663369  1
  O  O60  1  0.541228  0.381577  0.667353  1
  O  O61  1  0.347088  0.737077  0.827510  1
  O  O62  1  0.478636  0.335127  0.321762  1
  O  O63  1  0.382942  0.541136  0.173841  1
  O  O64  1  0.206145  0.801002  0.083480  1
  O  O65  1  0.238496  0.778622  0.438470  1
  O  O66  1  0.197417  0.792448  0.260922  1
  O  O67  1  0.252255  0.661951  0.658025  1
  O  O68  1  0.489772  0.181022  0.824537  1
  O  O69  1  0.528877  0.092411  0.172256  1
  O  O70  1  0.332125  0.476499  0.820860  1
  O  O71  1  0.346680  0.315107  0.970786  1
  O  O72  1  0.329348  0.340002  0.471718  1
  O  O73  1  0.186083  0.480160  0.317634  1
  O  O74  1  0.380616  0.090896  0.676805  1
  O  O75  1  0.326391  0.186176  0.329751  1
  O  O76  1  0.085346  0.656349  0.164425  1
  O  O77  1  0.002767  0.797923  0.753256  1
  O  O78  1  0.992037  0.802838  0.930115  1
  O  O79  1  0.078221  0.538749  0.674083  1
  O  O80  1  0.188451  0.329078  0.821609  1
  O  O81  1  0.079803  0.382394  0.168881  1
  O  O82  1  0.255576  0.083876  0.158223  1
  O  O83  1  0.235026  0.977032  0.932048  1
  O  O84  1  0.201147  0.004459  0.752605  1
  O  O85  1  0.082491  0.263279  0.665339  1
  O  O86  1  0.001976  0.201885  0.425210  1
  O  O87  1  0.003117  0.199430  0.249838  1
