# generated using pymatgen
data_Li12FeNi3P4(CO7)4
_symmetry_space_group_name_H-M   'P 1'
_cell_length_a   8.37766594
_cell_length_b   9.94177689
_cell_length_c   6.44684568
_cell_angle_alpha   90.00000000
_cell_angle_beta   90.00000000
_cell_angle_gamma   85.41734914
_symmetry_Int_Tables_number   1
_chemical_formula_structural   Li12FeNi3P4(CO7)4
_chemical_formula_sum   'Li12 Fe1 Ni3 P4 C4 O28'
_cell_volume   535.23402403
_cell_formula_units_Z   1
loop_
 _symmetry_equiv_pos_site_id
 _symmetry_equiv_pos_as_xyz
  1  'x, y, z'
loop_
 _atom_site_type_symbol
 _atom_site_label
 _atom_site_symmetry_multiplicity
 _atom_site_fract_x
 _atom_site_fract_y
 _atom_site_fract_z
 _atom_site_occupancy
  Li  Li0  1  0.098347  0.381450  0.250000  1
  Li  Li1  1  0.095111  0.882205  0.250000  1
  Li  Li2  1  0.276427  0.123536  0.020557  1
  Li  Li3  1  0.276427  0.123536  0.479443  1
  Li  Li4  1  0.275321  0.622933  0.019980  1
  Li  Li5  1  0.275321  0.622933  0.480020  1
  Li  Li6  1  0.723405  0.376647  0.521276  1
  Li  Li7  1  0.723405  0.376647  0.978724  1
  Li  Li8  1  0.723542  0.877834  0.522433  1
  Li  Li9  1  0.723542  0.877834  0.977567  1
  Li  Li10  1  0.903129  0.117778  0.750000  1
  Li  Li11  1  0.902851  0.617168  0.750000  1
  Fe  Fe12  1  0.662723  0.609576  0.250000  1
  Ni  Ni13  1  0.332728  0.395598  0.750000  1
  Ni  Ni14  1  0.332216  0.896684  0.750000  1
  Ni  Ni15  1  0.667324  0.103105  0.250000  1
  P  P16  1  0.414241  0.358663  0.250000  1
  P  P17  1  0.411621  0.861670  0.250000  1
  P  P18  1  0.584995  0.139415  0.750000  1
  P  P19  1  0.585786  0.639511  0.750000  1
  C  C20  1  0.039243  0.351569  0.750000  1
  C  C21  1  0.038968  0.851548  0.750000  1
  C  C22  1  0.960639  0.148512  0.250000  1
  C  C23  1  0.966532  0.647747  0.250000  1
  O  O24  1  0.076572  0.475608  0.750000  1
  O  O25  1  0.108058  0.178953  0.250000  1
  O  O26  1  0.075836  0.975555  0.750000  1
  O  O27  1  0.155713  0.256495  0.750000  1
  O  O28  1  0.113427  0.679103  0.250000  1
  O  O29  1  0.155612  0.756445  0.750000  1
  O  O30  1  0.309469  0.410703  0.062892  1
  O  O31  1  0.309469  0.410703  0.437108  1
  O  O32  1  0.308027  0.914246  0.062628  1
  O  O33  1  0.308027  0.914246  0.437372  1
  O  O34  1  0.417664  0.085207  0.750000  1
  O  O35  1  0.436905  0.201136  0.250000  1
  O  O36  1  0.418409  0.584516  0.750000  1
  O  O37  1  0.430120  0.704230  0.250000  1
  O  O38  1  0.562428  0.297085  0.750000  1
  O  O39  1  0.581824  0.413542  0.250000  1
  O  O40  1  0.562601  0.797080  0.750000  1
  O  O41  1  0.582239  0.911757  0.250000  1
  O  O42  1  0.690655  0.087896  0.937146  1
  O  O43  1  0.690655  0.087896  0.562854  1
  O  O44  1  0.691311  0.587845  0.564279  1
  O  O45  1  0.691311  0.587845  0.935721  1
  O  O46  1  0.843926  0.243711  0.250000  1
  O  O47  1  0.891581  0.320906  0.750000  1
  O  O48  1  0.850542  0.744007  0.250000  1
  O  O49  1  0.922749  0.024581  0.250000  1
  O  O50  1  0.891306  0.820519  0.750000  1
  O  O51  1  0.929718  0.524089  0.250000  1
