# generated using pymatgen
data_LiPW4O13
_symmetry_space_group_name_H-M   'P 1'
_cell_length_a   10.17700256
_cell_length_b   10.47855714
_cell_length_c   10.05416401
_cell_angle_alpha   90.00000000
_cell_angle_beta   90.00000000
_cell_angle_gamma   90.00000000
_symmetry_Int_Tables_number   1
_chemical_formula_structural   LiPW4O13
_chemical_formula_sum   'Li4 P4 W16 O52'
_cell_volume   1072.17909482
_cell_formula_units_Z   4
loop_
 _symmetry_equiv_pos_site_id
 _symmetry_equiv_pos_as_xyz
  1  'x, y, z'
loop_
 _atom_site_type_symbol
 _atom_site_label
 _atom_site_symmetry_multiplicity
 _atom_site_fract_x
 _atom_site_fract_y
 _atom_site_fract_z
 _atom_site_occupancy
  Li  Li0  1  0.260364  0.750000  0.801990  1
  Li  Li1  1  0.296833  0.250000  0.298281  1
  Li  Li2  1  0.760364  0.750000  0.698010  1
  Li  Li3  1  0.796833  0.250000  0.201719  1
  P  P4  1  0.250371  0.750000  0.074752  1
  P  P5  1  0.253664  0.250000  0.573214  1
  P  P6  1  0.750371  0.750000  0.425248  1
  P  P7  1  0.753664  0.250000  0.926786  1
  W  W8  1  0.000707  0.587782  0.250661  1
  W  W9  1  0.000707  0.912218  0.250661  1
  W  W10  1  0.248291  0.074102  0.035834  1
  W  W11  1  0.248291  0.425898  0.035834  1
  W  W12  1  0.252175  0.573637  0.535356  1
  W  W13  1  0.252175  0.926363  0.535356  1
  W  W14  1  0.500390  0.087984  0.752376  1
  W  W15  1  0.500390  0.412016  0.752376  1
  W  W16  1  0.500707  0.587782  0.249339  1
  W  W17  1  0.500707  0.912218  0.249339  1
  W  W18  1  0.748291  0.074102  0.464166  1
  W  W19  1  0.748291  0.425898  0.464166  1
  W  W20  1  0.752175  0.573637  0.964644  1
  W  W21  1  0.752175  0.926363  0.964644  1
  W  W22  1  0.000390  0.087984  0.747624  1
  W  W23  1  0.000390  0.412016  0.747624  1
  O  O24  1  0.115556  0.103658  0.900117  1
  O  O25  1  0.115556  0.396342  0.900117  1
  O  O26  1  0.111792  0.601878  0.401259  1
  O  O27  1  0.111792  0.898122  0.401259  1
  O  O28  1  0.123345  0.750000  0.166239  1
  O  O29  1  0.125192  0.250000  0.662170  1
  O  O30  1  0.108761  0.036567  0.163279  1
  O  O31  1  0.108761  0.463433  0.163279  1
  O  O32  1  0.115681  0.966273  0.662490  1
  O  O33  1  0.115681  0.533727  0.662490  1
  O  O34  1  0.250867  0.631844  0.982732  1
  O  O35  1  0.250867  0.868156  0.982732  1
  O  O36  1  0.250778  0.250000  0.106003  1
  O  O37  1  0.251305  0.750000  0.604841  1
  O  O38  1  0.257342  0.131675  0.481422  1
  O  O39  1  0.257342  0.368325  0.481422  1
  O  O40  1  0.383828  0.034597  0.162524  1
  O  O41  1  0.383828  0.465403  0.162524  1
  O  O42  1  0.390620  0.535805  0.661939  1
  O  O43  1  0.390620  0.964195  0.661939  1
  O  O44  1  0.378436  0.750000  0.164104  1
  O  O45  1  0.380490  0.250000  0.665549  1
  O  O46  1  0.390022  0.104430  0.899171  1
  O  O47  1  0.390022  0.395570  0.899171  1
  O  O48  1  0.387904  0.605886  0.398706  1
  O  O49  1  0.387904  0.894114  0.398706  1
  O  O50  1  0.615556  0.103658  0.599883  1
  O  O51  1  0.615556  0.396342  0.599883  1
  O  O52  1  0.611792  0.601878  0.098741  1
  O  O53  1  0.611792  0.898122  0.098741  1
  O  O54  1  0.623345  0.750000  0.333761  1
  O  O55  1  0.625192  0.250000  0.837830  1
  O  O56  1  0.608761  0.036567  0.336721  1
  O  O57  1  0.608761  0.463433  0.336721  1
  O  O58  1  0.615681  0.966273  0.837510  1
  O  O59  1  0.615681  0.533727  0.837510  1
  O  O60  1  0.750867  0.868156  0.517268  1
  O  O61  1  0.750867  0.631844  0.517268  1
  O  O62  1  0.750778  0.250000  0.393997  1
  O  O63  1  0.751305  0.750000  0.895159  1
  O  O64  1  0.757342  0.131675  0.018578  1
  O  O65  1  0.757342  0.368325  0.018578  1
  O  O66  1  0.883828  0.034597  0.337475  1
  O  O67  1  0.883828  0.465403  0.337475  1
  O  O68  1  0.890620  0.535805  0.838061  1
  O  O69  1  0.890620  0.964195  0.838061  1
  O  O70  1  0.878436  0.750000  0.335896  1
  O  O71  1  0.880490  0.250000  0.834451  1
  O  O72  1  0.890022  0.104430  0.600829  1
  O  O73  1  0.890022  0.395570  0.600829  1
  O  O74  1  0.887904  0.894114  0.101294  1
  O  O75  1  0.887904  0.605886  0.101294  1
