# generated using pymatgen
data_K2CoP4H10O17
_symmetry_space_group_name_H-M   'P 1'
_cell_length_a   13.13207912
_cell_length_b   16.37381910
_cell_length_c   7.49235445
_cell_angle_alpha   90.00000000
_cell_angle_beta   91.80527314
_cell_angle_gamma   90.00000000
_symmetry_Int_Tables_number   1
_chemical_formula_structural   K2CoP4H10O17
_chemical_formula_sum   'K8 Co4 P16 H40 O68'
_cell_volume   1610.22358881
_cell_formula_units_Z   4
loop_
 _symmetry_equiv_pos_site_id
 _symmetry_equiv_pos_as_xyz
  1  'x, y, z'
loop_
 _atom_site_type_symbol
 _atom_site_label
 _atom_site_symmetry_multiplicity
 _atom_site_fract_x
 _atom_site_fract_y
 _atom_site_fract_z
 _atom_site_occupancy
  K  K0  1  0.068544  0.775157  0.978573  1
  K  K1  1  0.068544  0.724843  0.478573  1
  K  K2  1  0.395577  0.341875  0.773923  1
  K  K3  1  0.395577  0.158125  0.273923  1
  K  K4  1  0.604423  0.841875  0.726077  1
  K  K5  1  0.604423  0.658125  0.226077  1
  K  K6  1  0.931456  0.275157  0.521427  1
  K  K7  1  0.931456  0.224843  0.021427  1
  Co  Co8  1  0.000000  0.500000  0.500000  1
  Co  Co9  1  0.000000  0.000000  0.000000  1
  Co  Co10  1  0.500000  0.500000  0.500000  1
  Co  Co11  1  0.500000  0.000000  0.000000  1
  P  P12  1  0.128170  0.119563  0.729205  1
  P  P13  1  0.133417  0.943068  0.651600  1
  P  P14  1  0.128170  0.380437  0.229205  1
  P  P15  1  0.133417  0.556932  0.151600  1
  P  P16  1  0.355123  0.122834  0.738930  1
  P  P17  1  0.358440  0.948323  0.643251  1
  P  P18  1  0.355123  0.377166  0.238930  1
  P  P19  1  0.358440  0.551677  0.143251  1
  P  P20  1  0.641560  0.448323  0.856749  1
  P  P21  1  0.644877  0.622834  0.761070  1
  P  P22  1  0.641560  0.051677  0.356749  1
  P  P23  1  0.644877  0.877166  0.261070  1
  P  P24  1  0.866583  0.443068  0.848400  1
  P  P25  1  0.871830  0.619563  0.770795  1
  P  P26  1  0.866583  0.056932  0.348400  1
  P  P27  1  0.871830  0.880437  0.270795  1
  H  H28  1  0.127417  0.538242  0.769708  1
  H  H29  1  0.127417  0.961758  0.269708  1
  H  H30  1  0.149022  0.446489  0.704808  1
  H  H31  1  0.149022  0.053511  0.204808  1
  H  H32  1  0.161101  0.330968  0.882838  1
  H  H33  1  0.164626  0.298936  0.686779  1
  H  H34  1  0.161101  0.169032  0.382838  1
  H  H35  1  0.164626  0.201064  0.186779  1
  H  H36  1  0.220133  0.670084  0.839838  1
  H  H37  1  0.220133  0.829916  0.339838  1
  H  H38  1  0.286738  0.719030  0.705075  1
  H  H39  1  0.286738  0.780970  0.205075  1
  H  H40  1  0.301479  0.523734  0.602761  1
  H  H41  1  0.301479  0.976266  0.102761  1
  H  H42  1  0.371843  0.547920  0.770636  1
  H  H43  1  0.371843  0.952080  0.270636  1
  H  H44  1  0.397467  0.777273  0.515676  1
  H  H45  1  0.397467  0.722727  0.015676  1
  H  H46  1  0.449001  0.692906  0.568074  1
  H  H47  1  0.449001  0.807094  0.068074  1
  H  H48  1  0.550999  0.192906  0.931926  1
  H  H49  1  0.550999  0.307094  0.431926  1
  H  H50  1  0.602533  0.277273  0.984324  1
  H  H51  1  0.602533  0.222727  0.484324  1
  H  H52  1  0.628157  0.047920  0.729364  1
  H  H53  1  0.628157  0.452080  0.229364  1
  H  H54  1  0.698521  0.023734  0.897239  1
  H  H55  1  0.698521  0.476266  0.397239  1
  H  H56  1  0.713262  0.219030  0.794925  1
  H  H57  1  0.713262  0.280970  0.294925  1
  H  H58  1  0.779867  0.170084  0.660162  1
  H  H59  1  0.779867  0.329916  0.160162  1
  H  H60  1  0.835374  0.798936  0.813221  1
  H  H61  1  0.838899  0.830968  0.617162  1
  H  H62  1  0.835374  0.701064  0.313221  1
  H  H63  1  0.838899  0.669032  0.117162  1
  H  H64  1  0.850978  0.946489  0.795192  1
  H  H65  1  0.850978  0.553511  0.295192  1
  H  H66  1  0.872583  0.038242  0.730292  1
  H  H67  1  0.872583  0.461758  0.230292  1
  O  O68  1  0.055026  0.108940  0.878062  1
  O  O69  1  0.055026  0.391060  0.378062  1
  O  O70  1  0.066281  0.923619  0.805216  1
  O  O71  1  0.066281  0.576381  0.305216  1
  O  O72  1  0.120363  0.602551  0.979636  1
  O  O73  1  0.116231  0.192498  0.609033  1
  O  O74  1  0.120363  0.897449  0.479636  1
  O  O75  1  0.116231  0.307502  0.109033  1
  O  O76  1  0.125908  0.039539  0.601166  1
  O  O77  1  0.134258  0.503496  0.662413  1
  O  O78  1  0.125908  0.460461  0.101166  1
  O  O79  1  0.134258  0.996504  0.162413  1
  O  O80  1  0.183391  0.346207  0.762334  1
  O  O81  1  0.183391  0.153793  0.262334  1
  O  O82  1  0.217016  0.714567  0.752203  1
  O  O83  1  0.217016  0.785433  0.252203  1
  O  O84  1  0.241827  0.115339  0.821687  1
  O  O85  1  0.249213  0.934291  0.733284  1
  O  O86  1  0.241827  0.384661  0.321687  1
  O  O87  1  0.249213  0.565709  0.233284  1
  O  O88  1  0.357091  0.045701  0.600301  1
  O  O89  1  0.365169  0.595177  0.968748  1
  O  O90  1  0.364746  0.197101  0.627853  1
  O  O91  1  0.369976  0.516495  0.655654  1
  O  O92  1  0.357091  0.454299  0.100301  1
  O  O93  1  0.365169  0.904823  0.468748  1
  O  O94  1  0.364746  0.302899  0.127853  1
  O  O95  1  0.369976  0.983505  0.155654  1
  O  O96  1  0.407541  0.737695  0.612735  1
  O  O97  1  0.428591  0.107619  0.895247  1
  O  O98  1  0.407541  0.762305  0.112735  1
  O  O99  1  0.428591  0.392381  0.395247  1
  O  O100  1  0.436972  0.930699  0.789192  1
  O  O101  1  0.436972  0.569301  0.289192  1
  O  O102  1  0.563028  0.430699  0.710808  1
  O  O103  1  0.563028  0.069301  0.210808  1
  O  O104  1  0.571408  0.607619  0.604753  1
  O  O105  1  0.592459  0.237695  0.887265  1
  O  O106  1  0.571408  0.892381  0.104753  1
  O  O107  1  0.592459  0.262305  0.387265  1
  O  O108  1  0.630024  0.016495  0.844346  1
  O  O109  1  0.635254  0.697101  0.872147  1
  O  O110  1  0.634831  0.095177  0.531252  1
  O  O111  1  0.642909  0.545701  0.899699  1
  O  O112  1  0.630024  0.483505  0.344346  1
  O  O113  1  0.635254  0.802899  0.372147  1
  O  O114  1  0.634831  0.404823  0.031252  1
  O  O115  1  0.642909  0.954299  0.399699  1
  O  O116  1  0.750787  0.434291  0.766716  1
  O  O117  1  0.758173  0.615339  0.678313  1
  O  O118  1  0.750787  0.065709  0.266716  1
  O  O119  1  0.758173  0.884661  0.178313  1
  O  O120  1  0.782984  0.214567  0.747797  1
  O  O121  1  0.782984  0.285433  0.247797  1
  O  O122  1  0.816609  0.846207  0.737666  1
  O  O123  1  0.816609  0.653793  0.237666  1
  O  O124  1  0.865742  0.003496  0.837587  1
  O  O125  1  0.874092  0.539539  0.898834  1
  O  O126  1  0.865742  0.496504  0.337587  1
  O  O127  1  0.874092  0.960461  0.398834  1
  O  O128  1  0.883769  0.692498  0.890967  1
  O  O129  1  0.879637  0.102551  0.520364  1
  O  O130  1  0.883769  0.807502  0.390967  1
  O  O131  1  0.879637  0.397449  0.020364  1
  O  O132  1  0.933719  0.423619  0.694784  1
  O  O133  1  0.933719  0.076381  0.194784  1
  O  O134  1  0.944974  0.608940  0.621938  1
  O  O135  1  0.944974  0.891060  0.121938  1
