# generated using pymatgen
data_Li4Mn(WO4)3
_symmetry_space_group_name_H-M   'P 1'
_cell_length_a   5.54069913
_cell_length_b   11.08593933
_cell_length_c   9.79941487
_cell_angle_alpha   28.03158498
_cell_angle_beta   51.17241617
_cell_angle_gamma   56.27680397
_symmetry_Int_Tables_number   1
_chemical_formula_structural   Li4Mn(WO4)3
_chemical_formula_sum   'Li4 Mn1 W3 O12'
_cell_volume   220.36830236
_cell_formula_units_Z   1
loop_
 _symmetry_equiv_pos_site_id
 _symmetry_equiv_pos_as_xyz
  1  'x, y, z'
loop_
 _atom_site_type_symbol
 _atom_site_label
 _atom_site_symmetry_multiplicity
 _atom_site_fract_x
 _atom_site_fract_y
 _atom_site_fract_z
 _atom_site_occupancy
  Li  Li0  1  0.245625  0.996960  0.320223  1
  Li  Li1  1  0.330239  0.504884  0.259350  1
  Li  Li2  1  0.754906  0.004776  0.723135  1
  Li  Li3  1  0.778461  0.489725  0.826034  1
  Mn  Mn4  1  0.013672  0.499580  0.997786  1
  W  W5  1  0.002157  -0.000354  0.012278  1
  W  W6  1  0.480309  0.009159  0.505359  1
  W  W7  1  0.525437  0.496920  0.501499  1
  O  O8  1  0.396293  0.289196  0.134558  1
  O  O9  1  0.238579  0.123247  0.634985  1
  O  O10  1  0.130064  0.296512  0.763160  1
  O  O11  1  0.853403  0.179204  0.253836  1
  O  O12  1  0.362514  0.803330  0.126057  1
  O  O13  1  0.696220  0.381599  0.389756  1
  O  O14  1  0.247739  0.630123  0.592519  1
  O  O15  1  0.640259  0.193954  0.863001  1
  O  O16  1  0.140183  0.838667  0.709639  1
  O  O17  1  0.872150  0.692945  0.240258  1
  O  O18  1  0.749487  0.871621  0.365999  1
  O  O19  1  0.613507  0.697952  0.851767  1
