# generated using pymatgen
data_Sr5(CoO3)4
_symmetry_space_group_name_H-M   'P 1'
_cell_length_a   9.56500372
_cell_length_b   9.56500390
_cell_length_c   20.23545053
_cell_angle_alpha   90.00000000
_cell_angle_beta   90.00000000
_cell_angle_gamma   119.99999937
_symmetry_Int_Tables_number   1
_chemical_formula_structural   Sr5(CoO3)4
_chemical_formula_sum   'Sr30 Co24 O72'
_cell_volume   1603.29636318
_cell_formula_units_Z   6
loop_
 _symmetry_equiv_pos_site_id
 _symmetry_equiv_pos_as_xyz
  1  'x, y, z'
loop_
 _atom_site_type_symbol
 _atom_site_label
 _atom_site_symmetry_multiplicity
 _atom_site_fract_x
 _atom_site_fract_y
 _atom_site_fract_z
 _atom_site_occupancy
  Sr  Sr0  1  0.332152  0.332173  0.798539  1
  Sr  Sr1  1  0.364380  0.002680  0.498171  1
  Sr  Sr2  1  0.027383  0.693220  0.200042  1
  Sr  Sr3  1  0.667827  0.667848  0.298539  1
  Sr  Sr4  1  0.027383  0.334163  0.700042  1
  Sr  Sr5  1  0.306780  0.972617  0.700042  1
  Sr  Sr6  1  0.364380  0.361700  0.998171  1
  Sr  Sr7  1  0.667827  -0.000022  0.798539  1
  Sr  Sr8  1  0.638300  0.635620  0.498171  1
  Sr  Sr9  1  0.330142  0.994341  0.098307  1
  Sr  Sr10  1  0.970060  0.664571  0.400050  1
  Sr  Sr11  1  0.335429  0.029940  0.900050  1
  Sr  Sr12  1  0.000022  0.332173  0.298539  1
  Sr  Sr13  1  0.665837  0.972617  0.200042  1
  Sr  Sr14  1  -0.002680  0.635620  0.998171  1
  Sr  Sr15  1  0.005659  0.335801  0.098307  1
  Sr  Sr16  1  0.970060  0.305489  0.900050  1
  Sr  Sr17  1  0.330142  0.335801  0.598307  1
  Sr  Sr18  1  0.664199  0.994341  0.598307  1
  Sr  Sr19  1  0.665837  0.693220  0.700042  1
  Sr  Sr20  1  0.335429  0.305489  0.400050  1
  Sr  Sr21  1  0.005659  0.669858  0.598307  1
  Sr  Sr22  1  0.000022  0.667848  0.798539  1
  Sr  Sr23  1  0.694511  0.664571  0.900050  1
  Sr  Sr24  1  0.332152  -0.000022  0.298539  1
  Sr  Sr25  1  0.306780  0.334163  0.200042  1
  Sr  Sr26  1  -0.002680  0.361700  0.498171  1
  Sr  Sr27  1  0.664199  0.669858  0.098307  1
  Sr  Sr28  1  0.694511  0.029940  0.400050  1
  Sr  Sr29  1  0.638300  0.002680  0.998171  1
  Co  Co30  1  0.333333  0.666667  0.028011  1
  Co  Co31  1  0.333333  0.666667  0.528011  1
  Co  Co32  1  0.333333  0.666667  0.899060  1
  Co  Co33  1  0.000000  0.000000  0.126555  1
  Co  Co34  1  0.666667  0.333333  0.449623  1
  Co  Co35  1  0.666667  0.333333  0.326346  1
  Co  Co36  1  0.666667  0.333333  0.073233  1
  Co  Co37  1  0.666667  0.333333  0.949623  1
  Co  Co38  1  0.333333  0.666667  0.649523  1
  Co  Co39  1  0.333333  0.666667  0.772058  1
  Co  Co40  1  0.666667  0.333333  0.699622  1
  Co  Co41  1  0.666667  0.333333  0.826346  1
  Co  Co42  1  0.333333  0.666667  0.149523  1
  Co  Co43  1  0.333333  0.666667  0.272058  1
  Co  Co44  1  0.000000  0.000000  0.998681  1
  Co  Co45  1  0.000000  0.000000  0.248647  1
  Co  Co46  1  0.000000  0.000000  0.626555  1
  Co  Co47  1  0.666667  0.333333  0.573233  1
  Co  Co48  1  0.000000  0.000000  0.498681  1
  Co  Co49  1  0.666667  0.333333  0.199622  1
  Co  Co50  1  0.000000  0.000000  0.869947  1
  Co  Co51  1  0.333333  0.666667  0.399060  1
  Co  Co52  1  0.000000  0.000000  0.748647  1
  Co  Co53  1  0.000000  0.000000  0.369947  1
  O  O54  1  0.150290  0.993464  0.429322  1
  O  O55  1  0.006536  0.156826  0.429322  1
  O  O56  1  0.325781  0.509164  0.469999  1
  O  O57  1  0.810086  0.489167  0.267218  1
  O  O58  1  0.000578  0.153539  0.806405  1
  O  O59  1  0.846905  0.997896  0.067269  1
  O  O60  1  0.487780  0.671200  0.829854  1
  O  O61  1  0.483817  0.826228  0.708828  1
  O  O62  1  0.150290  0.156826  0.929322  1
  O  O63  1  0.992558  0.152917  0.189938  1
  O  O64  1  0.829238  0.346973  0.389237  1
  O  O65  1  0.490836  0.674219  0.969999  1
  O  O66  1  0.483817  0.657589  0.208828  1
  O  O67  1  0.490836  0.816617  0.469999  1
  O  O68  1  0.181786  0.514591  0.590696  1
  O  O69  1  0.847083  0.007442  0.689938  1
  O  O70  1  0.485409  0.818214  0.090696  1
  O  O71  1  0.152961  0.153539  0.306405  1
  O  O72  1  0.653582  0.177298  0.132322  1
  O  O73  1  0.510833  0.320919  0.267218  1
  O  O74  1  0.160359  0.007442  0.189938  1
  O  O75  1  0.846461  0.847039  0.806405  1
  O  O76  1  0.183421  0.512220  0.829854  1
  O  O77  1  0.002105  0.153095  0.567269  1
  O  O78  1  0.173772  0.657589  0.708828  1
  O  O79  1  0.523717  0.346418  0.132322  1
  O  O80  1  0.679081  0.189914  0.267218  1
  O  O81  1  0.517735  0.170762  0.389237  1
  O  O82  1  0.679081  0.489167  0.767218  1
  O  O83  1  0.815302  0.495663  0.510033  1
  O  O84  1  0.342411  0.826228  0.208828  1
  O  O85  1  0.487780  0.816579  0.329854  1
  O  O86  1  0.332805  0.818214  0.590696  1
  O  O87  1  0.822702  0.346418  0.632322  1
  O  O88  1  0.517735  0.346973  0.889237  1
  O  O89  1  0.847083  0.839641  0.189938  1
  O  O90  1  0.152961  -0.000578  0.806405  1
  O  O91  1  0.150991  0.153095  0.067269  1
  O  O92  1  0.173772  0.516183  0.208828  1
  O  O93  1  0.653027  0.482265  0.389237  1
  O  O94  1  0.523717  0.177298  0.632322  1
  O  O95  1  0.653027  0.170762  0.889237  1
  O  O96  1  0.006536  0.849710  0.929322  1
  O  O97  1  0.846905  0.849009  0.567269  1
  O  O98  1  0.680361  0.495663  0.010033  1
  O  O99  1  0.846461  -0.000578  0.306405  1
  O  O100  1  0.504337  0.319639  0.510033  1
  O  O101  1  0.992558  0.839641  0.689938  1
  O  O102  1  0.815302  0.319639  0.010033  1
  O  O103  1  0.822702  0.476283  0.132322  1
  O  O104  1  0.653582  0.476283  0.632322  1
  O  O105  1  0.332805  0.514591  0.090696  1
  O  O106  1  0.183383  0.674219  0.469999  1
  O  O107  1  0.680361  0.184698  0.510033  1
  O  O108  1  0.002105  0.849009  0.067269  1
  O  O109  1  0.183383  0.509164  0.969999  1
  O  O110  1  0.510833  0.189914  0.767218  1
  O  O111  1  0.843174  0.993464  0.929322  1
  O  O112  1  0.810086  0.320919  0.767218  1
  O  O113  1  0.342411  0.516183  0.708828  1
  O  O114  1  0.000578  0.847039  0.306405  1
  O  O115  1  0.181786  0.667195  0.090696  1
  O  O116  1  0.150991  0.997896  0.567269  1
  O  O117  1  0.504337  0.184698  0.010033  1
  O  O118  1  0.160359  0.152917  0.689938  1
  O  O119  1  0.183421  0.671200  0.329854  1
  O  O120  1  0.843174  0.849710  0.429322  1
  O  O121  1  0.485409  0.667195  0.590696  1
  O  O122  1  0.829238  0.482265  0.889237  1
  O  O123  1  0.328800  0.512220  0.329854  1
  O  O124  1  0.328800  0.816579  0.829854  1
  O  O125  1  0.325781  0.816617  0.969999  1
