# generated using pymatgen
data_Li3MnAsCO7
_symmetry_space_group_name_H-M   'P 1'
_cell_length_a   8.71613102
_cell_length_b   6.80668582
_cell_length_c   5.03340424
_cell_angle_alpha   90.00000000
_cell_angle_beta   87.88032298
_cell_angle_gamma   90.00000000
_symmetry_Int_Tables_number   1
_chemical_formula_structural   Li3MnAsCO7
_chemical_formula_sum   'Li6 Mn2 As2 C2 O14'
_cell_volume   298.41730086
_cell_formula_units_Z   2
loop_
 _symmetry_equiv_pos_site_id
 _symmetry_equiv_pos_as_xyz
  1  'x, y, z'
loop_
 _atom_site_type_symbol
 _atom_site_label
 _atom_site_symmetry_multiplicity
 _atom_site_fract_x
 _atom_site_fract_y
 _atom_site_fract_z
 _atom_site_occupancy
  Li  Li0  1  0.077386  0.250000  0.740014  1
  Li  Li1  1  0.261866  0.029099  0.221678  1
  Li  Li2  1  0.261866  0.470901  0.221678  1
  Li  Li3  1  0.738134  0.529099  0.778322  1
  Li  Li4  1  0.738134  0.970901  0.778322  1
  Li  Li5  1  0.922614  0.750000  0.259986  1
  Mn  Mn6  1  0.338646  0.750000  0.771174  1
  Mn  Mn7  1  0.661354  0.250000  0.228826  1
  As  As8  1  0.409931  0.250000  0.708091  1
  As  As9  1  0.590069  0.750000  0.291909  1
  C  C10  1  0.031279  0.750000  0.721600  1
  C  C11  1  0.968721  0.250000  0.278400  1
  O  O12  1  0.113716  0.250000  0.333963  1
  O  O13  1  0.074708  0.750000  0.964897  1
  O  O14  1  0.132699  0.750000  0.525108  1
  O  O15  1  0.298549  0.056136  0.819501  1
  O  O16  1  0.298549  0.443864  0.819501  1
  O  O17  1  0.423325  0.250000  0.363345  1
  O  O18  1  0.402467  0.750000  0.195365  1
  O  O19  1  0.597533  0.250000  0.804635  1
  O  O20  1  0.576675  0.750000  0.636655  1
  O  O21  1  0.701451  0.556136  0.180499  1
  O  O22  1  0.701451  0.943864  0.180499  1
  O  O23  1  0.867301  0.250000  0.474892  1
  O  O24  1  0.925292  0.250000  0.035103  1
  O  O25  1  0.886284  0.750000  0.666037  1
