# generated using pymatgen
data_TeP6H30(NO4)6
_symmetry_space_group_name_H-M   'P 1'
_cell_length_a   8.98331225
_cell_length_b   8.98331225
_cell_length_c   8.98331204
_cell_angle_alpha   78.68764277
_cell_angle_beta   78.68764275
_cell_angle_gamma   78.68763824
_symmetry_Int_Tables_number   1
_chemical_formula_structural   TeP6H30(NO4)6
_chemical_formula_sum   'Te1 P6 H30 N6 O24'
_cell_volume   687.62103758
_cell_formula_units_Z   1
loop_
 _symmetry_equiv_pos_site_id
 _symmetry_equiv_pos_as_xyz
  1  'x, y, z'
loop_
 _atom_site_type_symbol
 _atom_site_label
 _atom_site_symmetry_multiplicity
 _atom_site_fract_x
 _atom_site_fract_y
 _atom_site_fract_z
 _atom_site_occupancy
  Te  Te0  1  0.000000  0.000000  0.000000  1
  P  P1  1  0.696095  0.509228  0.803669  1
  P  P2  1  0.509228  0.803669  0.696095  1
  P  P3  1  0.803669  0.696095  0.509228  1
  P  P4  1  0.303905  0.490772  0.196331  1
  P  P5  1  0.490772  0.196331  0.303905  1
  P  P6  1  0.196331  0.303905  0.490772  1
  H  H7  1  0.190929  0.917317  0.767294  1
  H  H8  1  0.917317  0.767294  0.190929  1
  H  H9  1  0.767294  0.190929  0.917317  1
  H  H10  1  0.809071  0.082683  0.232706  1
  H  H11  1  0.082683  0.232706  0.809071  1
  H  H12  1  0.232706  0.809071  0.082683  1
  H  H13  1  0.263753  0.850825  0.457280  1
  H  H14  1  0.850825  0.457280  0.263753  1
  H  H15  1  0.457280  0.263753  0.850825  1
  H  H16  1  0.736247  0.149175  0.542720  1
  H  H17  1  0.149175  0.542720  0.736247  1
  H  H18  1  0.542720  0.736247  0.149175  1
  H  H19  1  0.076614  0.848597  0.451721  1
  H  H20  1  0.848597  0.451721  0.076614  1
  H  H21  1  0.451721  0.076614  0.848597  1
  H  H22  1  0.923386  0.151403  0.548279  1
  H  H23  1  0.151403  0.548279  0.923386  1
  H  H24  1  0.548279  0.923386  0.151403  1
  H  H25  1  0.803640  0.103945  0.716255  1
  H  H26  1  0.103945  0.716255  0.803640  1
  H  H27  1  0.716255  0.803640  0.103945  1
  H  H28  1  0.196360  0.896055  0.283745  1
  H  H29  1  0.896055  0.283745  0.196360  1
  H  H30  1  0.283745  0.196360  0.896055  1
  H  H31  1  0.148305  0.017795  0.411431  1
  H  H32  1  0.017795  0.411431  0.148305  1
  H  H33  1  0.411431  0.148305  0.017795  1
  H  H34  1  0.851695  0.982205  0.588569  1
  H  H35  1  0.982205  0.588569  0.851695  1
  H  H36  1  0.588569  0.851695  0.982205  1
  N  N37  1  0.827366  0.098407  0.599581  1
  N  N38  1  0.098407  0.599581  0.827366  1
  N  N39  1  0.599581  0.827366  0.098407  1
  N  N40  1  0.172634  0.901593  0.400419  1
  N  N41  1  0.901593  0.400419  0.172634  1
  N  N42  1  0.400419  0.172634  0.901593  1
  O  O43  1  0.802992  0.076104  0.928783  1
  O  O44  1  0.076104  0.928783  0.802992  1
  O  O45  1  0.928783  0.802992  0.076104  1
  O  O46  1  0.197008  0.923896  0.071217  1
  O  O47  1  0.923896  0.071217  0.197008  1
  O  O48  1  0.071217  0.197008  0.923896  1
  O  O49  1  0.837184  0.656349  0.350025  1
  O  O50  1  0.656349  0.350025  0.837184  1
  O  O51  1  0.350025  0.837184  0.656349  1
  O  O52  1  0.162816  0.343651  0.649975  1
  O  O53  1  0.343651  0.649975  0.162816  1
  O  O54  1  0.649975  0.162816  0.343651  1
  O  O55  1  0.627830  0.788088  0.536270  1
  O  O56  1  0.788088  0.536270  0.627830  1
  O  O57  1  0.536270  0.627830  0.788088  1
  O  O58  1  0.372170  0.211912  0.463730  1
  O  O59  1  0.211912  0.463730  0.372170  1
  O  O60  1  0.463730  0.372170  0.211912  1
  O  O61  1  0.445107  0.091392  0.215386  1
  O  O62  1  0.091392  0.215386  0.445107  1
  O  O63  1  0.215386  0.445107  0.091392  1
  O  O64  1  0.554893  0.908608  0.784614  1
  O  O65  1  0.908608  0.784614  0.554893  1
  O  O66  1  0.784614  0.554893  0.908608  1
