# generated using pymatgen
data_Li3BiB4O9
_symmetry_space_group_name_H-M   'P 1'
_cell_length_a   5.71577748
_cell_length_b   8.67905663
_cell_length_c   7.47080637
_cell_angle_alpha   90.00000000
_cell_angle_beta   107.11927033
_cell_angle_gamma   90.00000000
_symmetry_Int_Tables_number   1
_chemical_formula_structural   Li3BiB4O9
_chemical_formula_sum   'Li6 Bi2 B8 O18'
_cell_volume   354.18829505
_cell_formula_units_Z   2
loop_
 _symmetry_equiv_pos_site_id
 _symmetry_equiv_pos_as_xyz
  1  'x, y, z'
loop_
 _atom_site_type_symbol
 _atom_site_label
 _atom_site_symmetry_multiplicity
 _atom_site_fract_x
 _atom_site_fract_y
 _atom_site_fract_z
 _atom_site_occupancy
  Li  Li0  1  0.210550  0.531237  0.252478  1
  Li  Li1  1  0.210550  0.968763  0.252478  1
  Li  Li2  1  0.437931  0.250000  0.485989  1
  Li  Li3  1  0.562069  0.750000  0.514011  1
  Li  Li4  1  0.789450  0.031237  0.747522  1
  Li  Li5  1  0.789450  0.468763  0.747522  1
  Bi  Bi6  1  0.349284  0.250000  0.934714  1
  Bi  Bi7  1  0.650716  0.750000  0.065286  1
  B  B8  1  0.024256  0.250000  0.272107  1
  B  B9  1  0.096022  0.750000  0.442336  1
  B  B10  1  0.280942  0.551545  0.689973  1
  B  B11  1  0.280942  0.948455  0.689973  1
  B  B12  1  0.719058  0.051545  0.310027  1
  B  B13  1  0.719058  0.448455  0.310027  1
  B  B14  1  0.903978  0.250000  0.557664  1
  B  B15  1  0.975744  0.750000  0.727893  1
  O  O16  1  0.131951  0.893158  0.793681  1
  O  O17  1  0.131951  0.606842  0.793681  1
  O  O18  1  0.103070  0.250000  0.479550  1
  O  O19  1  0.032944  0.750000  0.237515  1
  O  O20  1  0.264156  0.612038  0.513834  1
  O  O21  1  0.264156  0.887962  0.513834  1
  O  O22  1  0.236892  0.250000  0.209390  1
  O  O23  1  0.453505  0.058875  0.764334  1
  O  O24  1  0.453505  0.441125  0.764334  1
  O  O25  1  0.546495  0.558875  0.235666  1
  O  O26  1  0.546495  0.941125  0.235666  1
  O  O27  1  0.763108  0.750000  0.790610  1
  O  O28  1  0.735844  0.112038  0.486166  1
  O  O29  1  0.735844  0.387962  0.486166  1
  O  O30  1  0.967056  0.250000  0.762485  1
  O  O31  1  0.896930  0.750000  0.520450  1
  O  O32  1  0.868049  0.106842  0.206319  1
  O  O33  1  0.868049  0.393158  0.206319  1
