# generated using pymatgen
data_Li4Ti2Cr3Ni3O16
_symmetry_space_group_name_H-M   'P 1'
_cell_length_a   5.87897010
_cell_length_b   5.80181070
_cell_length_c   9.45267848
_cell_angle_alpha   90.11171160
_cell_angle_beta   91.86688536
_cell_angle_gamma   119.51168787
_symmetry_Int_Tables_number   1
_chemical_formula_structural   Li4Ti2Cr3Ni3O16
_chemical_formula_sum   'Li4 Ti2 Cr3 Ni3 O16'
_cell_volume   280.37724427
_cell_formula_units_Z   1
loop_
 _symmetry_equiv_pos_site_id
 _symmetry_equiv_pos_as_xyz
  1  'x, y, z'
loop_
 _atom_site_type_symbol
 _atom_site_label
 _atom_site_symmetry_multiplicity
 _atom_site_fract_x
 _atom_site_fract_y
 _atom_site_fract_z
 _atom_site_occupancy
  Li  Li0  1  0.323158  0.662023  0.891797  1
  Li  Li1  1  0.997446  0.996944  0.992798  1
  Li  Li2  1  0.996165  0.998668  0.495200  1
  Li  Li3  1  0.675256  0.338167  0.396033  1
  Ti  Ti4  1  0.328075  0.665020  0.500174  1
  Ti  Ti5  1  0.666025  0.330400  -0.001877  1
  Cr  Cr6  1  0.184569  0.838037  0.219581  1
  Cr  Cr7  1  0.184863  0.346341  0.219327  1
  Cr  Cr8  1  0.343595  0.174051  0.721463  1
  Ni  Ni9  1  0.661170  0.830670  0.208937  1
  Ni  Ni10  1  0.826248  0.659080  0.711941  1
  Ni  Ni11  1  0.823894  0.164539  0.712566  1
  O  O12  1  0.184244  0.846986  0.595544  1
  O  O13  1  0.043035  0.522355  0.342076  1
  O  O14  1  0.299521  0.649163  0.103385  1
  O  O15  1  0.017103  0.009073  0.303936  1
  O  O16  1  0.002458  0.002034  0.803904  1
  O  O17  1  0.185246  0.339682  0.595711  1
  O  O18  1  0.473340  0.963578  0.341785  1
  O  O19  1  0.474205  0.511834  0.342364  1
  O  O20  1  0.339385  0.168960  0.100001  1
  O  O21  1  0.674659  0.838572  0.595665  1
  O  O22  1  0.502227  0.469911  0.843498  1
  O  O23  1  0.500363  0.032010  0.843912  1
  O  O24  1  0.657453  0.327813  0.610808  1
  O  O25  1  0.843246  0.666084  0.091793  1
  O  O26  1  0.949899  0.473235  0.833037  1
  O  O27  1  0.843151  0.175071  0.092481  1
