# generated using pymatgen
data_Mn3Cr2Cu(PO4)6
_symmetry_space_group_name_H-M   'P 1'
_cell_length_a   8.40978142
_cell_length_b   8.40978161
_cell_length_c   8.40978139
_cell_angle_alpha   61.64824084
_cell_angle_beta   61.64823651
_cell_angle_gamma   61.64823757
_symmetry_Int_Tables_number   1
_chemical_formula_structural   Mn3Cr2Cu(PO4)6
_chemical_formula_sum   'Mn3 Cr2 Cu1 P6 O24'
_cell_volume   436.11516254
_cell_formula_units_Z   1
loop_
 _symmetry_equiv_pos_site_id
 _symmetry_equiv_pos_as_xyz
  1  'x, y, z'
loop_
 _atom_site_type_symbol
 _atom_site_label
 _atom_site_symmetry_multiplicity
 _atom_site_fract_x
 _atom_site_fract_y
 _atom_site_fract_z
 _atom_site_occupancy
  Mn  Mn0  1  0.143414  0.143414  0.143414  1
  Mn  Mn1  1  0.355879  0.355879  0.355879  1
  Mn  Mn2  1  0.644521  0.644521  0.644521  1
  Cr  Cr3  1  0.998046  0.998046  0.998046  1
  Cr  Cr4  1  0.499939  0.499939  0.499939  1
  Cu  Cu5  1  0.853973  0.853973  0.853973  1
  P  P6  1  0.047430  0.751081  0.452599  1
  P  P7  1  0.452599  0.047430  0.751081  1
  P  P8  1  0.751081  0.452599  0.047430  1
  P  P9  1  0.249144  0.546247  0.955220  1
  P  P10  1  0.546247  0.955220  0.249144  1
  P  P11  1  0.955220  0.249144  0.546247  1
  O  O12  1  0.110446  0.321176  0.505892  1
  O  O13  1  0.321176  0.505892  0.110446  1
  O  O14  1  0.062671  0.904698  0.247324  1
  O  O15  1  0.505892  0.110446  0.321176  1
  O  O16  1  0.019034  0.817655  0.605073  1
  O  O17  1  0.251189  0.590884  0.436334  1
  O  O18  1  0.247324  0.062671  0.904698  1
  O  O19  1  0.436334  0.251189  0.590884  1
  O  O20  1  0.182942  0.390587  0.988851  1
  O  O21  1  0.590884  0.436334  0.251189  1
  O  O22  1  0.096538  0.749414  0.941181  1
  O  O23  1  0.390587  0.988851  0.182942  1
  O  O24  1  0.605073  0.019034  0.817655  1
  O  O25  1  0.904698  0.247324  0.062671  1
  O  O26  1  0.407451  0.559709  0.750926  1
  O  O27  1  0.817655  0.605073  0.019034  1
  O  O28  1  0.559709  0.750926  0.407451  1
  O  O29  1  0.749414  0.941181  0.096538  1
  O  O30  1  0.750926  0.407451  0.559709  1
  O  O31  1  0.988851  0.182942  0.390587  1
  O  O32  1  0.488779  0.891058  0.682697  1
  O  O33  1  0.941181  0.096538  0.749414  1
  O  O34  1  0.682697  0.488779  0.891058  1
  O  O35  1  0.891058  0.682697  0.488779  1
