# generated using pymatgen
data_Li3Mn4(BO3)4
_symmetry_space_group_name_H-M   'P 1'
_cell_length_a   7.85630634
_cell_length_b   10.55406334
_cell_length_c   6.19297069
_cell_angle_alpha   87.91727541
_cell_angle_beta   79.36462203
_cell_angle_gamma   87.45256768
_symmetry_Int_Tables_number   1
_chemical_formula_structural   Li3Mn4(BO3)4
_chemical_formula_sum   'Li6 Mn8 B8 O24'
_cell_volume   503.96918893
_cell_formula_units_Z   2
loop_
 _symmetry_equiv_pos_site_id
 _symmetry_equiv_pos_as_xyz
  1  'x, y, z'
loop_
 _atom_site_type_symbol
 _atom_site_label
 _atom_site_symmetry_multiplicity
 _atom_site_fract_x
 _atom_site_fract_y
 _atom_site_fract_z
 _atom_site_occupancy
  Li  Li0  1  0.811197  0.283292  0.869844  1
  Li  Li1  1  0.690510  0.461845  0.624004  1
  Li  Li2  1  0.298753  0.041928  0.359175  1
  Li  Li3  1  0.701247  0.958072  0.640825  1
  Li  Li4  1  0.309490  0.538155  0.375996  1
  Li  Li5  1  0.188803  0.716708  0.130156  1
  Mn  Mn6  1  0.837085  0.208034  0.408252  1
  Mn  Mn7  1  0.681926  0.031211  0.081767  1
  Mn  Mn8  1  0.322410  0.451262  0.926995  1
  Mn  Mn9  1  0.810534  0.708984  0.437547  1
  Mn  Mn10  1  0.189466  0.291016  0.562453  1
  Mn  Mn11  1  0.677590  0.548738  0.073005  1
  Mn  Mn12  1  0.318074  0.968789  0.918233  1
  Mn  Mn13  1  0.162915  0.791966  0.591748  1
  B  B14  1  0.501827  0.209875  0.742751  1
  B  B15  1  0.002385  0.467646  0.279265  1
  B  B16  1  0.487425  0.711886  0.762757  1
  B  B17  1  0.989219  0.955778  0.268089  1
  B  B18  1  0.010781  0.044222  0.731911  1
  B  B19  1  0.512575  0.288114  0.237243  1
  B  B20  1  0.997615  0.532354  0.720735  1
  B  B21  1  0.498173  0.790125  0.257249  1
  O  O22  1  0.989501  0.174827  0.691275  1
  O  O23  1  0.865479  0.462670  0.832908  1
  O  O24  1  0.826529  0.013661  0.347501  1
  O  O25  1  0.525823  0.083088  0.798206  1
  O  O26  1  0.968686  0.657987  0.650363  1
  O  O27  1  0.639307  0.284517  0.658285  1
  O  O28  1  0.876237  0.973393  0.830432  1
  O  O29  1  0.333436  0.268253  0.790855  1
  O  O30  1  0.833495  0.519990  0.337351  1
  O  O31  1  0.520106  0.582701  0.802326  1
  O  O32  1  0.675748  0.232178  0.156912  1
  O  O33  1  0.616444  0.786452  0.650838  1
  O  O34  1  0.383556  0.213548  0.349162  1
  O  O35  1  0.324252  0.767822  0.843088  1
  O  O36  1  0.479894  0.417299  0.197674  1
  O  O37  1  0.166505  0.480010  0.662649  1
  O  O38  1  0.666564  0.731747  0.209145  1
  O  O39  1  0.123763  0.026607  0.169568  1
  O  O40  1  0.360693  0.715483  0.341715  1
  O  O41  1  0.031314  0.342013  0.349637  1
  O  O42  1  0.474177  0.916912  0.201794  1
  O  O43  1  0.173471  0.986339  0.652499  1
  O  O44  1  0.134521  0.537330  0.167092  1
  O  O45  1  0.010499  0.825173  0.308725  1
