# generated using pymatgen
data_LiCuBO3
_symmetry_space_group_name_H-M   'P 1'
_cell_length_a   8.09513717
_cell_length_b   8.09552116
_cell_length_c   3.05027662
_cell_angle_alpha   90.00000000
_cell_angle_beta   90.00000000
_cell_angle_gamma   119.99331977
_symmetry_Int_Tables_number   1
_chemical_formula_structural   LiCuBO3
_chemical_formula_sum   'Li3 Cu3 B3 O9'
_cell_volume   173.12831912
_cell_formula_units_Z   3
loop_
 _symmetry_equiv_pos_site_id
 _symmetry_equiv_pos_as_xyz
  1  'x, y, z'
loop_
 _atom_site_type_symbol
 _atom_site_label
 _atom_site_symmetry_multiplicity
 _atom_site_fract_x
 _atom_site_fract_y
 _atom_site_fract_z
 _atom_site_occupancy
  Li  Li0  1  0.279526  0.981364  0.500000  1
  Li  Li1  1  0.018693  0.298205  0.500000  1
  Li  Li2  1  0.701837  0.720421  0.500000  1
  Cu  Cu3  1  0.380423  0.367012  0.000000  1
  Cu  Cu4  1  0.632907  0.013497  0.000000  1
  Cu  Cu5  1  0.986564  0.619555  0.000000  1
  B  B6  1  0.333347  0.666670  0.500000  1
  B  B7  1  0.000034  0.000006  0.000000  1
  B  B8  1  0.666628  0.333315  0.500000  1
  O  O9  1  0.111089  0.914397  0.000000  1
  O  O10  1  0.136982  0.584032  0.500000  1
  O  O11  1  0.085602  0.196639  0.000000  1
  O  O12  1  0.447128  0.863100  0.500000  1
  O  O13  1  0.416006  0.552960  0.500000  1
  O  O14  1  0.469776  0.255321  0.500000  1
  O  O15  1  0.803278  0.888923  0.000000  1
  O  O16  1  0.785546  0.530183  0.500000  1
  O  O17  1  0.744632  0.214402  0.500000  1
