# generated using pymatgen
data_LiVCr(P2O7)2
_symmetry_space_group_name_H-M   'P 1'
_cell_length_a   9.73277431
_cell_length_b   8.05754823
_cell_length_c   13.30095882
_cell_angle_alpha   90.11976383
_cell_angle_beta   87.88241985
_cell_angle_gamma   90.01790736
_symmetry_Int_Tables_number   1
_chemical_formula_structural   LiVCr(P2O7)2
_chemical_formula_sum   'Li4 V4 Cr4 P16 O56'
_cell_volume   1042.37713230
_cell_formula_units_Z   4
loop_
 _symmetry_equiv_pos_site_id
 _symmetry_equiv_pos_as_xyz
  1  'x, y, z'
loop_
 _atom_site_type_symbol
 _atom_site_label
 _atom_site_symmetry_multiplicity
 _atom_site_fract_x
 _atom_site_fract_y
 _atom_site_fract_z
 _atom_site_occupancy
  Li  Li0  1  0.168744  0.864493  0.837309  1
  Li  Li1  1  0.418904  0.864337  0.337402  1
  Li  Li2  1  0.582183  0.361765  0.664748  1
  Li  Li3  1  0.832092  0.362380  0.164369  1
  V  V4  1  0.173786  0.495513  0.861290  1
  V  V5  1  0.421900  0.495953  0.361984  1
  V  V6  1  0.676079  0.507531  0.864223  1
  V  V7  1  0.927794  0.506676  0.363589  1
  Cr  Cr8  1  0.073105  0.005621  0.636334  1
  Cr  Cr9  1  0.324059  0.006785  0.135611  1
  Cr  Cr10  1  0.576704  0.997883  0.637193  1
  Cr  Cr11  1  0.825600  0.996992  0.138058  1
  P  P12  1  0.069744  0.176981  0.259229  1
  P  P13  1  0.087018  0.781918  0.044416  1
  P  P14  1  0.159725  0.281018  0.457669  1
  P  P15  1  0.182979  0.678409  0.238946  1
  P  P16  1  0.321414  0.180290  0.761231  1
  P  P17  1  0.335574  0.782225  0.544102  1
  P  P18  1  0.413564  0.283011  0.957453  1
  P  P19  1  0.430246  0.682375  0.737758  1
  P  P20  1  0.571184  0.180229  0.261386  1
  P  P21  1  0.585653  0.783367  0.043062  1
  P  P22  1  0.664182  0.283491  0.455679  1
  P  P23  1  0.679748  0.682186  0.238026  1
  P  P24  1  0.819212  0.176442  0.759337  1
  P  P25  1  0.837155  0.782664  0.543201  1
  P  P26  1  0.910654  0.281317  0.955698  1
  P  P27  1  0.932564  0.678335  0.739128  1
  O  O28  1  0.001316  0.848457  0.746836  1
  O  O29  1  0.031478  0.538640  0.765706  1
  O  O30  1  0.048050  0.668912  0.303375  1
  O  O31  1  0.067195  0.436275  0.455491  1
  O  O32  1  0.059757  0.329817  0.925414  1
  O  O33  1  0.111082  0.149525  0.375512  1
  O  O34  1  0.100814  0.687658  0.943088  1
  O  O35  1  0.142951  0.647349  0.124600  1
  O  O36  1  0.160770  0.188227  0.555238  1
  O  O37  1  0.179453  0.935160  0.040454  1
  O  O38  1  0.187795  0.822150  0.573160  1
  O  O39  1  0.201719  0.181071  0.195667  1
  O  O40  1  0.220044  0.041017  0.741636  1
  O  O41  1  0.251537  0.848657  0.245476  1
  O  O42  1  0.253716  0.352888  0.759266  1
  O  O43  1  0.281344  0.538212  0.264501  1
  O  O44  1  0.296091  0.675668  0.803728  1
  O  O45  1  0.308999  0.335448  0.426779  1
  O  O46  1  0.316814  0.434913  0.952240  1
  O  O47  1  0.347696  0.689320  0.442057  1
  O  O48  1  0.364054  0.147484  0.875878  1
  O  O49  1  0.411730  0.191154  0.055354  1
  O  O50  1  0.390956  0.644146  0.623125  1
  O  O51  1  0.437267  0.824487  0.071563  1
  O  O52  1  0.431137  0.932752  0.540812  1
  O  O53  1  0.451691  0.182282  0.694115  1
  O  O54  1  0.469960  0.040935  0.241690  1
  O  O55  1  0.503018  0.352140  0.260573  1
  O  O56  1  0.493163  0.853028  0.742932  1
  O  O57  1  0.530079  0.540267  0.760457  1
  O  O58  1  0.545702  0.674194  0.304729  1
  O  O59  1  0.567544  0.435619  0.454398  1
  O  O60  1  0.560178  0.338686  0.924675  1
  O  O61  1  0.613395  0.146001  0.376914  1
  O  O62  1  0.593831  0.682814  0.944611  1
  O  O63  1  0.639665  0.645001  0.124242  1
  O  O64  1  0.656620  0.199202  0.557673  1
  O  O65  1  0.681037  0.932581  0.043531  1
  O  O66  1  0.687281  0.820103  0.569838  1
  O  O67  1  0.701739  0.182619  0.194971  1
  O  O68  1  0.719457  0.038540  0.737518  1
  O  O69  1  0.742752  0.852855  0.244518  1
  O  O70  1  0.745092  0.348011  0.758937  1
  O  O71  1  0.779973  0.540208  0.260933  1
  O  O72  1  0.798115  0.667541  0.804399  1
  O  O73  1  0.810946  0.335080  0.423642  1
  O  O74  1  0.817748  0.436904  0.956827  1
  O  O75  1  0.845929  0.680234  0.445654  1
  O  O76  1  0.859422  0.147862  0.876592  1
  O  O77  1  0.904624  0.196989  0.057741  1
  O  O78  1  0.891906  0.647936  0.625679  1
  O  O79  1  0.937648  0.818012  0.071344  1
  O  O80  1  0.929552  0.934540  0.542857  1
  O  O81  1  0.951740  0.181076  0.696616  1
  O  O82  1  0.969419  0.039554  0.237644  1
  O  O83  1  0.995509  0.348926  0.257996  1
