# generated using pymatgen
data_Li2V4OF12
_symmetry_space_group_name_H-M   'P 1'
_cell_length_a   8.29565806
_cell_length_b   3.95359586
_cell_length_c   8.57465220
_cell_angle_alpha   87.49693881
_cell_angle_beta   80.90401690
_cell_angle_gamma   77.33029993
_symmetry_Int_Tables_number   1
_chemical_formula_structural   Li2V4OF12
_chemical_formula_sum   'Li2 V4 O1 F12'
_cell_volume   270.91877213
_cell_formula_units_Z   1
loop_
 _symmetry_equiv_pos_site_id
 _symmetry_equiv_pos_as_xyz
  1  'x, y, z'
loop_
 _atom_site_type_symbol
 _atom_site_label
 _atom_site_symmetry_multiplicity
 _atom_site_fract_x
 _atom_site_fract_y
 _atom_site_fract_z
 _atom_site_occupancy
  Li  Li0  1  0.581673  0.886018  0.727912  1
  Li  Li1  1  0.434681  0.071793  0.278714  1
  V  V2  1  0.169779  0.926731  0.643630  1
  V  V3  1  0.815329  0.116199  0.985653  1
  V  V4  1  0.199779  0.901182  0.995843  1
  V  V5  1  0.813869  0.072095  0.373320  1
  O  O6  1  0.031212  0.993902  0.854986  1
  F  F7  1  0.976687  0.006744  0.518428  1
  F  F8  1  0.172273  0.428804  0.641683  1
  F  F9  1  0.358248  0.836734  0.785722  1
  F  F10  1  0.661058  0.206772  0.837826  1
  F  F11  1  0.797389  0.618496  0.995216  1
  F  F12  1  0.331981  0.879644  0.456331  1
  F  F13  1  0.623584  0.110357  0.529808  1
  F  F14  1  0.199743  0.401586  0.010918  1
  F  F15  1  0.372642  0.819650  0.127035  1
  F  F16  1  0.660367  0.146979  0.203296  1
  F  F17  1  0.819414  0.567659  0.366723  1
  F  F18  1  0.980291  0.008656  0.166956  1
