# generated using pymatgen
data_Li24MnCr11O36
_symmetry_space_group_name_H-M   'P 1'
_cell_length_a   5.06131356
_cell_length_b   13.27514811
_cell_length_c   9.75481811
_cell_angle_alpha   91.88272758
_cell_angle_beta   99.24517062
_cell_angle_gamma   78.88278767
_symmetry_Int_Tables_number   1
_chemical_formula_structural   Li24MnCr11O36
_chemical_formula_sum   'Li24 Mn1 Cr11 O36'
_cell_volume   634.76859018
_cell_formula_units_Z   1
loop_
 _symmetry_equiv_pos_site_id
 _symmetry_equiv_pos_as_xyz
  1  'x, y, z'
loop_
 _atom_site_type_symbol
 _atom_site_label
 _atom_site_symmetry_multiplicity
 _atom_site_fract_x
 _atom_site_fract_y
 _atom_site_fract_z
 _atom_site_occupancy
  Li  Li0  1  0.220029  0.057808  0.999736  1
  Li  Li1  1  0.165704  0.168044  0.499648  1
  Li  Li2  1  0.720151  0.059970  0.499956  1
  Li  Li3  1  0.418173  0.166330  0.248300  1
  Li  Li4  1  0.111780  0.273930  0.998278  1
  Li  Li5  1  0.668726  0.167258  0.999186  1
  Li  Li6  1  0.912640  0.166349  0.750354  1
  Li  Li7  1  0.616264  0.273450  0.500664  1
  Li  Li8  1  0.059672  0.392765  0.500469  1
  Li  Li9  1  0.554801  0.391964  0.000015  1
  Li  Li10  1  0.998293  0.498979  0.001745  1
  Li  Li11  1  0.250817  0.498854  0.749424  1
  Li  Li12  1  0.502118  0.498301  0.498655  1
  Li  Li13  1  0.751809  0.499002  0.250977  1
  Li  Li14  1  0.447307  0.606179  0.998992  1
  Li  Li15  1  0.943031  0.605411  0.498801  1
  Li  Li16  1  0.386479  0.727496  0.500171  1
  Li  Li17  1  0.084792  0.834820  0.250645  1
  Li  Li18  1  0.885228  0.725446  0.998618  1
  Li  Li19  1  0.331204  0.834553  0.000074  1
  Li  Li20  1  0.578352  0.833395  0.749183  1
  Li  Li21  1  0.280585  0.939504  0.498801  1
  Li  Li22  1  0.834558  0.833754  0.499408  1
  Li  Li23  1  0.778732  0.941295  0.000112  1
  Mn  Mn24  1  0.974613  0.054629  0.249749  1
  Cr  Cr25  1  0.462296  0.054283  0.750641  1
  Cr  Cr26  1  0.361426  0.277082  0.750050  1
  Cr  Cr27  1  0.312187  0.388654  0.248445  1
  Cr  Cr28  1  0.867206  0.277188  0.248501  1
  Cr  Cr29  1  0.799618  0.388460  0.750175  1
  Cr  Cr30  1  0.191755  0.614822  0.251301  1
  Cr  Cr31  1  0.143154  0.717816  0.747015  1
  Cr  Cr32  1  0.695896  0.614197  0.747200  1
  Cr  Cr33  1  0.639533  0.719151  0.250840  1
  Cr  Cr34  1  0.020043  0.943172  0.751970  1
  Cr  Cr35  1  0.530280  0.946096  0.249243  1
  O  O36  1  0.120756  0.044851  0.639130  1
  O  O37  1  0.333528  0.046201  0.360912  1
  O  O38  1  0.828735  0.047688  0.861630  1
  O  O39  1  0.023335  0.165598  0.135169  1
  O  O40  1  0.621635  0.047526  0.138716  1
  O  O41  1  0.315261  0.164293  0.864646  1
  O  O42  1  0.520609  0.168079  0.634519  1
  O  O43  1  0.211922  0.286847  0.361006  1
  O  O44  1  0.811561  0.165804  0.363664  1
  O  O45  1  0.168054  0.380549  0.861310  1
  O  O46  1  0.710279  0.284442  0.862280  1
  O  O47  1  0.507067  0.284883  0.137040  1
  O  O48  1  0.457366  0.380308  0.637565  1
  O  O49  1  0.000540  0.286775  0.637645  1
  O  O50  1  0.664965  0.379517  0.361502  1
  O  O51  1  0.145733  0.500813  0.363921  1
  O  O52  1  0.352796  0.499298  0.136217  1
  O  O53  1  0.955312  0.380922  0.136738  1
  O  O54  1  0.053588  0.621152  0.861673  1
  O  O55  1  0.649662  0.499038  0.863061  1
  O  O56  1  0.854098  0.501107  0.634972  1
  O  O57  1  0.326175  0.619800  0.636044  1
  O  O58  1  0.007658  0.712125  0.363126  1
  O  O59  1  0.554154  0.621164  0.362944  1
  O  O60  1  0.508166  0.710967  0.862022  1
  O  O61  1  0.280810  0.711320  0.136964  1
  O  O62  1  0.825544  0.621205  0.137157  1
  O  O63  1  0.188560  0.830832  0.634688  1
  O  O64  1  0.779354  0.712433  0.635967  1
  O  O65  1  0.480507  0.832950  0.364515  1
  O  O66  1  0.684005  0.833849  0.136221  1
  O  O67  1  0.377483  0.950803  0.862866  1
  O  O68  1  0.979931  0.832970  0.863083  1
  O  O69  1  0.162533  0.952261  0.137286  1
  O  O70  1  0.666185  0.953522  0.638074  1
  O  O71  1  0.884640  0.953052  0.362025  1
