# generated using pymatgen
data_Na3Bi(P2O7)2
_symmetry_space_group_name_H-M   'P 1'
_cell_length_a   9.65342057
_cell_length_b   9.71354818
_cell_length_c   7.40719581
_cell_angle_alpha   77.32513998
_cell_angle_beta   110.18726979
_cell_angle_gamma   99.32312551
_symmetry_Int_Tables_number   1
_chemical_formula_structural   Na3Bi(P2O7)2
_chemical_formula_sum   'Na6 Bi2 P8 O28'
_cell_volume   633.18184369
_cell_formula_units_Z   2
loop_
 _symmetry_equiv_pos_site_id
 _symmetry_equiv_pos_as_xyz
  1  'x, y, z'
loop_
 _atom_site_type_symbol
 _atom_site_label
 _atom_site_symmetry_multiplicity
 _atom_site_fract_x
 _atom_site_fract_y
 _atom_site_fract_z
 _atom_site_occupancy
  Na  Na0  1  0.148597  0.726346  0.645192  1
  Na  Na1  1  0.500775  0.838260  0.947555  1
  Na  Na2  1  0.458599  0.668156  0.557466  1
  Na  Na3  1  0.541401  0.331844  0.442534  1
  Na  Na4  1  0.499225  0.161740  0.052445  1
  Na  Na5  1  0.851403  0.273654  0.354808  1
  Bi  Bi6  1  0.122289  0.218507  0.119502  1
  Bi  Bi7  1  0.877711  0.781493  0.880498  1
  P  P8  1  0.135419  0.025457  0.815056  1
  P  P9  1  0.107706  0.548921  0.271378  1
  P  P10  1  0.333757  0.055299  0.586247  1
  P  P11  1  0.341532  0.547268  0.097901  1
  P  P12  1  0.658468  0.452732  0.902099  1
  P  P13  1  0.666243  0.944701  0.413753  1
  P  P14  1  0.892294  0.451079  0.728622  1
  P  P15  1  0.864581  0.974543  0.184944  1
  O  O16  1  0.034945  0.376070  0.821035  1
  O  O17  1  0.163012  0.869268  0.877652  1
  O  O18  1  0.028471  0.956138  0.231433  1
  O  O19  1  0.077869  0.385687  0.308499  1
  O  O20  1  0.236592  0.121189  0.963495  1
  O  O21  1  0.208659  0.602875  0.455539  1
  O  O22  1  0.181154  0.084780  0.616840  1
  O  O23  1  0.356538  0.626621  0.905227  1
  O  O24  1  0.334228  0.897362  0.589774  1
  O  O25  1  0.186569  0.588674  0.103798  1
  O  O26  1  0.329889  0.152662  0.391817  1
  O  O27  1  0.324747  0.383524  0.117472  1
  O  O28  1  0.467371  0.095563  0.758121  1
  O  O29  1  0.532606  0.414394  0.722028  1
  O  O30  1  0.467394  0.585606  0.277972  1
  O  O31  1  0.532629  0.904437  0.241879  1
  O  O32  1  0.675253  0.616476  0.882528  1
  O  O33  1  0.670111  0.847338  0.608183  1
  O  O34  1  0.813431  0.411326  0.896202  1
  O  O35  1  0.665772  0.102638  0.410226  1
  O  O36  1  0.643462  0.373379  0.094773  1
  O  O37  1  0.818846  0.915220  0.383160  1
  O  O38  1  0.791341  0.397125  0.544461  1
  O  O39  1  0.763408  0.878811  0.036505  1
  O  O40  1  0.922131  0.614313  0.691501  1
  O  O41  1  0.971529  0.043862  0.768567  1
  O  O42  1  0.836988  0.130732  0.122348  1
  O  O43  1  0.965055  0.623930  0.178965  1
