# generated using pymatgen
data_LiMnPO4
_symmetry_space_group_name_H-M   'P 1'
_cell_length_a   10.40346406
_cell_length_b   8.58563042
_cell_length_c   5.30421241
_cell_angle_alpha   90.00000000
_cell_angle_beta   90.00000000
_cell_angle_gamma   90.00000000
_symmetry_Int_Tables_number   1
_chemical_formula_structural   LiMnPO4
_chemical_formula_sum   'Li4 Mn4 P4 O16'
_cell_volume   473.77383050
_cell_formula_units_Z   4
loop_
 _symmetry_equiv_pos_site_id
 _symmetry_equiv_pos_as_xyz
  1  'x, y, z'
loop_
 _atom_site_type_symbol
 _atom_site_label
 _atom_site_symmetry_multiplicity
 _atom_site_fract_x
 _atom_site_fract_y
 _atom_site_fract_z
 _atom_site_occupancy
  Li  Li0  1  0.203273  0.317627  0.042921  1
  Li  Li1  1  0.296727  0.817627  0.542921  1
  Li  Li2  1  0.703273  0.182373  0.042921  1
  Li  Li3  1  0.796727  0.682373  0.542921  1
  Mn  Mn4  1  0.130130  0.136632  0.534675  1
  Mn  Mn5  1  0.369870  0.636633  0.034675  1
  Mn  Mn6  1  0.630130  0.363368  0.534675  1
  Mn  Mn7  1  0.869870  0.863367  0.034675  1
  P  P8  1  0.190836  0.946229  0.032095  1
  P  P9  1  0.309164  0.446229  0.532095  1
  P  P10  1  0.690836  0.553771  0.032095  1
  P  P11  1  0.809164  0.053771  0.532095  1
  O  O12  1  0.061996  0.863407  0.992270  1
  O  O13  1  0.187188  0.112067  0.908959  1
  O  O14  1  0.223141  0.966247  0.318005  1
  O  O15  1  0.200838  0.348735  0.402774  1
  O  O16  1  0.299162  0.848735  0.902774  1
  O  O17  1  0.276859  0.466247  0.818005  1
  O  O18  1  0.312812  0.612067  0.408959  1
  O  O19  1  0.438004  0.363407  0.492270  1
  O  O20  1  0.561996  0.636593  0.992270  1
  O  O21  1  0.687188  0.387933  0.908959  1
  O  O22  1  0.723141  0.533753  0.318005  1
  O  O23  1  0.700838  0.151265  0.402774  1
  O  O24  1  0.799162  0.651265  0.902774  1
  O  O25  1  0.776859  0.033753  0.818005  1
  O  O26  1  0.812812  0.887933  0.408959  1
  O  O27  1  0.938004  0.136593  0.492270  1
