# generated using pymatgen
data_Sr3LiTa4(O6F)2
_symmetry_space_group_name_H-M   'P 1'
_cell_length_a   7.47688728
_cell_length_b   7.57743498
_cell_length_c   7.57743498
_cell_angle_alpha   60.00000006
_cell_angle_beta   59.55415073
_cell_angle_gamma   59.55415073
_symmetry_Int_Tables_number   1
_chemical_formula_structural   Sr3LiTa4(O6F)2
_chemical_formula_sum   'Sr3 Li1 Ta4 O12 F2'
_cell_volume   301.50217300
_cell_formula_units_Z   1
loop_
 _symmetry_equiv_pos_site_id
 _symmetry_equiv_pos_as_xyz
  1  'x, y, z'
loop_
 _atom_site_type_symbol
 _atom_site_label
 _atom_site_symmetry_multiplicity
 _atom_site_fract_x
 _atom_site_fract_y
 _atom_site_fract_z
 _atom_site_occupancy
  Sr  Sr0  1  0.625000  0.625000  0.125000  1
  Sr  Sr1  1  0.625000  0.125000  0.625000  1
  Sr  Sr2  1  0.625000  0.625000  0.625000  1
  Li  Li3  1  0.125000  0.625000  0.625000  1
  Ta  Ta4  1  0.125000  0.125000  0.125000  1
  Ta  Ta5  1  0.625000  0.125000  0.125000  1
  Ta  Ta6  1  0.125000  0.625000  0.125000  1
  Ta  Ta7  1  0.125000  0.125000  0.625000  1
  O  O8  1  0.449422  0.052159  0.052159  1
  O  O9  1  0.800578  0.197841  0.197841  1
  O  O10  1  0.059503  0.438364  0.063767  1
  O  O11  1  0.059503  0.063767  0.438364  1
  O  O12  1  0.449422  0.446259  0.052159  1
  O  O13  1  0.449422  0.052159  0.446259  1
  O  O14  1  0.059503  0.438364  0.438364  1
  O  O15  1  0.190497  0.186233  0.811636  1
  O  O16  1  0.800578  0.197841  0.803741  1
  O  O17  1  0.190497  0.811636  0.186233  1
  O  O18  1  0.800578  0.803741  0.197841  1
  O  O19  1  0.190497  0.811636  0.811636  1
  F  F20  1  0.449866  0.516711  0.516711  1
  F  F21  1  0.800134  0.733289  0.733289  1
