# generated using pymatgen
data_Sb6O5F8
_symmetry_space_group_name_H-M   'P 1'
_cell_length_a   6.34341345
_cell_length_b   34.43176020
_cell_length_c   5.89288276
_cell_angle_alpha   90.00000000
_cell_angle_beta   90.00000000
_cell_angle_gamma   88.00519264
_symmetry_Int_Tables_number   1
_chemical_formula_structural   Sb6O5F8
_chemical_formula_sum   'Sb24 O20 F32'
_cell_volume   1286.31334656
_cell_formula_units_Z   4
loop_
 _symmetry_equiv_pos_site_id
 _symmetry_equiv_pos_as_xyz
  1  'x, y, z'
loop_
 _atom_site_type_symbol
 _atom_site_label
 _atom_site_symmetry_multiplicity
 _atom_site_fract_x
 _atom_site_fract_y
 _atom_site_fract_z
 _atom_site_occupancy
  Sb  Sb0  1  0.284830  0.988057  0.743883  1
  Sb  Sb1  1  0.284830  0.488057  0.756117  1
  Sb  Sb2  1  0.278300  0.254231  0.328521  1
  Sb  Sb3  1  0.278300  0.754231  0.171479  1
  Sb  Sb4  1  0.308509  0.666969  0.854795  1
  Sb  Sb5  1  0.303137  0.338800  0.691978  1
  Sb  Sb6  1  0.303137  0.838800  0.808022  1
  Sb  Sb7  1  0.308509  0.166969  0.645205  1
  Sb  Sb8  1  0.321489  0.082983  0.313800  1
  Sb  Sb9  1  0.257878  0.416376  0.336325  1
  Sb  Sb10  1  0.321489  0.582983  0.186200  1
  Sb  Sb11  1  0.257878  0.916376  0.163675  1
  Sb  Sb12  1  0.742122  0.083624  0.836325  1
  Sb  Sb13  1  0.678511  0.917017  0.686200  1
  Sb  Sb14  1  0.678511  0.417017  0.813800  1
  Sb  Sb15  1  0.742122  0.583624  0.663675  1
  Sb  Sb16  1  0.696863  0.161200  0.191978  1
  Sb  Sb17  1  0.691491  0.833031  0.354795  1
  Sb  Sb18  1  0.696863  0.661200  0.308022  1
  Sb  Sb19  1  0.691491  0.333031  0.145205  1
  Sb  Sb20  1  0.721700  0.745769  0.671479  1
  Sb  Sb21  1  0.721700  0.245769  0.828521  1
  Sb  Sb22  1  0.715170  0.511943  0.243883  1
  Sb  Sb23  1  0.715170  0.011943  0.256117  1
  O  O24  1  0.530007  0.289186  0.004099  1
  O  O25  1  0.530007  0.789186  0.495901  1
  O  O26  1  0.501459  0.869872  0.566206  1
  O  O27  1  0.539862  0.630134  0.535196  1
  O  O28  1  0.501459  0.369872  0.933794  1
  O  O29  1  0.539862  0.130134  0.964804  1
  O  O30  1  0.562910  0.551320  0.461161  1
  O  O31  1  0.490592  0.957583  0.527482  1
  O  O32  1  0.562910  0.051320  0.038839  1
  O  O33  1  0.490592  0.457582  0.972518  1
  O  O34  1  0.509408  0.542417  0.027482  1
  O  O35  1  0.437090  0.448680  0.538839  1
  O  O36  1  0.509408  0.042417  0.472518  1
  O  O37  1  0.437090  0.948680  0.961161  1
  O  O38  1  0.460138  0.869866  0.035196  1
  O  O39  1  0.498540  0.630128  0.066207  1
  O  O40  1  0.460138  0.369866  0.464804  1
  O  O41  1  0.498540  0.130128  0.433793  1
  O  O42  1  0.469993  0.210814  0.504099  1
  O  O43  1  0.469993  0.710814  0.995901  1
  F  F44  1  0.950462  0.039332  0.408526  1
  F  F45  1  0.050400  0.462476  0.446036  1
  F  F46  1  0.950462  0.539332  0.091474  1
  F  F47  1  0.050400  0.962476  0.053964  1
  F  F48  1  0.186846  0.095854  0.628010  1
  F  F49  1  0.102155  0.391501  0.627303  1
  F  F50  1  0.186846  0.595854  0.871990  1
  F  F51  1  0.102155  0.891501  0.872697  1
  F  F52  1  0.115026  0.171410  0.369339  1
  F  F53  1  0.146417  0.314485  0.347519  1
  F  F54  1  0.146417  0.814485  0.152481  1
  F  F55  1  0.115026  0.671410  0.130661  1
  F  F56  1  0.110862  0.252087  0.620548  1
  F  F57  1  0.110862  0.752087  0.879452  1
  F  F58  1  0.501103  0.711814  0.497605  1
  F  F59  1  0.501103  0.211814  0.002395  1
  F  F60  1  0.498897  0.288186  0.502395  1
  F  F61  1  0.498897  0.788186  0.997605  1
  F  F62  1  0.889138  0.747913  0.379452  1
  F  F63  1  0.889138  0.247913  0.120548  1
  F  F64  1  0.853583  0.185515  0.847519  1
  F  F65  1  0.884974  0.828590  0.630661  1
  F  F66  1  0.884974  0.328590  0.869339  1
  F  F67  1  0.853583  0.685515  0.652481  1
  F  F68  1  0.897845  0.608499  0.372697  1
  F  F69  1  0.813154  0.904146  0.371990  1
  F  F70  1  0.897845  0.108499  0.127303  1
  F  F71  1  0.813154  0.404146  0.128010  1
  F  F72  1  0.949600  0.037524  0.946036  1
  F  F73  1  0.049538  0.460668  0.908526  1
  F  F74  1  0.949600  0.537524  0.553964  1
  F  F75  1  0.049538  0.960668  0.591474  1
