# generated using pymatgen
data_CdGeO3
_symmetry_space_group_name_H-M   'P 1'
_cell_length_a   10.89885760
_cell_length_b   10.89885760
_cell_length_c   10.89885760
_cell_angle_alpha   109.12437057
_cell_angle_beta   109.12437065
_cell_angle_gamma   110.16717029
_symmetry_Int_Tables_number   1
_chemical_formula_structural   CdGeO3
_chemical_formula_sum   'Cd16 Ge16 O48'
_cell_volume   996.48993568
_cell_formula_units_Z   16
loop_
 _symmetry_equiv_pos_site_id
 _symmetry_equiv_pos_as_xyz
  1  'x, y, z'
loop_
 _atom_site_type_symbol
 _atom_site_label
 _atom_site_symmetry_multiplicity
 _atom_site_fract_x
 _atom_site_fract_y
 _atom_site_fract_z
 _atom_site_occupancy
  O  O0  1  0.428029  0.114086  0.108593  1
  O  O1  1  0.614086  0.005493  0.686058  1
  O  O2  1  0.819435  0.928029  0.813942  1
  O  O3  1  0.505493  0.319435  0.391407  1
  O  O4  1  0.571971  0.885914  0.891407  1
  O  O5  1  0.385914  0.994507  0.313942  1
  O  O6  1  0.180565  0.071971  0.186058  1
  O  O7  1  0.494507  0.680565  0.608593  1
  O  O8  1  0.696592  0.466076  0.100681  1
  O  O9  1  0.966076  0.365395  0.769484  1
  O  O10  1  0.095911  0.196592  0.730516  1
  O  O11  1  0.865395  0.595911  0.399319  1
  O  O12  1  0.303408  0.533924  0.899319  1
  O  O13  1  0.033924  0.634605  0.230516  1
  O  O14  1  0.904089  0.803408  0.269484  1
  O  O15  1  0.134605  0.404089  0.600681  1
  O  O16  1  0.220569  0.511368  0.136220  1
  O  O17  1  0.011368  0.375148  0.290799  1
  O  O18  1  0.584349  0.720569  0.209201  1
  O  O19  1  0.089451  0.184159  0.002073  1
  O  O20  1  0.875148  0.084349  0.363780  1
  O  O21  1  0.988632  0.624852  0.709201  1
  O  O22  1  0.415651  0.279431  0.790799  1
  O  O23  1  0.124852  0.915651  0.636220  1
  O  O24  1  0.300649  0.413568  0.335721  1
  O  O25  1  0.913568  0.077847  0.112919  1
  O  O26  1  0.464928  0.800649  0.387081  1
  O  O27  1  0.577847  0.964928  0.164279  1
  O  O28  1  0.699351  0.586432  0.664279  1
  O  O29  1  0.086432  0.922153  0.887081  1
  O  O30  1  0.535072  0.199351  0.612919  1
  O  O31  1  0.422153  0.035072  0.835721  1
  O  O32  1  0.237289  0.700219  0.588749  1
  O  O33  1  0.200219  0.111471  0.462930  1
  O  O34  1  0.148540  0.737289  0.037070  1
  O  O35  1  0.611471  0.648540  0.911251  1
  O  O36  1  0.762711  0.299781  0.411251  1
  O  O37  1  0.799781  0.888529  0.537070  1
  O  O38  1  0.851460  0.262711  0.962930  1
  O  O39  1  0.388529  0.351460  0.088749  1
  O  O40  1  0.317914  0.912622  0.502073  1
  O  O41  1  0.412622  0.410549  0.594708  1
  O  O42  1  0.315841  0.817914  0.905292  1
  O  O43  1  0.910549  0.815841  0.997927  1
  O  O44  1  0.682086  0.087378  0.497927  1
  O  O45  1  0.587378  0.589451  0.405292  1
  O  O46  1  0.684159  0.182086  0.094708  1
  O  O47  1  0.779431  0.488632  0.863780  1
  Ge  Ge48  1  0.255367  0.366644  0.142409  1
  Ge  Ge49  1  0.866644  0.224235  0.111278  1
  Ge  Ge50  1  0.612957  0.755367  0.388722  1
  Ge  Ge51  1  0.724235  0.112957  0.357591  1
  Ge  Ge52  1  0.744633  0.633356  0.857591  1
  Ge  Ge53  1  0.133356  0.775765  0.888722  1
  Ge  Ge54  1  0.387043  0.244633  0.611278  1
  Ge  Ge55  1  0.275765  0.887043  0.642409  1
  Ge  Ge56  1  0.625000  0.875000  0.750000  1
  Ge  Ge57  1  0.375000  0.125000  0.250000  1
  Ge  Ge58  1  0.125000  0.375000  0.750000  1
  Ge  Ge59  1  0.875000  0.625000  0.250000  1
  Ge  Ge60  1  0.500000  0.000000  0.500000  1
  Ge  Ge61  1  0.500000  0.500000  0.500000  1
  Ge  Ge62  1  0.500000  0.000000  0.000000  1
  Ge  Ge63  1  0.000000  0.000000  0.000000  1
  Cd  Cd64  1  0.000000  0.500000  0.500000  1
  Cd  Cd65  1  0.000000  0.000000  0.500000  1
  Cd  Cd66  1  0.000000  0.500000  0.000000  1
  Cd  Cd67  1  0.500000  0.500000  0.000000  1
  Cd  Cd68  1  0.124113  0.874113  0.250000  1
  Cd  Cd69  1  0.374113  0.624113  0.750000  1
  Cd  Cd70  1  0.875887  0.125887  0.750000  1
  Cd  Cd71  1  0.625887  0.375887  0.250000  1
  Cd  Cd72  1  0.749412  0.869230  0.131997  1
  Cd  Cd73  1  0.369230  0.737232  0.119818  1
  Cd  Cd74  1  0.117414  0.249412  0.380182  1
  Cd  Cd75  1  0.237232  0.617414  0.368003  1
  Cd  Cd76  1  0.250588  0.130770  0.868003  1
  Cd  Cd77  1  0.630770  0.262768  0.880182  1
  Cd  Cd78  1  0.882586  0.750588  0.619818  1
  Cd  Cd79  1  0.762768  0.382586  0.631997  1
