# generated using pymatgen
data_CoH18C6SO10
_symmetry_space_group_name_H-M   'P 1'
_cell_length_a   9.41319058
_cell_length_b   7.93994979
_cell_length_c   20.88546723
_cell_angle_alpha   90.00000000
_cell_angle_beta   99.81111434
_cell_angle_gamma   90.00000000
_symmetry_Int_Tables_number   1
_chemical_formula_structural   CoH18C6SO10
_chemical_formula_sum   'Co4 H72 C24 S4 O40'
_cell_volume   1538.15563782
_cell_formula_units_Z   4
loop_
 _symmetry_equiv_pos_site_id
 _symmetry_equiv_pos_as_xyz
  1  'x, y, z'
loop_
 _atom_site_type_symbol
 _atom_site_label
 _atom_site_symmetry_multiplicity
 _atom_site_fract_x
 _atom_site_fract_y
 _atom_site_fract_z
 _atom_site_occupancy
  Co  Co0  1  0.210548  0.380562  0.874227  1
  Co  Co1  1  0.789452  0.880562  0.625773  1
  Co  Co2  1  0.789452  0.619438  0.125773  1
  Co  Co3  1  0.210548  0.119438  0.374227  1
  H  H4  1  0.210916  0.217666  0.740512  1
  H  H5  1  0.789084  0.717666  0.759488  1
  H  H6  1  0.789084  0.782334  0.259488  1
  H  H7  1  0.210916  0.282334  0.240512  1
  H  H8  1  0.048538  0.128270  0.539886  1
  H  H9  1  0.951462  0.628270  0.960114  1
  H  H10  1  0.951462  0.871730  0.460114  1
  H  H11  1  0.048538  0.371730  0.039886  1
  H  H12  1  0.208016  0.133469  0.001333  1
  H  H13  1  0.791984  0.633469  0.498667  1
  H  H14  1  0.791984  0.866531  0.998667  1
  H  H15  1  0.208016  0.366531  0.501333  1
  H  H16  1  0.100003  0.009494  0.658623  1
  H  H17  1  0.899997  0.509494  0.841377  1
  H  H18  1  0.899997  0.990506  0.341377  1
  H  H19  1  0.100003  0.490506  0.158623  1
  H  H20  1  0.714723  0.748200  0.820485  1
  H  H21  1  0.285277  0.248200  0.679515  1
  H  H22  1  0.285277  0.251800  0.179515  1
  H  H23  1  0.714723  0.751800  0.320485  1
  H  H24  1  0.268474  0.521294  0.023842  1
  H  H25  1  0.731526  0.021294  0.476158  1
  H  H26  1  0.731526  0.478706  0.976158  1
  H  H27  1  0.268474  0.978706  0.523842  1
  H  H28  1  0.444015  0.738398  0.703529  1
  H  H29  1  0.555985  0.238398  0.796471  1
  H  H30  1  0.555985  0.261602  0.296471  1
  H  H31  1  0.444015  0.761602  0.203529  1
  H  H32  1  0.429257  0.058411  0.790232  1
  H  H33  1  0.570743  0.558411  0.709768  1
  H  H34  1  0.570743  0.941589  0.209768  1
  H  H35  1  0.429257  0.441589  0.290232  1
  H  H36  1  0.415757  0.726005  0.579555  1
  H  H37  1  0.584243  0.226005  0.920445  1
  H  H38  1  0.584243  0.273995  0.420445  1
  H  H39  1  0.415757  0.773995  0.079555  1
  H  H40  1  0.461304  0.038684  0.912804  1
  H  H41  1  0.538696  0.538684  0.587196  1
  H  H42  1  0.538696  0.961316  0.087196  1
  H  H43  1  0.461304  0.461316  0.412804  1
  H  H44  1  0.065361  0.778250  0.564511  1
  H  H45  1  0.934639  0.278250  0.935489  1
  H  H46  1  0.934639  0.221750  0.435489  1
  H  H47  1  0.065361  0.721750  0.064511  1
  H  H48  1  0.076479  0.562550  0.594079  1
  H  H49  1  0.923521  0.062550  0.905921  1
  H  H50  1  0.923521  0.437450  0.405921  1
  H  H51  1  0.076479  0.937450  0.094079  1
  H  H52  1  0.993784  0.558158  0.709159  1
  H  H53  1  0.006216  0.058158  0.790841  1
  H  H54  1  0.006216  0.441842  0.290841  1
  H  H55  1  0.993784  0.941842  0.209159  1
  H  H56  1  0.191697  0.740412  0.686898  1
  H  H57  1  0.808303  0.240412  0.813102  1
  H  H58  1  0.808303  0.259588  0.313102  1
  H  H59  1  0.191697  0.759588  0.186898  1
  H  H60  1  0.265689  0.866306  0.833842  1
  H  H61  1  0.734311  0.366306  0.666158  1
  H  H62  1  0.734311  0.133694  0.166158  1
  H  H63  1  0.265689  0.633694  0.333842  1
  H  H64  1  0.099757  0.732665  0.819957  1
  H  H65  1  0.900243  0.232665  0.680043  1
  H  H66  1  0.900243  0.267335  0.180043  1
  H  H67  1  0.099757  0.767335  0.319957  1
  H  H68  1  0.149431  0.783540  0.946830  1
  H  H69  1  0.850569  0.283539  0.553170  1
  H  H70  1  0.850569  0.216461  0.053170  1
  H  H71  1  0.149431  0.716460  0.446830  1
  H  H72  1  0.336552  0.767999  0.944273  1
  H  H73  1  0.663448  0.267999  0.555727  1
  H  H74  1  0.663448  0.232001  0.055727  1
  H  H75  1  0.336552  0.732001  0.444273  1
  C  C76  1  0.482821  0.161505  0.819713  1
  C  C77  1  0.517179  0.661505  0.680287  1
  C  C78  1  0.517179  0.838495  0.180287  1
  C  C79  1  0.482821  0.338495  0.319713  1
  C  C80  1  0.500518  0.150559  0.890765  1
  C  C81  1  0.499482  0.650559  0.609235  1
  C  C82  1  0.499482  0.849441  0.109235  1
  C  C83  1  0.500518  0.349441  0.390765  1
  C  C84  1  0.966958  0.188917  0.900108  1
  C  C85  1  0.033042  0.688917  0.599892  1
  C  C86  1  0.033042  0.811083  0.099892  1
  C  C87  1  0.966958  0.311083  0.400108  1
  C  C88  1  0.925091  0.256752  0.830402  1
  C  C89  1  0.074909  0.756752  0.669598  1
  C  C90  1  0.074909  0.743248  0.169598  1
  C  C91  1  0.925091  0.243248  0.330402  1
  C  C92  1  0.199028  0.770516  0.851704  1
  C  C93  1  0.800972  0.270516  0.648296  1
  C  C94  1  0.800972  0.229484  0.148296  1
  C  C95  1  0.199028  0.729484  0.351704  1
  C  C96  1  0.229420  0.722017  0.921408  1
  C  C97  1  0.770580  0.222017  0.578592  1
  C  C98  1  0.770580  0.277983  0.078592  1
  C  C99  1  0.229420  0.777983  0.421408  1
  S  S100  1  0.387279  0.184920  0.577878  1
  S  S101  1  0.612721  0.684920  0.922122  1
  S  S102  1  0.612721  0.815080  0.422122  1
  S  S103  1  0.387279  0.315080  0.077878  1
  O  O104  1  0.387756  0.257234  0.854280  1
  O  O105  1  0.612244  0.757234  0.645720  1
  O  O106  1  0.612244  0.742766  0.145720  1
  O  O107  1  0.387756  0.242766  0.354280  1
  O  O108  1  0.180684  0.060727  0.959103  1
  O  O109  1  0.819316  0.560727  0.540897  1
  O  O110  1  0.819316  0.939273  0.040897  1
  O  O111  1  0.180684  0.439273  0.459103  1
  O  O112  1  0.121649  0.179377  0.909019  1
  O  O113  1  0.878351  0.679377  0.590981  1
  O  O114  1  0.878351  0.820623  0.090981  1
  O  O115  1  0.121649  0.320623  0.409019  1
  O  O116  1  0.007082  0.181498  0.787216  1
  O  O117  1  0.992918  0.681498  0.712784  1
  O  O118  1  0.992918  0.818502  0.212784  1
  O  O119  1  0.007082  0.318502  0.287216  1
  O  O120  1  0.968625  0.428201  0.827022  1
  O  O121  1  0.031375  0.928201  0.672978  1
  O  O122  1  0.031375  0.571799  0.172978  1
  O  O123  1  0.968625  0.071799  0.327022  1
  O  O124  1  0.222387  0.545842  0.934896  1
  O  O125  1  0.777613  0.045842  0.565104  1
  O  O126  1  0.777613  0.454158  0.065104  1
  O  O127  1  0.222387  0.954158  0.434896  1
  O  O128  1  0.191415  0.252232  0.694928  1
  O  O129  1  0.808585  0.752232  0.805072  1
  O  O130  1  0.808585  0.747768  0.305072  1
  O  O131  1  0.191415  0.247768  0.194928  1
  O  O132  1  0.309066  0.990938  0.571317  1
  O  O133  1  0.690934  0.490938  0.928683  1
  O  O134  1  0.690934  0.009062  0.428683  1
  O  O135  1  0.309066  0.509062  0.071317  1
  O  O136  1  0.446394  0.190874  0.648915  1
  O  O137  1  0.553606  0.690874  0.851085  1
  O  O138  1  0.553606  0.809126  0.351085  1
  O  O139  1  0.446394  0.309126  0.148915  1
  O  O140  1  0.256347  0.300594  0.565794  1
  O  O141  1  0.743653  0.800594  0.934206  1
  O  O142  1  0.743653  0.699406  0.434206  1
  O  O143  1  0.256347  0.199406  0.065794  1
