# generated using pymatgen
data_Sc(ClO4)3
_symmetry_space_group_name_H-M   'P 1'
_cell_length_a   9.18144363
_cell_length_b   9.18144363
_cell_length_c   9.18144365
_cell_angle_alpha   51.99120490
_cell_angle_beta   51.99120490
_cell_angle_gamma   51.99120450
_symmetry_Int_Tables_number   1
_chemical_formula_structural   Sc(ClO4)3
_chemical_formula_sum   'Sc2 Cl6 O24'
_cell_volume   444.23716953
_cell_formula_units_Z   2
loop_
 _symmetry_equiv_pos_site_id
 _symmetry_equiv_pos_as_xyz
  1  'x, y, z'
loop_
 _atom_site_type_symbol
 _atom_site_label
 _atom_site_symmetry_multiplicity
 _atom_site_fract_x
 _atom_site_fract_y
 _atom_site_fract_z
 _atom_site_occupancy
  Sc  Sc0  1  0.057298  0.057298  0.057298  1
  Sc  Sc1  1  0.557298  0.557298  0.557298  1
  Cl  Cl2  1  0.344360  0.964457  0.691733  1
  Cl  Cl3  1  0.464457  0.844360  0.191733  1
  Cl  Cl4  1  0.191733  0.464457  0.844360  1
  Cl  Cl5  1  0.964457  0.691733  0.344360  1
  Cl  Cl6  1  0.691733  0.344360  0.964457  1
  Cl  Cl7  1  0.844360  0.191733  0.464457  1
  O  O8  1  0.077569  0.759495  0.124226  1
  O  O9  1  0.275656  0.886237  0.203335  1
  O  O10  1  0.996956  0.576947  0.948633  1
  O  O11  1  0.391414  0.916128  0.848066  1
  O  O12  1  0.416128  0.891414  0.348066  1
  O  O13  1  0.076948  0.496956  0.448633  1
  O  O14  1  0.386237  0.775656  0.703335  1
  O  O15  1  0.576947  0.948633  0.996956  1
  O  O16  1  0.259495  0.577569  0.624226  1
  O  O17  1  0.203335  0.275656  0.886237  1
  O  O18  1  0.348066  0.416128  0.891414  1
  O  O19  1  0.577569  0.624226  0.259495  1
  O  O20  1  0.496956  0.448633  0.076948  1
  O  O21  1  0.124226  0.077569  0.759495  1
  O  O22  1  0.916128  0.848066  0.391414  1
  O  O23  1  0.775656  0.703335  0.386237  1
  O  O24  1  0.703335  0.386237  0.775656  1
  O  O25  1  0.448633  0.076948  0.496956  1
  O  O26  1  0.624226  0.259495  0.577569  1
  O  O27  1  0.848066  0.391414  0.916128  1
  O  O28  1  0.891414  0.348066  0.416128  1
  O  O29  1  0.759495  0.124226  0.077569  1
  O  O30  1  0.886237  0.203335  0.275656  1
  O  O31  1  0.948633  0.996956  0.576947  1
