# generated using pymatgen
data_Mn6O7F5
_symmetry_space_group_name_H-M   'P 1'
_cell_length_a   4.56826635
_cell_length_b   5.64294292
_cell_length_c   15.31514704
_cell_angle_alpha   89.73849876
_cell_angle_beta   90.14085218
_cell_angle_gamma   90.82725735
_symmetry_Int_Tables_number   1
_chemical_formula_structural   Mn6O7F5
_chemical_formula_sum   'Mn12 O14 F10'
_cell_volume   394.75460885
_cell_formula_units_Z   2
loop_
 _symmetry_equiv_pos_site_id
 _symmetry_equiv_pos_as_xyz
  1  'x, y, z'
loop_
 _atom_site_type_symbol
 _atom_site_label
 _atom_site_symmetry_multiplicity
 _atom_site_fract_x
 _atom_site_fract_y
 _atom_site_fract_z
 _atom_site_occupancy
  Mn  Mn0  1  0.004466  0.155418  0.407608  1
  Mn  Mn1  1  0.020824  0.835654  0.249652  1
  Mn  Mn2  1  0.017211  0.177286  0.076217  1
  Mn  Mn3  1  0.027345  0.157753  0.743391  1
  Mn  Mn4  1  0.002150  0.846556  0.575319  1
  Mn  Mn5  1  0.012149  0.846519  0.909405  1
  Mn  Mn6  1  0.512234  0.350636  0.591278  1
  Mn  Mn7  1  0.496993  0.345968  0.916998  1
  Mn  Mn8  1  0.496323  0.365028  0.256917  1
  Mn  Mn9  1  0.524520  0.622263  0.090555  1
  Mn  Mn10  1  0.494340  0.648253  0.420584  1
  Mn  Mn11  1  0.503560  0.638788  0.759479  1
  O  O12  1  0.227565  0.114567  0.302038  1
  O  O13  1  0.220310  0.117705  0.634844  1
  O  O14  1  0.219347  0.111374  0.966194  1
  O  O15  1  0.212616  0.886327  0.466462  1
  O  O16  1  0.236628  0.886388  0.801929  1
  O  O17  1  0.288087  0.397770  0.147198  1
  O  O18  1  0.272782  0.601212  0.312092  1
  O  O19  1  0.277269  0.397435  0.811013  1
  O  O20  1  0.722710  0.376209  0.025333  1
  O  O21  1  0.740062  0.608117  0.197963  1
  O  O22  1  0.718884  0.384456  0.362382  1
  O  O23  1  0.714528  0.618810  0.530133  1
  O  O24  1  0.719995  0.620624  0.863791  1
  O  O25  1  0.731237  0.391091  0.697510  1
  F  F26  1  0.246874  0.892757  0.132951  1
  F  F27  1  0.251947  0.382137  0.486768  1
  F  F28  1  0.262212  0.621897  0.652567  1
  F  F29  1  0.258043  0.617224  0.986769  1
  F  F30  1  0.766062  0.116549  0.192542  1
  F  F31  1  0.755423  0.120864  0.514705  1
  F  F32  1  0.749460  0.886892  0.353488  1
  F  F33  1  0.764632  0.865541  0.027192  1
  F  F34  1  0.775796  0.119359  0.847884  1
  F  F35  1  0.755418  0.874573  0.688847  1
