# generated using pymatgen
data_Li3Fe(Si2O5)3
_symmetry_space_group_name_H-M   'P 1'
_cell_length_a   10.12554835
_cell_length_b   10.12553757
_cell_length_c   14.25717448
_cell_angle_alpha   90.00002954
_cell_angle_beta   90.00006243
_cell_angle_gamma   59.99987117
_symmetry_Int_Tables_number   1
_chemical_formula_structural   Li3Fe(Si2O5)3
_chemical_formula_sum   'Li12 Fe4 Si24 O60'
_cell_volume   1265.90225478
_cell_formula_units_Z   4
loop_
 _symmetry_equiv_pos_site_id
 _symmetry_equiv_pos_as_xyz
  1  'x, y, z'
loop_
 _atom_site_type_symbol
 _atom_site_label
 _atom_site_symmetry_multiplicity
 _atom_site_fract_x
 _atom_site_fract_y
 _atom_site_fract_z
 _atom_site_occupancy
  Li  Li0  1  0.999994  0.500004  0.250000  1
  Li  Li1  1  0.999994  0.500004  0.750000  1
  Li  Li2  1  0.333303  0.333398  0.000000  1
  Li  Li3  1  0.666603  0.666699  -0.000000  1
  Li  Li4  1  0.999995  0.000004  0.250000  1
  Li  Li5  1  0.999995  0.000002  0.750000  1
  Li  Li6  1  0.333301  0.333300  0.500000  1
  Li  Li7  1  0.500002  0.499998  0.249999  1
  Li  Li8  1  0.499998  0.499995  0.750001  1
  Li  Li9  1  0.666706  0.666699  0.500000  1
  Li  Li10  1  0.499998  0.000006  0.250000  1
  Li  Li11  1  0.500003  0.999999  0.750000  1
  Fe  Fe12  1  0.333334  0.333332  0.250000  1
  Fe  Fe13  1  0.666660  0.666666  0.250000  1
  Fe  Fe14  1  0.666665  0.666668  0.750001  1
  Fe  Fe15  1  0.333332  0.333329  0.750000  1
  Si  Si16  1  0.119914  0.643587  0.612267  1
  Si  Si17  1  0.119912  0.643593  0.387735  1
  Si  Si18  1  0.356406  0.880091  0.112267  1
  Si  Si19  1  0.356407  0.880088  0.887733  1
  Si  Si20  1  0.236490  0.643594  0.112267  1
  Si  Si21  1  0.236493  0.643591  0.887733  1
  Si  Si22  1  0.356409  0.763504  0.387734  1
  Si  Si23  1  0.356407  0.763503  0.612266  1
  Si  Si24  1  0.119910  0.236498  0.887735  1
  Si  Si25  1  0.119911  0.236501  0.112266  1
  Si  Si26  1  0.763503  0.880088  0.387732  1
  Si  Si27  1  0.763505  0.880086  0.612267  1
  Si  Si28  1  0.236492  0.119914  0.612268  1
  Si  Si29  1  0.236493  0.119916  0.387734  1
  Si  Si30  1  0.880084  0.763507  0.887733  1
  Si  Si31  1  0.880082  0.763506  0.112266  1
  Si  Si32  1  0.643590  0.236498  0.387735  1
  Si  Si33  1  0.643588  0.236497  0.612266  1
  Si  Si34  1  0.763505  0.356409  0.112265  1
  Si  Si35  1  0.763503  0.356409  0.887734  1
  Si  Si36  1  0.643589  0.119916  0.112266  1
  Si  Si37  1  0.643591  0.119914  0.887734  1
  Si  Si38  1  0.880084  0.356412  0.387734  1
  Si  Si39  1  0.880082  0.356411  0.612266  1
  O  O40  1  0.054092  0.724937  0.136263  1
  O  O41  1  0.054093  0.724935  0.863735  1
  O  O42  1  0.275066  0.945907  0.363737  1
  O  O43  1  0.275061  0.945906  0.636261  1
  O  O44  1  0.220967  0.724936  0.636263  1
  O  O45  1  0.220965  0.724939  0.363737  1
  O  O46  1  0.275058  0.779037  0.136261  1
  O  O47  1  0.275062  0.779031  0.863738  1
  O  O48  1  0.143491  0.595046  0.499999  1
  O  O49  1  0.404959  0.856498  -0.000000  1
  O  O50  1  0.261456  0.595043  0.000001  1
  O  O51  1  0.404950  0.738544  0.500001  1
  O  O52  1  0.163494  0.491794  0.330000  1
  O  O53  1  0.163495  0.491789  0.670000  1
  O  O54  1  0.508206  0.836504  0.830001  1
  O  O55  1  0.508205  0.836506  0.169999  1
  O  O56  1  0.163495  0.344716  0.170000  1
  O  O57  1  0.163493  0.344712  0.830001  1
  O  O58  1  0.655285  0.836506  0.330003  1
  O  O59  1  0.655285  0.836504  0.669995  1
  O  O60  1  0.054097  0.220969  0.363737  1
  O  O61  1  0.054093  0.220970  0.636263  1
  O  O62  1  0.779026  0.945908  0.136264  1
  O  O63  1  0.779031  0.945905  0.863736  1
  O  O64  1  0.344707  0.491796  0.170000  1
  O  O65  1  0.344707  0.491789  0.830005  1
  O  O66  1  0.508202  0.655292  0.329995  1
  O  O67  1  0.508202  0.655291  0.670004  1
  O  O68  1  0.143488  0.261463  -0.000000  1
  O  O69  1  0.738542  0.856497  0.500001  1
  O  O70  1  0.261456  0.143502  0.500000  1
  O  O71  1  0.856509  0.738542  0.000000  1
  O  O72  1  0.491791  0.344708  0.670000  1
  O  O73  1  0.491792  0.344714  0.329999  1
  O  O74  1  0.655285  0.508210  0.169997  1
  O  O75  1  0.655284  0.508211  0.830001  1
  O  O76  1  0.220968  0.054097  0.136263  1
  O  O77  1  0.220967  0.054094  0.863738  1
  O  O78  1  0.945904  0.779033  0.363736  1
  O  O79  1  0.945902  0.779031  0.636263  1
  O  O80  1  0.344710  0.163494  0.669998  1
  O  O81  1  0.344707  0.163503  0.330005  1
  O  O82  1  0.836496  0.655294  0.170000  1
  O  O83  1  0.836498  0.655295  0.829998  1
  O  O84  1  0.491791  0.163501  0.170001  1
  O  O85  1  0.491795  0.163493  0.830000  1
  O  O86  1  0.836498  0.508210  0.330002  1
  O  O87  1  0.836498  0.508210  0.669998  1
  O  O88  1  0.595048  0.261458  0.499999  1
  O  O89  1  0.738538  0.404952  0.000001  1
  O  O90  1  0.595050  0.143493  -0.000000  1
  O  O91  1  0.856510  0.404956  0.500000  1
  O  O92  1  0.724938  0.220969  0.136263  1
  O  O93  1  0.724933  0.220971  0.863736  1
  O  O94  1  0.779031  0.275064  0.363737  1
  O  O95  1  0.779028  0.275066  0.636263  1
  O  O96  1  0.724932  0.054096  0.363738  1
  O  O97  1  0.724934  0.054095  0.636262  1
  O  O98  1  0.945901  0.275069  0.136265  1
  O  O99  1  0.945901  0.275066  0.863736  1
