# generated using pymatgen
data_Li3MnAl2O6
_symmetry_space_group_name_H-M   'P 1'
_cell_length_a   5.92341408
_cell_length_b   10.33138294
_cell_length_c   7.98488960
_cell_angle_alpha   90.00000000
_cell_angle_beta   89.65994363
_cell_angle_gamma   90.00000000
_symmetry_Int_Tables_number   1
_chemical_formula_structural   Li3MnAl2O6
_chemical_formula_sum   'Li12 Mn4 Al8 O24'
_cell_volume   488.64315452
_cell_formula_units_Z   4
loop_
 _symmetry_equiv_pos_site_id
 _symmetry_equiv_pos_as_xyz
  1  'x, y, z'
loop_
 _atom_site_type_symbol
 _atom_site_label
 _atom_site_symmetry_multiplicity
 _atom_site_fract_x
 _atom_site_fract_y
 _atom_site_fract_z
 _atom_site_occupancy
  Li  Li0  1  0.151373  0.998354  0.634681  1
  Li  Li1  1  0.186249  0.651667  0.625166  1
  Li  Li2  1  0.143774  0.004144  0.117511  1
  Li  Li3  1  0.313751  0.151667  0.874834  1
  Li  Li4  1  0.356226  0.504144  0.382489  1
  Li  Li5  1  0.348627  0.498354  0.865319  1
  Li  Li6  1  0.651373  0.501646  0.134681  1
  Li  Li7  1  0.643774  0.495856  0.617511  1
  Li  Li8  1  0.686249  0.848333  0.125166  1
  Li  Li9  1  0.856226  0.995856  0.882489  1
  Li  Li10  1  0.813751  0.348333  0.374834  1
  Li  Li11  1  0.848627  0.001646  0.365319  1
  Mn  Mn12  1  0.163378  0.334382  0.126567  1
  Mn  Mn13  1  0.336622  0.834382  0.373433  1
  Mn  Mn14  1  0.663378  0.165618  0.626567  1
  Mn  Mn15  1  0.836622  0.665618  0.873433  1
  Al  Al16  1  0.167072  0.334737  0.616248  1
  Al  Al17  1  0.172301  0.658109  0.125765  1
  Al  Al18  1  0.332928  0.834737  0.883752  1
  Al  Al19  1  0.327699  0.158109  0.374235  1
  Al  Al20  1  0.672301  0.841891  0.625765  1
  Al  Al21  1  0.667072  0.165263  0.116248  1
  Al  Al22  1  0.827699  0.341891  0.874235  1
  Al  Al23  1  0.832928  0.665263  0.383752  1
  O  O24  1  0.136657  0.329227  0.885596  1
  O  O25  1  0.138075  0.671217  0.363115  1
  O  O26  1  0.186372  0.979258  0.877272  1
  O  O27  1  0.191605  0.004001  0.372342  1
  O  O28  1  0.161404  0.309586  0.368631  1
  O  O29  1  0.184537  0.680668  0.885998  1
  O  O30  1  0.315464  0.180668  0.614002  1
  O  O31  1  0.338596  0.809586  0.131369  1
  O  O32  1  0.308395  0.504001  0.127658  1
  O  O33  1  0.313628  0.479258  0.622728  1
  O  O34  1  0.363343  0.829227  0.614404  1
  O  O35  1  0.361925  0.171217  0.136885  1
  O  O36  1  0.638075  0.828783  0.863115  1
  O  O37  1  0.636657  0.170773  0.385596  1
  O  O38  1  0.686372  0.520742  0.377272  1
  O  O39  1  0.691605  0.495999  0.872342  1
  O  O40  1  0.661404  0.190414  0.868631  1
  O  O41  1  0.684536  0.819332  0.385998  1
  O  O42  1  0.815464  0.319332  0.114002  1
  O  O43  1  0.838596  0.690414  0.631369  1
  O  O44  1  0.808395  0.995999  0.627658  1
  O  O45  1  0.813628  0.020742  0.122728  1
  O  O46  1  0.861925  0.328783  0.636885  1
  O  O47  1  0.863343  0.670773  0.114404  1
