# generated using pymatgen
data_LiFe2(BO3)2
_symmetry_space_group_name_H-M   'P 1'
_cell_length_a   5.24061562
_cell_length_b   9.15571663
_cell_length_c   11.32480523
_cell_angle_alpha   66.50654996
_cell_angle_beta   77.06653709
_cell_angle_gamma   89.07226942
_symmetry_Int_Tables_number   1
_chemical_formula_structural   LiFe2(BO3)2
_chemical_formula_sum   'Li4 Fe8 B8 O24'
_cell_volume   484.07234818
_cell_formula_units_Z   4
loop_
 _symmetry_equiv_pos_site_id
 _symmetry_equiv_pos_as_xyz
  1  'x, y, z'
loop_
 _atom_site_type_symbol
 _atom_site_label
 _atom_site_symmetry_multiplicity
 _atom_site_fract_x
 _atom_site_fract_y
 _atom_site_fract_z
 _atom_site_occupancy
  Li  Li0  1  0.967800  0.961435  0.406610  1
  Li  Li1  1  0.709182  0.731282  0.905642  1
  Li  Li2  1  0.517637  0.495236  0.654171  1
  Li  Li3  1  0.236830  0.249294  0.155089  1
  Fe  Fe4  1  0.983599  0.641068  0.375947  1
  Fe  Fe5  1  0.739101  0.072879  0.882446  1
  Fe  Fe6  1  0.507126  0.851408  0.631990  1
  Fe  Fe7  1  0.767942  0.436332  0.127850  1
  Fe  Fe8  1  0.224635  0.559896  0.877674  1
  Fe  Fe9  1  0.476544  0.153354  0.384691  1
  Fe  Fe10  1  0.035360  0.336714  0.630313  1
  Fe  Fe11  1  0.248635  0.931416  0.128234  1
  B  B12  1  0.978749  0.305623  0.375507  1
  B  B13  1  0.735624  0.399606  0.873693  1
  B  B14  1  0.537672  0.185773  0.634059  1
  B  B15  1  0.757818  0.112799  0.128806  1
  B  B16  1  0.470195  0.816335  0.380877  1
  B  B17  1  0.235962  0.897059  0.876411  1
  B  B18  1  0.009688  0.681870  0.625700  1
  B  B19  1  0.269521  0.596436  0.126774  1
  O  O20  1  0.972757  0.902417  0.880210  1
  O  O21  1  0.887367  0.285707  0.847194  1
  O  O22  1  0.838766  0.496080  0.927397  1
  O  O23  1  0.869604  0.814960  0.619331  1
  O  O24  1  0.914263  0.566291  0.596013  1
  O  O25  1  0.754571  0.149133  0.687782  1
  O  O26  1  0.745184  0.326768  0.329658  1
  O  O27  1  0.494625  0.422237  0.849096  1
  O  O28  1  0.385459  0.791446  0.828549  1
  O  O29  1  0.565575  0.934683  0.424234  1
  O  O30  1  0.611626  0.693812  0.385014  1
  O  O31  1  0.369105  0.985193  0.920901  1
  O  O32  1  0.640102  0.028588  0.075908  1
  O  O33  1  0.408417  0.315650  0.626136  1
  O  O34  1  0.455739  0.082187  0.579594  1
  O  O35  1  0.596856  0.220359  0.171789  1
  O  O36  1  0.540014  0.599201  0.106645  1
  O  O37  1  0.252720  0.670897  0.663053  1
  O  O38  1  0.232128  0.844780  0.344373  1
  O  O39  1  0.059570  0.403810  0.423617  1
  O  O40  1  0.124484  0.180410  0.362327  1
  O  O41  1  0.149406  0.485106  0.091914  1
  O  O42  1  0.128667  0.697634  0.170781  1
  O  O43  1  0.007705  0.101169  0.144487  1
