# generated using pymatgen
data_Mn8O13F3
_symmetry_space_group_name_H-M   'P 1'
_cell_length_a   4.49561143
_cell_length_b   11.05410140
_cell_length_c   4.97141371
_cell_angle_alpha   90.44611433
_cell_angle_beta   90.58147572
_cell_angle_gamma   87.76096935
_symmetry_Int_Tables_number   1
_chemical_formula_structural   Mn8O13F3
_chemical_formula_sum   'Mn8 O13 F3'
_cell_volume   246.84604758
_cell_formula_units_Z   1
loop_
 _symmetry_equiv_pos_site_id
 _symmetry_equiv_pos_as_xyz
  1  'x, y, z'
loop_
 _atom_site_type_symbol
 _atom_site_label
 _atom_site_symmetry_multiplicity
 _atom_site_fract_x
 _atom_site_fract_y
 _atom_site_fract_z
 _atom_site_occupancy
  Mn  Mn0  1  0.017689  0.433445  0.753108  1
  Mn  Mn1  1  0.011968  0.083524  0.255860  1
  Mn  Mn2  1  0.981734  0.565409  0.248551  1
  Mn  Mn3  1  0.009514  0.926000  0.734520  1
  Mn  Mn4  1  0.497397  0.826526  0.253777  1
  Mn  Mn5  1  0.510514  0.677682  0.764818  1
  Mn  Mn6  1  0.491201  0.167432  0.755373  1
  Mn  Mn7  1  0.493588  0.324769  0.237057  1
  O  O8  1  0.228286  0.054370  0.922604  1
  O  O9  1  0.233047  0.443935  0.420496  1
  O  O10  1  0.228426  0.555750  0.929635  1
  O  O11  1  0.226184  0.944207  0.417350  1
  O  O12  1  0.276137  0.195144  0.421626  1
  O  O13  1  0.269076  0.307256  0.913791  1
  O  O14  1  0.263662  0.805541  0.920981  1
  O  O15  1  0.732634  0.194678  0.076632  1
  O  O16  1  0.730256  0.692218  0.087433  1
  O  O17  1  0.725221  0.804823  0.583937  1
  O  O18  1  0.773798  0.443822  0.071867  1
  O  O19  1  0.770274  0.056421  0.572548  1
  O  O20  1  0.762246  0.554409  0.580446  1
  F  F21  1  0.248105  0.683797  0.432577  1
  F  F22  1  0.745584  0.311412  0.578522  1
  F  F23  1  0.773462  0.947432  0.066495  1
