# generated using pymatgen
data_Li4VCr3O8
_symmetry_space_group_name_H-M   'P 1'
_cell_length_a   5.15659611
_cell_length_b   5.96221586
_cell_length_c   10.71702929
_cell_angle_alpha   105.90492459
_cell_angle_beta   85.38583823
_cell_angle_gamma   72.96842055
_symmetry_Int_Tables_number   1
_chemical_formula_structural   Li4VCr3O8
_chemical_formula_sum   'Li8 V2 Cr6 O16'
_cell_volume   298.31805061
_cell_formula_units_Z   2
loop_
 _symmetry_equiv_pos_site_id
 _symmetry_equiv_pos_as_xyz
  1  'x, y, z'
loop_
 _atom_site_type_symbol
 _atom_site_label
 _atom_site_symmetry_multiplicity
 _atom_site_fract_x
 _atom_site_fract_y
 _atom_site_fract_z
 _atom_site_occupancy
  Li  Li0  1  0.000035  0.125073  0.749993  1
  Li  Li1  1  0.999871  0.000605  0.001389  1
  Li  Li2  1  0.000064  0.249337  0.498637  1
  Li  Li3  1  0.000497  0.375079  0.249484  1
  Li  Li4  1  0.000103  0.624889  0.750012  1
  Li  Li5  1  0.997313  0.502306  0.000743  1
  Li  Li6  1  0.002570  0.747796  0.499235  1
  Li  Li7  1  0.999495  0.874931  0.250486  1
  V  V8  1  0.499771  0.064367  0.874029  1
  V  V9  1  0.500256  0.185582  0.625989  1
  Cr  Cr10  1  0.500353  0.311174  0.374862  1
  Cr  Cr11  1  0.499393  0.565674  0.875536  1
  Cr  Cr12  1  0.500007  0.438781  0.124988  1
  Cr  Cr13  1  0.500688  0.684300  0.624456  1
  Cr  Cr14  1  0.499901  0.811249  0.375027  1
  Cr  Cr15  1  0.499666  0.938835  0.125129  1
  O  O16  1  0.275978  0.086524  0.310589  1
  O  O17  1  0.725164  0.035901  0.439223  1
  O  O18  1  0.270348  0.342265  0.811849  1
  O  O19  1  0.726297  0.293055  0.940095  1
  O  O20  1  0.724003  0.163538  0.189410  1
  O  O21  1  0.274782  0.214098  0.060795  1
  O  O22  1  0.276047  0.459958  0.560131  1
  O  O23  1  0.727144  0.414498  0.691223  1
  O  O24  1  0.276159  0.585905  0.310335  1
  O  O25  1  0.724835  0.535550  0.438963  1
  O  O26  1  0.272974  0.835606  0.808824  1
  O  O27  1  0.724055  0.789981  0.939895  1
  O  O28  1  0.275166  0.714467  0.061028  1
  O  O29  1  0.273614  0.956802  0.559871  1
  O  O30  1  0.723797  0.664107  0.189659  1
  O  O31  1  0.729659  0.907767  0.688113  1
