# generated using pymatgen
data_Li16Mn15(CuO12)3
_symmetry_space_group_name_H-M   'P 1'
_cell_length_a   9.25496612
_cell_length_b   8.62962245
_cell_length_c   10.27798437
_cell_angle_alpha   91.49270106
_cell_angle_beta   94.44451510
_cell_angle_gamma   62.55851897
_symmetry_Int_Tables_number   1
_chemical_formula_structural   Li16Mn15(CuO12)3
_chemical_formula_sum   'Li16 Mn15 Cu3 O36'
_cell_volume   726.27361486
_cell_formula_units_Z   1
loop_
 _symmetry_equiv_pos_site_id
 _symmetry_equiv_pos_as_xyz
  1  'x, y, z'
loop_
 _atom_site_type_symbol
 _atom_site_label
 _atom_site_symmetry_multiplicity
 _atom_site_fract_x
 _atom_site_fract_y
 _atom_site_fract_z
 _atom_site_occupancy
  Li  Li0  1  0.893890  0.899874  0.226238  1
  Li  Li1  1  0.775227  0.766855  0.781800  1
  Li  Li2  1  0.896445  0.547890  0.230672  1
  Li  Li3  1  0.544473  0.893737  0.221898  1
  Li  Li4  1  0.451907  0.747514  0.776550  1
  Li  Li5  1  0.768572  0.439955  0.784342  1
  Li  Li6  1  0.555103  0.556552  0.223166  1
  Li  Li7  1  0.210349  0.914173  0.213764  1
  Li  Li8  1  0.908510  0.226120  0.223087  1
  Li  Li9  1  0.775955  0.117433  0.777782  1
  Li  Li10  1  0.129785  0.770328  0.776765  1
  Li  Li11  1  0.548404  0.227420  0.219152  1
  Li  Li12  1  0.219521  0.544187  0.222173  1
  Li  Li13  1  0.123740  0.439672  0.780376  1
  Li  Li14  1  0.442851  0.120114  0.770376  1
  Li  Li15  1  0.115790  0.108543  0.778572  1
  Mn  Mn16  1  0.835551  0.831128  0.508569  1
  Mn  Mn17  1  0.338358  0.997632  0.997057  1
  Mn  Mn18  1  0.003909  0.333860  0.997846  1
  Mn  Mn19  1  0.835735  0.497772  0.509423  1
  Mn  Mn20  1  0.495854  0.836306  0.492412  1
  Mn  Mn21  1  0.331054  0.667995  0.002971  1
  Mn  Mn22  1  0.665488  0.331930  0.003994  1
  Mn  Mn23  1  0.165754  0.833442  0.499273  1
  Mn  Mn24  1  0.495990  0.501502  0.496543  1
  Mn  Mn25  1  0.835276  0.164867  0.506620  1
  Mn  Mn26  1  0.993903  0.672178  0.004391  1
  Mn  Mn27  1  0.672322  0.995314  0.996627  1
  Mn  Mn28  1  0.493262  0.171076  0.487975  1
  Mn  Mn29  1  0.166968  0.498512  0.499131  1
  Mn  Mn30  1  0.165586  0.168266  0.495280  1
  Cu  Cu31  1  0.670480  0.660966  0.003652  1
  Cu  Cu32  1  0.334389  0.332963  0.000009  1
  Cu  Cu33  1  0.996394  0.005528  0.997653  1
  O  O34  1  0.940963  0.942229  0.409794  1
  O  O35  1  0.875971  0.890032  0.898445  1
  O  O36  1  0.787783  0.777900  0.104032  1
  O  O37  1  0.589770  0.952502  0.392037  1
  O  O38  1  0.938351  0.610191  0.411053  1
  O  O39  1  0.741323  0.714174  0.606953  1
  O  O40  1  0.578665  0.877512  0.883335  1
  O  O41  1  0.918787  0.540777  0.882720  1
  O  O42  1  0.414291  0.798474  0.118486  1
  O  O43  1  0.760798  0.447736  0.122260  1
  O  O44  1  0.939900  0.276755  0.408886  1
  O  O45  1  0.238520  0.959455  0.392440  1
  O  O46  1  0.588632  0.619983  0.396507  1
  O  O47  1  0.389401  0.726646  0.589871  1
  O  O48  1  0.743962  0.379413  0.606776  1
  O  O49  1  0.908896  0.217018  0.880470  1
  O  O50  1  0.255356  0.866479  0.881424  1
  O  O51  1  0.571927  0.540526  0.895166  1
  O  O52  1  0.420538  0.460724  0.115509  1
  O  O53  1  0.749933  0.124773  0.118988  1
  O  O54  1  0.085061  0.791735  0.115789  1
  O  O55  1  0.238942  0.627629  0.393558  1
  O  O56  1  0.588388  0.288730  0.393384  1
  O  O57  1  0.387408  0.389338  0.585123  1
  O  O58  1  0.743767  0.046846  0.605511  1
  O  O59  1  0.091185  0.707018  0.606933  1
  O  O60  1  0.190829  0.579537  0.907864  1
  O  O61  1  0.588735  0.196227  0.888695  1
  O  O62  1  0.076514  0.472429  0.112453  1
  O  O63  1  0.476220  0.088094  0.093238  1
  O  O64  1  0.236159  0.298492  0.390992  1
  O  O65  1  0.092915  0.371097  0.605488  1
  O  O66  1  0.389572  0.059928  0.586267  1
  O  O67  1  0.247878  0.205666  0.884731  1
  O  O68  1  0.097548  0.125608  0.104353  1
  O  O69  1  0.091685  0.040019  0.604335  1
