# generated using pymatgen
data_Li4VCo3O8
_symmetry_space_group_name_H-M   'P 1'
_cell_length_a   5.57716065
_cell_length_b   6.48596898
_cell_length_c   5.10608045
_cell_angle_alpha   90.24379727
_cell_angle_beta   89.93264245
_cell_angle_gamma   89.76502259
_symmetry_Int_Tables_number   1
_chemical_formula_structural   Li4VCo3O8
_chemical_formula_sum   'Li4 V1 Co3 O8'
_cell_volume   184.70037687
_cell_formula_units_Z   1
loop_
 _symmetry_equiv_pos_site_id
 _symmetry_equiv_pos_as_xyz
  1  'x, y, z'
loop_
 _atom_site_type_symbol
 _atom_site_label
 _atom_site_symmetry_multiplicity
 _atom_site_fract_x
 _atom_site_fract_y
 _atom_site_fract_z
 _atom_site_occupancy
  Li  Li0  1  0.087752  0.616978  0.989281  1
  Li  Li1  1  0.425182  0.131050  0.502623  1
  Li  Li2  1  0.570818  0.874043  0.988990  1
  Li  Li3  1  0.902478  0.376198  0.502866  1
  V  V4  1  0.918912  0.874931  0.501811  1
  Co  Co5  1  0.086748  0.137399  0.992073  1
  Co  Co6  1  0.424273  0.617412  0.504168  1
  Co  Co7  1  0.582820  0.372387  0.996096  1
  O  O8  1  0.064294  0.096471  0.385132  1
  O  O9  1  0.075703  0.654495  0.394085  1
  O  O10  1  0.416077  0.133771  0.888446  1
  O  O11  1  0.422718  0.614164  0.883216  1
  O  O12  1  0.575037  0.375162  0.366937  1
  O  O13  1  0.619779  0.868740  0.392559  1
  O  O14  1  0.904948  0.376676  0.892805  1
  O  O15  1  0.922460  0.880124  0.845311  1
