# generated using pymatgen
data_Mn4Si4O13
_symmetry_space_group_name_H-M   'P 1'
_cell_length_a   10.10102093
_cell_length_b   7.81232400
_cell_length_c   7.10362391
_cell_angle_alpha   81.33150337
_cell_angle_beta   90.84553388
_cell_angle_gamma   112.98343273
_symmetry_Int_Tables_number   1
_chemical_formula_structural   Mn4Si4O13
_chemical_formula_sum   'Mn8 Si8 O26'
_cell_volume   509.57135408
_cell_formula_units_Z   2
loop_
 _symmetry_equiv_pos_site_id
 _symmetry_equiv_pos_as_xyz
  1  'x, y, z'
loop_
 _atom_site_type_symbol
 _atom_site_label
 _atom_site_symmetry_multiplicity
 _atom_site_fract_x
 _atom_site_fract_y
 _atom_site_fract_z
 _atom_site_occupancy
  Mn  Mn0  1  0.997173  0.799066  0.938880  1
  Mn  Mn1  1  0.007892  0.805274  0.437298  1
  Mn  Mn2  1  0.378591  0.818696  0.429908  1
  Mn  Mn3  1  0.379602  0.805600  0.948698  1
  Mn  Mn4  1  0.620398  0.194400  0.051302  1
  Mn  Mn5  1  0.621409  0.181304  0.570092  1
  Mn  Mn6  1  0.992108  0.194726  0.562702  1
  Mn  Mn7  1  0.002827  0.200934  0.061120  1
  Si  Si8  1  0.172739  0.594356  0.726993  1
  Si  Si9  1  0.285805  0.423077  0.280529  1
  Si  Si10  1  0.290392  0.149526  0.611480  1
  Si  Si11  1  0.289365  0.123886  0.059440  1
  Si  Si12  1  0.710635  0.876114  0.940560  1
  Si  Si13  1  0.709608  0.850474  0.388520  1
  Si  Si14  1  0.714195  0.576923  0.719471  1
  Si  Si15  1  0.827261  0.405644  0.273007  1
  O  O16  1  0.118651  0.027795  0.586648  1
  O  O17  1  0.116794  0.004390  0.114686  1
  O  O18  1  0.078474  0.368674  0.769915  1
  O  O19  1  0.159549  0.696874  0.507121  1
  O  O20  1  0.159625  0.712947  0.899771  1
  O  O21  1  0.109456  0.337208  0.276404  1
  O  O22  1  0.396276  0.011721  0.123957  1
  O  O23  1  0.399715  0.054352  0.553767  1
  O  O24  1  0.350344  0.662239  0.732251  1
  O  O25  1  0.363316  0.650756  0.226969  1
  O  O26  1  0.312577  0.174614  0.831334  1
  O  O27  1  0.331525  0.362035  0.495053  1
  O  O28  1  0.348326  0.325029  0.134920  1
  O  O29  1  0.651674  0.674971  0.865080  1
  O  O30  1  0.668475  0.637965  0.504947  1
  O  O31  1  0.687423  0.825386  0.168666  1
  O  O32  1  0.636684  0.349244  0.773031  1
  O  O33  1  0.649656  0.337761  0.267749  1
  O  O34  1  0.600285  0.945648  0.446233  1
  O  O35  1  0.603724  0.988279  0.876043  1
  O  O36  1  0.890544  0.662792  0.723596  1
  O  O37  1  0.840375  0.287053  0.100229  1
  O  O38  1  0.840451  0.303126  0.492879  1
  O  O39  1  0.921526  0.631326  0.230085  1
  O  O40  1  0.883206  0.995610  0.885314  1
  O  O41  1  0.881349  0.972205  0.413352  1
