# generated using pymatgen
data_Na6Fe2B4AsO16
_symmetry_space_group_name_H-M   'P 1'
_cell_length_a   10.06416002
_cell_length_b   10.06416073
_cell_length_c   10.06416036
_cell_angle_alpha   90.00000100
_cell_angle_beta   60.00000113
_cell_angle_gamma   60.00000232
_symmetry_Int_Tables_number   1
_chemical_formula_structural   Na6Fe2B4AsO16
_chemical_formula_sum   'Na12 Fe4 B8 As2 O32'
_cell_volume   720.80479416
_cell_formula_units_Z   2
loop_
 _symmetry_equiv_pos_site_id
 _symmetry_equiv_pos_as_xyz
  1  'x, y, z'
loop_
 _atom_site_type_symbol
 _atom_site_label
 _atom_site_symmetry_multiplicity
 _atom_site_fract_x
 _atom_site_fract_y
 _atom_site_fract_z
 _atom_site_occupancy
  Na  Na0  1  0.750000  0.659905  0.909905  1
  Na  Na1  1  0.680189  0.909905  0.659905  1
  Na  Na2  1  0.750000  0.659905  0.340095  1
  Na  Na3  1  0.750000  0.090095  0.909905  1
  Na  Na4  1  0.250000  0.909905  0.659905  1
  Na  Na5  1  0.819811  0.340095  0.090095  1
  Na  Na6  1  0.180189  0.659905  0.909905  1
  Na  Na7  1  0.750000  0.090095  0.340095  1
  Na  Na8  1  0.250000  0.340095  0.659905  1
  Na  Na9  1  0.250000  0.909905  0.090095  1
  Na  Na10  1  0.319811  0.090095  0.340095  1
  Na  Na11  1  0.250000  0.340095  0.090095  1
  Fe  Fe12  1  0.500000  0.500000  0.500000  1
  Fe  Fe13  1  0.500000  0.500000  0.000000  1
  Fe  Fe14  1  0.000000  0.500000  0.500000  1
  Fe  Fe15  1  0.000000  0.000000  0.500000  1
  B  B16  1  0.923601  0.288199  0.711801  1
  B  B17  1  0.576399  0.635402  0.711801  1
  B  B18  1  0.923601  0.288199  0.364598  1
  B  B19  1  0.576399  0.288199  0.711801  1
  B  B20  1  0.423601  0.711801  0.288199  1
  B  B21  1  0.423601  0.364598  0.288199  1
  B  B22  1  0.076399  0.711801  0.635402  1
  B  B23  1  0.076399  0.711801  0.288199  1
  As  As24  1  0.750000  0.875000  0.125000  1
  As  As25  1  0.250000  0.125000  0.875000  1
  O  O26  1  0.953956  0.862737  0.639454  1
  O  O27  1  0.953956  0.683307  0.406590  1
  O  O28  1  0.776718  0.406590  0.862737  1
  O  O29  1  0.723282  0.639454  0.683307  1
  O  O30  1  0.956148  0.137263  0.683307  1
  O  O31  1  0.890252  0.945126  0.054874  1
  O  O32  1  0.956148  0.406590  0.360546  1
  O  O33  1  0.890252  0.664622  0.054874  1
  O  O34  1  0.609748  0.945126  0.335378  1
  O  O35  1  0.453956  0.639454  0.862737  1
  O  O36  1  0.543852  0.639454  0.593410  1
  O  O37  1  0.609748  0.945126  0.054874  1
  O  O38  1  0.543852  0.316693  0.862737  1
  O  O39  1  0.776718  0.316693  0.360546  1
  O  O40  1  0.723282  0.137263  0.593410  1
  O  O41  1  0.546044  0.593410  0.316693  1
  O  O42  1  0.453956  0.406590  0.683307  1
  O  O43  1  0.276718  0.862737  0.406590  1
  O  O44  1  0.223282  0.683307  0.639454  1
  O  O45  1  0.456148  0.683307  0.137263  1
  O  O46  1  0.390252  0.054874  0.945126  1
  O  O47  1  0.456148  0.360546  0.406590  1
  O  O48  1  0.546044  0.360546  0.137263  1
  O  O49  1  0.109748  0.335378  0.945126  1
  O  O50  1  0.390252  0.054874  0.664622  1
  O  O51  1  0.043852  0.593410  0.639454  1
  O  O52  1  0.109748  0.054874  0.945126  1
  O  O53  1  0.043852  0.862737  0.316693  1
  O  O54  1  0.276718  0.360546  0.316693  1
  O  O55  1  0.223282  0.593410  0.137263  1
  O  O56  1  0.046044  0.316693  0.593410  1
  O  O57  1  0.046044  0.137263  0.360546  1
