# generated using pymatgen
data_Al4P4H11C3NO18
_symmetry_space_group_name_H-M   'P 1'
_cell_length_a   9.70820646
_cell_length_b   9.85242281
_cell_length_c   10.74964416
_cell_angle_alpha   75.06186727
_cell_angle_beta   73.73558472
_cell_angle_gamma   89.03142621
_symmetry_Int_Tables_number   1
_chemical_formula_structural   Al4P4H11C3NO18
_chemical_formula_sum   'Al8 P8 H22 C6 N2 O36'
_cell_volume   951.99400618
_cell_formula_units_Z   2
loop_
 _symmetry_equiv_pos_site_id
 _symmetry_equiv_pos_as_xyz
  1  'x, y, z'
loop_
 _atom_site_type_symbol
 _atom_site_label
 _atom_site_symmetry_multiplicity
 _atom_site_fract_x
 _atom_site_fract_y
 _atom_site_fract_z
 _atom_site_occupancy
  Al  Al0  1  0.211347  0.766314  0.161497  1
  Al  Al1  1  0.788653  0.233686  0.838503  1
  Al  Al2  1  0.775588  0.509841  0.079353  1
  Al  Al3  1  0.224412  0.490159  0.920647  1
  Al  Al4  1  0.047835  0.822749  0.659485  1
  Al  Al5  1  0.952165  0.177251  0.340515  1
  Al  Al6  1  0.500350  0.021952  0.130789  1
  Al  Al7  1  0.499650  0.978048  0.869211  1
  P  P8  1  0.967667  0.505540  0.794137  1
  P  P9  1  0.032333  0.494460  0.205863  1
  P  P10  1  0.528783  0.725052  0.092982  1
  P  P11  1  0.471217  0.274948  0.907018  1
  P  P12  1  0.200212  0.964263  0.349339  1
  P  P13  1  0.799788  0.035737  0.650661  1
  P  P14  1  0.769263  0.185049  0.138540  1
  P  P15  1  0.230737  0.814951  0.861460  1
  H  H16  1  0.291235  0.019692  0.037154  1
  H  H17  1  0.708765  0.980308  0.962846  1
  H  H18  1  0.449557  0.270409  0.244457  1
  H  H19  1  0.550443  0.729591  0.755543  1
  H  H20  1  0.277486  0.295060  0.304471  1
  H  H21  1  0.722514  0.704940  0.695529  1
  H  H22  1  0.394681  0.433472  0.224250  1
  H  H23  1  0.605319  0.566528  0.775750  1
  H  H24  1  0.499830  0.417546  0.387854  1
  H  H25  1  0.500170  0.582454  0.612146  1
  H  H26  1  0.241482  0.499040  0.441325  1
  H  H27  1  0.758517  0.500960  0.558675  1
  H  H28  1  0.182090  0.324721  0.541914  1
  H  H29  1  0.817910  0.675280  0.458086  1
  H  H30  1  0.297794  0.428093  0.587165  1
  H  H31  1  0.702206  0.571907  0.412835  1
  H  H32  1  0.524908  0.151486  0.429531  1
  H  H33  1  0.475092  0.848514  0.570469  1
  H  H34  1  0.487731  0.211569  0.576270  1
  H  H35  1  0.512269  0.788431  0.423730  1
  H  H36  1  0.348567  0.125817  0.543496  1
  H  H37  1  0.651433  0.874183  0.456504  1
  C  C38  1  0.405695  0.342810  0.421503  1
  C  C39  1  0.594305  0.657190  0.578497  1
  C  C40  1  0.274327  0.402402  0.501535  1
  C  C41  1  0.725673  0.597598  0.498465  1
  C  C42  1  0.443372  0.199647  0.496114  1
  C  C43  1  0.556628  0.800353  0.503886  1
  N  N44  1  0.380232  0.334680  0.290310  1
  N  N45  1  0.619768  0.665320  0.709690  1
  O  O46  1  0.566764  0.833356  0.162522  1
  O  O47  1  0.433236  0.166644  0.837478  1
  O  O48  1  0.615440  0.593175  0.119361  1
  O  O49  1  0.384560  0.406825  0.880639  1
  O  O50  1  0.843802  0.195610  0.988957  1
  O  O51  1  0.156198  0.804390  0.011043  1
  O  O52  1  0.094902  0.452417  0.848900  1
  O  O53  1  0.905098  0.547583  0.151100  1
  O  O54  1  0.912269  0.390680  0.745907  1
  O  O55  1  0.087731  0.609320  0.254093  1
  O  O56  1  0.369339  0.667752  0.161661  1
  O  O57  1  0.630661  0.332248  0.838339  1
  O  O58  1  0.361110  0.001292  0.292476  1
  O  O59  1  0.638890  0.998708  0.707524  1
  O  O60  1  0.167563  0.896098  0.501781  1
  O  O61  1  0.832437  0.103902  0.498219  1
  O  O62  1  0.363715  0.949065  0.053209  1
  O  O63  1  0.636285  0.050935  0.946791  1
  O  O64  1  0.557181  0.791979  0.940440  1
  O  O65  1  0.442819  0.208021  0.059560  1
  O  O66  1  0.146287  0.862636  0.283080  1
  O  O67  1  0.853713  0.137364  0.716920  1
  O  O68  1  0.716856  0.332083  0.152780  1
  O  O69  1  0.283144  0.667917  0.847220  1
  O  O70  1  0.880698  0.142934  0.217963  1
  O  O71  1  0.119302  0.857066  0.782037  1
  O  O72  1  0.018026  0.641183  0.677776  1
  O  O73  1  0.981974  0.358817  0.322224  1
  O  O74  1  0.846066  0.547943  0.904316  1
  O  O75  1  0.153934  0.452057  0.095684  1
  O  O76  1  0.639048  0.080430  0.196745  1
  O  O77  1  0.360952  0.919570  0.803255  1
  O  O78  1  0.119945  0.103074  0.328297  1
  O  O79  1  0.880055  0.896926  0.671703  1
  O  O80  1  0.823818  0.855715  0.017280  1
  O  O81  1  0.176182  0.144285  0.982720  1
