# generated using pymatgen
data_Al3P4H18C3N3O16
_symmetry_space_group_name_H-M   'P 1'
_cell_length_a   8.47533224
_cell_length_b   11.41946555
_cell_length_c   11.61948119
_cell_angle_alpha   72.45329330
_cell_angle_beta   89.42269141
_cell_angle_gamma   85.34123576
_symmetry_Int_Tables_number   1
_chemical_formula_structural   Al3P4H18C3N3O16
_chemical_formula_sum   'Al6 P8 H36 C6 N6 O32'
_cell_volume   1068.58674713
_cell_formula_units_Z   2
loop_
 _symmetry_equiv_pos_site_id
 _symmetry_equiv_pos_as_xyz
  1  'x, y, z'
loop_
 _atom_site_type_symbol
 _atom_site_label
 _atom_site_symmetry_multiplicity
 _atom_site_fract_x
 _atom_site_fract_y
 _atom_site_fract_z
 _atom_site_occupancy
  Al  Al0  1  0.148440  0.652718  0.425466  1
  Al  Al1  1  0.851560  0.347282  0.574534  1
  Al  Al2  1  0.319777  0.949296  0.132543  1
  Al  Al3  1  0.680223  0.050704  0.867457  1
  Al  Al4  1  0.738690  0.711678  0.216135  1
  Al  Al5  1  0.261310  0.288322  0.783865  1
  P  P6  1  0.523814  0.806907  0.980371  1
  P  P7  1  0.476186  0.193093  0.019629  1
  P  P8  1  0.977465  0.894423  0.239584  1
  P  P9  1  0.022535  0.105577  0.760416  1
  P  P10  1  0.978037  0.472012  0.314331  1
  P  P11  1  0.021963  0.527988  0.685669  1
  P  P12  1  0.474110  0.767927  0.380449  1
  P  P13  1  0.525890  0.232073  0.619551  1
  H  H14  1  0.108821  0.838004  0.821400  1
  H  H15  1  0.891179  0.161996  0.178600  1
  H  H16  1  0.249198  0.722827  0.877187  1
  H  H17  1  0.750802  0.277173  0.122813  1
  H  H18  1  0.076110  0.694129  0.814359  1
  H  H19  1  0.923890  0.305872  0.185641  1
  H  H20  1  0.563735  0.697637  0.790949  1
  H  H21  1  0.436265  0.302363  0.209051  1
  H  H22  1  0.733761  0.632793  0.744426  1
  H  H23  1  0.266239  0.367207  0.255574  1
  H  H24  1  0.585164  0.703426  0.642346  1
  H  H25  1  0.414836  0.296574  0.357654  1
  H  H26  1  0.656655  0.074652  0.468132  1
  H  H27  1  0.343345  0.925348  0.531868  1
  H  H28  1  0.780184  0.000966  0.386260  1
  H  H29  1  0.219816  0.999034  0.613740  1
  H  H30  1  0.621134  0.932319  0.461444  1
  H  H31  1  0.378866  0.067681  0.538556  1
  H  H32  1  0.073392  0.612793  0.032035  1
  H  H33  1  0.926608  0.387207  0.967965  1
  H  H34  1  0.098767  0.765147  0.039317  1
  H  H35  1  0.901233  0.234853  0.960682  1
  H  H36  1  0.923014  0.735573  0.973270  1
  H  H37  1  0.076986  0.264427  0.026730  1
  H  H38  1  0.563803  0.476144  0.850045  1
  H  H39  1  0.436197  0.523856  0.149955  1
  H  H40  1  0.405611  0.552110  0.747808  1
  H  H41  1  0.594389  0.447890  0.252192  1
  H  H42  1  0.576693  0.483707  0.693956  1
  H  H43  1  0.423307  0.516293  0.306044  1
  H  H44  1  0.893330  0.994657  0.585466  1
  H  H45  1  0.106670  0.005343  0.414534  1
  H  H46  1  0.733633  0.908105  0.654045  1
  H  H47  1  0.266367  0.091895  0.345955  1
  H  H48  1  0.873612  0.847089  0.565729  1
  H  H49  1  0.126388  0.152912  0.434271  1
  C  C50  1  0.809261  0.931042  0.574738  1
  C  C51  1  0.190739  0.068958  0.425262  1
  C  C52  1  0.534187  0.532375  0.757564  1
  C  C53  1  0.465813  0.467625  0.242436  1
  C  C54  1  0.050513  0.711562  0.986282  1
  C  C55  1  0.949487  0.288438  0.013718  1
  N  N56  1  0.710235  0.990276  0.464368  1
  N  N57  1  0.289765  0.009724  0.535632  1
  N  N58  1  0.610368  0.650371  0.731176  1
  N  N59  1  0.389632  0.349629  0.268824  1
  N  N60  1  0.126636  0.742952  0.866080  1
  N  N61  1  0.873364  0.257048  0.133920  1
  O  O62  1  0.459187  0.732852  0.905414  1
  O  O63  1  0.540813  0.267148  0.094586  1
  O  O64  1  0.610316  0.721632  0.096249  1
  O  O65  1  0.389684  0.278368  0.903751  1
  O  O66  1  0.420645  0.880199  0.270663  1
  O  O67  1  0.579355  0.119801  0.729337  1
  O  O68  1  0.038907  0.793536  0.357372  1
  O  O69  1  0.961093  0.206464  0.642628  1
  O  O70  1  0.632597  0.707209  0.348604  1
  O  O71  1  0.367403  0.292791  0.651396  1
  O  O72  1  0.117658  0.928416  0.151945  1
  O  O73  1  0.882342  0.071584  0.848055  1
  O  O74  1  0.857304  0.836645  0.177061  1
  O  O75  1  0.142696  0.163355  0.822939  1
  O  O76  1  0.902898  0.006861  0.270003  1
  O  O77  1  0.097102  0.993139  0.729997  1
  O  O78  1  0.855062  0.573022  0.238727  1
  O  O79  1  0.144938  0.426978  0.761273  1
  O  O80  1  0.350708  0.670551  0.401686  1
  O  O81  1  0.649292  0.329449  0.598314  1
  O  O82  1  0.103813  0.535101  0.366498  1
  O  O83  1  0.896187  0.464899  0.633502  1
  O  O84  1  0.494873  0.810259  0.491943  1
  O  O85  1  0.505127  0.189741  0.508057  1
  O  O86  1  0.056707  0.396935  0.238588  1
  O  O87  1  0.943293  0.603065  0.761412  1
  O  O88  1  0.387252  0.885520  0.019851  1
  O  O89  1  0.612748  0.114480  0.980149  1
  O  O90  1  0.646421  0.894193  0.907150  1
  O  O91  1  0.353579  0.105807  0.092850  1
  O  O92  1  0.888063  0.387331  0.420242  1
  O  O93  1  0.111937  0.612669  0.579758  1
