# generated using pymatgen
data_Na2SiBiBO7
_symmetry_space_group_name_H-M   'P 1'
_cell_length_a   9.41480087
_cell_length_b   6.90897807
_cell_length_c   5.43829050
_cell_angle_alpha   90.00000000
_cell_angle_beta   89.08506208
_cell_angle_gamma   90.00000000
_symmetry_Int_Tables_number   1
_chemical_formula_structural   Na2SiBiBO7
_chemical_formula_sum   'Na4 Si2 Bi2 B2 O14'
_cell_volume   353.69749243
_cell_formula_units_Z   2
loop_
 _symmetry_equiv_pos_site_id
 _symmetry_equiv_pos_as_xyz
  1  'x, y, z'
loop_
 _atom_site_type_symbol
 _atom_site_label
 _atom_site_symmetry_multiplicity
 _atom_site_fract_x
 _atom_site_fract_y
 _atom_site_fract_z
 _atom_site_occupancy
  Na  Na0  1  0.209461  0.000720  0.234468  1
  Na  Na1  1  0.209461  0.499280  0.234468  1
  Na  Na2  1  0.790539  0.500720  0.765532  1
  Na  Na3  1  0.790539  0.999280  0.765532  1
  Si  Si4  1  0.427006  0.250000  0.717463  1
  Si  Si5  1  0.572994  0.750000  0.282537  1
  Bi  Bi6  1  0.346184  0.750000  0.779876  1
  Bi  Bi7  1  0.653816  0.250000  0.220124  1
  B  B8  1  0.069086  0.750000  0.728425  1
  B  B9  1  0.930914  0.250000  0.271575  1
  O  O10  1  0.069282  0.250000  0.302677  1
  O  O11  1  0.141086  0.750000  0.957643  1
  O  O12  1  0.173114  0.750000  0.527521  1
  O  O13  1  0.332922  0.061934  0.802324  1
  O  O14  1  0.332922  0.438066  0.802324  1
  O  O15  1  0.413487  0.750000  0.159244  1
  O  O16  1  0.451619  0.250000  0.411551  1
  O  O17  1  0.548381  0.750000  0.588449  1
  O  O18  1  0.586513  0.250000  0.840756  1
  O  O19  1  0.667078  0.561934  0.197676  1
  O  O20  1  0.667078  0.938066  0.197676  1
  O  O21  1  0.826886  0.250000  0.472479  1
  O  O22  1  0.858914  0.250000  0.042357  1
  O  O23  1  0.930718  0.750000  0.697323  1
