# generated using pymatgen
data_Ca3In2O6
_symmetry_space_group_name_H-M   'P 1'
_cell_length_a   11.04978120
_cell_length_b   16.75838883
_cell_length_c   3.26227713
_cell_angle_alpha   89.99350407
_cell_angle_beta   90.00143251
_cell_angle_gamma   89.99576320
_symmetry_Int_Tables_number   1
_chemical_formula_structural   Ca3In2O6
_chemical_formula_sum   'Ca12 In8 O24'
_cell_volume   604.09715159
_cell_formula_units_Z   4
loop_
 _symmetry_equiv_pos_site_id
 _symmetry_equiv_pos_as_xyz
  1  'x, y, z'
loop_
 _atom_site_type_symbol
 _atom_site_label
 _atom_site_symmetry_multiplicity
 _atom_site_fract_x
 _atom_site_fract_y
 _atom_site_fract_z
 _atom_site_occupancy
  Ca  Ca0  1  0.092328  0.857066  0.999979  1
  Ca  Ca1  1  0.118330  0.648386  0.499993  1
  Ca  Ca2  1  0.135246  0.046774  0.499985  1
  Ca  Ca3  1  0.364751  0.546769  0.499974  1
  Ca  Ca4  1  0.381595  0.148382  0.499963  1
  Ca  Ca5  1  0.407638  0.357075  0.999987  1
  Ca  Ca6  1  0.594959  0.642265  0.000004  1
  Ca  Ca7  1  0.618174  0.851619  0.499971  1
  Ca  Ca8  1  0.631718  0.045874  0.000008  1
  Ca  Ca9  1  0.868269  0.545920  -0.000018  1
  Ca  Ca10  1  0.881864  0.351655  0.499990  1
  Ca  Ca11  1  0.905103  0.142243  0.999998  1
  In  In12  1  0.130883  0.454263  0.999998  1
  In  In13  1  0.154338  0.272902  0.499989  1
  In  In14  1  0.345693  0.772927  0.499968  1
  In  In15  1  0.369138  0.954257  0.000073  1
  In  In16  1  0.637525  0.457826  0.500066  1
  In  In17  1  0.651886  0.232377  0.499996  1
  In  In18  1  0.848069  0.732378  0.500030  1
  In  In19  1  0.862470  0.957794  0.499974  1
  O  O20  1  0.993959  0.996715  0.000013  1
  O  O21  1  0.004093  0.492934  0.500011  1
  O  O22  1  0.044550  0.169108  0.499969  1
  O  O23  1  0.044849  0.334882  0.000008  1
  O  O24  1  0.215692  0.744959  -0.000007  1
  O  O25  1  0.241934  0.907159  0.500013  1
  O  O26  1  0.218337  0.568885  0.000018  1
  O  O27  1  0.281673  0.068889  0.000057  1
  O  O28  1  0.258068  0.407163  0.499998  1
  O  O29  1  0.284311  0.244947  0.000030  1
  O  O30  1  0.455110  0.834881  0.999970  1
  O  O31  1  0.455432  0.669089  0.499985  1
  O  O32  1  0.495894  0.992944  0.499993  1
  O  O33  1  0.506048  0.496701  0.000012  1
  O  O34  1  0.548361  0.339877  0.500030  1
  O  O35  1  0.544338  0.173379  0.000011  1
  O  O36  1  0.716724  0.754461  0.999973  1
  O  O37  1  0.724814  0.582113  0.500012  1
  O  O38  1  0.732757  0.926168  -0.000018  1
  O  O39  1  0.767252  0.426164  0.999992  1
  O  O40  1  0.775177  0.082133  0.499984  1
  O  O41  1  0.783284  0.254440  0.000018  1
  O  O42  1  0.955710  0.673364  -0.000012  1
  O  O43  1  0.951657  0.839891  0.500012  1
