# generated using pymatgen
data_Li3Ni5OF11
_symmetry_space_group_name_H-M   'P 1'
_cell_length_a   5.12774011
_cell_length_b   5.54572809
_cell_length_c   9.09921806
_cell_angle_alpha   85.10298098
_cell_angle_beta   74.33720996
_cell_angle_gamma   118.24346534
_symmetry_Int_Tables_number   1
_chemical_formula_structural   Li3Ni5OF11
_chemical_formula_sum   'Li3 Ni5 O1 F11'
_cell_volume   212.44359631
_cell_formula_units_Z   1
loop_
 _symmetry_equiv_pos_site_id
 _symmetry_equiv_pos_as_xyz
  1  'x, y, z'
loop_
 _atom_site_type_symbol
 _atom_site_label
 _atom_site_symmetry_multiplicity
 _atom_site_fract_x
 _atom_site_fract_y
 _atom_site_fract_z
 _atom_site_occupancy
  Li  Li0  1  0.143536  0.853971  0.573679  1
  Li  Li1  1  0.850820  0.628655  0.928234  1
  Li  Li2  1  0.843596  0.136340  0.439702  1
  Ni  Ni3  1  0.125190  0.366225  0.071427  1
  Ni  Ni4  1  0.370771  0.887195  0.168280  1
  Ni  Ni5  1  0.343969  0.355812  0.669957  1
  Ni  Ni6  1  0.653495  0.636140  0.327878  1
  Ni  Ni7  1  0.670130  0.142855  0.834089  1
  O  O8  1  0.741935  0.224005  0.028027  1
  F  F9  1  0.071485  0.525660  0.713285  1
  F  F10  1  0.056711  0.024492  0.218709  1
  F  F11  1  0.445859  0.871281  0.374331  1
  F  F12  1  0.546571  0.618627  0.128913  1
  F  F13  1  0.258696  0.281768  0.466866  1
  F  F14  1  0.250924  0.780528  0.969667  1
  F  F15  1  0.745403  0.712652  0.527625  1
  F  F16  1  0.435081  0.378439  0.871134  1
  F  F17  1  0.560494  0.129332  0.632663  1
  F  F18  1  0.941031  0.475592  0.279923  1
  F  F19  1  0.944302  0.970430  0.775613  1
