# generated using pymatgen
data_Li3Co2(SiO4)2
_symmetry_space_group_name_H-M   'P 1'
_cell_length_a   6.43082273
_cell_length_b   10.59416088
_cell_length_c   5.05312354
_cell_angle_alpha   90.48213571
_cell_angle_beta   90.00000000
_cell_angle_gamma   90.00000000
_symmetry_Int_Tables_number   1
_chemical_formula_structural   Li3Co2(SiO4)2
_chemical_formula_sum   'Li6 Co4 Si4 O16'
_cell_volume   344.25292701
_cell_formula_units_Z   2
loop_
 _symmetry_equiv_pos_site_id
 _symmetry_equiv_pos_as_xyz
  1  'x, y, z'
loop_
 _atom_site_type_symbol
 _atom_site_label
 _atom_site_symmetry_multiplicity
 _atom_site_fract_x
 _atom_site_fract_y
 _atom_site_fract_z
 _atom_site_occupancy
  Li  Li0  1  0.008828  0.841085  0.759513  1
  Li  Li1  1  0.491172  0.341085  0.759513  1
  Li  Li2  1  0.498459  0.659396  0.259487  1
  Li  Li3  1  0.741962  0.422722  0.253307  1
  Li  Li4  1  0.758038  0.922722  0.253307  1
  Li  Li5  1  0.001541  0.159396  0.259487  1
  Co  Co6  1  0.016231  0.665266  0.270909  1
  Co  Co7  1  0.483769  0.165266  0.270909  1
  Co  Co8  1  0.505906  0.832195  0.753084  1
  Co  Co9  1  0.994094  0.332195  0.753084  1
  Si  Si10  1  0.244533  0.410583  0.262772  1
  Si  Si11  1  0.255467  0.910583  0.262772  1
  Si  Si12  1  0.737744  0.091858  0.764412  1
  Si  Si13  1  0.762256  0.591858  0.764412  1
  O  O14  1  0.030440  0.342684  0.136785  1
  O  O15  1  0.038330  0.842566  0.153550  1
  O  O16  1  0.250473  0.059836  0.198896  1
  O  O17  1  0.236414  0.384575  0.585196  1
  O  O18  1  0.263586  0.884575  0.585196  1
  O  O19  1  0.249527  0.559836  0.198896  1
  O  O20  1  0.461670  0.342566  0.153550  1
  O  O21  1  0.469560  0.842684  0.136785  1
  O  O22  1  0.539187  0.168290  0.644717  1
  O  O23  1  0.550060  0.663258  0.654338  1
  O  O24  1  0.758199  0.442195  0.660722  1
  O  O25  1  0.733362  0.095929  0.091775  1
  O  O26  1  0.766638  0.595929  0.091775  1
  O  O27  1  0.741801  0.942195  0.660722  1
  O  O28  1  0.949940  0.163258  0.654338  1
  O  O29  1  0.960813  0.668290  0.644717  1
