# generated using pymatgen
data_Li24Ti11CrO36
_symmetry_space_group_name_H-M   'P 1'
_cell_length_a   8.84540115
_cell_length_b   8.81666152
_cell_length_c   9.82405443
_cell_angle_alpha   90.00000044
_cell_angle_beta   98.29434208
_cell_angle_gamma   60.10742255
_symmetry_Int_Tables_number   1
_chemical_formula_structural   Li24Ti11CrO36
_chemical_formula_sum   'Li24 Ti11 Cr1 O36'
_cell_volume   654.96052374
_cell_formula_units_Z   1
loop_
 _symmetry_equiv_pos_site_id
 _symmetry_equiv_pos_as_xyz
  1  'x, y, z'
loop_
 _atom_site_type_symbol
 _atom_site_label
 _atom_site_symmetry_multiplicity
 _atom_site_fract_x
 _atom_site_fract_y
 _atom_site_fract_z
 _atom_site_occupancy
  Li  Li0  1  0.166154  0.005028  0.998934  1
  Li  Li1  1  0.000000  0.250028  0.750000  1
  Li  Li2  1  0.166520  0.168161  0.498709  1
  Li  Li3  1  0.332466  0.084386  0.250483  1
  Li  Li4  1  0.166680  0.327825  0.001078  1
  Li  Li5  1  0.499987  0.000171  0.999911  1
  Li  Li6  1  0.499603  0.160950  0.500092  1
  Li  Li7  1  0.167009  0.503873  0.499502  1
  Li  Li8  1  0.000000  0.749831  0.250000  1
  Li  Li9  1  0.498860  0.339131  -0.000025  1
  Li  Li10  1  0.166996  0.667618  0.999068  1
  Li  Li11  1  0.333320  0.583342  0.749875  1
  Li  Li12  1  0.165428  0.828937  0.499326  1
  Li  Li13  1  0.500013  0.500158  0.500089  1
  Li  Li14  1  0.833846  0.171182  0.501066  1
  Li  Li15  1  0.667534  0.416853  0.249517  1
  Li  Li16  1  0.500397  0.660552  0.999908  1
  Li  Li17  1  0.833480  0.334682  0.001291  1
  Li  Li18  1  0.833320  0.494505  0.498922  1
  Li  Li19  1  0.501140  0.837991  0.500025  1
  Li  Li20  1  0.832991  0.670884  0.000498  1
  Li  Li21  1  0.666680  0.916662  0.750125  1
  Li  Li22  1  0.833004  0.834613  0.500932  1
  Li  Li23  1  0.834572  0.994364  0.000674  1
  Ti  Ti24  1  0.000000  0.085731  0.250000  1
  Ti  Ti25  1  0.000000  0.582281  0.750000  1
  Ti  Ti26  1  0.333181  0.250866  0.750077  1
  Ti  Ti27  1  0.334559  0.412824  0.252600  1
  Ti  Ti28  1  0.667712  0.082794  0.249820  1
  Ti  Ti29  1  0.000000  0.917374  0.750000  1
  Ti  Ti30  1  0.666647  0.249021  0.750347  1
  Ti  Ti31  1  0.332288  0.750506  0.250180  1
  Ti  Ti32  1  0.333353  0.915670  0.749653  1
  Ti  Ti33  1  0.666819  0.584047  0.749923  1
  Ti  Ti34  1  0.665441  0.747382  0.247400  1
  Cr  Cr35  1  0.000000  0.420310  0.250000  1
  O  O36  1  0.094036  0.024818  0.636778  1
  O  O37  1  0.070160  0.217977  0.136401  1
  O  O38  1  0.263488  0.118090  0.865541  1
  O  O39  1  0.402930  0.048517  0.634601  1
  O  O40  1  0.094419  0.380933  0.637152  1
  O  O41  1  0.240237  0.307499  0.362936  1
  O  O42  1  0.238993  0.452379  0.863478  1
  O  O43  1  0.090186  0.523452  0.138331  1
  O  O44  1  0.572306  0.141934  0.863090  1
  O  O45  1  0.427649  0.214254  0.136900  1
  O  O46  1  0.069478  0.715202  0.634426  1
  O  O47  1  0.427612  0.357877  0.636906  1
  O  O48  1  0.760942  0.047535  0.636975  1
  O  O49  1  0.571254  0.286001  0.363474  1
  O  O50  1  0.262722  0.618845  0.365396  1
  O  O51  1  0.905964  0.118855  0.863222  1
  O  O52  1  0.400562  0.549211  0.134325  1
  O  O53  1  0.760994  0.191438  0.136926  1
  O  O54  1  0.239058  0.808476  0.863025  1
  O  O55  1  0.597070  0.451447  0.865399  1
  O  O56  1  0.094107  0.882735  0.136541  1
  O  O57  1  0.736512  0.381577  0.634459  1
  O  O58  1  0.427694  0.714240  0.636910  1
  O  O59  1  0.239006  0.952432  0.363074  1
  O  O60  1  0.572351  0.641903  0.363100  1
  O  O61  1  0.929840  0.288137  0.363599  1
  O  O62  1  0.572388  0.785491  0.863094  1
  O  O63  1  0.428746  0.857255  0.136526  1
  O  O64  1  0.905581  0.475352  0.862848  1
  O  O65  1  0.759763  0.547736  0.137064  1
  O  O66  1  0.761007  0.691371  0.636522  1
  O  O67  1  0.909814  0.613638  0.361669  1
  O  O68  1  0.599438  0.949773  0.365675  1
  O  O69  1  0.737278  0.881567  0.134604  1
  O  O70  1  0.930522  0.784680  0.865574  1
  O  O71  1  0.905893  0.976841  0.363459  1
