# generated using pymatgen
data_MnO2
_symmetry_space_group_name_H-M   'P 1'
_cell_length_a   5.84821921
_cell_length_b   5.84821879
_cell_length_c   35.07961898
_cell_angle_alpha   59.99085934
_cell_angle_beta   59.99086171
_cell_angle_gamma   60.00000046
_symmetry_Int_Tables_number   1
_chemical_formula_structural   MnO2
_chemical_formula_sum   'Mn24 O48'
_cell_volume   848.25634638
_cell_formula_units_Z   24
loop_
 _symmetry_equiv_pos_site_id
 _symmetry_equiv_pos_as_xyz
  1  'x, y, z'
loop_
 _atom_site_type_symbol
 _atom_site_label
 _atom_site_symmetry_multiplicity
 _atom_site_fract_x
 _atom_site_fract_y
 _atom_site_fract_z
 _atom_site_occupancy
  Mn  Mn0  1  0.009910  0.495767  0.083092  1
  Mn  Mn1  1  0.495767  0.009910  0.083092  1
  Mn  Mn2  1  0.495767  0.495767  0.083092  1
  Mn  Mn3  1  0.008980  0.497568  0.249314  1
  Mn  Mn4  1  0.497568  0.008980  0.249314  1
  Mn  Mn5  1  0.497568  0.497568  0.249314  1
  Mn  Mn6  1  0.000950  0.500440  0.416362  1
  Mn  Mn7  1  0.882564  0.882564  0.142051  1
  Mn  Mn8  1  0.501976  0.501976  0.332345  1
  Mn  Mn9  1  0.500440  0.000950  0.416362  1
  Mn  Mn10  1  0.000418  0.500125  0.583222  1
  Mn  Mn11  1  0.500440  0.500440  0.416362  1
  Mn  Mn12  1  0.500125  0.000418  0.583222  1
  Mn  Mn13  1  0.500543  0.500543  0.499729  1
  Mn  Mn14  1  0.000298  0.500074  0.749926  1
  Mn  Mn15  1  0.500125  0.500125  0.583222  1
  Mn  Mn16  1  0.500378  0.500378  0.666478  1
  Mn  Mn17  1  0.500074  0.000298  0.749926  1
  Mn  Mn18  1  0.500074  0.500074  0.749926  1
  Mn  Mn19  1  0.999445  0.500170  0.916703  1
  Mn  Mn20  1  0.500170  0.999445  0.916703  1
  Mn  Mn21  1  0.500196  0.500196  0.833235  1
  Mn  Mn22  1  0.500170  0.500170  0.916703  1
  Mn  Mn23  1  0.877534  0.877534  0.977900  1
  O  O24  1  0.248011  0.248011  0.049472  1
  O  O25  1  0.248011  0.707147  0.049472  1
  O  O26  1  0.262570  0.262570  0.118715  1
  O  O27  1  0.707147  0.248011  0.049472  1
  O  O28  1  0.282178  0.747913  0.120333  1
  O  O29  1  0.244304  0.244304  0.216327  1
  O  O30  1  0.736102  0.736102  0.048616  1
  O  O31  1  0.244304  0.713431  0.216327  1
  O  O32  1  0.264303  0.264303  0.284515  1
  O  O33  1  0.747913  0.282178  0.120333  1
  O  O34  1  0.713431  0.244304  0.216327  1
  O  O35  1  0.747913  0.747913  0.120333  1
  O  O36  1  0.265795  0.265795  0.377350  1
  O  O37  1  0.300146  0.734959  0.288322  1
  O  O38  1  0.265740  0.265740  0.450463  1
  O  O39  1  0.741508  0.741508  0.212579  1
  O  O40  1  0.265795  0.704309  0.377350  1
  O  O41  1  0.734959  0.300146  0.288322  1
  O  O42  1  0.704309  0.265795  0.377350  1
  O  O43  1  0.734959  0.734959  0.288322  1
  O  O44  1  0.296640  0.734594  0.455695  1
  O  O45  1  0.265306  0.265306  0.544242  1
  O  O46  1  0.735170  0.735170  0.382415  1
  O  O47  1  0.265417  0.265417  0.617291  1
  O  O48  1  0.265306  0.703937  0.544242  1
  O  O49  1  0.734594  0.296640  0.455695  1
  O  O50  1  0.703937  0.265306  0.544242  1
  O  O51  1  0.734594  0.734594  0.455695  1
  O  O52  1  0.296321  0.734414  0.622475  1
  O  O53  1  0.265261  0.265261  0.710937  1
  O  O54  1  0.734838  0.734838  0.549248  1
  O  O55  1  0.734414  0.296321  0.622475  1
  O  O56  1  0.265261  0.703858  0.710937  1
  O  O57  1  0.265353  0.265353  0.783990  1
  O  O58  1  0.734414  0.734414  0.622475  1
  O  O59  1  0.703858  0.265261  0.710937  1
  O  O60  1  0.265455  0.265455  0.877612  1
  O  O61  1  0.296229  0.734359  0.789175  1
  O  O62  1  0.264178  0.264178  0.951244  1
  O  O63  1  0.734767  0.734767  0.715949  1
  O  O64  1  0.734359  0.296229  0.789175  1
  O  O65  1  0.265455  0.703419  0.877612  1
  O  O66  1  0.734359  0.734359  0.789175  1
  O  O67  1  0.703419  0.265455  0.877612  1
  O  O68  1  0.284695  0.750879  0.952258  1
  O  O69  1  0.750879  0.284695  0.952258  1
  O  O70  1  0.733760  0.733760  0.883120  1
  O  O71  1  0.750879  0.750879  0.952258  1
