# generated using pymatgen
data_Li3VPCO7
_symmetry_space_group_name_H-M   'P 1'
_cell_length_a   8.51418135
_cell_length_b   9.99486168
_cell_length_c   6.61602792
_cell_angle_alpha   89.73154619
_cell_angle_beta   90.38406172
_cell_angle_gamma   84.73682324
_symmetry_Int_Tables_number   1
_chemical_formula_structural   Li3VPCO7
_chemical_formula_sum   'Li12 V4 P4 C4 O28'
_cell_volume   560.61690089
_cell_formula_units_Z   4
loop_
 _symmetry_equiv_pos_site_id
 _symmetry_equiv_pos_as_xyz
  1  'x, y, z'
loop_
 _atom_site_type_symbol
 _atom_site_label
 _atom_site_symmetry_multiplicity
 _atom_site_fract_x
 _atom_site_fract_y
 _atom_site_fract_z
 _atom_site_occupancy
  Li  Li0  1  0.089955  0.384127  0.259304  1
  Li  Li1  1  0.097703  0.882836  0.255981  1
  Li  Li2  1  0.284175  0.122459  0.468528  1
  Li  Li3  1  0.279463  0.625295  0.028192  1
  Li  Li4  1  0.281772  0.625333  0.467687  1
  Li  Li5  1  0.663084  0.105939  0.250692  1
  Li  Li6  1  0.719573  0.365614  0.519007  1
  Li  Li7  1  0.719059  0.365322  0.981535  1
  Li  Li8  1  0.719757  0.887316  0.514085  1
  Li  Li9  1  0.721732  0.887215  0.989323  1
  Li  Li10  1  0.893685  0.108085  0.748138  1
  Li  Li11  1  0.899923  0.615714  0.748630  1
  V  V12  1  0.272820  0.132262  0.012317  1
  V  V13  1  0.330422  0.399465  0.748212  1
  V  V14  1  0.331900  0.890358  0.745367  1
  V  V15  1  0.672092  0.603271  0.249390  1
  P  P16  1  0.408987  0.361108  0.249850  1
  P  P17  1  0.416962  0.860530  0.250999  1
  P  P18  1  0.593179  0.139201  0.750008  1
  P  P19  1  0.591268  0.638507  0.749080  1
  C  C20  1  0.034903  0.346867  0.753903  1
  C  C21  1  0.035891  0.848052  0.752294  1
  C  C22  1  0.960547  0.150406  0.252047  1
  C  C23  1  0.964878  0.653121  0.249443  1
  O  O24  1  0.071989  0.469350  0.747005  1
  O  O25  1  0.110556  0.182916  0.252493  1
  O  O26  1  0.076904  0.971389  0.753150  1
  O  O27  1  0.154028  0.251683  0.761016  1
  O  O28  1  0.111324  0.680282  0.248733  1
  O  O29  1  0.149402  0.750754  0.751069  1
  O  O30  1  0.305414  0.414548  0.065984  1
  O  O31  1  0.306888  0.414263  0.431620  1
  O  O32  1  0.313450  0.916189  0.065408  1
  O  O33  1  0.308981  0.911786  0.429435  1
  O  O34  1  0.423884  0.086750  0.750132  1
  O  O35  1  0.425986  0.203815  0.246984  1
  O  O36  1  0.423625  0.589308  0.747852  1
  O  O37  1  0.430620  0.703405  0.245864  1
  O  O38  1  0.566429  0.296742  0.749515  1
  O  O39  1  0.575141  0.410248  0.250109  1
  O  O40  1  0.569981  0.795397  0.748488  1
  O  O41  1  0.580307  0.911893  0.253075  1
  O  O42  1  0.690877  0.090204  0.937858  1
  O  O43  1  0.688369  0.089965  0.563082  1
  O  O44  1  0.693035  0.585043  0.567316  1
  O  O45  1  0.693482  0.584185  0.932341  1
  O  O46  1  0.850791  0.247935  0.255279  1
  O  O47  1  0.892636  0.314556  0.751738  1
  O  O48  1  0.851459  0.749042  0.248871  1
  O  O49  1  0.933347  0.027165  0.249305  1
  O  O50  1  0.890493  0.822798  0.751222  1
  O  O51  1  0.926871  0.529982  0.251037  1
