# generated using pymatgen
data_Li3Mn2(CO3)4
_symmetry_space_group_name_H-M   'P 1'
_cell_length_a   7.16825374
_cell_length_b   9.97812264
_cell_length_c   8.63687803
_cell_angle_alpha   90.00000000
_cell_angle_beta   68.64616366
_cell_angle_gamma   90.00000000
_symmetry_Int_Tables_number   1
_chemical_formula_structural   Li3Mn2(CO3)4
_chemical_formula_sum   'Li6 Mn4 C8 O24'
_cell_volume   575.34941866
_cell_formula_units_Z   2
loop_
 _symmetry_equiv_pos_site_id
 _symmetry_equiv_pos_as_xyz
  1  'x, y, z'
loop_
 _atom_site_type_symbol
 _atom_site_label
 _atom_site_symmetry_multiplicity
 _atom_site_fract_x
 _atom_site_fract_y
 _atom_site_fract_z
 _atom_site_occupancy
  Li  Li0  1  0.070807  0.182193  0.063644  1
  Li  Li1  1  0.015796  0.081949  0.652954  1
  Li  Li2  1  0.511443  0.414062  0.153996  1
  Li  Li3  1  0.429193  0.682193  0.436356  1
  Li  Li4  1  0.484204  0.581949  0.847046  1
  Li  Li5  1  0.988557  0.914062  0.346004  1
  Mn  Mn6  1  0.037369  0.366232  0.441612  1
  Mn  Mn7  1  0.462631  0.866232  0.058387  1
  Mn  Mn8  1  0.545270  0.148889  0.921868  1
  Mn  Mn9  1  0.954730  0.648889  0.578132  1
  C  C10  1  0.235838  0.110291  0.281330  1
  C  C11  1  0.264162  0.610291  0.218670  1
  C  C12  1  0.273255  0.476405  0.639980  1
  C  C13  1  0.226745  0.976405  0.860020  1
  C  C14  1  0.772476  0.017724  0.133953  1
  C  C15  1  0.727524  0.517724  0.366047  1
  C  C16  1  0.741422  0.392820  0.782844  1
  C  C17  1  0.758578  0.892820  0.717156  1
  O  O18  1  0.108052  0.149535  0.422564  1
  O  O19  1  0.223218  0.482552  0.240003  1
  O  O20  1  0.190627  0.697509  0.336079  1
  O  O21  1  0.309373  0.197509  0.163921  1
  O  O22  1  0.276782  0.982552  0.259997  1
  O  O23  1  0.391948  0.649535  0.077436  1
  O  O24  1  0.118874  0.955175  0.776464  1
  O  O25  1  0.226328  0.376570  0.562039  1
  O  O26  1  0.211472  0.598979  0.626789  1
  O  O27  1  0.288528  0.098979  0.873211  1
  O  O28  1  0.273672  0.876570  0.937961  1
  O  O29  1  0.597406  0.531624  0.296897  1
  O  O30  1  0.381126  0.455175  0.723536  1
  O  O31  1  0.745892  0.116306  0.046904  1
  O  O32  1  0.674526  0.904158  0.152451  1
  O  O33  1  0.825474  0.404158  0.347549  1
  O  O34  1  0.754108  0.616306  0.453097  1
  O  O35  1  0.902594  0.031624  0.203103  1
  O  O36  1  0.609952  0.350947  0.921330  1
  O  O37  1  0.724546  0.019105  0.735008  1
  O  O38  1  0.670008  0.805165  0.832068  1
  O  O39  1  0.829992  0.305165  0.667932  1
  O  O40  1  0.775454  0.519105  0.764992  1
  O  O41  1  0.890048  0.850947  0.578670  1
