# generated using pymatgen
data_Na5LiMn2P2(CO7)2
_symmetry_space_group_name_H-M   'P 1'
_cell_length_a   8.98345639
_cell_length_b   6.76685088
_cell_length_c   10.36674026
_cell_angle_alpha   90.00000000
_cell_angle_beta   89.93058265
_cell_angle_gamma   90.00000000
_symmetry_Int_Tables_number   1
_chemical_formula_structural   Na5LiMn2P2(CO7)2
_chemical_formula_sum   'Na10 Li2 Mn4 P4 C4 O28'
_cell_volume   630.19066963
_cell_formula_units_Z   2
loop_
 _symmetry_equiv_pos_site_id
 _symmetry_equiv_pos_as_xyz
  1  'x, y, z'
loop_
 _atom_site_type_symbol
 _atom_site_label
 _atom_site_symmetry_multiplicity
 _atom_site_fract_x
 _atom_site_fract_y
 _atom_site_fract_z
 _atom_site_occupancy
  Na  Na0  1  0.083434  0.249759  0.880596  1
  Na  Na1  1  0.082838  0.252635  0.379292  1
  Na  Na2  1  0.258568  0.001374  0.623565  1
  Na  Na3  1  0.258510  0.498909  0.623228  1
  Na  Na4  1  0.258037  0.001860  0.124162  1
  Na  Na5  1  0.741963  0.501860  0.875838  1
  Na  Na6  1  0.741432  0.501374  0.376435  1
  Na  Na7  1  0.741491  0.998909  0.376772  1
  Na  Na8  1  0.917162  0.752635  0.620708  1
  Na  Na9  1  0.916566  0.749759  0.119404  1
  Li  Li10  1  0.268709  0.490929  0.120351  1
  Li  Li11  1  0.731292  0.990929  0.879649  1
  Mn  Mn12  1  0.361429  0.747323  0.890248  1
  Mn  Mn13  1  0.361733  0.749389  0.388430  1
  Mn  Mn14  1  0.638267  0.249389  0.611570  1
  Mn  Mn15  1  0.638571  0.247323  0.109752  1
  P  P16  1  0.413881  0.245583  0.852163  1
  P  P17  1  0.409874  0.253176  0.349490  1
  P  P18  1  0.590126  0.753176  0.650510  1
  P  P19  1  0.586119  0.745583  0.147838  1
  C  C20  1  0.056491  0.754902  0.868876  1
  C  C21  1  0.060700  0.748615  0.366738  1
  C  C22  1  0.939300  0.248615  0.633262  1
  C  C23  1  0.943509  0.254902  0.131124  1
  O  O24  1  0.083205  0.249872  0.644088  1
  O  O25  1  0.087893  0.267824  0.140789  1
  O  O26  1  0.120190  0.748223  0.981413  1
  O  O27  1  0.122358  0.750499  0.480420  1
  O  O28  1  0.139591  0.747822  0.765597  1
  O  O29  1  0.144958  0.745925  0.264206  1
  O  O30  1  0.319186  0.063224  0.892599  1
  O  O31  1  0.325725  0.430584  0.899211  1
  O  O32  1  0.318842  0.066726  0.388684  1
  O  O33  1  0.318206  0.434821  0.395277  1
  O  O34  1  0.427202  0.251553  0.701952  1
  O  O35  1  0.431911  0.750590  0.591013  1
  O  O36  1  0.423919  0.261771  0.198606  1
  O  O37  1  0.425625  0.736110  0.091616  1
  O  O38  1  0.574375  0.236110  0.908384  1
  O  O39  1  0.576081  0.761771  0.801394  1
  O  O40  1  0.568089  0.250590  0.408987  1
  O  O41  1  0.572798  0.751553  0.298048  1
  O  O42  1  0.681158  0.566726  0.611316  1
  O  O43  1  0.681794  0.934821  0.604723  1
  O  O44  1  0.680814  0.563224  0.107401  1
  O  O45  1  0.674275  0.930584  0.100789  1
  O  O46  1  0.855042  0.245925  0.735794  1
  O  O47  1  0.860409  0.247822  0.234403  1
  O  O48  1  0.877642  0.250499  0.519580  1
  O  O49  1  0.879810  0.248223  0.018587  1
  O  O50  1  0.912107  0.767824  0.859211  1
  O  O51  1  0.916795  0.749872  0.355912  1
