# generated using pymatgen
data_NaAl3P2(HO3)4
_symmetry_space_group_name_H-M   'P 1'
_cell_length_a   11.36294098
_cell_length_b   10.25542490
_cell_length_c   7.17158346
_cell_angle_alpha   90.00000000
_cell_angle_beta   97.93499827
_cell_angle_gamma   90.00000000
_symmetry_Int_Tables_number   1
_chemical_formula_structural   NaAl3P2(HO3)4
_chemical_formula_sum   'Na4 Al12 P8 H16 O48'
_cell_volume   827.71571662
_cell_formula_units_Z   4
loop_
 _symmetry_equiv_pos_site_id
 _symmetry_equiv_pos_as_xyz
  1  'x, y, z'
loop_
 _atom_site_type_symbol
 _atom_site_label
 _atom_site_symmetry_multiplicity
 _atom_site_fract_x
 _atom_site_fract_y
 _atom_site_fract_z
 _atom_site_occupancy
  Na  Na0  1  0.195969  0.575753  0.461702  1
  Na  Na1  1  0.695969  0.924247  0.961702  1
  Na  Na2  1  0.804031  0.424247  0.538298  1
  Na  Na3  1  0.304031  0.075753  0.038298  1
  Al  Al4  1  0.456005  0.719728  0.939073  1
  Al  Al5  1  0.956005  0.780272  0.439073  1
  Al  Al6  1  0.543995  0.280272  0.060927  1
  Al  Al7  1  0.043995  0.219728  0.560927  1
  Al  Al8  1  0.237022  0.566135  0.990214  1
  Al  Al9  1  0.737022  0.933865  0.490214  1
  Al  Al10  1  0.762978  0.433865  0.009786  1
  Al  Al11  1  0.262978  0.066135  0.509786  1
  Al  Al12  1  0.041379  0.753035  0.069459  1
  Al  Al13  1  0.541379  0.746965  0.569459  1
  Al  Al14  1  0.958621  0.246965  0.930541  1
  Al  Al15  1  0.458621  0.253035  0.430541  1
  P  P16  1  0.319335  0.811510  0.265229  1
  P  P17  1  0.819335  0.688490  0.765229  1
  P  P18  1  0.680665  0.188490  0.734771  1
  P  P19  1  0.180665  0.311510  0.234771  1
  P  P20  1  0.188294  0.828663  0.748974  1
  P  P21  1  0.688294  0.671337  0.248974  1
  P  P22  1  0.811706  0.171337  0.251026  1
  P  P23  1  0.311706  0.328663  0.751026  1
  H  H24  1  0.434657  0.509639  0.134367  1
  H  H25  1  0.934657  0.990361  0.634367  1
  H  H26  1  0.565343  0.490361  0.865633  1
  H  H27  1  0.065343  0.009639  0.365633  1
  H  H28  1  0.032035  0.596643  0.811187  1
  H  H29  1  0.532035  0.903357  0.311187  1
  H  H30  1  0.967965  0.403357  0.188813  1
  H  H31  1  0.467965  0.096643  0.688813  1
  H  H32  1  0.426841  0.904325  0.741580  1
  H  H33  1  0.926841  0.595675  0.241580  1
  H  H34  1  0.573159  0.095675  0.258420  1
  H  H35  1  0.073159  0.404325  0.758420  1
  H  H36  1  0.451081  0.546613  0.667269  1
  H  H37  1  0.951081  0.953387  0.167269  1
  H  H38  1  0.548919  0.453387  0.332731  1
  H  H39  1  0.048919  0.046613  0.832731  1
  O  O40  1  0.396686  0.578323  0.049036  1
  O  O41  1  0.896686  0.921677  0.549036  1
  O  O42  1  0.603314  0.421677  0.950964  1
  O  O43  1  0.103314  0.078323  0.450964  1
  O  O44  1  0.079152  0.605767  0.935257  1
  O  O45  1  0.579152  0.894233  0.435257  1
  O  O46  1  0.920848  0.394233  0.064743  1
  O  O47  1  0.420848  0.105767  0.564743  1
  O  O48  1  0.497483  0.850261  0.779164  1
  O  O49  1  0.997483  0.649739  0.279164  1
  O  O50  1  0.502517  0.149739  0.220836  1
  O  O51  1  0.002517  0.350261  0.720836  1
  O  O52  1  0.003210  0.886014  0.230991  1
  O  O53  1  0.503210  0.613986  0.730991  1
  O  O54  1  0.996790  0.113986  0.769009  1
  O  O55  1  0.496790  0.386014  0.269009  1
  O  O56  1  0.386168  0.738702  0.435417  1
  O  O57  1  0.886168  0.761298  0.935417  1
  O  O58  1  0.613832  0.261298  0.564583  1
  O  O59  1  0.113832  0.238702  0.064583  1
  O  O60  1  0.212796  0.720465  0.183084  1
  O  O61  1  0.712796  0.779535  0.683084  1
  O  O62  1  0.787204  0.279535  0.816916  1
  O  O63  1  0.287204  0.220465  0.316916  1
  O  O64  1  0.276804  0.715563  0.820842  1
  O  O65  1  0.776804  0.784437  0.320842  1
  O  O66  1  0.723196  0.284437  0.179158  1
  O  O67  1  0.223196  0.215563  0.679158  1
  O  O68  1  0.112295  0.780936  0.567824  1
  O  O69  1  0.612295  0.719064  0.067824  1
  O  O70  1  0.887705  0.219064  0.432176  1
  O  O71  1  0.387705  0.280936  0.932176  1
  O  O72  1  0.402443  0.839793  0.113644  1
  O  O73  1  0.902443  0.660207  0.613644  1
  O  O74  1  0.597557  0.160207  0.886356  1
  O  O75  1  0.097557  0.339793  0.386356  1
  O  O76  1  0.109999  0.869386  0.899912  1
  O  O77  1  0.609999  0.630614  0.399912  1
  O  O78  1  0.890001  0.130614  0.100088  1
  O  O79  1  0.390001  0.369386  0.600088  1
  O  O80  1  0.273087  0.945897  0.317372  1
  O  O81  1  0.773087  0.554103  0.817372  1
  O  O82  1  0.726913  0.054103  0.682628  1
  O  O83  1  0.226913  0.445897  0.182628  1
  O  O84  1  0.266272  0.948443  0.711633  1
  O  O85  1  0.766272  0.551557  0.211633  1
  O  O86  1  0.733728  0.051557  0.288367  1
  O  O87  1  0.233728  0.448443  0.788367  1
