# generated using pymatgen
data_FeOF
_symmetry_space_group_name_H-M   'P 1'
_cell_length_a   4.80233775
_cell_length_b   14.37248071
_cell_length_c   3.07515400
_cell_angle_alpha   90.00000000
_cell_angle_beta   90.00000000
_cell_angle_gamma   94.51331678
_symmetry_Int_Tables_number   1
_chemical_formula_structural   FeOF
_chemical_formula_sum   'Fe6 O6 F6'
_cell_volume   211.59358485
_cell_formula_units_Z   6
loop_
 _symmetry_equiv_pos_site_id
 _symmetry_equiv_pos_as_xyz
  1  'x, y, z'
loop_
 _atom_site_type_symbol
 _atom_site_label
 _atom_site_symmetry_multiplicity
 _atom_site_fract_x
 _atom_site_fract_y
 _atom_site_fract_z
 _atom_site_occupancy
  Fe  Fe0  1  0.058404  0.001132  0.000000  1
  Fe  Fe1  1  0.007733  0.333378  0.000000  1
  Fe  Fe2  1  0.973577  0.665316  0.000000  1
  Fe  Fe3  1  0.529330  0.167142  0.500000  1
  Fe  Fe4  1  0.490995  0.498767  0.500000  1
  Fe  Fe5  1  0.434530  0.834186  0.500000  1
  O  O6  1  0.199138  0.935550  0.500000  1
  O  O7  1  0.279923  0.763996  0.000000  1
  O  O8  1  0.330205  0.105059  0.000000  1
  O  O9  1  0.299275  0.433471  0.000000  1
  O  O10  1  0.685200  0.567113  0.000000  1
  O  O11  1  0.719245  0.235127  0.000000  1
  F  F12  1  0.204612  0.270902  0.500000  1
  F  F13  1  0.170956  0.601022  0.500000  1
  F  F14  1  0.690540  0.896275  0.000000  1
  F  F15  1  0.810116  0.398558  0.500000  1
  F  F16  1  0.787196  0.731715  0.500000  1
  F  F17  1  0.829029  0.061291  0.500000  1
