# generated using pymatgen
data_LiFe4(PO4)3
_symmetry_space_group_name_H-M   'P 1'
_cell_length_a   8.70705235
_cell_length_b   8.70705235
_cell_length_c   6.61124588
_cell_angle_alpha   72.03654846
_cell_angle_beta   107.96345154
_cell_angle_gamma   85.60535255
_symmetry_Int_Tables_number   1
_chemical_formula_structural   LiFe4(PO4)3
_chemical_formula_sum   'Li2 Fe8 P6 O24'
_cell_volume   445.29886339
_cell_formula_units_Z   2
loop_
 _symmetry_equiv_pos_site_id
 _symmetry_equiv_pos_as_xyz
  1  'x, y, z'
loop_
 _atom_site_type_symbol
 _atom_site_label
 _atom_site_symmetry_multiplicity
 _atom_site_fract_x
 _atom_site_fract_y
 _atom_site_fract_z
 _atom_site_occupancy
  Li  Li0  1  0.003080  0.013509  0.749660  1
  Li  Li1  1  0.986491  0.996920  0.249660  1
  Fe  Fe2  1  0.055930  0.624990  0.627225  1
  Fe  Fe3  1  0.375010  0.944070  0.127225  1
  Fe  Fe4  1  0.736913  0.727216  0.758212  1
  Fe  Fe5  1  0.486191  0.527292  0.536580  1
  Fe  Fe6  1  0.272784  0.263087  0.258212  1
  Fe  Fe7  1  0.472708  0.513809  0.036580  1
  Fe  Fe8  1  0.628913  0.059219  0.866561  1
  Fe  Fe9  1  0.940781  0.371087  0.366561  1
  P  P10  1  0.329925  0.880868  0.622076  1
  P  P11  1  0.119132  0.670075  0.122076  1
  P  P12  1  0.300784  0.300248  0.751578  1
  P  P13  1  0.699752  0.699216  0.251578  1
  P  P14  1  0.885425  0.336101  0.873027  1
  P  P15  1  0.663899  0.114575  0.373027  1
  O  O16  1  0.390644  0.954884  0.809575  1
  O  O17  1  0.151098  0.850321  0.585745  1
  O  O18  1  0.045116  0.609356  0.309575  1
  O  O19  1  0.149679  0.848902  0.085745  1
  O  O20  1  0.677730  0.986440  0.607821  1
  O  O21  1  0.458180  0.715021  0.694029  1
  O  O22  1  0.285670  0.480008  0.762689  1
  O  O23  1  0.013560  0.322270  0.107821  1
  O  O24  1  0.275604  0.190022  0.965013  1
  O  O25  1  0.188124  0.278731  0.535127  1
  O  O26  1  0.284979  0.541820  0.194029  1
  O  O27  1  0.519992  0.714330  0.262689  1
  O  O28  1  0.477060  0.283442  0.733122  1
  O  O29  1  0.726399  0.467590  0.811917  1
  O  O30  1  0.809978  0.724396  0.465013  1
  O  O31  1  0.721269  0.811876  0.035127  1
  O  O32  1  0.997059  0.671409  0.892424  1
  O  O33  1  0.716558  0.522940  0.233122  1
  O  O34  1  0.532410  0.273601  0.311917  1
  O  O35  1  0.328591  0.002941  0.392424  1
  O  O36  1  0.848898  0.159844  0.900960  1
  O  O37  1  0.960347  0.396758  0.685879  1
  O  O38  1  0.840156  0.151102  0.400960  1
  O  O39  1  0.603242  0.039653  0.185879  1
