# generated using pymatgen
data_Hf2N2O
_symmetry_space_group_name_H-M   'P 1'
_cell_length_a   8.73981064
_cell_length_b   8.73152215
_cell_length_c   8.72074215
_cell_angle_alpha   109.41691596
_cell_angle_beta   109.41174089
_cell_angle_gamma   109.62097777
_symmetry_Int_Tables_number   1
_chemical_formula_structural   Hf2N2O
_chemical_formula_sum   'Hf16 N16 O8'
_cell_volume   512.06980685
_cell_formula_units_Z   8
loop_
 _symmetry_equiv_pos_site_id
 _symmetry_equiv_pos_as_xyz
  1  'x, y, z'
loop_
 _atom_site_type_symbol
 _atom_site_label
 _atom_site_symmetry_multiplicity
 _atom_site_fract_x
 _atom_site_fract_y
 _atom_site_fract_z
 _atom_site_occupancy
  Hf  Hf0  1  0.499817  0.998800  0.987407  1
  Hf  Hf1  1  0.749454  0.284251  0.543204  1
  Hf  Hf2  1  0.215283  0.965811  0.251619  1
  Hf  Hf3  1  0.719571  0.468444  0.243218  1
  Hf  Hf4  1  0.246095  0.211188  0.951582  1
  Hf  Hf5  1  0.965349  0.250392  0.217005  1
  Hf  Hf6  1  0.035280  0.749517  0.782136  1
  Hf  Hf7  1  0.530918  0.745489  0.290089  1
  Hf  Hf8  1  0.493048  0.497893  0.510232  1
  Hf  Hf9  1  0.471583  0.258308  0.719030  1
  Hf  Hf10  1  0.999086  0.510132  0.998300  1
  Hf  Hf11  1  -0.000069  0.999523  0.498247  1
  Hf  Hf12  1  0.759064  0.789323  0.040531  1
  Hf  Hf13  1  0.281884  0.534060  0.746670  1
  Hf  Hf14  1  0.780273  0.028615  0.753939  1
  Hf  Hf15  1  0.249746  0.707465  0.461851  1
  N  N16  1  0.728376  0.993542  0.959752  1
  N  N17  1  0.511569  0.239441  0.971514  1
  N  N18  1  0.728434  0.255008  0.772222  1
  N  N19  1  0.766844  0.726788  0.262180  1
  N  N20  1  0.015628  0.048800  0.278475  1
  N  N21  1  0.465979  0.227618  0.452648  1
  N  N22  1  0.274394  0.740240  0.226380  1
  N  N23  1  0.229040  0.455712  0.467439  1
  N  N24  1  0.963661  0.506664  0.236772  1
  N  N25  1  0.538942  0.771053  0.542393  1
  N  N26  1  0.955735  0.729372  0.986529  1
  N  N27  1  0.987177  0.954625  0.728231  1
  N  N28  1  0.225706  0.271057  0.737959  1
  N  N29  1  0.547218  0.536402  0.775559  1
  N  N30  1  0.030204  0.487296  0.756493  1
  N  N31  1  0.266168  0.780920  0.729746  1
  O  O32  1  0.273189  0.008343  0.045142  1
  O  O33  1  0.738999  0.223950  0.277580  1
  O  O34  1  0.760555  0.035358  0.480823  1
  O  O35  1  0.488278  0.766278  0.037206  1
  O  O36  1  0.771864  0.541348  0.526426  1
  O  O37  1  0.233709  0.962839  0.508614  1
  O  O38  1  0.054972  0.275120  0.020421  1
  O  O39  1  0.446977  0.463015  0.224433  1
