# generated using pymatgen
data_LiMn3Al2(HO2)6
_symmetry_space_group_name_H-M   'P 1'
_cell_length_a   5.94454174
_cell_length_b   10.12209937
_cell_length_c   7.86961137
_cell_angle_alpha   70.59839913
_cell_angle_beta   100.73147068
_cell_angle_gamma   89.57196725
_symmetry_Int_Tables_number   1
_chemical_formula_structural   LiMn3Al2(HO2)6
_chemical_formula_sum   'Li2 Mn6 Al4 H12 O24'
_cell_volume   437.59350458
_cell_formula_units_Z   2
loop_
 _symmetry_equiv_pos_site_id
 _symmetry_equiv_pos_as_xyz
  1  'x, y, z'
loop_
 _atom_site_type_symbol
 _atom_site_label
 _atom_site_symmetry_multiplicity
 _atom_site_fract_x
 _atom_site_fract_y
 _atom_site_fract_z
 _atom_site_occupancy
  Li  Li0  1  0.824617  0.498919  0.322987  1
  Li  Li1  1  0.508746  0.501011  0.010514  1
  Mn  Mn2  1  0.829046  0.996148  0.335291  1
  Mn  Mn3  1  0.504584  0.003724  0.997715  1
  Mn  Mn4  1  0.667266  0.000272  0.666422  1
  Mn  Mn5  1  0.330156  0.997470  0.335996  1
  Mn  Mn6  1  0.002818  0.002235  0.997418  1
  Mn  Mn7  1  0.166409  0.000095  0.666996  1
  Al  Al8  1  0.666699  0.499961  0.666740  1
  Al  Al9  1  0.334941  0.497927  0.328645  1
  Al  Al10  1  0.166598  0.500025  0.666645  1
  Al  Al11  1  0.998356  0.502077  0.004783  1
  H  H12  1  0.912776  0.296593  0.655541  1
  H  H13  1  0.775303  0.709532  0.009487  1
  H  H14  1  0.911774  0.712473  0.677006  1
  H  H15  1  0.558050  0.290450  0.323847  1
  H  H16  1  0.759474  0.296758  0.972123  1
  H  H17  1  0.573846  0.703137  0.361313  1
  H  H18  1  0.421552  0.287533  0.656333  1
  H  H19  1  0.244293  0.708662  0.027152  1
  H  H20  1  0.420470  0.703295  0.677724  1
  H  H21  1  0.089064  0.291374  0.306215  1
  H  H22  1  0.227858  0.301590  0.972702  1
  H  H23  1  0.105439  0.698466  0.360761  1
  O  O24  1  0.762929  0.103364  0.072132  1
  O  O25  1  0.928240  0.103435  0.717894  1
  O  O26  1  0.905582  0.399545  0.618312  1
  O  O27  1  0.781065  0.607668  0.048297  1
  O  O28  1  0.871682  0.888053  0.593550  1
  O  O29  1  0.932053  0.607181  0.723518  1
  O  O30  1  0.552278  0.392297  0.285179  1
  O  O31  1  0.594405  0.098334  0.399655  1
  O  O32  1  0.750745  0.399826  0.923844  1
  O  O33  1  0.582610  0.600135  0.409615  1
  O  O34  1  0.738195  0.901756  0.932969  1
  O  O35  1  0.569181  0.896681  0.261915  1
  O  O36  1  0.461836  0.111975  0.739716  1
  O  O37  1  0.401236  0.392846  0.609901  1
  O  O38  1  0.265401  0.103734  0.058691  1
  O  O39  1  0.427758  0.600455  0.715174  1
  O  O40  1  0.404095  0.897418  0.611710  1
  O  O41  1  0.248982  0.605746  0.074613  1
  O  O42  1  0.086848  0.099906  0.397758  1
  O  O43  1  0.084316  0.394209  0.258835  1
  O  O44  1  0.211628  0.404437  0.922857  1
  O  O45  1  0.121692  0.595517  0.410536  1
  O  O46  1  0.069144  0.895353  0.278461  1
  O  O47  1  0.248167  0.899803  0.934712  1
