# generated using pymatgen
data_LiMn2(PO4)2
_symmetry_space_group_name_H-M   'P 1'
_cell_length_a   10.19644864
_cell_length_b   14.19844127
_cell_length_c   5.14974499
_cell_angle_alpha   90.00000000
_cell_angle_beta   90.00000000
_cell_angle_gamma   90.00000000
_symmetry_Int_Tables_number   1
_chemical_formula_structural   LiMn2(PO4)2
_chemical_formula_sum   'Li4 Mn8 P8 O32'
_cell_volume   745.54751873
_cell_formula_units_Z   4
loop_
 _symmetry_equiv_pos_site_id
 _symmetry_equiv_pos_as_xyz
  1  'x, y, z'
loop_
 _atom_site_type_symbol
 _atom_site_label
 _atom_site_symmetry_multiplicity
 _atom_site_fract_x
 _atom_site_fract_y
 _atom_site_fract_z
 _atom_site_occupancy
  Li  Li0  1  0.222305  0.749935  0.552391  1
  Li  Li1  1  0.277695  0.249935  0.552391  1
  Li  Li2  1  0.722305  0.749935  0.447609  1
  Li  Li3  1  0.777695  0.249935  0.447609  1
  Mn  Mn4  1  0.033308  0.752890  0.058506  1
  Mn  Mn5  1  0.222110  0.001327  0.555419  1
  Mn  Mn6  1  0.277890  0.501327  0.555419  1
  Mn  Mn7  1  0.466692  0.252890  0.058506  1
  Mn  Mn8  1  0.533308  0.752890  0.941494  1
  Mn  Mn9  1  0.722110  0.001327  0.444581  1
  Mn  Mn10  1  0.777890  0.501327  0.444581  1
  Mn  Mn11  1  0.966692  0.252890  0.941494  1
  P  P12  1  0.029782  0.376319  0.433417  1
  P  P13  1  0.213954  0.127904  0.052669  1
  P  P14  1  0.286046  0.627904  0.052669  1
  P  P15  1  0.470218  0.876319  0.433417  1
  P  P16  1  0.529782  0.376319  0.566583  1
  P  P17  1  0.713954  0.127904  0.947331  1
  P  P18  1  0.786046  0.627904  0.947331  1
  P  P19  1  0.970218  0.876319  0.566583  1
  O  O20  1  0.005955  0.368586  0.137031  1
  O  O21  1  0.033857  0.967166  0.464187  1
  O  O22  1  0.035345  0.787323  0.440127  1
  O  O23  1  0.065309  0.136872  0.997016  1
  O  O24  1  0.179141  0.375563  0.495082  1
  O  O25  1  0.235324  0.536942  0.926466  1
  O  O26  1  0.217611  0.716908  0.934774  1
  O  O27  1  0.242276  0.127131  0.350485  1
  O  O28  1  0.257724  0.627131  0.350485  1
  O  O29  1  0.282389  0.216908  0.934774  1
  O  O30  1  0.264676  0.036942  0.926466  1
  O  O31  1  0.320859  0.875563  0.495082  1
  O  O32  1  0.434691  0.636872  0.997016  1
  O  O33  1  0.464655  0.287323  0.440127  1
  O  O34  1  0.466143  0.467166  0.464187  1
  O  O35  1  0.494045  0.868586  0.137031  1
  O  O36  1  0.505955  0.368586  0.862969  1
  O  O37  1  0.533857  0.967166  0.535813  1
  O  O38  1  0.535345  0.787323  0.559873  1
  O  O39  1  0.565309  0.136872  0.002984  1
  O  O40  1  0.679141  0.375563  0.504918  1
  O  O41  1  0.735324  0.536942  0.073534  1
  O  O42  1  0.717611  0.716908  0.065226  1
  O  O43  1  0.742276  0.127131  0.649515  1
  O  O44  1  0.757724  0.627131  0.649515  1
  O  O45  1  0.782389  0.216908  0.065226  1
  O  O46  1  0.764676  0.036942  0.073534  1
  O  O47  1  0.820859  0.875563  0.504918  1
  O  O48  1  0.934691  0.636872  0.002984  1
  O  O49  1  0.964655  0.287323  0.559873  1
  O  O50  1  0.966143  0.467166  0.535813  1
  O  O51  1  0.994045  0.868586  0.862969  1
