# generated using pymatgen
data_Li3Cr3FeO8
_symmetry_space_group_name_H-M   'P 1'
_cell_length_a   5.14531149
_cell_length_b   7.79461911
_cell_length_c   7.75117156
_cell_angle_alpha   81.86831998
_cell_angle_beta   70.76188295
_cell_angle_gamma   84.04966541
_symmetry_Int_Tables_number   1
_chemical_formula_structural   Li3Cr3FeO8
_chemical_formula_sum   'Li6 Cr6 Fe2 O16'
_cell_volume   290.01391751
_cell_formula_units_Z   2
loop_
 _symmetry_equiv_pos_site_id
 _symmetry_equiv_pos_as_xyz
  1  'x, y, z'
loop_
 _atom_site_type_symbol
 _atom_site_label
 _atom_site_symmetry_multiplicity
 _atom_site_fract_x
 _atom_site_fract_y
 _atom_site_fract_z
 _atom_site_occupancy
  Li  Li0  1  0.000369  0.006289  0.000196  1
  Li  Li1  1  0.000483  0.621560  0.122009  1
  Li  Li2  1  0.994671  0.509588  0.504388  1
  Li  Li3  1  0.005377  0.240357  0.245664  1
  Li  Li4  1  0.999537  0.128413  0.627944  1
  Li  Li5  1  0.999598  0.743761  0.749762  1
  Cr  Cr6  1  0.492048  0.814005  0.067166  1
  Cr  Cr7  1  0.509916  0.435707  0.186068  1
  Cr  Cr8  1  0.490060  0.314322  0.563973  1
  Cr  Cr9  1  0.503302  0.189325  0.935952  1
  Cr  Cr10  1  0.496702  0.560678  0.814041  1
  Cr  Cr11  1  0.507966  0.936002  0.682787  1
  Fe  Fe12  1  0.496826  0.059538  0.314075  1
  Fe  Fe13  1  0.503172  0.690439  0.435944  1
  O  O14  1  0.284327  0.036378  0.156940  1
  O  O15  1  0.284249  0.405020  0.032201  1
  O  O16  1  0.288667  0.649160  0.285258  1
  O  O17  1  0.275283  0.269694  0.397998  1
  O  O18  1  0.290970  0.901334  0.518704  1
  O  O19  1  0.281478  0.543134  0.636641  1
  O  O20  1  0.283157  0.147347  0.773619  1
  O  O21  1  0.718496  0.206849  0.113410  1
  O  O22  1  0.272444  0.781597  0.902222  1
  O  O23  1  0.724695  0.480312  0.352040  1
  O  O24  1  0.711341  0.100866  0.464742  1
  O  O25  1  0.708998  0.848683  0.231260  1
  O  O26  1  0.715760  0.344977  0.717824  1
  O  O27  1  0.715678  0.713609  0.593041  1
  O  O28  1  0.727579  0.968413  0.847733  1
  O  O29  1  0.716848  0.602642  0.976395  1
