# generated using pymatgen
data_Fe6O5F7
_symmetry_space_group_name_H-M   'P 1'
_cell_length_a   4.76625243
_cell_length_b   7.88720775
_cell_length_c   5.66126095
_cell_angle_alpha   94.90442578
_cell_angle_beta   92.78366226
_cell_angle_gamma   87.86098980
_symmetry_Int_Tables_number   1
_chemical_formula_structural   Fe6O5F7
_chemical_formula_sum   'Fe6 O5 F7'
_cell_volume   211.67341844
_cell_formula_units_Z   1
loop_
 _symmetry_equiv_pos_site_id
 _symmetry_equiv_pos_as_xyz
  1  'x, y, z'
loop_
 _atom_site_type_symbol
 _atom_site_label
 _atom_site_symmetry_multiplicity
 _atom_site_fract_x
 _atom_site_fract_y
 _atom_site_fract_z
 _atom_site_occupancy
  Fe  Fe0  1  0.521959  0.647524  0.174785  1
  Fe  Fe1  1  0.526065  0.010720  0.481719  1
  Fe  Fe2  1  0.472502  0.350762  0.828455  1
  Fe  Fe3  1  -0.000103  0.674158  0.665233  1
  Fe  Fe4  1  0.987557  0.315194  0.335435  1
  Fe  Fe5  1  0.991680  0.000944  0.011057  1
  O  O6  1  0.807103  0.099884  0.303497  1
  O  O7  1  0.697600  0.766907  0.467222  1
  O  O8  1  0.702213  0.427534  0.123976  1
  O  O9  1  0.294632  0.576003  0.872439  1
  O  O10  1  0.305587  0.233461  0.536895  1
  F  F11  1  0.806824  0.438151  0.629664  1
  F  F12  1  0.794584  0.761979  0.959559  1
  F  F13  1  0.685920  0.108510  0.796017  1
  F  F14  1  0.315411  0.887618  0.202908  1
  F  F15  1  0.206659  0.236596  0.037574  1
  F  F16  1  0.191610  0.562841  0.373854  1
  F  F17  1  0.192199  0.901213  0.699712  1
