# generated using pymatgen
data_FeOF
_symmetry_space_group_name_H-M   'P 1'
_cell_length_a   4.92189478
_cell_length_b   14.51425492
_cell_length_c   3.11267058
_cell_angle_alpha   90.00000000
_cell_angle_beta   90.00000000
_cell_angle_gamma   89.95346978
_symmetry_Int_Tables_number   1
_chemical_formula_structural   FeOF
_chemical_formula_sum   'Fe6 O6 F6'
_cell_volume   222.36175304
_cell_formula_units_Z   6
loop_
 _symmetry_equiv_pos_site_id
 _symmetry_equiv_pos_as_xyz
  1  'x, y, z'
loop_
 _atom_site_type_symbol
 _atom_site_label
 _atom_site_symmetry_multiplicity
 _atom_site_fract_x
 _atom_site_fract_y
 _atom_site_fract_z
 _atom_site_occupancy
  Fe  Fe0  1  0.026837  0.006182  0.000000  1
  Fe  Fe1  1  0.020198  0.336532  0.000000  1
  Fe  Fe2  1  0.031941  0.668077  0.000000  1
  Fe  Fe3  1  0.517028  0.148593  0.500000  1
  Fe  Fe4  1  0.447568  0.498752  0.500000  1
  Fe  Fe5  1  0.447561  0.836145  0.500000  1
  O  O6  1  0.183818  0.606361  0.500000  1
  O  O7  1  0.184561  0.938110  0.500000  1
  O  O8  1  0.338732  0.100502  0.000000  1
  O  O9  1  0.286381  0.775104  0.000000  1
  O  O10  1  0.305851  0.435399  0.000000  1
  O  O11  1  0.829487  0.062851  0.500000  1
  F  F12  1  0.214522  0.261097  0.500000  1
  F  F13  1  0.715725  0.232758  0.000000  1
  F  F14  1  0.687991  0.565104  0.000000  1
  F  F15  1  0.681022  0.896411  0.000000  1
  F  F16  1  0.794701  0.399276  0.500000  1
  F  F17  1  0.786075  0.732745  0.500000  1
