# generated using pymatgen
data_LiVPO4
_symmetry_space_group_name_H-M   'P 1'
_cell_length_a   5.49131871
_cell_length_b   6.42337392
_cell_length_c   5.49131871
_cell_angle_alpha   76.89592791
_cell_angle_beta   61.99197267
_cell_angle_gamma   103.10407209
_symmetry_Int_Tables_number   1
_chemical_formula_structural   LiVPO4
_chemical_formula_sum   'Li2 V2 P2 O8'
_cell_volume   153.54454753
_cell_formula_units_Z   2
loop_
 _symmetry_equiv_pos_site_id
 _symmetry_equiv_pos_as_xyz
  1  'x, y, z'
loop_
 _atom_site_type_symbol
 _atom_site_label
 _atom_site_symmetry_multiplicity
 _atom_site_fract_x
 _atom_site_fract_y
 _atom_site_fract_z
 _atom_site_occupancy
  Li  Li0  1  0.809758  0.250000  0.809758  1
  Li  Li1  1  0.559758  0.750000  0.559758  1
  V  V2  1  0.433944  0.250000  0.433944  1
  V  V3  1  0.183944  0.750000  0.183944  1
  P  P4  1  0.122498  0.250000  0.122498  1
  P  P5  1  0.872498  0.750000  0.872498  1
  O  O6  1  0.788287  0.105217  0.265540  1
  O  O7  1  0.303457  0.100038  0.151516  1
  O  O8  1  0.751553  0.600038  0.203419  1
  O  O9  1  0.870757  0.605217  0.683070  1
  O  O10  1  0.151516  0.399962  0.303457  1
  O  O11  1  0.265540  0.394783  0.788287  1
  O  O12  1  0.683070  0.894783  0.870757  1
  O  O13  1  0.203419  0.899962  0.751553  1
