# generated using pymatgen
data_NaLi2FePCO7
_symmetry_space_group_name_H-M   'P 1'
_cell_length_a   8.64251312
_cell_length_b   6.60406198
_cell_length_c   5.08335578
_cell_angle_alpha   89.92880718
_cell_angle_beta   85.94663070
_cell_angle_gamma   87.94016931
_symmetry_Int_Tables_number   1
_chemical_formula_structural   NaLi2FePCO7
_chemical_formula_sum   'Na2 Li4 Fe2 P2 C2 O14'
_cell_volume   289.22306469
_cell_formula_units_Z   2
loop_
 _symmetry_equiv_pos_site_id
 _symmetry_equiv_pos_as_xyz
  1  'x, y, z'
loop_
 _atom_site_type_symbol
 _atom_site_label
 _atom_site_symmetry_multiplicity
 _atom_site_fract_x
 _atom_site_fract_y
 _atom_site_fract_z
 _atom_site_occupancy
  Na  Na0  1  0.258837  0.499319  0.257216  1
  Na  Na1  1  0.741163  0.500681  0.742784  1
  Li  Li2  1  0.088978  0.213103  0.753239  1
  Li  Li3  1  0.282972  0.026493  0.242339  1
  Li  Li4  1  0.717028  0.973507  0.757661  1
  Li  Li5  1  0.911022  0.786897  0.246761  1
  Fe  Fe6  1  0.339672  0.758133  0.784500  1
  Fe  Fe7  1  0.660328  0.241867  0.215500  1
  P  P8  1  0.410908  0.243257  0.712486  1
  P  P9  1  0.589092  0.756743  0.287514  1
  C  C10  1  0.038998  0.764337  0.711367  1
  C  C11  1  0.961002  0.235663  0.288633  1
  O  O12  1  0.103900  0.225372  0.353491  1
  O  O13  1  0.073872  0.754133  0.955554  1
  O  O14  1  0.150587  0.765582  0.524904  1
  O  O15  1  0.301416  0.074359  0.825417  1
  O  O16  1  0.320584  0.445713  0.784713  1
  O  O17  1  0.433616  0.222516  0.406613  1
  O  O18  1  0.428945  0.770371  0.169462  1
  O  O19  1  0.571055  0.229629  0.830538  1
  O  O20  1  0.566384  0.777484  0.593387  1
  O  O21  1  0.679416  0.554287  0.215287  1
  O  O22  1  0.698584  0.925641  0.174583  1
  O  O23  1  0.849413  0.234418  0.475096  1
  O  O24  1  0.926128  0.245867  0.044446  1
  O  O25  1  0.896100  0.774628  0.646509  1
