# generated using pymatgen
data_Li5Fe8(BO3)8
_symmetry_space_group_name_H-M   'P 1'
_cell_length_a   5.25618843
_cell_length_b   9.08572426
_cell_length_c   11.36921632
_cell_angle_alpha   113.29222635
_cell_angle_beta   77.14254895
_cell_angle_gamma   90.08919269
_symmetry_Int_Tables_number   1
_chemical_formula_structural   Li5Fe8(BO3)8
_chemical_formula_sum   'Li5 Fe8 B8 O24'
_cell_volume   483.92662737
_cell_formula_units_Z   1
loop_
 _symmetry_equiv_pos_site_id
 _symmetry_equiv_pos_as_xyz
  1  'x, y, z'
loop_
 _atom_site_type_symbol
 _atom_site_label
 _atom_site_symmetry_multiplicity
 _atom_site_fract_x
 _atom_site_fract_y
 _atom_site_fract_z
 _atom_site_occupancy
  Li  Li0  1  0.167569  0.158784  0.337987  1
  Li  Li1  1  0.607631  0.056451  0.095742  1
  Li  Li2  1  0.928373  0.426256  0.833489  1
  Li  Li3  1  0.676474  0.654150  0.336588  1
  Li  Li4  1  0.424816  0.932740  0.833746  1
  Fe  Fe5  1  0.399687  0.281459  0.870063  1
  Fe  Fe6  1  0.091150  0.238542  0.120629  1
  Fe  Fe7  1  0.845950  0.138766  0.618156  1
  Fe  Fe8  1  0.649479  0.342780  0.374706  1
  Fe  Fe9  1  0.349082  0.640201  0.616634  1
  Fe  Fe10  1  0.149987  0.838402  0.370255  1
  Fe  Fe11  1  0.909213  0.779231  0.869478  1
  Fe  Fe12  1  0.597748  0.723266  0.119474  1
  B  B13  1  0.648920  0.012839  0.367544  1
  B  B14  1  0.899699  0.104345  0.870501  1
  B  B15  1  0.143528  0.516352  0.375539  1
  B  B16  1  0.399546  0.607844  0.871976  1
  B  B17  1  0.847548  0.480360  0.625519  1
  B  B18  1  0.592294  0.392586  0.123703  1
  B  B19  1  0.346931  0.980447  0.623630  1
  B  B20  1  0.107330  0.896885  0.124298  1
  O  O21  1  0.140662  0.115727  0.900861  1
  O  O22  1  0.477166  0.118559  0.657081  1
  O  O23  1  0.222971  0.032937  0.133115  1
  O  O24  1  0.513802  0.133905  0.359203  1
  O  O25  1  0.880641  0.039002  0.413276  1
  O  O26  1  0.811437  0.211511  0.823354  1
  O  O27  1  0.259218  0.481708  0.867981  1
  O  O28  1  0.058149  0.363157  0.338752  1
  O  O29  1  0.701410  0.282729  0.162000  1
  O  O30  1  0.625352  0.478924  0.580048  1
  O  O31  1  0.937545  0.348851  0.640327  1
  O  O32  1  0.383109  0.353547  0.068796  1
  O  O33  1  0.634148  0.626721  0.917572  1
  O  O34  1  0.382193  0.542436  0.417149  1
  O  O35  1  0.318559  0.722277  0.829908  1
  O  O36  1  0.978505  0.619047  0.662604  1
  O  O37  1  0.694917  0.538221  0.144550  1
  O  O38  1  0.224389  0.784655  0.156928  1
  O  O39  1  0.126344  0.976371  0.575534  1
  O  O40  1  0.438669  0.850471  0.639835  1
  O  O41  1  0.006735  0.640138  0.371410  1
  O  O42  1  0.742159  0.989271  0.890655  1
  O  O43  1  0.564709  0.856838  0.326473  1
  O  O44  1  0.866452  0.867759  0.086582  1
