# generated using pymatgen
data_LaTa2NO5
_symmetry_space_group_name_H-M   'P 1'
_cell_length_a   11.31170845
_cell_length_b   7.73470669
_cell_length_c   5.53339763
_cell_angle_alpha   90.00000000
_cell_angle_beta   90.00000000
_cell_angle_gamma   89.94742392
_symmetry_Int_Tables_number   1
_chemical_formula_structural   LaTa2NO5
_chemical_formula_sum   'La4 Ta8 N4 O20'
_cell_volume   484.13195490
_cell_formula_units_Z   4
loop_
 _symmetry_equiv_pos_site_id
 _symmetry_equiv_pos_as_xyz
  1  'x, y, z'
loop_
 _atom_site_type_symbol
 _atom_site_label
 _atom_site_symmetry_multiplicity
 _atom_site_fract_x
 _atom_site_fract_y
 _atom_site_fract_z
 _atom_site_occupancy
  La  La0  1  0.035605  0.744336  0.546250  1
  La  La1  1  0.455847  0.257462  0.045749  1
  La  La2  1  0.535605  0.744336  0.953750  1
  La  La3  1  0.955847  0.257462  0.454251  1
  Ta  Ta4  1  0.142386  0.002640  0.042125  1
  Ta  Ta5  1  0.148897  0.493670  0.039225  1
  Ta  Ta6  1  0.357783  0.004874  0.534297  1
  Ta  Ta7  1  0.354963  0.499136  0.545008  1
  Ta  Ta8  1  0.642386  0.002640  0.457875  1
  Ta  Ta9  1  0.648897  0.493670  0.460775  1
  Ta  Ta10  1  0.854963  0.499136  0.954992  1
  Ta  Ta11  1  0.857783  0.004874  0.965703  1
  N  N12  1  0.290977  0.446372  0.872086  1
  N  N13  1  0.355849  0.248063  0.451368  1
  N  N14  1  0.790977  0.446372  0.627914  1
  N  N15  1  0.855849  0.248063  0.048632  1
  O  O16  1  0.024325  0.033757  0.774048  1
  O  O17  1  0.026315  0.466917  0.775076  1
  O  O18  1  0.122557  0.247223  0.149251  1
  O  O19  1  0.142380  0.752505  0.955303  1
  O  O20  1  0.209793  0.559182  0.369648  1
  O  O21  1  0.211327  0.941419  0.365752  1
  O  O22  1  0.286728  0.051334  0.869721  1
  O  O23  1  0.379781  0.751479  0.649286  1
  O  O24  1  0.476497  0.536881  0.266500  1
  O  O25  1  0.477993  0.962750  0.268900  1
  O  O26  1  0.524325  0.033757  0.725952  1
  O  O27  1  0.526315  0.466917  0.724924  1
  O  O28  1  0.622557  0.247223  0.350749  1
  O  O29  1  0.642380  0.752505  0.544697  1
  O  O30  1  0.709793  0.559182  0.130353  1
  O  O31  1  0.711327  0.941419  0.134248  1
  O  O32  1  0.786728  0.051334  0.630279  1
  O  O33  1  0.879781  0.751479  0.850714  1
  O  O34  1  0.976497  0.536881  0.233500  1
  O  O35  1  0.977993  0.962750  0.231100  1
