# generated using pymatgen
data_Li4Co7O3F13
_symmetry_space_group_name_H-M   'P 1'
_cell_length_a   6.17185571
_cell_length_b   6.09317773
_cell_length_c   10.53983591
_cell_angle_alpha   105.48486193
_cell_angle_beta   73.19646053
_cell_angle_gamma   120.72935933
_symmetry_Int_Tables_number   1
_chemical_formula_structural   Li4Co7O3F13
_chemical_formula_sum   'Li4 Co7 O3 F13'
_cell_volume   322.71863188
_cell_formula_units_Z   1
loop_
 _symmetry_equiv_pos_site_id
 _symmetry_equiv_pos_as_xyz
  1  'x, y, z'
loop_
 _atom_site_type_symbol
 _atom_site_label
 _atom_site_symmetry_multiplicity
 _atom_site_fract_x
 _atom_site_fract_y
 _atom_site_fract_z
 _atom_site_occupancy
  Li  Li0  1  0.840333  0.718098  0.061168  1
  Li  Li1  1  0.689462  0.779671  0.441000  1
  Li  Li2  1  0.313765  0.208120  0.559496  1
  Li  Li3  1  0.173844  0.295150  0.942417  1
  Co  Co4  1  0.228246  0.737223  0.249844  1
  Co  Co5  1  0.234427  0.235379  0.228846  1
  Co  Co6  1  0.981111  0.488292  0.499566  1
  Co  Co7  1  0.497852  0.008783  -0.001294  1
  Co  Co8  1  0.770399  0.273088  0.252988  1
  Co  Co9  1  0.246435  0.753154  0.748518  1
  Co  Co10  1  0.741570  0.744661  0.750860  1
  O  O11  1  0.172728  0.909169  0.132972  1
  O  O12  1  0.132263  0.378259  0.141657  1
  O  O13  1  0.894817  0.603031  0.373783  1
  F  F14  1  0.622007  0.902689  0.135696  1
  F  F15  1  0.622279  0.373182  0.126922  1
  F  F16  1  0.113447  0.869689  0.629029  1
  F  F17  1  0.360149  0.589103  0.366063  1
  F  F18  1  0.603965  0.848747  0.636476  1
  F  F19  1  0.138178  0.417636  0.616013  1
  F  F20  1  0.385695  0.133326  0.360059  1
  F  F21  1  0.634685  0.403149  0.624633  1
  F  F22  1  0.893241  0.119443  0.372314  1
  F  F23  1  0.370363  0.632721  0.872796  1
  F  F24  1  0.357299  0.092482  0.877429  1
  F  F25  1  0.889594  0.652088  0.866267  1
  F  F26  1  0.841843  0.083665  0.884480  1
