# generated using pymatgen
data_Li5MnO3F
_symmetry_space_group_name_H-M   'P 1'
_cell_length_a   6.94832477
_cell_length_b   6.94832477
_cell_length_c   4.72832231
_cell_angle_alpha   77.57670881
_cell_angle_beta   77.57670881
_cell_angle_gamma   90.61411437
_symmetry_Int_Tables_number   1
_chemical_formula_structural   Li5MnO3F
_chemical_formula_sum   'Li10 Mn2 O6 F2'
_cell_volume   217.32529150
_cell_formula_units_Z   2
loop_
 _symmetry_equiv_pos_site_id
 _symmetry_equiv_pos_as_xyz
  1  'x, y, z'
loop_
 _atom_site_type_symbol
 _atom_site_label
 _atom_site_symmetry_multiplicity
 _atom_site_fract_x
 _atom_site_fract_y
 _atom_site_fract_z
 _atom_site_occupancy
  Li  Li0  1  0.974693  0.530379  0.242710  1
  Li  Li1  1  0.719621  0.275307  0.007290  1
  Li  Li2  1  0.275307  0.719621  0.007290  1
  Li  Li3  1  0.530379  0.974693  0.242710  1
  Li  Li4  1  0.485042  0.485042  0.489839  1
  Li  Li5  1  0.764958  0.764958  0.760161  1
  Li  Li6  1  0.772961  0.214007  0.494723  1
  Li  Li7  1  0.214007  0.772961  0.494723  1
  Li  Li8  1  0.477039  0.035993  0.755277  1
  Li  Li9  1  0.035993  0.477039  0.755277  1
  Mn  Mn10  1  0.251680  0.251680  0.260015  1
  Mn  Mn11  1  0.998320  0.998320  -0.010015  1
  O  O12  1  0.975221  0.274779  0.125000  1
  O  O13  1  0.274779  0.975221  0.125000  1
  O  O14  1  0.225135  0.523057  0.379379  1
  O  O15  1  0.523057  0.225135  0.379379  1
  O  O16  1  0.726943  0.024865  0.870621  1
  O  O17  1  0.024865  0.726943  0.870621  1
  F  F18  1  0.766722  0.483278  0.625000  1
  F  F19  1  0.483278  0.766722  0.625000  1
