# generated using pymatgen
data_V3Fe2Te(PO4)6
_symmetry_space_group_name_H-M   'P 1'
_cell_length_a   8.64464407
_cell_length_b   8.76659861
_cell_length_c   8.76659879
_cell_angle_alpha   59.99999523
_cell_angle_beta   59.53221501
_cell_angle_gamma   59.53221798
_symmetry_Int_Tables_number   1
_chemical_formula_structural   V3Fe2Te(PO4)6
_chemical_formula_sum   'V3 Fe2 Te1 P6 O24'
_cell_volume   466.43077347
_cell_formula_units_Z   1
loop_
 _symmetry_equiv_pos_site_id
 _symmetry_equiv_pos_as_xyz
  1  'x, y, z'
loop_
 _atom_site_type_symbol
 _atom_site_label
 _atom_site_symmetry_multiplicity
 _atom_site_fract_x
 _atom_site_fract_y
 _atom_site_fract_z
 _atom_site_occupancy
  V  V0  1  0.067642  0.644119  0.644119  1
  V  V1  1  0.428538  0.857154  0.857154  1
  V  V2  1  0.926215  0.357928  0.357928  1
  Fe  Fe3  1  0.011601  0.996133  0.996133  1
  Fe  Fe4  1  0.498628  0.500457  0.500457  1
  Te  Te5  1  0.565159  0.144947  0.144947  1
  P  P6  1  0.240844  0.253267  0.554194  1
  P  P7  1  0.240844  0.951695  0.253267  1
  P  P8  1  0.240844  0.554194  0.951695  1
  P  P9  1  0.752109  0.463345  0.041961  1
  P  P10  1  0.752109  0.041961  0.742585  1
  P  P11  1  0.752109  0.742585  0.463345  1
  O  O12  1  0.070047  0.115169  0.311071  1
  O  O13  1  0.070047  0.503713  0.115169  1
  O  O14  1  0.070047  0.311071  0.503713  1
  O  O15  1  0.224932  0.093494  0.745027  1
  O  O16  1  0.433482  0.189409  0.402877  1
  O  O17  1  0.258452  0.413831  0.569989  1
  O  O18  1  0.224932  0.936548  0.093494  1
  O  O19  1  0.258452  0.757728  0.413831  1
  O  O20  1  0.571124  0.612834  0.002974  1
  O  O21  1  0.258452  0.569989  0.757728  1
  O  O22  1  0.785638  0.264611  0.050371  1
  O  O23  1  0.571124  0.002974  0.813069  1
  O  O24  1  0.433482  0.974233  0.189409  1
  O  O25  1  0.224932  0.745027  0.936548  1
  O  O26  1  0.731221  0.444241  0.237975  1
  O  O27  1  0.433482  0.402877  0.974233  1
  O  O28  1  0.731221  0.237975  0.586563  1
  O  O29  1  0.785638  0.050371  0.899379  1
  O  O30  1  0.731221  0.586563  0.444241  1
  O  O31  1  0.571124  0.813069  0.612834  1
  O  O32  1  0.785638  0.899379  0.264611  1
  O  O33  1  0.932892  0.673720  0.506887  1
  O  O34  1  0.932892  0.506887  0.886502  1
  O  O35  1  0.932892  0.886502  0.673720  1
