# generated using pymatgen
data_Li2Ti3NiO8
_symmetry_space_group_name_H-M   'P 1'
_cell_length_a   5.97022594
_cell_length_b   5.97022558
_cell_length_c   5.97022549
_cell_angle_alpha   59.77645629
_cell_angle_beta   59.77645360
_cell_angle_gamma   59.77645274
_symmetry_Int_Tables_number   1
_chemical_formula_structural   Li2Ti3NiO8
_chemical_formula_sum   'Li2 Ti3 Ni1 O8'
_cell_volume   149.70882568
_cell_formula_units_Z   1
loop_
 _symmetry_equiv_pos_site_id
 _symmetry_equiv_pos_as_xyz
  1  'x, y, z'
loop_
 _atom_site_type_symbol
 _atom_site_label
 _atom_site_symmetry_multiplicity
 _atom_site_fract_x
 _atom_site_fract_y
 _atom_site_fract_z
 _atom_site_occupancy
  Li  Li0  1  0.120232  0.120232  0.120232  1
  Li  Li1  1  0.500431  0.500431  0.500431  1
  Ti  Ti2  1  0.006569  0.498658  0.498658  1
  Ti  Ti3  1  0.498658  0.006569  0.498658  1
  Ti  Ti4  1  0.498658  0.498658  0.006569  1
  Ni  Ni5  1  0.882263  0.882263  0.882263  1
  O  O6  1  0.259810  0.259810  0.259810  1
  O  O7  1  0.251227  0.251227  0.709126  1
  O  O8  1  0.251227  0.709126  0.251227  1
  O  O9  1  0.709126  0.251227  0.251227  1
  O  O10  1  0.284701  0.748603  0.748603  1
  O  O11  1  0.748603  0.284701  0.748603  1
  O  O12  1  0.748603  0.748603  0.284701  1
  O  O13  1  0.739891  0.739891  0.739891  1
