# generated using pymatgen
data_BaCa2I6
_symmetry_space_group_name_H-M   'P 1'
_cell_length_a   7.40820033
_cell_length_b   27.44080035
_cell_length_c   8.25755230
_cell_angle_alpha   90.00000000
_cell_angle_beta   90.00000000
_cell_angle_gamma   90.00000000
_symmetry_Int_Tables_number   1
_chemical_formula_structural   BaCa2I6
_chemical_formula_sum   'Ba4 Ca8 I24'
_cell_volume   1678.65259022
_cell_formula_units_Z   4
loop_
 _symmetry_equiv_pos_site_id
 _symmetry_equiv_pos_as_xyz
  1  'x, y, z'
loop_
 _atom_site_type_symbol
 _atom_site_label
 _atom_site_symmetry_multiplicity
 _atom_site_fract_x
 _atom_site_fract_y
 _atom_site_fract_z
 _atom_site_occupancy
  Ba  Ba0  1  0.000000  0.378307  0.250000  1
  Ba  Ba1  1  0.000000  0.621693  0.750000  1
  Ba  Ba2  1  0.500000  0.878307  0.250000  1
  Ba  Ba3  1  0.500000  0.121693  0.750000  1
  Ca  Ca4  1  0.000000  0.045862  0.250000  1
  Ca  Ca5  1  0.000000  0.286632  0.750000  1
  Ca  Ca6  1  0.000000  0.713368  0.250000  1
  Ca  Ca7  1  0.000000  0.954138  0.750000  1
  Ca  Ca8  1  0.500000  0.213368  0.250000  1
  Ca  Ca9  1  0.500000  0.786632  0.750000  1
  Ca  Ca10  1  0.500000  0.545862  0.250000  1
  Ca  Ca11  1  0.500000  0.454138  0.750000  1
  I  I12  1  0.231321  0.034171  0.566901  1
  I  I13  1  0.231321  0.965829  0.066901  1
  I  I14  1  0.244388  0.210691  0.558088  1
  I  I15  1  0.244388  0.789309  0.058088  1
  I  I16  1  0.243550  0.371429  0.605858  1
  I  I17  1  0.243550  0.628571  0.105858  1
  I  I18  1  0.256450  0.128571  0.105858  1
  I  I19  1  0.256450  0.871429  0.605858  1
  I  I20  1  0.255612  0.289309  0.058088  1
  I  I21  1  0.255612  0.710691  0.558088  1
  I  I22  1  0.268679  0.465829  0.066901  1
  I  I23  1  0.268679  0.534171  0.566901  1
  I  I24  1  0.731321  0.534171  0.933099  1
  I  I25  1  0.731321  0.465829  0.433099  1
  I  I26  1  0.744388  0.289309  0.441912  1
  I  I27  1  0.744388  0.710691  0.941912  1
  I  I28  1  0.743550  0.871429  0.894142  1
  I  I29  1  0.743550  0.128571  0.394142  1
  I  I30  1  0.756450  0.371429  0.894142  1
  I  I31  1  0.756450  0.628571  0.394142  1
  I  I32  1  0.755612  0.210691  0.941912  1
  I  I33  1  0.755612  0.789309  0.441912  1
  I  I34  1  0.768679  0.034171  0.933099  1
  I  I35  1  0.768679  0.965829  0.433099  1
