# generated using pymatgen
data_NbCl4F
_symmetry_space_group_name_H-M   'P 1'
_cell_length_a   10.22838792
_cell_length_b   10.46331290
_cell_length_c   10.23162911
_cell_angle_alpha   106.97518283
_cell_angle_beta   96.42291559
_cell_angle_gamma   131.87211026
_symmetry_Int_Tables_number   1
_chemical_formula_structural   NbCl4F
_chemical_formula_sum   'Nb4 Cl16 F4'
_cell_volume   703.82553292
_cell_formula_units_Z   4
loop_
 _symmetry_equiv_pos_site_id
 _symmetry_equiv_pos_as_xyz
  1  'x, y, z'
loop_
 _atom_site_type_symbol
 _atom_site_label
 _atom_site_symmetry_multiplicity
 _atom_site_fract_x
 _atom_site_fract_y
 _atom_site_fract_z
 _atom_site_occupancy
  Nb  Nb0  1  0.919272  0.190506  0.202587  1
  Nb  Nb1  1  0.080728  0.809494  0.797413  1
  Nb  Nb2  1  0.195060  0.023412  0.263761  1
  Nb  Nb3  1  0.804940  0.976588  0.736239  1
  Cl  Cl4  1  0.986350  0.301193  0.453321  1
  Cl  Cl5  1  0.013650  0.698807  0.546679  1
  Cl  Cl6  1  0.246497  0.146026  0.510065  1
  Cl  Cl7  1  0.753503  0.853974  0.489935  1
  Cl  Cl8  1  0.336843  0.925947  0.283458  1
  Cl  Cl9  1  0.663157  0.074053  0.716542  1
  Cl  Cl10  1  0.766230  0.268186  0.147211  1
  Cl  Cl11  1  0.233770  0.731814  0.852789  1
  Cl  Cl12  1  0.121215  0.286986  0.824590  1
  Cl  Cl13  1  0.878785  0.713014  0.175410  1
  Cl  Cl14  1  0.469487  0.326870  0.292156  1
  Cl  Cl15  1  0.530513  0.673130  0.707844  1
  Cl  Cl16  1  0.777194  0.520896  0.759029  1
  Cl  Cl17  1  0.222806  0.479104  0.240971  1
  Cl  Cl18  1  0.364161  0.137827  0.874669  1
  Cl  Cl19  1  0.635839  0.862173  0.125331  1
  F  F20  1  0.054641  0.101593  0.218004  1
  F  F21  1  0.945359  0.898407  0.781996  1
  F  F22  1  0.872065  0.077130  0.971516  1
  F  F23  1  0.127935  0.922870  0.028484  1
