# generated using pymatgen
data_La2Nb2N2O5
_symmetry_space_group_name_H-M   'P 1'
_cell_length_a   4.04539849
_cell_length_b   13.51432170
_cell_length_c   5.69880071
_cell_angle_alpha   90.00000000
_cell_angle_beta   90.00000000
_cell_angle_gamma   98.60784900
_symmetry_Int_Tables_number   1
_chemical_formula_structural   La2Nb2N2O5
_chemical_formula_sum   'La4 Nb4 N4 O10'
_cell_volume   308.04866286
_cell_formula_units_Z   2
loop_
 _symmetry_equiv_pos_site_id
 _symmetry_equiv_pos_as_xyz
  1  'x, y, z'
loop_
 _atom_site_type_symbol
 _atom_site_label
 _atom_site_symmetry_multiplicity
 _atom_site_fract_x
 _atom_site_fract_y
 _atom_site_fract_z
 _atom_site_occupancy
  La  La0  1  0.294527  0.589053  0.547497  1
  La  La1  1  0.447164  0.894328  0.973969  1
  La  La2  1  0.552836  0.105672  0.473969  1
  La  La3  1  0.705473  0.410947  0.047497  1
  Nb  Nb4  1  0.058226  0.116453  0.975238  1
  Nb  Nb5  1  0.161814  0.323627  0.501151  1
  Nb  Nb6  1  0.838186  0.676373  0.001151  1
  Nb  Nb7  1  0.941774  0.883547  0.475238  1
  N  N8  1  0.453974  0.907949  0.438051  1
  N  N9  1  0.346408  0.692816  0.955580  1
  N  N10  1  0.546026  0.092051  0.938051  1
  N  N11  1  0.653592  0.307184  0.455580  1
  O  O12  1  0.014330  0.028661  0.262324  1
  O  O13  1  0.090292  0.180584  0.643673  1
  O  O14  1  0.220227  0.440454  0.279551  1
  O  O15  1  0.117661  0.235322  0.155794  1
  O  O16  1  0.203620  0.407241  0.777590  1
  O  O17  1  0.779773  0.559546  0.779551  1
  O  O18  1  0.796380  0.592760  0.277590  1
  O  O19  1  0.882339  0.764678  0.655794  1
  O  O20  1  0.909708  0.819416  0.143673  1
  O  O21  1  0.985670  0.971339  0.762324  1
