# generated using pymatgen
data_SrFe3P4HO16
_symmetry_space_group_name_H-M   'P 1'
_cell_length_a   8.60538341
_cell_length_b   7.39179288
_cell_length_c   19.80375511
_cell_angle_alpha   89.98706574
_cell_angle_beta   94.86827895
_cell_angle_gamma   89.99956879
_symmetry_Int_Tables_number   1
_chemical_formula_structural   SrFe3P4HO16
_chemical_formula_sum   'Sr4 Fe12 P16 H4 O64'
_cell_volume   1255.15676452
_cell_formula_units_Z   4
loop_
 _symmetry_equiv_pos_site_id
 _symmetry_equiv_pos_as_xyz
  1  'x, y, z'
loop_
 _atom_site_type_symbol
 _atom_site_label
 _atom_site_symmetry_multiplicity
 _atom_site_fract_x
 _atom_site_fract_y
 _atom_site_fract_z
 _atom_site_occupancy
  Sr  Sr0  1  0.201747  0.437971  0.062426  1
  Sr  Sr1  1  0.798230  0.937855  0.437589  1
  Sr  Sr2  1  0.798267  0.562075  0.937579  1
  Sr  Sr3  1  0.201768  0.062099  0.562435  1
  Fe  Fe4  1  0.782582  0.065076  0.918375  1
  Fe  Fe5  1  0.217386  0.565371  0.581596  1
  Fe  Fe6  1  0.217505  0.934629  0.081841  1
  Fe  Fe7  1  0.782555  0.434711  0.418306  1
  Fe  Fe8  1  0.729348  0.506975  0.714229  1
  Fe  Fe9  1  0.270665  0.006714  0.785895  1
  Fe  Fe10  1  0.270650  0.493318  0.285708  1
  Fe  Fe11  1  0.729387  0.993114  0.214168  1
  Fe  Fe12  1  0.264202  0.602130  0.809213  1
  Fe  Fe13  1  0.735735  0.102824  0.690794  1
  Fe  Fe14  1  0.735668  0.396881  0.190918  1
  Fe  Fe15  1  0.264334  0.897389  0.309245  1
  P  P16  1  0.446784  0.293492  0.899894  1
  P  P17  1  0.553442  0.793738  0.600217  1
  P  P18  1  0.553513  0.706326  0.100296  1
  P  P19  1  0.446460  0.206347  0.399699  1
  P  P20  1  0.615326  0.817664  0.810431  1
  P  P21  1  0.385073  0.317103  0.689349  1
  P  P22  1  0.384852  0.182549  0.189552  1
  P  P23  1  0.615023  0.682639  0.310439  1
  P  P24  1  0.983954  0.293705  0.817905  1
  P  P25  1  0.015524  0.794102  0.682008  1
  P  P26  1  0.015658  0.706026  0.182166  1
  P  P27  1  0.984425  0.206055  0.317889  1
  P  P28  1  0.885607  0.181226  0.068233  1
  P  P29  1  0.114481  0.681203  0.431734  1
  P  P30  1  0.114435  0.819063  0.931900  1
  P  P31  1  0.885536  0.318746  0.568205  1
  H  H32  1  0.283381  0.141283  0.962207  1
  H  H33  1  0.716562  0.641388  0.537840  1
  H  H34  1  0.716574  0.858619  0.037846  1
  H  H35  1  0.283420  0.358575  0.462157  1
  O  O36  1  0.947383  0.881428  0.905735  1
  O  O37  1  0.052540  0.381473  0.594368  1
  O  O38  1  0.052516  0.118533  0.094473  1
  O  O39  1  0.947462  0.618492  0.405579  1
  O  O40  1  0.809552  0.036567  0.016726  1
  O  O41  1  0.190467  0.536507  0.483291  1
  O  O42  1  0.190149  0.963748  0.983479  1
  O  O43  1  0.809482  0.463451  0.516665  1
  O  O44  1  0.902528  0.266285  0.884805  1
  O  O45  1  0.097220  0.766445  0.615149  1
  O  O46  1  0.097365  0.733490  0.115292  1
  O  O47  1  0.902657  0.233449  0.384767  1
  O  O48  1  0.639437  0.867820  0.887545  1
  O  O49  1  0.360680  0.367664  0.612264  1
  O  O50  1  0.360690  0.132185  0.112437  1
  O  O51  1  0.639330  0.632189  0.387552  1
  O  O52  1  0.617939  0.270411  0.928336  1
  O  O53  1  0.382110  0.770725  0.571764  1
  O  O54  1  0.382200  0.729273  0.071841  1
  O  O55  1  0.617863  0.229076  0.428175  1
  O  O56  1  0.853461  0.300665  0.758352  1
  O  O57  1  0.146262  0.801126  0.741610  1
  O  O58  1  0.146366  0.699322  0.241661  1
  O  O59  1  0.853599  0.199162  0.258357  1
  O  O60  1  0.778071  0.310678  0.627362  1
  O  O61  1  0.222084  0.811413  0.872642  1
  O  O62  1  0.221957  0.689239  0.372611  1
  O  O63  1  0.778021  0.189254  0.127394  1
  O  O64  1  0.561977  0.303792  0.712849  1
  O  O65  1  0.438181  0.804236  0.786957  1
  O  O66  1  0.438065  0.696139  0.287044  1
  O  O67  1  0.561960  0.196096  0.212951  1
  O  O68  1  0.592098  0.654734  0.656093  1
  O  O69  1  0.407947  0.154929  0.843911  1
  O  O70  1  0.407875  0.345255  0.343818  1
  O  O71  1  0.592126  0.845205  0.156142  1
  O  O72  1  0.910930  0.633421  0.693151  1
  O  O73  1  0.088890  0.133223  0.806767  1
  O  O74  1  0.089057  0.366705  0.306724  1
  O  O75  1  0.910986  0.866697  0.193262  1
  O  O76  1  0.692954  0.629249  0.802435  1
  O  O77  1  0.307196  0.128898  0.697436  1
  O  O78  1  0.307141  0.370924  0.197539  1
  O  O79  1  0.692830  0.870894  0.302397  1
  O  O80  1  0.307242  0.465459  0.729036  1
  O  O81  1  0.693391  0.965666  0.770955  1
  O  O82  1  0.693036  0.534375  0.270913  1
  O  O83  1  0.307034  0.034498  0.229085  1
  O  O84  1  0.418564  0.490160  0.876677  1
  O  O85  1  0.581643  0.989993  0.623493  1
  O  O86  1  0.581740  0.509956  0.123610  1
  O  O87  1  0.418212  0.010117  0.376444  1
  O  O88  1  0.070611  0.475520  0.825089  1
  O  O89  1  0.928778  0.975441  0.674712  1
  O  O90  1  0.928826  0.524534  0.174927  1
  O  O91  1  0.071138  0.024697  0.325084  1
  O  O92  1  0.334281  0.264714  0.959808  1
  O  O93  1  0.665732  0.764834  0.540211  1
  O  O94  1  0.665785  0.735140  0.040271  1
  O  O95  1  0.334184  0.235131  0.459722  1
  O  O96  1  0.902771  0.363686  0.033408  1
  O  O97  1  0.097243  0.863627  0.466591  1
  O  O98  1  0.097342  0.636617  0.966621  1
  O  O99  1  0.902782  0.136387  0.533349  1
