# generated using pymatgen
data_Li2V(OF)2
_symmetry_space_group_name_H-M   'P 1'
_cell_length_a   5.86385658
_cell_length_b   5.86385658
_cell_length_c   5.95409263
_cell_angle_alpha   60.50007170
_cell_angle_beta   90.00000000
_cell_angle_gamma   120.00000004
_symmetry_Int_Tables_number   1
_chemical_formula_structural   Li2V(OF)2
_chemical_formula_sum   'Li4 V2 O4 F4'
_cell_volume   145.85082633
_cell_formula_units_Z   2
loop_
 _symmetry_equiv_pos_site_id
 _symmetry_equiv_pos_as_xyz
  1  'x, y, z'
loop_
 _atom_site_type_symbol
 _atom_site_label
 _atom_site_symmetry_multiplicity
 _atom_site_fract_x
 _atom_site_fract_y
 _atom_site_fract_z
 _atom_site_occupancy
  Li  Li0  1  0.615464  0.230927  0.631862  1
  Li  Li1  1  0.255813  0.511624  0.232563  1
  Li  Li2  1  0.615464  0.752675  0.631862  1
  Li  Li3  1  0.137211  0.752675  0.631862  1
  V  V4  1  0.629788  0.259576  0.110636  1
  V  V5  1  0.996249  0.992500  0.011251  1
  O  O6  1  0.867469  0.237672  0.894859  1
  O  O7  1  0.881639  0.763279  0.355082  1
  O  O8  1  0.370203  0.237672  0.894859  1
  O  O9  1  0.867469  0.734938  0.894859  1
  F  F10  1  0.851428  0.240492  0.370446  1
  F  F11  1  0.389064  0.240492  0.370446  1
  F  F12  1  0.389064  0.778126  0.370446  1
  F  F13  1  0.383676  0.767353  0.848970  1
