# generated using pymatgen
data_Li6Mn(FeO3)2
_symmetry_space_group_name_H-M   'P 1'
_cell_length_a   3.23144410
_cell_length_b   7.63664275
_cell_length_c   6.14252611
_cell_angle_alpha   106.39551806
_cell_angle_beta   105.02903937
_cell_angle_gamma   88.51684857
_symmetry_Int_Tables_number   1
_chemical_formula_structural   Li6Mn(FeO3)2
_chemical_formula_sum   'Li6 Mn1 Fe2 O6'
_cell_volume   140.26027967
_cell_formula_units_Z   1
loop_
 _symmetry_equiv_pos_site_id
 _symmetry_equiv_pos_as_xyz
  1  'x, y, z'
loop_
 _atom_site_type_symbol
 _atom_site_label
 _atom_site_symmetry_multiplicity
 _atom_site_fract_x
 _atom_site_fract_y
 _atom_site_fract_z
 _atom_site_occupancy
  Li  Li0  1  0.993053  0.604545  0.988043  1
  Li  Li1  1  0.969022  0.288276  0.938423  1
  Li  Li2  1  0.331896  0.267206  0.650678  1
  Li  Li3  1  0.298190  0.958562  0.609727  1
  Li  Li4  1  0.662844  0.938181  0.321569  1
  Li  Li5  1  0.636141  0.621267  0.273971  1
  Mn  Mn6  1  0.315538  0.613024  0.631091  1
  Fe  Fe7  1  0.983039  0.947444  0.966993  1
  Fe  Fe8  1  0.647467  0.278927  0.293513  1
  O  O9  1  0.497346  0.755004  0.018913  1
  O  O10  1  0.839211  0.416160  0.677433  1
  O  O11  1  0.166926  0.086713  0.346240  1
  O  O12  1  0.790439  0.809698  0.583435  1
  O  O13  1  0.130595  0.470756  0.241978  1
  O  O14  1  0.466378  0.139712  0.914159  1
