# generated using pymatgen
data_Li2FeF4
_symmetry_space_group_name_H-M   'P 1'
_cell_length_a   10.21522378
_cell_length_b   7.12972724
_cell_length_c   10.05541863
_cell_angle_alpha   90.00000000
_cell_angle_beta   62.18278264
_cell_angle_gamma   90.00000000
_symmetry_Int_Tables_number   1
_chemical_formula_structural   Li2FeF4
_chemical_formula_sum   'Li16 Fe8 F32'
_cell_volume   647.72359569
_cell_formula_units_Z   8
loop_
 _symmetry_equiv_pos_site_id
 _symmetry_equiv_pos_as_xyz
  1  'x, y, z'
loop_
 _atom_site_type_symbol
 _atom_site_label
 _atom_site_symmetry_multiplicity
 _atom_site_fract_x
 _atom_site_fract_y
 _atom_site_fract_z
 _atom_site_occupancy
  Li  Li0  1  0.343519  0.993073  0.073824  1
  Li  Li1  1  0.125828  0.626932  0.430796  1
  Li  Li2  1  0.355528  0.589907  0.070487  1
  Li  Li3  1  0.154423  0.022360  0.426244  1
  Li  Li4  1  0.343519  0.506927  0.573824  1
  Li  Li5  1  0.125828  0.873068  0.930796  1
  Li  Li6  1  0.355528  0.910093  0.570487  1
  Li  Li7  1  0.154423  0.477640  0.926244  1
  Li  Li8  1  0.845577  0.522360  0.073756  1
  Li  Li9  1  0.644472  0.089907  0.429513  1
  Li  Li10  1  0.874172  0.126932  0.069204  1
  Li  Li11  1  0.656481  0.493073  0.426176  1
  Li  Li12  1  0.845577  0.977640  0.573756  1
  Li  Li13  1  0.644472  0.410093  0.929513  1
  Li  Li14  1  0.874172  0.373068  0.569204  1
  Li  Li15  1  0.656481  0.006927  0.926176  1
  Fe  Fe16  1  0.020843  0.288089  0.239557  1
  Fe  Fe17  1  0.020843  0.211911  0.739557  1
  Fe  Fe18  1  0.483153  0.212507  0.252632  1
  Fe  Fe19  1  0.516847  0.712507  0.247368  1
  Fe  Fe20  1  0.483153  0.287493  0.752632  1
  Fe  Fe21  1  0.516847  0.787493  0.747368  1
  Fe  Fe22  1  0.979157  0.788089  0.260443  1
  Fe  Fe23  1  0.979157  0.711911  0.760443  1
  F  F24  1  0.036767  0.033402  0.119512  1
  F  F25  1  0.987437  0.164443  0.438985  1
  F  F26  1  0.202682  0.404629  0.083728  1
  F  F27  1  0.185025  0.778353  0.242594  1
  F  F28  1  0.036767  0.466598  0.619512  1
  F  F29  1  0.987437  0.335557  0.938985  1
  F  F30  1  0.299661  0.136709  0.253143  1
  F  F31  1  0.202682  0.095371  0.583728  1
  F  F32  1  0.495130  0.834475  0.076180  1
  F  F33  1  0.185025  0.721647  0.742594  1
  F  F34  1  0.313953  0.651688  0.425532  1
  F  F35  1  0.491844  0.465680  0.140414  1
  F  F36  1  0.508156  0.965680  0.359586  1
  F  F37  1  0.299661  0.363291  0.753143  1
  F  F38  1  0.686047  0.151688  0.074468  1
  F  F39  1  0.504870  0.334475  0.423820  1
  F  F40  1  0.495130  0.665525  0.576180  1
  F  F41  1  0.313953  0.848312  0.925532  1
  F  F42  1  0.700339  0.636709  0.246857  1
  F  F43  1  0.491844  0.034320  0.640414  1
  F  F44  1  0.508156  0.534320  0.859586  1
  F  F45  1  0.686047  0.348312  0.574468  1
  F  F46  1  0.814975  0.278353  0.257406  1
  F  F47  1  0.504870  0.165525  0.923820  1
  F  F48  1  0.797318  0.904629  0.416272  1
  F  F49  1  0.700339  0.863291  0.746857  1
  F  F50  1  0.012563  0.664443  0.061015  1
  F  F51  1  0.963233  0.533402  0.380488  1
  F  F52  1  0.814975  0.221647  0.757406  1
  F  F53  1  0.797318  0.595371  0.916272  1
  F  F54  1  0.012563  0.835557  0.561015  1
  F  F55  1  0.963233  0.966598  0.880488  1
