# generated using pymatgen
data_Li2Mn3(P2O7)2
_symmetry_space_group_name_H-M   'P 1'
_cell_length_a   13.90634684
_cell_length_b   7.38751740
_cell_length_c   6.45726134
_cell_angle_alpha   90.00000000
_cell_angle_beta   86.13085767
_cell_angle_gamma   90.00000000
_symmetry_Int_Tables_number   1
_chemical_formula_structural   Li2Mn3(P2O7)2
_chemical_formula_sum   'Li4 Mn6 P8 O28'
_cell_volume   661.86428808
_cell_formula_units_Z   2
loop_
 _symmetry_equiv_pos_site_id
 _symmetry_equiv_pos_as_xyz
  1  'x, y, z'
loop_
 _atom_site_type_symbol
 _atom_site_label
 _atom_site_symmetry_multiplicity
 _atom_site_fract_x
 _atom_site_fract_y
 _atom_site_fract_z
 _atom_site_occupancy
  Li  Li0  1  0.049345  0.309432  0.432123  1
  Li  Li1  1  0.433279  0.176548  0.986272  1
  Li  Li2  1  0.566721  0.676548  0.013728  1
  Li  Li3  1  0.950655  0.809432  0.567877  1
  Mn  Mn4  1  0.099320  0.982582  0.169502  1
  Mn  Mn5  1  0.275029  0.621033  0.730035  1
  Mn  Mn6  1  0.388451  0.144263  0.453494  1
  Mn  Mn7  1  0.611549  0.644263  0.546506  1
  Mn  Mn8  1  0.724971  0.121033  0.269965  1
  Mn  Mn9  1  0.900680  0.482582  0.830498  1
  P  P10  1  0.109355  0.306455  0.897384  1
  P  P11  1  0.173155  0.987428  0.638188  1
  P  P12  1  0.324823  0.807862  0.124704  1
  P  P13  1  0.416890  0.515981  0.350467  1
  P  P14  1  0.583110  0.015981  0.649533  1
  P  P15  1  0.675177  0.307862  0.875296  1
  P  P16  1  0.826845  0.487428  0.361812  1
  P  P17  1  0.890645  0.806455  0.102616  1
  O  O18  1  0.033603  0.368936  0.748090  1
  O  O19  1  0.072837  0.292514  0.125372  1
  O  O20  1  0.123537  0.084706  0.849717  1
  O  O21  1  0.118087  0.078947  0.467652  1
  O  O22  1  0.153503  0.785239  0.660437  1
  O  O23  1  0.206276  0.394859  0.850864  1
  O  O24  1  0.216416  0.823647  0.112427  1
  O  O25  1  0.279979  0.030579  0.632365  1
  O  O26  1  0.333882  0.666985  0.320405  1
  O  O27  1  0.391136  0.459538  0.577075  1
  O  O28  1  0.373881  0.714474  0.934784  1
  O  O29  1  0.405063  0.350860  0.210752  1
  O  O30  1  0.375932  0.983525  0.181289  1
  O  O31  1  0.514872  0.610050  0.310265  1
  O  O32  1  0.485128  0.110051  0.689735  1
  O  O33  1  0.624068  0.483525  0.818711  1
  O  O34  1  0.594937  0.850860  0.789248  1
  O  O35  1  0.626119  0.214474  0.065216  1
  O  O36  1  0.608864  0.959538  0.422925  1
  O  O37  1  0.666118  0.166985  0.679595  1
  O  O38  1  0.720021  0.530579  0.367635  1
  O  O39  1  0.783584  0.323647  0.887573  1
  O  O40  1  0.793724  0.894859  0.149136  1
  O  O41  1  0.846497  0.285239  0.339563  1
  O  O42  1  0.881913  0.578947  0.532347  1
  O  O43  1  0.876463  0.584706  0.150283  1
  O  O44  1  0.927163  0.792514  0.874628  1
  O  O45  1  0.966397  0.868936  0.251910  1
