# generated using pymatgen
data_Al9Fe2Si4HO24
_symmetry_space_group_name_H-M   'P 1'
_cell_length_a   9.26884582
_cell_length_b   9.26884582
_cell_length_c   5.78210245
_cell_angle_alpha   89.56265170
_cell_angle_beta   90.43734830
_cell_angle_gamma   49.76749718
_symmetry_Int_Tables_number   1
_chemical_formula_structural   Al9Fe2Si4HO24
_chemical_formula_sum   'Al9 Fe2 Si4 H1 O24'
_cell_volume   379.17064636
_cell_formula_units_Z   1
loop_
 _symmetry_equiv_pos_site_id
 _symmetry_equiv_pos_as_xyz
  1  'x, y, z'
loop_
 _atom_site_type_symbol
 _atom_site_label
 _atom_site_symmetry_multiplicity
 _atom_site_fract_x
 _atom_site_fract_y
 _atom_site_fract_z
 _atom_site_occupancy
  Al  Al0  1  0.327987  0.327987  0.000000  1
  Al  Al1  1  0.672013  0.672013  0.000000  1
  Al  Al2  1  0.325457  0.325457  0.500000  1
  Al  Al3  1  0.674543  0.674543  0.500000  1
  Al  Al4  1  0.144387  0.681684  0.735308  1
  Al  Al5  1  0.318316  0.855613  0.735308  1
  Al  Al6  1  0.855613  0.318316  0.264692  1
  Al  Al7  1  0.681684  0.144387  0.264692  1
  Al  Al8  1  0.000000  0.000000  0.000000  1
  Fe  Fe9  1  0.638716  0.361284  0.734290  1
  Fe  Fe10  1  0.361284  0.638716  0.265710  1
  Si  Si11  1  0.032403  0.303363  0.760930  1
  Si  Si12  1  0.696637  0.967597  0.760930  1
  Si  Si13  1  0.967597  0.696637  0.239070  1
  Si  Si14  1  0.303363  0.032403  0.239070  1
  H  H15  1  0.000000  0.000000  0.500000  1
  O  O16  1  0.769587  0.230413  0.045602  1
  O  O17  1  0.230413  0.769587  0.954398  1
  O  O18  1  0.821168  0.178832  0.472453  1
  O  O19  1  0.178832  0.821168  0.527547  1
  O  O20  1  0.901251  0.421972  0.986636  1
  O  O21  1  0.578028  0.098749  0.986636  1
  O  O22  1  0.098749  0.578028  0.013364  1
  O  O23  1  0.421972  0.901251  0.013364  1
  O  O24  1  0.413296  0.907028  0.478402  1
  O  O25  1  0.092972  0.586704  0.478402  1
  O  O26  1  0.586704  0.092972  0.521598  1
  O  O27  1  0.907028  0.413296  0.521598  1
  O  O28  1  0.089274  0.094923  0.779618  1
  O  O29  1  0.905077  0.910726  0.779618  1
  O  O30  1  0.910726  0.905077  0.220382  1
  O  O31  1  0.094923  0.089274  0.220382  1
  O  O32  1  0.228616  0.273872  0.750914  1
  O  O33  1  0.726128  0.771384  0.750914  1
  O  O34  1  0.771384  0.726128  0.249086  1
  O  O35  1  0.273872  0.228616  0.249086  1
  O  O36  1  0.374737  0.430380  0.742514  1
  O  O37  1  0.569620  0.625263  0.742514  1
  O  O38  1  0.625263  0.569620  0.257486  1
  O  O39  1  0.430380  0.374737  0.257486  1
