# generated using pymatgen
data_Li5MgTi12O24
_symmetry_space_group_name_H-M   'P 1'
_cell_length_a   5.99481804
_cell_length_b   5.99481804
_cell_length_c   14.75757098
_cell_angle_alpha   90.00000000
_cell_angle_beta   90.00000000
_cell_angle_gamma   120.00000000
_symmetry_Int_Tables_number   1
_chemical_formula_structural   Li5MgTi12O24
_chemical_formula_sum   'Li5 Mg1 Ti12 O24'
_cell_volume   459.30114072
_cell_formula_units_Z   1
loop_
 _symmetry_equiv_pos_site_id
 _symmetry_equiv_pos_as_xyz
  1  'x, y, z'
loop_
 _atom_site_type_symbol
 _atom_site_label
 _atom_site_symmetry_multiplicity
 _atom_site_fract_x
 _atom_site_fract_y
 _atom_site_fract_z
 _atom_site_occupancy
  Li  Li0  1  0.833333  0.666667  0.042188  1
  Li  Li1  1  0.833333  0.666667  0.290119  1
  Li  Li2  1  0.500000  0.000000  0.375908  1
  Li  Li3  1  0.500000  0.000000  0.620263  1
  Li  Li4  1  0.166667  0.333333  0.961804  1
  Mg  Mg5  1  0.833333  0.666667  0.663723  1
  Ti  Ti6  1  0.333514  0.667029  0.166947  1
  Ti  Ti7  1  0.995897  0.504103  0.498790  1
  Ti  Ti8  1  0.333514  0.166486  0.166947  1
  Ti  Ti9  1  0.166667  0.333333  0.332886  1
  Ti  Ti10  1  0.500000  0.000000  0.001836  1
  Ti  Ti11  1  0.832971  0.166486  0.166947  1
  Ti  Ti12  1  0.508205  0.504103  0.498790  1
  Ti  Ti13  1  0.995897  0.991795  0.498790  1
  Ti  Ti14  1  0.175634  0.837817  0.838062  1
  Ti  Ti15  1  0.166667  0.333333  0.709768  1
  Ti  Ti16  1  0.662183  0.837817  0.838062  1
  Ti  Ti17  1  0.662183  0.324366  0.838062  1
  O  O18  1  0.199934  0.849967  0.088267  1
  O  O19  1  0.650033  0.849967  0.088267  1
  O  O20  1  0.166667  0.333333  0.096732  1
  O  O21  1  0.017311  0.482689  0.245861  1
  O  O22  1  0.017311  0.034622  0.245861  1
  O  O23  1  0.465378  0.482689  0.245861  1
  O  O24  1  0.137913  0.818957  0.574138  1
  O  O25  1  0.650033  0.300066  0.088267  1
  O  O26  1  0.314654  0.629310  0.420843  1
  O  O27  1  0.314654  0.185346  0.420843  1
  O  O28  1  0.500000  0.000000  0.237009  1
  O  O29  1  0.166667  0.333333  0.579251  1
  O  O30  1  0.833333  0.666667  0.426687  1
  O  O31  1  0.681043  0.818957  0.574138  1
  O  O32  1  0.681043  0.362087  0.574138  1
  O  O33  1  0.348548  0.697096  0.913162  1
  O  O34  1  0.870690  0.185346  0.420843  1
  O  O35  1  0.511226  0.505613  0.752959  1
  O  O36  1  0.994387  0.988774  0.752959  1
  O  O37  1  0.994387  0.505613  0.752959  1
  O  O38  1  0.833333  0.666667  0.901683  1
  O  O39  1  0.500000  0.000000  0.763056  1
  O  O40  1  0.348548  0.151452  0.913162  1
  O  O41  1  0.802904  0.151452  0.913162  1
