# generated using pymatgen
data_Li3Fe2P2(CO7)2
_symmetry_space_group_name_H-M   'P 1'
_cell_length_a   8.38793870
_cell_length_b   8.27055909
_cell_length_c   8.25697741
_cell_angle_alpha   77.01429273
_cell_angle_beta   86.39900455
_cell_angle_gamma   93.52605111
_symmetry_Int_Tables_number   1
_chemical_formula_structural   Li3Fe2P2(CO7)2
_chemical_formula_sum   'Li6 Fe4 P4 C4 O28'
_cell_volume   555.37337856
_cell_formula_units_Z   2
loop_
 _symmetry_equiv_pos_site_id
 _symmetry_equiv_pos_as_xyz
  1  'x, y, z'
loop_
 _atom_site_type_symbol
 _atom_site_label
 _atom_site_symmetry_multiplicity
 _atom_site_fract_x
 _atom_site_fract_y
 _atom_site_fract_z
 _atom_site_occupancy
  Li  Li0  1  0.890323  0.264386  0.490092  1
  Li  Li1  1  0.901105  0.755228  0.991914  1
  Li  Li2  1  0.719881  0.396717  0.135081  1
  Li  Li3  1  0.287986  0.400590  0.646263  1
  Li  Li4  1  0.103703  0.740734  0.512966  1
  Li  Li5  1  0.107932  0.236673  0.011331  1
  Fe  Fe6  1  0.677015  0.527940  0.720312  1
  Fe  Fe7  1  0.659418  0.020161  0.223840  1
  Fe  Fe8  1  0.335806  0.968981  0.778751  1
  Fe  Fe9  1  0.325047  0.477530  0.268068  1
  P  P10  1  0.574108  0.242524  0.512315  1
  P  P11  1  0.580839  0.739864  0.005746  1
  P  P12  1  0.422001  0.260504  0.986195  1
  P  P13  1  0.419111  0.759363  0.494545  1
  C  C14  1  0.963185  0.464952  0.774872  1
  C  C15  1  0.953286  0.980420  0.278201  1
  C  C16  1  0.051898  0.030622  0.724048  1
  C  C17  1  0.035780  0.518751  0.223243  1
  O  O18  1  0.932928  0.585323  0.650222  1
  O  O19  1  0.927002  0.102487  0.154834  1
  O  O20  1  0.917700  0.072170  0.677956  1
  O  O21  1  0.837536  0.397621  0.874524  1
  O  O22  1  0.895253  0.542846  0.178620  1
  O  O23  1  0.824258  0.897415  0.360475  1
  O  O24  1  0.693430  0.360363  0.576950  1
  O  O25  1  0.677848  0.197143  0.367246  1
  O  O26  1  0.695803  0.682533  0.878812  1
  O  O27  1  0.688074  0.870934  0.066192  1
  O  O28  1  0.524285  0.086422  0.652573  1
  O  O29  1  0.579271  0.203776  0.062166  1
  O  O30  1  0.571556  0.690296  0.566379  1
  O  O31  1  0.528068  0.584612  0.150438  1
  O  O32  1  0.468741  0.401526  0.826781  1
  O  O33  1  0.422156  0.328104  0.454031  1
  O  O34  1  0.426951  0.806216  0.935875  1
  O  O35  1  0.468752  0.904385  0.340865  1
  O  O36  1  0.315754  0.121504  0.938188  1
  O  O37  1  0.305916  0.820657  0.620217  1
  O  O38  1  0.308443  0.320228  0.113471  1
  O  O39  1  0.305516  0.622364  0.446869  1
  O  O40  1  0.181175  0.119439  0.646371  1
  O  O41  1  0.100886  0.412455  0.798326  1
  O  O42  1  0.158819  0.614694  0.145270  1
  O  O43  1  0.088058  0.937656  0.321783  1
  O  O44  1  0.069861  0.398082  0.345666  1
  O  O45  1  0.077531  0.904803  0.843104  1
