# generated using pymatgen
data_Mn12O5F19
_symmetry_space_group_name_H-M   'P 1'
_cell_length_a   4.81270823
_cell_length_b   5.83095421
_cell_length_c   16.13350379
_cell_angle_alpha   89.80226488
_cell_angle_beta   90.10222015
_cell_angle_gamma   87.54076262
_symmetry_Int_Tables_number   1
_chemical_formula_structural   Mn12O5F19
_chemical_formula_sum   'Mn12 O5 F19'
_cell_volume   452.32885421
_cell_formula_units_Z   1
loop_
 _symmetry_equiv_pos_site_id
 _symmetry_equiv_pos_as_xyz
  1  'x, y, z'
loop_
 _atom_site_type_symbol
 _atom_site_label
 _atom_site_symmetry_multiplicity
 _atom_site_fract_x
 _atom_site_fract_y
 _atom_site_fract_z
 _atom_site_occupancy
  Mn  Mn0  1  0.995030  0.169730  0.412959  1
  Mn  Mn1  1  0.024509  0.833816  0.240079  1
  Mn  Mn2  1  0.998360  0.157705  0.082442  1
  Mn  Mn3  1  0.005266  0.170927  0.739925  1
  Mn  Mn4  1  0.008728  0.853016  0.583450  1
  Mn  Mn5  1  0.004369  0.840254  0.912969  1
  Mn  Mn6  1  0.491658  0.320431  0.593385  1
  Mn  Mn7  1  0.528123  0.334671  0.925786  1
  Mn  Mn8  1  0.516512  0.335329  0.257025  1
  Mn  Mn9  1  0.495877  0.655827  0.084271  1
  Mn  Mn10  1  0.524102  0.645166  0.416590  1
  Mn  Mn11  1  0.511691  0.640824  0.748740  1
  O  O12  1  0.213083  0.121206  0.638619  1
  O  O13  1  0.222557  0.887326  0.128263  1
  O  O14  1  0.725648  0.391304  0.038175  1
  O  O15  1  0.725291  0.401845  0.367400  1
  O  O16  1  0.712835  0.367449  0.693221  1
  F  F17  1  0.223238  0.110423  0.304554  1
  F  F18  1  0.209862  0.123810  0.972544  1
  F  F19  1  0.245797  0.878611  0.466937  1
  F  F20  1  0.236264  0.897216  0.800204  1
  F  F21  1  0.253991  0.390985  0.146618  1
  F  F22  1  0.270189  0.616957  0.314621  1
  F  F23  1  0.278552  0.382249  0.482678  1
  F  F24  1  0.260082  0.613130  0.642477  1
  F  F25  1  0.267699  0.389937  0.814376  1
  F  F26  1  0.279213  0.618322  0.976879  1
  F  F27  1  0.707807  0.626140  0.192889  1
  F  F28  1  0.724152  0.610143  0.530220  1
  F  F29  1  0.729938  0.612062  0.862026  1
  F  F30  1  0.776997  0.114968  0.188858  1
  F  F31  1  0.759939  0.104530  0.521597  1
  F  F32  1  0.770573  0.886275  0.354920  1
  F  F33  1  0.748443  0.899247  0.020986  1
  F  F34  1  0.786071  0.121326  0.850168  1
  F  F35  1  0.767552  0.876845  0.693146  1
