# generated using pymatgen
data_Li2NiOF2
_symmetry_space_group_name_H-M   'P 1'
_cell_length_a   2.93098934
_cell_length_b   2.93098963
_cell_length_c   12.45607785
_cell_angle_alpha   90.00003069
_cell_angle_beta   89.99991735
_cell_angle_gamma   89.99999986
_symmetry_Int_Tables_number   1
_chemical_formula_structural   Li2NiOF2
_chemical_formula_sum   'Li4 Ni2 O2 F4'
_cell_volume   107.00642024
_cell_formula_units_Z   2
loop_
 _symmetry_equiv_pos_site_id
 _symmetry_equiv_pos_as_xyz
  1  'x, y, z'
loop_
 _atom_site_type_symbol
 _atom_site_label
 _atom_site_symmetry_multiplicity
 _atom_site_fract_x
 _atom_site_fract_y
 _atom_site_fract_z
 _atom_site_occupancy
  Li  Li0  1  0.999999  1.000000  0.337299  1
  Li  Li1  1  0.500000  0.500001  0.503265  1
  Li  Li2  1  0.000000  0.000001  0.663432  1
  Li  Li3  1  0.500002  0.500000  0.829346  1
  Ni  Ni4  1  0.000001  0.999998  0.000257  1
  Ni  Ni5  1  0.499999  0.499999  0.166352  1
  O  O6  1  0.500001  0.499999  0.997002  1
  O  O7  1  0.999999  0.999999  0.169623  1
  F  F8  1  0.499999  0.500000  0.341794  1
  F  F9  1  0.999998  0.000001  0.502263  1
  F  F10  1  0.500001  0.500002  0.664476  1
  F  F11  1  0.000002  1.000000  0.824889  1
