# generated using pymatgen
data_Li4Mn3Nb3(TeO8)2
_symmetry_space_group_name_H-M   'P 1'
_cell_length_a   6.34249662
_cell_length_b   6.12885128
_cell_length_c   10.54711319
_cell_angle_alpha   90.00162082
_cell_angle_beta   90.40560142
_cell_angle_gamma   118.89250347
_symmetry_Int_Tables_number   1
_chemical_formula_structural   Li4Mn3Nb3(TeO8)2
_chemical_formula_sum   'Li4 Mn3 Nb3 Te2 O16'
_cell_volume   358.94557171
_cell_formula_units_Z   1
loop_
 _symmetry_equiv_pos_site_id
 _symmetry_equiv_pos_as_xyz
  1  'x, y, z'
loop_
 _atom_site_type_symbol
 _atom_site_label
 _atom_site_symmetry_multiplicity
 _atom_site_fract_x
 _atom_site_fract_y
 _atom_site_fract_z
 _atom_site_occupancy
  Li  Li0  1  0.340231  0.670136  0.902945  1
  Li  Li1  1  -0.000090  -0.000033  0.994147  1
  Li  Li2  1  0.992809  0.996410  0.484730  1
  Li  Li3  1  0.678525  0.339294  0.404811  1
  Mn  Mn4  1  0.168141  0.829799  0.213668  1
  Mn  Mn5  1  0.168150  0.338419  0.213684  1
  Mn  Mn6  1  0.326253  0.163144  0.709889  1
  Nb  Nb7  1  0.638765  0.819425  0.234849  1
  Nb  Nb8  1  0.812693  0.646776  0.720889  1
  Nb  Nb9  1  0.812671  0.165875  0.720893  1
  Te  Te10  1  0.281679  0.640799  0.497912  1
  Te  Te11  1  0.657574  0.328787  0.016261  1
  O  O12  1  0.137028  0.815536  0.589920  1
  O  O13  1  0.044558  0.522317  0.360035  1
  O  O14  1  0.371113  0.685587  0.106855  1
  O  O15  1  0.974989  0.987540  0.301114  1
  O  O16  1  0.996874  0.998438  0.811850  1
  O  O17  1  0.136993  0.321435  0.589924  1
  O  O18  1  0.509683  0.985272  0.333230  1
  O  O19  1  0.509684  0.524488  0.333229  1
  O  O20  1  0.336783  0.168412  0.093508  1
  O  O21  1  0.726033  0.862988  0.606241  1
  O  O22  1  0.531312  0.515087  0.819563  1
  O  O23  1  0.531288  0.016226  0.819564  1
  O  O24  1  0.680663  0.340310  0.599405  1
  O  O25  1  0.821468  0.657291  0.102535  1
  O  O26  1  0.992672  0.496316  0.823634  1
  O  O27  1  0.821461  0.164225  0.102557  1
