# generated using pymatgen
data_Gd3AsO7
_symmetry_space_group_name_H-M   'P 1'
_cell_length_a   7.37865964
_cell_length_b   10.54630679
_cell_length_c   7.35617914
_cell_angle_alpha   89.99977398
_cell_angle_beta   89.99969864
_cell_angle_gamma   90.00016636
_symmetry_Int_Tables_number   1
_chemical_formula_structural   Gd3AsO7
_chemical_formula_sum   'Gd12 As4 O28'
_cell_volume   572.44026662
_cell_formula_units_Z   4
loop_
 _symmetry_equiv_pos_site_id
 _symmetry_equiv_pos_as_xyz
  1  'x, y, z'
loop_
 _atom_site_type_symbol
 _atom_site_label
 _atom_site_symmetry_multiplicity
 _atom_site_fract_x
 _atom_site_fract_y
 _atom_site_fract_z
 _atom_site_occupancy
  Gd  Gd0  1  0.003706  0.250003  0.772646  1
  Gd  Gd1  1  0.253463  0.526026  0.954365  1
  Gd  Gd2  1  0.253464  0.973975  0.954363  1
  Gd  Gd3  1  0.246537  0.026024  0.454365  1
  Gd  Gd4  1  0.246537  0.473978  0.454362  1
  Gd  Gd5  1  0.496290  0.750000  0.272643  1
  Gd  Gd6  1  0.503708  0.250001  0.727355  1
  Gd  Gd7  1  0.753464  0.526023  0.545638  1
  Gd  Gd8  1  0.753462  0.973975  0.545636  1
  Gd  Gd9  1  0.746535  0.026023  0.045637  1
  Gd  Gd10  1  0.746540  0.473973  0.045638  1
  Gd  Gd11  1  0.996293  0.749999  0.227353  1
  As  As12  1  0.001996  0.749999  0.750846  1
  As  As13  1  0.498004  0.250001  0.250845  1
  As  As14  1  0.501997  0.749999  0.749154  1
  As  As15  1  0.998002  0.250001  0.249155  1
  O  O16  1  0.031737  0.128430  0.065756  1
  O  O17  1  0.031738  0.371569  0.065755  1
  O  O18  1  0.036544  0.624610  0.579602  1
  O  O19  1  0.036543  0.875390  0.579601  1
  O  O20  1  0.247461  0.250000  0.327484  1
  O  O21  1  0.250743  0.117198  0.729069  1
  O  O22  1  0.250741  0.382803  0.729069  1
  O  O23  1  0.249258  0.617196  0.229068  1
  O  O24  1  0.249258  0.882805  0.229069  1
  O  O25  1  0.252540  0.750000  0.827485  1
  O  O26  1  0.463456  0.124610  0.079602  1
  O  O27  1  0.463456  0.375390  0.079601  1
  O  O28  1  0.468263  0.628430  0.565756  1
  O  O29  1  0.468262  0.871570  0.565756  1
  O  O30  1  0.531737  0.128430  0.434245  1
  O  O31  1  0.531737  0.371569  0.434245  1
  O  O32  1  0.536544  0.624610  0.920399  1
  O  O33  1  0.536543  0.875390  0.920398  1
  O  O34  1  0.747461  0.250000  0.172515  1
  O  O35  1  0.750743  0.117196  0.770930  1
  O  O36  1  0.750742  0.382803  0.770931  1
  O  O37  1  0.749258  0.617196  0.270931  1
  O  O38  1  0.749258  0.882805  0.270931  1
  O  O39  1  0.752538  0.750000  0.672516  1
  O  O40  1  0.963456  0.124609  0.420399  1
  O  O41  1  0.963456  0.375389  0.420399  1
  O  O42  1  0.968263  0.628430  0.934245  1
  O  O43  1  0.968264  0.871570  0.934244  1
