# generated using pymatgen
data_Na3Li3Mn2P2(CO7)2
_symmetry_space_group_name_H-M   'P 1'
_cell_length_a   8.75975251
_cell_length_b   6.71965508
_cell_length_c   5.07933493
_cell_angle_alpha   90.08653735
_cell_angle_beta   89.01034141
_cell_angle_gamma   90.25763984
_symmetry_Int_Tables_number   1
_chemical_formula_structural   Na3Li3Mn2P2(CO7)2
_chemical_formula_sum   'Na3 Li3 Mn2 P2 C2 O14'
_cell_volume   298.93450196
_cell_formula_units_Z   1
loop_
 _symmetry_equiv_pos_site_id
 _symmetry_equiv_pos_as_xyz
  1  'x, y, z'
loop_
 _atom_site_type_symbol
 _atom_site_label
 _atom_site_symmetry_multiplicity
 _atom_site_fract_x
 _atom_site_fract_y
 _atom_site_fract_z
 _atom_site_occupancy
  Na  Na0  1  0.084015  0.256347  0.756558  1
  Na  Na1  1  0.252158  0.998082  0.250846  1
  Na  Na2  1  0.748078  0.501432  0.750628  1
  Li  Li3  1  0.272548  0.474752  0.226047  1
  Li  Li4  1  0.730128  0.978143  0.773210  1
  Li  Li5  1  0.912295  0.753539  0.253084  1
  Mn  Mn6  1  0.359307  0.744061  0.776490  1
  Mn  Mn7  1  0.644202  0.244653  0.224042  1
  P  P8  1  0.412562  0.247656  0.705208  1
  P  P9  1  0.593533  0.748877  0.296056  1
  C  C10  1  0.044606  0.758346  0.731004  1
  C  C11  1  0.947045  0.258090  0.266167  1
  O  O12  1  0.094863  0.276222  0.284523  1
  O  O13  1  0.084378  0.753816  0.976506  1
  O  O14  1  0.147684  0.739812  0.544230  1
  O  O15  1  0.315118  0.061069  0.778732  1
  O  O16  1  0.325772  0.429031  0.825235  1
  O  O17  1  0.420712  0.269806  0.398211  1
  O  O18  1  0.428008  0.733304  0.189662  1
  O  O19  1  0.578059  0.232430  0.806824  1
  O  O20  1  0.580283  0.770528  0.602323  1
  O  O21  1  0.693196  0.564626  0.225504  1
  O  O22  1  0.684010  0.928743  0.178938  1
  O  O23  1  0.861423  0.243611  0.476602  1
  O  O24  1  0.883423  0.253221  0.037622  1
  O  O25  1  0.902596  0.779805  0.665748  1
