# generated using pymatgen
data_CrBiO4
_symmetry_space_group_name_H-M   'P 1'
_cell_length_a   6.14323715
_cell_length_b   6.14323737
_cell_length_c   6.14323765
_cell_angle_alpha   106.03681413
_cell_angle_beta   106.03681959
_cell_angle_gamma   116.58276155
_symmetry_Int_Tables_number   1
_chemical_formula_structural   CrBiO4
_chemical_formula_sum   'Cr2 Bi2 O8'
_cell_volume   176.38535836
_cell_formula_units_Z   2
loop_
 _symmetry_equiv_pos_site_id
 _symmetry_equiv_pos_as_xyz
  1  'x, y, z'
loop_
 _atom_site_type_symbol
 _atom_site_label
 _atom_site_symmetry_multiplicity
 _atom_site_fract_x
 _atom_site_fract_y
 _atom_site_fract_z
 _atom_site_occupancy
  Cr  Cr0  1  0.375000  0.625000  0.750000  1
  Cr  Cr1  1  0.625000  0.375000  0.250000  1
  Bi  Bi2  1  0.125000  0.875000  0.250000  1
  Bi  Bi3  1  0.875000  0.125000  0.750000  1
  O  O4  1  0.202603  0.631828  0.929225  1
  O  O5  1  0.368172  0.797397  0.570775  1
  O  O6  1  0.202603  0.273377  0.570775  1
  O  O7  1  0.726623  0.797397  0.929225  1
  O  O8  1  0.273377  0.202603  0.070775  1
  O  O9  1  0.797397  0.726623  0.429225  1
  O  O10  1  0.631828  0.202603  0.429225  1
  O  O11  1  0.797397  0.368172  0.070775  1
