# generated using pymatgen
data_Ba5La3I19
_symmetry_space_group_name_H-M   'P 1'
_cell_length_a   12.04978829
_cell_length_b   15.31833438
_cell_length_c   17.39619569
_cell_angle_alpha   86.47642820
_cell_angle_beta   62.84127236
_cell_angle_gamma   83.13211284
_symmetry_Int_Tables_number   1
_chemical_formula_structural   Ba5La3I19
_chemical_formula_sum   'Ba10 La6 I38'
_cell_volume   2836.41869636
_cell_formula_units_Z   2
loop_
 _symmetry_equiv_pos_site_id
 _symmetry_equiv_pos_as_xyz
  1  'x, y, z'
loop_
 _atom_site_type_symbol
 _atom_site_label
 _atom_site_symmetry_multiplicity
 _atom_site_fract_x
 _atom_site_fract_y
 _atom_site_fract_z
 _atom_site_occupancy
  Ba  Ba0  1  0.197953  0.294455  0.163431  1
  Ba  Ba1  1  0.754911  0.140352  0.345604  1
  Ba  Ba2  1  0.074447  0.652890  0.211177  1
  Ba  Ba3  1  0.437404  0.190286  0.737802  1
  Ba  Ba4  1  0.777456  0.413413  0.569544  1
  Ba  Ba5  1  0.222544  0.586587  0.430456  1
  Ba  Ba6  1  0.562596  0.809714  0.262198  1
  Ba  Ba7  1  0.925553  0.347111  0.788823  1
  Ba  Ba8  1  0.245089  0.859648  0.654396  1
  Ba  Ba9  1  0.802047  0.705545  0.836569  1
  La  La10  1  0.654988  0.467545  0.177880  1
  La  La11  1  0.155291  0.176011  0.510930  1
  La  La12  1  0.757825  0.005191  0.987569  1
  La  La13  1  0.242175  0.994809  0.012431  1
  La  La14  1  0.844709  0.823989  0.489070  1
  La  La15  1  0.345012  0.532455  0.822120  1
  I  I16  1  0.500000  0.000000  0.000000  1
  I  I17  1  0.000000  0.000000  0.000000  1
  I  I18  1  0.096043  0.072604  0.204241  1
  I  I19  1  0.624922  0.029458  0.192681  1
  I  I20  1  0.869205  0.315954  0.187613  1
  I  I21  1  0.498400  0.337244  0.150534  1
  I  I22  1  0.780947  0.026966  0.520079  1
  I  I23  1  0.784935  0.508078  0.967151  1
  I  I24  1  0.433834  0.195886  0.388501  1
  I  I25  1  0.007115  0.238900  0.394775  1
  I  I26  1  0.151626  0.464471  0.296705  1
  I  I27  1  0.213227  0.131597  0.674299  1
  I  I28  1  0.515355  0.459654  0.377251  1
  I  I29  1  0.866300  0.204772  0.661026  1
  I  I30  1  0.799597  0.625626  0.201974  1
  I  I31  1  0.602343  0.273198  0.532949  1
  I  I32  1  0.443504  0.632012  0.206312  1
  I  I33  1  0.257099  0.798154  0.064380  1
  I  I34  1  0.732911  0.798611  0.035272  1
  I  I35  1  0.128171  0.382079  0.549159  1
  I  I36  1  0.871829  0.617921  0.450841  1
  I  I37  1  0.267089  0.201389  0.964728  1
  I  I38  1  0.742901  0.201846  0.935620  1
  I  I39  1  0.556496  0.367988  0.793688  1
  I  I40  1  0.397657  0.726802  0.467051  1
  I  I41  1  0.200403  0.374374  0.798026  1
  I  I42  1  0.133700  0.795228  0.338974  1
  I  I43  1  0.484645  0.540346  0.622749  1
  I  I44  1  0.786773  0.868403  0.325701  1
  I  I45  1  0.848374  0.535529  0.703295  1
  I  I46  1  0.992885  0.761100  0.605225  1
  I  I47  1  0.566166  0.804114  0.611499  1
  I  I48  1  0.215065  0.491922  0.032849  1
  I  I49  1  0.219053  0.973034  0.479921  1
  I  I50  1  0.501600  0.662756  0.849466  1
  I  I51  1  0.130795  0.684046  0.812387  1
  I  I52  1  0.375078  0.970542  0.807319  1
  I  I53  1  0.903957  0.927396  0.795759  1
