# generated using pymatgen
data_NaCa4Ti4Nb(SiO5)5
_symmetry_space_group_name_H-M   'P 1'
_cell_length_a   5.51399943
_cell_length_b   5.49742255
_cell_length_c   35.93581509
_cell_angle_alpha   104.18068177
_cell_angle_beta   104.48157405
_cell_angle_gamma   105.68709627
_symmetry_Int_Tables_number   1
_chemical_formula_structural   NaCa4Ti4Nb(SiO5)5
_chemical_formula_sum   'Na2 Ca8 Ti8 Nb2 Si10 O50'
_cell_volume   956.62322424
_cell_formula_units_Z   2
loop_
 _symmetry_equiv_pos_site_id
 _symmetry_equiv_pos_as_xyz
  1  'x, y, z'
loop_
 _atom_site_type_symbol
 _atom_site_label
 _atom_site_symmetry_multiplicity
 _atom_site_fract_x
 _atom_site_fract_y
 _atom_site_fract_z
 _atom_site_occupancy
  Na  Na0  1  0.153028  0.824275  0.747889  1
  Na  Na1  1  0.155406  0.825499  0.547521  1
  Ca  Ca2  1  0.169914  0.832290  0.950851  1
  Ca  Ca3  1  0.171656  0.834905  0.350372  1
  Ca  Ca4  1  0.834844  0.170729  0.852048  1
  Ca  Ca5  1  0.169906  0.831640  0.150064  1
  Ca  Ca6  1  0.840764  0.172482  0.652214  1
  Ca  Ca7  1  0.837639  0.171826  0.450878  1
  Ca  Ca8  1  0.832097  0.170091  0.250387  1
  Ca  Ca9  1  0.831094  0.168772  0.050570  1
  Ti  Ti10  1  0.501513  0.498334  0.001355  1
  Ti  Ti11  1  0.500729  0.504232  0.901881  1
  Ti  Ti12  1  0.507400  0.504655  0.699119  1
  Ti  Ti13  1  0.507569  0.501657  0.497558  1
  Ti  Ti14  1  0.501900  0.504682  0.399446  1
  Ti  Ti15  1  0.500391  0.501360  0.300197  1
  Ti  Ti16  1  0.501085  0.499077  0.200637  1
  Ti  Ti17  1  0.498656  0.501121  0.100953  1
  Nb  Nb18  1  0.490425  0.492682  0.798836  1
  Nb  Nb19  1  0.491198  0.497253  0.597462  1
  Si  Si20  1  0.185976  0.822045  0.851612  1
  Si  Si21  1  0.187571  0.820699  0.651028  1
  Si  Si22  1  0.182909  0.816660  0.449534  1
  Si  Si23  1  0.819416  0.184367  0.951057  1
  Si  Si24  1  0.181872  0.817754  0.249790  1
  Si  Si25  1  0.811770  0.177814  0.748922  1
  Si  Si26  1  0.181913  0.817568  0.050177  1
  Si  Si27  1  0.810837  0.175014  0.547848  1
  Si  Si28  1  0.818259  0.182739  0.349866  1
  Si  Si29  1  0.818106  0.182197  0.150159  1
  O  O30  1  0.120993  0.249630  0.982835  1
  O  O31  1  0.186945  0.608583  0.877103  1
  O  O32  1  0.111716  0.250584  0.782417  1
  O  O33  1  0.429231  0.570339  0.950558  1
  O  O34  1  0.252686  0.122710  0.883486  1
  O  O35  1  0.401166  0.816583  0.827043  1
  O  O36  1  0.187429  0.594975  0.673861  1
  O  O37  1  0.112360  0.252614  0.581182  1
  O  O38  1  0.428657  0.575856  0.750465  1
  O  O39  1  0.609883  0.187119  0.977023  1
  O  O40  1  0.254881  0.121499  0.682802  1
  O  O41  1  0.748288  0.883265  0.918383  1
  O  O42  1  0.400958  0.817145  0.625766  1
  O  O43  1  0.571948  0.426177  0.851659  1
  O  O44  1  0.187083  0.594360  0.472875  1
  O  O45  1  0.815716  0.397524  0.925508  1
  O  O46  1  0.121291  0.251608  0.381378  1
  O  O47  1  0.429948  0.575589  0.549151  1
  O  O48  1  0.615730  0.189712  0.777298  1
  O  O49  1  0.253237  0.118801  0.481287  1
  O  O50  1  0.737764  0.879864  0.716644  1
  O  O51  1  0.389585  0.812572  0.422603  1
  O  O52  1  0.573689  0.424531  0.650626  1
  O  O53  1  0.885588  0.753509  0.819434  1
  O  O54  1  0.186927  0.607279  0.275731  1
  O  O55  1  0.806554  0.390426  0.724073  1
  O  O56  1  0.120640  0.250666  0.181959  1
  O  O57  1  0.429096  0.569740  0.349190  1
  O  O58  1  0.614175  0.190702  0.575992  1
  O  O59  1  0.251762  0.119951  0.281765  1
  O  O60  1  0.739018  0.876022  0.516056  1
  O  O61  1  0.390368  0.812212  0.223544  1
  O  O62  1  0.571783  0.427957  0.448767  1
  O  O63  1  0.885527  0.753732  0.618886  1
  O  O64  1  0.186965  0.607874  0.076290  1
  O  O65  1  0.803301  0.382802  0.521949  1
  O  O66  1  0.430124  0.569938  0.149801  1
  O  O67  1  0.608222  0.187916  0.375597  1
  O  O68  1  0.251541  0.119759  0.082172  1
  O  O69  1  0.748479  0.879942  0.317608  1
  O  O70  1  0.390897  0.812279  0.024075  1
  O  O71  1  0.569954  0.430023  0.249638  1
  O  O72  1  0.878647  0.750075  0.417436  1
  O  O73  1  0.812249  0.391877  0.323466  1
  O  O74  1  0.609254  0.187142  0.176240  1
  O  O75  1  0.748630  0.880343  0.117895  1
  O  O76  1  0.571544  0.430886  0.050315  1
  O  O77  1  0.879240  0.749495  0.217766  1
  O  O78  1  0.812815  0.392331  0.124040  1
  O  O79  1  0.879674  0.749058  0.018129  1
