# generated using pymatgen
data_Ba2CaI6
_symmetry_space_group_name_H-M   'P 1'
_cell_length_a   9.32247421
_cell_length_b   9.21973870
_cell_length_c   10.20515605
_cell_angle_alpha   91.35315808
_cell_angle_beta   87.32278889
_cell_angle_gamma   120.36929714
_symmetry_Int_Tables_number   1
_chemical_formula_structural   Ba2CaI6
_chemical_formula_sum   'Ba4 Ca2 I12'
_cell_volume   755.95791262
_cell_formula_units_Z   2
loop_
 _symmetry_equiv_pos_site_id
 _symmetry_equiv_pos_as_xyz
  1  'x, y, z'
loop_
 _atom_site_type_symbol
 _atom_site_label
 _atom_site_symmetry_multiplicity
 _atom_site_fract_x
 _atom_site_fract_y
 _atom_site_fract_z
 _atom_site_occupancy
  Ba  Ba0  1  0.279799  0.673192  0.487230  1
  Ba  Ba1  1  0.393393  0.673192  0.012770  1
  Ba  Ba2  1  0.606607  0.326808  0.987230  1
  Ba  Ba3  1  0.720201  0.326808  0.512770  1
  Ca  Ca4  1  0.047985  0.095972  0.250000  1
  Ca  Ca5  1  0.952015  0.904028  0.750000  1
  I  I6  1  0.302637  0.958990  0.157258  1
  I  I7  1  0.989983  0.427819  0.214430  1
  I  I8  1  0.053077  0.236206  0.549345  1
  I  I9  1  0.183129  0.236206  0.950655  1
  I  I10  1  0.437837  0.427819  0.285570  1
  I  I11  1  0.656353  0.958990  0.342742  1
  I  I12  1  0.343647  0.041010  0.657258  1
  I  I13  1  0.562164  0.572181  0.714430  1
  I  I14  1  0.816871  0.763794  0.049345  1
  I  I15  1  0.946923  0.763794  0.450655  1
  I  I16  1  0.010017  0.572181  0.785570  1
  I  I17  1  0.697363  0.041010  0.842742  1
