# generated using pymatgen
data_TiV2Fe3(PO4)6
_symmetry_space_group_name_H-M   'P 1'
_cell_length_a   8.51763894
_cell_length_b   8.66034248
_cell_length_c   8.66034281
_cell_angle_alpha   59.99999618
_cell_angle_beta   59.44421974
_cell_angle_gamma   59.44422235
_symmetry_Int_Tables_number   1
_chemical_formula_structural   TiV2Fe3(PO4)6
_chemical_formula_sum   'Ti1 V2 Fe3 P6 O24'
_cell_volume   447.89322111
_cell_formula_units_Z   1
loop_
 _symmetry_equiv_pos_site_id
 _symmetry_equiv_pos_as_xyz
  1  'x, y, z'
loop_
 _atom_site_type_symbol
 _atom_site_label
 _atom_site_symmetry_multiplicity
 _atom_site_fract_x
 _atom_site_fract_y
 _atom_site_fract_z
 _atom_site_occupancy
  Ti  Ti0  1  0.562831  0.145723  0.145723  1
  V  V1  1  0.001968  0.999344  0.999344  1
  V  V2  1  0.502474  0.499175  0.499175  1
  Fe  Fe3  1  0.062645  0.645785  0.645785  1
  Fe  Fe4  1  0.439060  0.853646  0.853646  1
  Fe  Fe5  1  0.936310  0.354564  0.354564  1
  P  P6  1  0.248258  0.250633  0.547331  1
  P  P7  1  0.248258  0.953779  0.250633  1
  P  P8  1  0.248258  0.547331  0.953779  1
  P  P9  1  0.749337  0.454123  0.046615  1
  P  P10  1  0.749337  0.046615  0.749926  1
  P  P11  1  0.749337  0.749926  0.454123  1
  O  O12  1  0.066213  0.107151  0.323042  1
  O  O13  1  0.066213  0.503594  0.107151  1
  O  O14  1  0.066213  0.323042  0.503594  1
  O  O15  1  0.225144  0.092614  0.743753  1
  O  O16  1  0.429333  0.178374  0.385032  1
  O  O17  1  0.283223  0.406474  0.554824  1
  O  O18  1  0.225144  0.938488  0.092614  1
  O  O19  1  0.283223  0.755479  0.406474  1
  O  O20  1  0.566437  0.607317  0.003974  1
  O  O21  1  0.283223  0.554824  0.755479  1
  O  O22  1  0.772762  0.253534  0.064140  1
  O  O23  1  0.566437  0.003974  0.822272  1
  O  O24  1  0.429333  0.007262  0.178374  1
  O  O25  1  0.225144  0.743753  0.938488  1
  O  O26  1  0.723172  0.437396  0.246088  1
  O  O27  1  0.429333  0.385032  0.007262  1
  O  O28  1  0.723172  0.246088  0.593343  1
  O  O29  1  0.772762  0.064140  0.909565  1
  O  O30  1  0.723172  0.593343  0.437396  1
  O  O31  1  0.566437  0.822272  0.607317  1
  O  O32  1  0.772762  0.909565  0.253534  1
  O  O33  1  0.934358  0.682852  0.492169  1
  O  O34  1  0.934358  0.492169  0.890621  1
  O  O35  1  0.934358  0.890621  0.682852  1
