# generated using pymatgen
data_VOF2
_symmetry_space_group_name_H-M   'P 1'
_cell_length_a   5.20338803
_cell_length_b   13.38555073
_cell_length_c   5.22621466
_cell_angle_alpha   89.03314865
_cell_angle_beta   119.85561922
_cell_angle_gamma   90.00000098
_symmetry_Int_Tables_number   1
_chemical_formula_structural   VOF2
_chemical_formula_sum   'V6 O6 F12'
_cell_volume   315.63716011
_cell_formula_units_Z   6
loop_
 _symmetry_equiv_pos_site_id
 _symmetry_equiv_pos_as_xyz
  1  'x, y, z'
loop_
 _atom_site_type_symbol
 _atom_site_label
 _atom_site_symmetry_multiplicity
 _atom_site_fract_x
 _atom_site_fract_y
 _atom_site_fract_z
 _atom_site_occupancy
  V  V0  1  0.005536  0.493143  0.020245  1
  V  V1  1  0.014708  0.993143  0.020245  1
  V  V2  1  0.642507  0.827099  0.356631  1
  V  V3  1  0.305270  0.659376  0.673495  1
  V  V4  1  0.714124  0.327099  0.356631  1
  V  V5  1  0.368225  0.159376  0.673495  1
  O  O6  1  0.313257  0.919402  0.237364  1
  O  O7  1  0.001427  0.252075  0.572526  1
  O  O8  1  0.093423  0.584205  0.752694  1
  O  O9  1  0.571099  0.752075  0.572526  1
  O  O10  1  0.924107  0.419402  0.237364  1
  O  O11  1  0.659270  0.084205  0.752694  1
  F  F12  1  0.989430  0.750818  0.398126  1
  F  F13  1  0.395033  0.755179  0.986648  1
  F  F14  1  0.345586  0.415253  0.076711  1
  F  F15  1  0.066983  0.083452  0.337672  1
  F  F16  1  0.270689  0.583452  0.337672  1
  F  F17  1  0.591615  0.255179  0.986648  1
  F  F18  1  0.731124  0.915253  0.076711  1
  F  F19  1  0.408696  0.250818  0.398126  1
  F  F20  1  0.251060  0.089881  0.931545  1
  F  F21  1  0.740877  0.420116  0.656343  1
  F  F22  1  0.915468  0.920116  0.656343  1
  F  F23  1  0.680483  0.589881  0.931545  1
