# generated using pymatgen
data_Li4Ni3O6F
_symmetry_space_group_name_H-M   'P 1'
_cell_length_a   6.37425741
_cell_length_b   4.14074523
_cell_length_c   5.05348864
_cell_angle_alpha   65.79889284
_cell_angle_beta   97.61265274
_cell_angle_gamma   90.01220206
_symmetry_Int_Tables_number   1
_chemical_formula_structural   Li4Ni3O6F
_chemical_formula_sum   'Li4 Ni3 O6 F1'
_cell_volume   120.37163550
_cell_formula_units_Z   1
loop_
 _symmetry_equiv_pos_site_id
 _symmetry_equiv_pos_as_xyz
  1  'x, y, z'
loop_
 _atom_site_type_symbol
 _atom_site_label
 _atom_site_symmetry_multiplicity
 _atom_site_fract_x
 _atom_site_fract_y
 _atom_site_fract_z
 _atom_site_occupancy
  Li  Li0  1  0.142466  0.281249  0.435937  1
  Li  Li1  1  0.288227  0.578096  0.846461  1
  Li  Li2  1  0.572516  0.137936  0.724930  1
  Li  Li3  1  0.717517  0.434641  0.133417  1
  Ni  Ni4  1  0.005107  0.000232  -0.000225  1
  Ni  Ni5  1  0.430929  0.858170  0.285939  1
  Ni  Ni6  1  0.856673  0.713215  0.573151  1
  O  O7  1  0.295083  0.051083  0.900091  1
  O  O8  1  0.991722  0.514959  0.970239  1
  O  O9  1  0.148161  0.801172  0.397028  1
  O  O10  1  0.566232  0.664314  0.672139  1
  O  O11  1  0.869948  0.198138  0.603245  1
  O  O12  1  0.713957  0.912872  0.175336  1
  F  F13  1  0.430968  0.357853  0.285803  1
