# generated using pymatgen
data_Mn3O5F
_symmetry_space_group_name_H-M   'P 1'
_cell_length_a   7.23802347
_cell_length_b   5.45303494
_cell_length_c   5.45303494
_cell_angle_alpha   70.73048963
_cell_angle_beta   71.40331016
_cell_angle_gamma   71.40331016
_symmetry_Int_Tables_number   1
_chemical_formula_structural   Mn3O5F
_chemical_formula_sum   'Mn6 O10 F2'
_cell_volume   186.98948656
_cell_formula_units_Z   2
loop_
 _symmetry_equiv_pos_site_id
 _symmetry_equiv_pos_as_xyz
  1  'x, y, z'
loop_
 _atom_site_type_symbol
 _atom_site_label
 _atom_site_symmetry_multiplicity
 _atom_site_fract_x
 _atom_site_fract_y
 _atom_site_fract_z
 _atom_site_occupancy
  Mn  Mn0  1  0.821391  0.661226  0.661226  1
  Mn  Mn1  1  0.666667  0.333333  0.333333  1
  Mn  Mn2  1  0.342403  0.653842  0.653842  1
  Mn  Mn3  1  0.166667  0.333333  0.333333  1
  Mn  Mn4  1  0.511942  0.005441  0.005441  1
  Mn  Mn5  1  0.990931  0.012825  0.012825  1
  O  O6  1  0.666667  0.027018  0.639648  1
  O  O7  1  0.333819  0.359751  0.968877  1
  O  O8  1  0.630243  0.560629  0.560629  1
  O  O9  1  0.959718  0.235685  0.235685  1
  O  O10  1  0.703090  0.106037  0.106037  1
  O  O11  1  0.373615  0.430982  0.430982  1
  O  O12  1  0.333819  0.968877  0.359751  1
  O  O13  1  0.666667  0.639648  0.027018  1
  O  O14  1  0.999514  0.306916  0.697789  1
  O  O15  1  0.999514  0.697789  0.306916  1
  F  F16  1  0.297454  0.896133  0.896133  1
  F  F17  1  0.035879  0.770534  0.770534  1
