# generated using pymatgen
data_LiB2SbO6
_symmetry_space_group_name_H-M   'P 1'
_cell_length_a   5.13288389
_cell_length_b   8.97975497
_cell_length_c   10.93916457
_cell_angle_alpha   90.00000000
_cell_angle_beta   99.41341759
_cell_angle_gamma   90.00000000
_symmetry_Int_Tables_number   1
_chemical_formula_structural   LiB2SbO6
_chemical_formula_sum   'Li4 B8 Sb4 O24'
_cell_volume   497.41867927
_cell_formula_units_Z   4
loop_
 _symmetry_equiv_pos_site_id
 _symmetry_equiv_pos_as_xyz
  1  'x, y, z'
loop_
 _atom_site_type_symbol
 _atom_site_label
 _atom_site_symmetry_multiplicity
 _atom_site_fract_x
 _atom_site_fract_y
 _atom_site_fract_z
 _atom_site_occupancy
  Li  Li0  1  0.176974  0.961433  0.106609  1
  Li  Li1  1  0.323026  0.461433  0.393391  1
  Li  Li2  1  0.676974  0.538567  0.606609  1
  Li  Li3  1  0.823026  0.038567  0.893391  1
  B  B4  1  0.163702  0.302267  0.615237  1
  B  B5  1  0.149896  0.635254  0.134035  1
  B  B6  1  0.336298  0.802267  0.884763  1
  B  B7  1  0.350104  0.135253  0.365965  1
  B  B8  1  0.649896  0.864746  0.634035  1
  B  B9  1  0.663702  0.197733  0.115237  1
  B  B10  1  0.850104  0.364746  0.865965  1
  B  B11  1  0.836298  0.697733  0.384763  1
  Sb  Sb12  1  0.116800  0.300936  0.130859  1
  Sb  Sb13  1  0.383200  0.800936  0.369141  1
  Sb  Sb14  1  0.616800  0.199065  0.630859  1
  Sb  Sb15  1  0.883200  0.699064  0.869141  1
  O  O16  1  0.072518  0.354465  0.954600  1
  O  O17  1  0.096944  0.654117  0.396570  1
  O  O18  1  0.129194  0.889499  0.914708  1
  O  O19  1  0.243955  0.001595  0.319411  1
  O  O20  1  0.244001  0.160362  0.653601  1
  O  O21  1  0.233266  0.265439  0.314082  1
  O  O22  1  0.255999  0.660362  0.846399  1
  O  O23  1  0.266734  0.765439  0.185918  1
  O  O24  1  0.256046  0.501595  0.180589  1
  O  O25  1  0.370806  0.389499  0.585292  1
  O  O26  1  0.427482  0.854465  0.545400  1
  O  O27  1  0.403056  0.154117  0.103430  1
  O  O28  1  0.596944  0.845883  0.896570  1
  O  O29  1  0.572518  0.145535  0.454600  1
  O  O30  1  0.629194  0.610501  0.414708  1
  O  O31  1  0.743954  0.498405  0.819411  1
  O  O32  1  0.733266  0.234561  0.814082  1
  O  O33  1  0.744001  0.339638  0.153601  1
  O  O34  1  0.766734  0.734561  0.685918  1
  O  O35  1  0.755999  0.839638  0.346399  1
  O  O36  1  0.756046  0.998405  0.680589  1
  O  O37  1  0.870806  0.110501  0.085292  1
  O  O38  1  0.903056  0.345883  0.603430  1
  O  O39  1  0.927482  0.645535  0.045400  1
