# generated using pymatgen
data_Li4V3P8O29
_symmetry_space_group_name_H-M   'P 1'
_cell_length_a   9.78235087
_cell_length_b   9.73271854
_cell_length_c   14.18488115
_cell_angle_alpha   89.96497016
_cell_angle_beta   90.39399957
_cell_angle_gamma   60.36220926
_symmetry_Int_Tables_number   1
_chemical_formula_structural   Li4V3P8O29
_chemical_formula_sum   'Li8 V6 P16 O58'
_cell_volume   1173.79541740
_cell_formula_units_Z   2
loop_
 _symmetry_equiv_pos_site_id
 _symmetry_equiv_pos_as_xyz
  1  'x, y, z'
loop_
 _atom_site_type_symbol
 _atom_site_label
 _atom_site_symmetry_multiplicity
 _atom_site_fract_x
 _atom_site_fract_y
 _atom_site_fract_z
 _atom_site_occupancy
  Li  Li0  1  0.914446  0.773459  0.061597  1
  Li  Li1  1  0.905533  0.325708  0.552613  1
  Li  Li2  1  0.322725  0.909736  0.060629  1
  Li  Li3  1  0.663309  0.233613  0.440028  1
  Li  Li4  1  0.330608  0.766448  0.559260  1
  Li  Li5  1  0.683701  0.089839  0.939819  1
  Li  Li6  1  0.080747  0.219985  0.944901  1
  Li  Li7  1  0.013746  0.954393  0.490975  1
  V  V8  1  0.568024  0.433426  0.243874  1
  V  V9  1  0.433319  0.567685  0.756084  1
  V  V10  1  0.569097  0.997183  0.743207  1
  V  V11  1  0.430686  0.007101  0.258285  1
  V  V12  1  0.001976  0.567326  0.253369  1
  V  V13  1  0.998846  0.439181  0.745153  1
  P  P14  1  0.911889  0.771118  0.842915  1
  P  P15  1  0.779367  0.915647  0.338967  1
  P  P16  1  0.911424  0.311177  0.340890  1
  P  P17  1  0.661910  0.676779  0.131526  1
  P  P18  1  0.665506  0.662102  0.630961  1
  P  P19  1  0.775009  0.314337  0.839784  1
  P  P20  1  0.681901  0.233880  0.657707  1
  P  P21  1  0.320669  0.915355  0.842689  1
  P  P22  1  0.679122  0.088154  0.156581  1
  P  P23  1  0.316406  0.768607  0.343433  1
  P  P24  1  0.227654  0.686883  0.160685  1
  P  P25  1  0.338931  0.337196  0.370158  1
  P  P26  1  0.333026  0.330288  0.866877  1
  P  P27  1  0.086152  0.697900  0.661022  1
  P  P28  1  0.221063  0.084864  0.659745  1
  P  P29  1  0.088348  0.229375  0.160937  1
  O  O30  1  0.005563  0.797622  0.577693  1
  O  O31  1  0.912916  0.742873  0.335000  1
  O  O32  1  0.751389  0.004515  0.066300  1
  O  O33  1  0.747221  0.919262  0.835331  1
  O  O34  1  0.900880  0.620111  0.815783  1
  O  O35  1  0.814501  0.672397  0.168046  1
  O  O36  1  0.910981  0.467565  0.330048  1
  O  O37  1  0.012643  0.231359  0.069959  1
  O  O38  1  0.919952  0.339459  0.839850  1
  O  O39  1  0.675701  0.803896  0.671381  1
  O  O40  1  0.618112  0.921016  0.331680  1
  O  O41  1  0.814164  0.505052  0.673024  1
  O  O42  1  0.647944  0.674602  0.027361  1
  O  O43  1  0.666430  0.643736  0.526944  1
  O  O44  1  0.657711  0.528830  0.179383  1
  O  O45  1  0.479121  0.906280  0.820996  1
  O  O46  1  0.516028  0.824054  0.175429  1
  O  O47  1  0.739792  0.338311  0.331184  1
  O  O48  1  0.797771  0.214657  0.743948  1
  O  O49  1  0.759968  0.235162  0.567318  1
  O  O50  1  0.767245  0.226487  0.922791  1
  O  O51  1  0.620821  0.476092  0.823731  1
  O  O52  1  0.512254  0.670922  0.674101  1
  O  O53  1  0.656084  0.257339  0.162123  1
  O  O54  1  0.470233  0.612184  0.329404  1
  O  O55  1  0.348586  0.909841  0.331516  1
  O  O56  1  0.797710  0.991529  0.241147  1
  O  O57  1  0.796315  0.005893  0.418963  1
  O  O58  1  0.202518  0.992282  0.582021  1
  O  O59  1  0.654717  0.091036  0.665441  1
  O  O60  1  0.525887  0.387468  0.675548  1
  O  O61  1  0.343265  0.746029  0.834681  1
  O  O62  1  0.492822  0.324925  0.325914  1
  O  O63  1  0.379370  0.523681  0.177844  1
  O  O64  1  0.240122  0.773572  0.078824  1
  O  O65  1  0.233968  0.785632  0.434627  1
  O  O66  1  0.202544  0.787251  0.257119  1
  O  O67  1  0.261064  0.658691  0.665539  1
  O  O68  1  0.482434  0.183986  0.829042  1
  O  O69  1  0.521311  0.096066  0.178304  1
  O  O70  1  0.336389  0.479776  0.822858  1
  O  O71  1  0.320086  0.337197  0.970858  1
  O  O72  1  0.358162  0.319503  0.474057  1
  O  O73  1  0.194818  0.483258  0.328551  1
  O  O74  1  0.377119  0.084677  0.667005  1
  O  O75  1  0.333335  0.187146  0.325788  1
  O  O76  1  0.082502  0.663827  0.159718  1
  O  O77  1  0.011998  0.788930  0.758641  1
  O  O78  1  0.989163  0.752347  0.935629  1
  O  O79  1  0.080371  0.539551  0.670080  1
  O  O80  1  0.182520  0.334993  0.819196  1
  O  O81  1  0.093473  0.383089  0.180969  1
  O  O82  1  0.258277  0.083657  0.167119  1
  O  O83  1  0.250531  0.995651  0.933715  1
  O  O84  1  0.199404  0.014830  0.759812  1
  O  O85  1  0.078882  0.258847  0.659817  1
  O  O86  1  0.980444  0.221709  0.430344  1
  O  O87  1  -0.000030  0.204428  0.249731  1
