# generated using pymatgen
data_LiV(PO3)4
_symmetry_space_group_name_H-M   'P 1'
_cell_length_a   8.12001925
_cell_length_b   8.63728620
_cell_length_c   9.52842144
_cell_angle_alpha   119.24030409
_cell_angle_beta   115.21997242
_cell_angle_gamma   61.96205759
_symmetry_Int_Tables_number   1
_chemical_formula_structural   LiV(PO3)4
_chemical_formula_sum   'Li2 V2 P8 O24'
_cell_volume   497.65429517
_cell_formula_units_Z   2
loop_
 _symmetry_equiv_pos_site_id
 _symmetry_equiv_pos_as_xyz
  1  'x, y, z'
loop_
 _atom_site_type_symbol
 _atom_site_label
 _atom_site_symmetry_multiplicity
 _atom_site_fract_x
 _atom_site_fract_y
 _atom_site_fract_z
 _atom_site_occupancy
  Li  Li0  1  0.000000  0.500000  0.500000  1
  Li  Li1  1  0.000000  0.000000  0.000000  1
  V  V2  1  0.666862  0.750000  0.750000  1
  V  V3  1  0.333138  0.250000  0.250000  1
  P  P4  1  0.696253  0.858067  0.140098  1
  P  P5  1  0.343870  0.810591  0.106783  1
  P  P6  1  0.047678  0.689409  0.393217  1
  P  P7  1  0.414222  0.641933  0.359902  1
  P  P8  1  0.585778  0.358067  0.640098  1
  P  P9  1  0.952322  0.310591  0.606783  1
  P  P10  1  0.656130  0.189409  0.893217  1
  P  P11  1  0.303747  0.141933  0.859902  1
  O  O12  1  0.275233  0.020698  0.209756  1
  O  O13  1  0.782445  0.786081  0.998183  1
  O  O14  1  0.862695  0.810866  0.292572  1
  O  O15  1  0.560788  0.741482  0.091700  1
  O  O16  1  0.410853  0.935237  0.796478  1
  O  O17  1  0.210570  0.758518  0.408300  1
  O  O18  1  0.380990  0.689134  0.207428  1
  O  O19  1  0.018058  0.745302  0.557085  1
  O  O20  1  0.570343  0.713919  0.501817  1
  O  O21  1  0.206274  0.754698  0.942915  1
  O  O22  1  0.086175  0.479302  0.290244  1
  O  O23  1  0.549612  0.564763  0.703522  1
  O  O24  1  0.450388  0.435237  0.296478  1
  O  O25  1  0.913825  0.520698  0.709756  1
  O  O26  1  0.793726  0.245302  0.057085  1
  O  O27  1  0.429657  0.286081  0.498183  1
  O  O28  1  0.981942  0.254698  0.442915  1
  O  O29  1  0.619010  0.310866  0.792572  1
  O  O30  1  0.789430  0.241482  0.591700  1
  O  O31  1  0.589147  0.064763  0.203522  1
  O  O32  1  0.439212  0.258518  0.908300  1
  O  O33  1  0.137305  0.189134  0.707428  1
  O  O34  1  0.217555  0.213919  0.001817  1
  O  O35  1  0.724767  0.979302  0.790244  1
