# generated using pymatgen
data_Ti3Sn7O20
_symmetry_space_group_name_H-M   'P 1'
_cell_length_a   4.77474587
_cell_length_b   4.77474587
_cell_length_c   15.86641251
_cell_angle_alpha   90.00000000
_cell_angle_beta   90.00000000
_cell_angle_gamma   90.04140827
_symmetry_Int_Tables_number   1
_chemical_formula_structural   Ti3Sn7O20
_chemical_formula_sum   'Ti3 Sn7 O20'
_cell_volume   361.72552170
_cell_formula_units_Z   1
loop_
 _symmetry_equiv_pos_site_id
 _symmetry_equiv_pos_as_xyz
  1  'x, y, z'
loop_
 _atom_site_type_symbol
 _atom_site_label
 _atom_site_symmetry_multiplicity
 _atom_site_fract_x
 _atom_site_fract_y
 _atom_site_fract_z
 _atom_site_occupancy
  Ti  Ti0  1  0.000000  0.000000  0.399928  1
  Ti  Ti1  1  0.000000  0.000000  0.800072  1
  Ti  Ti2  1  0.500000  0.500000  0.100000  1
  Sn  Sn3  1  0.000000  0.000000  0.000380  1
  Sn  Sn4  1  0.000000  0.000000  0.199620  1
  Sn  Sn5  1  0.000000  0.000000  0.600000  1
  Sn  Sn6  1  0.500000  0.500000  0.497696  1
  Sn  Sn7  1  0.500000  0.500000  0.299886  1
  Sn  Sn8  1  0.500000  0.500000  0.900114  1
  Sn  Sn9  1  0.500000  0.500000  0.702304  1
  O  O10  1  0.189822  0.810178  0.495374  1
  O  O11  1  0.202953  0.797047  0.100000  1
  O  O12  1  0.190008  0.809992  0.304003  1
  O  O13  1  0.189822  0.810178  0.704626  1
  O  O14  1  0.190008  0.809992  0.895997  1
  O  O15  1  0.310039  0.310039  0.004221  1
  O  O16  1  0.310039  0.310039  0.195779  1
  O  O17  1  0.296875  0.296875  0.800695  1
  O  O18  1  0.296875  0.296875  0.399305  1
  O  O19  1  0.306137  0.306137  0.600000  1
  O  O20  1  0.689961  0.689961  0.004221  1
  O  O21  1  0.689961  0.689961  0.195779  1
  O  O22  1  0.703125  0.703125  0.399305  1
  O  O23  1  0.693863  0.693863  0.600000  1
  O  O24  1  0.703125  0.703125  0.800695  1
  O  O25  1  0.797047  0.202953  0.100000  1
  O  O26  1  0.810178  0.189822  0.495374  1
  O  O27  1  0.809992  0.190008  0.304003  1
  O  O28  1  0.809992  0.190008  0.895997  1
  O  O29  1  0.810178  0.189822  0.704626  1
