# generated using pymatgen
data_Li2VF4
_symmetry_space_group_name_H-M   'P 1'
_cell_length_a   9.76009667
_cell_length_b   3.19269007
_cell_length_c   11.47797016
_cell_angle_alpha   90.59991726
_cell_angle_beta   27.17199128
_cell_angle_gamma   90.56707784
_symmetry_Int_Tables_number   1
_chemical_formula_structural   Li2VF4
_chemical_formula_sum   'Li4 V2 F8'
_cell_volume   163.32313949
_cell_formula_units_Z   2
loop_
 _symmetry_equiv_pos_site_id
 _symmetry_equiv_pos_as_xyz
  1  'x, y, z'
loop_
 _atom_site_type_symbol
 _atom_site_label
 _atom_site_symmetry_multiplicity
 _atom_site_fract_x
 _atom_site_fract_y
 _atom_site_fract_z
 _atom_site_occupancy
  Li  Li0  1  0.685737  0.079061  0.737168  1
  Li  Li1  1  0.313072  0.942923  0.259049  1
  Li  Li2  1  0.685628  0.938449  0.235983  1
  Li  Li3  1  0.313332  0.068061  0.760097  1
  V  V4  1  0.999043  0.565341  0.248318  1
  V  V5  1  0.999900  0.449795  0.747384  1
  F  F6  1  0.001128  0.058528  0.119573  1
  F  F7  1  0.996690  0.068596  0.377413  1
  F  F8  1  0.468349  0.580491  0.897855  1
  F  F9  1  0.001997  0.947818  0.618486  1
  F  F10  1  0.997692  0.955784  0.876206  1
  F  F11  1  0.530487  0.441537  0.096922  1
  F  F12  1  0.469178  0.436135  0.396609  1
  F  F13  1  0.529686  0.570411  0.598076  1
