# generated using pymatgen
data_Hf2N2O
_symmetry_space_group_name_H-M   'P 1'
_cell_length_a   8.70888246
_cell_length_b   8.75294676
_cell_length_c   8.73070569
_cell_angle_alpha   109.65169777
_cell_angle_beta   109.46606308
_cell_angle_gamma   109.35744512
_symmetry_Int_Tables_number   1
_chemical_formula_structural   Hf2N2O
_chemical_formula_sum   'Hf16 N16 O8'
_cell_volume   511.93129030
_cell_formula_units_Z   8
loop_
 _symmetry_equiv_pos_site_id
 _symmetry_equiv_pos_as_xyz
  1  'x, y, z'
loop_
 _atom_site_type_symbol
 _atom_site_label
 _atom_site_symmetry_multiplicity
 _atom_site_fract_x
 _atom_site_fract_y
 _atom_site_fract_z
 _atom_site_occupancy
  Hf  Hf0  1  0.506846  0.002722  0.994752  1
  Hf  Hf1  1  0.959921  0.242126  0.216197  1
  Hf  Hf2  1  0.784099  0.027403  0.743623  1
  Hf  Hf3  1  0.705310  0.456500  0.243499  1
  Hf  Hf4  1  0.756082  0.279163  0.532900  1
  Hf  Hf5  1  0.754429  0.788600  0.031394  1
  Hf  Hf6  1  0.007670  0.513465  0.997170  1
  Hf  Hf7  1  0.491327  0.505760  0.502247  1
  Hf  Hf8  1  0.459429  0.251519  0.718857  1
  Hf  Hf9  1  0.007055  0.008271  0.507707  1
  Hf  Hf10  1  0.530415  0.747219  0.290314  1
  Hf  Hf11  1  0.253232  0.718054  0.468886  1
  Hf  Hf12  1  0.252545  0.217502  0.962381  1
  Hf  Hf13  1  0.283503  0.534034  0.743479  1
  Hf  Hf14  1  0.211467  0.961897  0.254639  1
  Hf  Hf15  1  0.037322  0.751462  0.785648  1
  N  N16  1  0.757861  0.031301  0.486398  1
  N  N17  1  0.740057  0.232875  0.274362  1
  N  N18  1  0.455798  0.463966  0.228472  1
  N  N19  1  0.010383  0.045054  0.274145  1
  N  N20  1  0.225037  0.454752  0.462663  1
  N  N21  1  0.987984  0.953176  0.730610  1
  N  N22  1  0.271643  0.733870  0.223200  1
  N  N23  1  0.510660  0.235480  0.964122  1
  N  N24  1  0.545155  0.532903  0.771440  1
  N  N25  1  0.957990  0.729044  0.991028  1
  N  N26  1  0.533943  0.771393  0.547170  1
  N  N27  1  0.225450  0.273306  0.741488  1
  N  N28  1  0.029884  0.483439  0.758610  1
  N  N29  1  0.725918  0.987421  0.952917  1
  N  N30  1  0.240704  0.968466  0.511241  1
  N  N31  1  0.262676  0.775065  0.732336  1
  O  O32  1  0.276407  0.013680  0.051564  1
  O  O33  1  0.961158  0.512277  0.233447  1
  O  O34  1  0.471361  0.226588  0.453181  1
  O  O35  1  0.771997  0.722276  0.257483  1
  O  O36  1  0.042840  0.275258  0.012295  1
  O  O37  1  0.773321  0.546336  0.534742  1
  O  O38  1  0.726968  0.261832  0.774497  1
  O  O39  1  0.494151  0.764543  0.038889  1
