# generated using pymatgen
data_Na5VO4
_symmetry_space_group_name_H-M   'P 1'
_cell_length_a   10.76935109
_cell_length_b   6.02926663
_cell_length_c   18.21928503
_cell_angle_alpha   90.00000000
_cell_angle_beta   90.00000000
_cell_angle_gamma   90.00000000
_symmetry_Int_Tables_number   1
_chemical_formula_structural   Na5VO4
_chemical_formula_sum   'Na40 V8 O32'
_cell_volume   1183.00166446
_cell_formula_units_Z   8
loop_
 _symmetry_equiv_pos_site_id
 _symmetry_equiv_pos_as_xyz
  1  'x, y, z'
loop_
 _atom_site_type_symbol
 _atom_site_label
 _atom_site_symmetry_multiplicity
 _atom_site_fract_x
 _atom_site_fract_y
 _atom_site_fract_z
 _atom_site_occupancy
  Na  Na0  1  0.062774  0.088696  0.436100  1
  Na  Na1  1  0.062774  0.411304  0.936100  1
  Na  Na2  1  0.075165  0.599525  0.752509  1
  Na  Na3  1  0.075165  0.900475  0.252509  1
  Na  Na4  1  0.167829  0.908284  0.003143  1
  Na  Na5  1  0.167829  0.591716  0.503143  1
  Na  Na6  1  0.177135  0.107908  0.827261  1
  Na  Na7  1  0.177135  0.392092  0.327261  1
  Na  Na8  1  0.195699  0.580401  0.141340  1
  Na  Na9  1  0.195699  0.919599  0.641340  1
  Na  Na10  1  0.304301  0.080401  0.141340  1
  Na  Na11  1  0.304301  0.419599  0.641340  1
  Na  Na12  1  0.322865  0.607908  0.827261  1
  Na  Na13  1  0.322865  0.892092  0.327261  1
  Na  Na14  1  0.332171  0.408284  0.003143  1
  Na  Na15  1  0.332171  0.091716  0.503143  1
  Na  Na16  1  0.424835  0.400475  0.252509  1
  Na  Na17  1  0.424835  0.099525  0.752509  1
  Na  Na18  1  0.437226  0.911304  0.936100  1
  Na  Na19  1  0.437226  0.588696  0.436100  1
  Na  Na20  1  0.562774  0.088696  0.063900  1
  Na  Na21  1  0.562774  0.411304  0.563900  1
  Na  Na22  1  0.575165  0.900475  0.247491  1
  Na  Na23  1  0.575165  0.599525  0.747491  1
  Na  Na24  1  0.667829  0.591716  0.996857  1
  Na  Na25  1  0.667829  0.908284  0.496857  1
  Na  Na26  1  0.677135  0.392092  0.172739  1
  Na  Na27  1  0.677135  0.107908  0.672739  1
  Na  Na28  1  0.695699  0.580401  0.358660  1
  Na  Na29  1  0.695699  0.919599  0.858660  1
  Na  Na30  1  0.804301  0.080401  0.358660  1
  Na  Na31  1  0.804301  0.419599  0.858660  1
  Na  Na32  1  0.822865  0.607908  0.672739  1
  Na  Na33  1  0.822865  0.892092  0.172739  1
  Na  Na34  1  0.832171  0.408284  0.496857  1
  Na  Na35  1  0.832171  0.091716  0.996857  1
  Na  Na36  1  0.924835  0.099525  0.747491  1
  Na  Na37  1  0.924835  0.400475  0.247491  1
  Na  Na38  1  0.937226  0.911304  0.563900  1
  Na  Na39  1  0.937226  0.588696  0.063900  1
  V  V40  1  0.039917  0.172701  0.122311  1
  V  V41  1  0.039917  0.327299  0.622311  1
  V  V42  1  0.460083  0.672701  0.122311  1
  V  V43  1  0.460083  0.827299  0.622311  1
  V  V44  1  0.539917  0.172701  0.377689  1
  V  V45  1  0.539917  0.327299  0.877689  1
  V  V46  1  0.960083  0.672701  0.377689  1
  V  V47  1  0.960083  0.827299  0.877689  1
  O  O48  1  0.047921  0.855346  0.120263  1
  O  O49  1  0.047921  0.644654  0.620263  1
  O  O50  1  0.124234  0.265947  0.212369  1
  O  O51  1  0.124234  0.234053  0.712369  1
  O  O52  1  0.136390  0.307558  0.045375  1
  O  O53  1  0.136390  0.192442  0.545375  1
  O  O54  1  0.134687  0.762341  0.374654  1
  O  O55  1  0.134687  0.737659  0.874654  1
  O  O56  1  0.365313  0.262341  0.374654  1
  O  O57  1  0.365313  0.237659  0.874654  1
  O  O58  1  0.363610  0.807558  0.045375  1
  O  O59  1  0.363610  0.692442  0.545375  1
  O  O60  1  0.375766  0.734053  0.712369  1
  O  O61  1  0.375766  0.765947  0.212369  1
  O  O62  1  0.452078  0.355346  0.120263  1
  O  O63  1  0.452078  0.144654  0.620263  1
  O  O64  1  0.547921  0.855346  0.379737  1
  O  O65  1  0.547921  0.644654  0.879737  1
  O  O66  1  0.624234  0.234053  0.787631  1
  O  O67  1  0.624234  0.265947  0.287631  1
  O  O68  1  0.636390  0.192442  0.954625  1
  O  O69  1  0.636390  0.307558  0.454625  1
  O  O70  1  0.634687  0.762341  0.125346  1
  O  O71  1  0.634687  0.737659  0.625346  1
  O  O72  1  0.865313  0.237659  0.625346  1
  O  O73  1  0.865313  0.262341  0.125346  1
  O  O74  1  0.863610  0.807558  0.454625  1
  O  O75  1  0.863610  0.692442  0.954625  1
  O  O76  1  0.875766  0.734053  0.787631  1
  O  O77  1  0.875766  0.765947  0.287631  1
  O  O78  1  0.952079  0.355346  0.379737  1
  O  O79  1  0.952079  0.144654  0.879737  1
