# generated using pymatgen
data_Mn2CuH12(NO2)4
_symmetry_space_group_name_H-M   'P 1'
_cell_length_a   6.47161448
_cell_length_b   11.74932551
_cell_length_c   10.44462620
_cell_angle_alpha   90.00000000
_cell_angle_beta   87.61743367
_cell_angle_gamma   90.00000000
_symmetry_Int_Tables_number   1
_chemical_formula_structural   Mn2CuH12(NO2)4
_chemical_formula_sum   'Mn4 Cu2 H24 N8 O16'
_cell_volume   793.49259247
_cell_formula_units_Z   2
loop_
 _symmetry_equiv_pos_site_id
 _symmetry_equiv_pos_as_xyz
  1  'x, y, z'
loop_
 _atom_site_type_symbol
 _atom_site_label
 _atom_site_symmetry_multiplicity
 _atom_site_fract_x
 _atom_site_fract_y
 _atom_site_fract_z
 _atom_site_occupancy
  Mn  Mn0  1  0.301965  0.250000  0.671268  1
  Mn  Mn1  1  0.698035  0.750000  0.328732  1
  Mn  Mn2  1  0.392153  0.250000  0.025722  1
  Mn  Mn3  1  0.607847  0.750000  0.974278  1
  Cu  Cu4  1  0.249703  0.250000  0.299317  1
  Cu  Cu5  1  0.750297  0.750000  0.700683  1
  H  H6  1  0.346459  0.921997  0.305741  1
  H  H7  1  0.653541  0.421997  0.694259  1
  H  H8  1  0.653541  0.078003  0.694259  1
  H  H9  1  0.346459  0.578003  0.305741  1
  H  H10  1  0.055570  0.683403  0.555124  1
  H  H11  1  0.944430  0.183403  0.444876  1
  H  H12  1  0.944430  0.316597  0.444876  1
  H  H13  1  0.055570  0.816597  0.555124  1
  H  H14  1  0.256180  0.051834  0.753273  1
  H  H15  1  0.743820  0.551834  0.246727  1
  H  H16  1  0.743820  0.948166  0.246727  1
  H  H17  1  0.256180  0.448166  0.753273  1
  H  H18  1  0.786026  0.184038  0.921681  1
  H  H19  1  0.213974  0.684038  0.078319  1
  H  H20  1  0.213974  0.815962  0.078319  1
  H  H21  1  0.786026  0.315962  0.921681  1
  H  H22  1  0.028240  0.284265  0.647597  1
  H  H23  1  0.971760  0.784265  0.352403  1
  H  H24  1  0.971760  0.715735  0.352403  1
  H  H25  1  0.028240  0.215735  0.647597  1
  H  H26  1  0.200172  0.049535  0.298761  1
  H  H27  1  0.799828  0.549535  0.701239  1
  H  H28  1  0.799828  0.950465  0.701239  1
  H  H29  1  0.200172  0.450465  0.298761  1
  N  N30  1  0.694052  0.869567  0.214890  1
  N  N31  1  0.305948  0.369567  0.785110  1
  N  N32  1  0.305948  0.130433  0.785110  1
  N  N33  1  0.694052  0.630433  0.214890  1
  N  N34  1  0.208520  0.535794  0.322024  1
  N  N35  1  0.791480  0.035794  0.677976  1
  N  N36  1  0.791480  0.464206  0.677976  1
  N  N37  1  0.208520  0.964206  0.322024  1
  O  O38  1  0.925190  0.075676  0.594498  1
  O  O39  1  0.074810  0.575676  0.405502  1
  O  O40  1  0.074810  0.924324  0.405502  1
  O  O41  1  0.925190  0.424324  0.594498  1
  O  O42  1  0.010826  0.750000  0.607404  1
  O  O43  1  0.989174  0.250000  0.392596  1
  O  O44  1  0.542103  0.750000  0.455214  1
  O  O45  1  0.457897  0.250000  0.544786  1
  O  O46  1  0.614482  0.882322  0.100825  1
  O  O47  1  0.385518  0.382322  0.899175  1
  O  O48  1  0.385518  0.117678  0.899175  1
  O  O49  1  0.614482  0.617678  0.100825  1
  O  O50  1  0.472090  0.250000  0.196249  1
  O  O51  1  0.527910  0.750000  0.803751  1
  O  O52  1  0.850539  0.250000  0.880683  1
  O  O53  1  0.149461  0.750000  0.119317  1
