# generated using pymatgen
data_Li5Mn8(BO3)8
_symmetry_space_group_name_H-M   'P 1'
_cell_length_a   5.28695280
_cell_length_b   5.31174004
_cell_length_c   20.26331370
_cell_angle_alpha   89.21798882
_cell_angle_beta   91.47463040
_cell_angle_gamma   61.50782114
_symmetry_Int_Tables_number   1
_chemical_formula_structural   Li5Mn8(BO3)8
_chemical_formula_sum   'Li5 Mn8 B8 O24'
_cell_volume   499.74723927
_cell_formula_units_Z   1
loop_
 _symmetry_equiv_pos_site_id
 _symmetry_equiv_pos_as_xyz
  1  'x, y, z'
loop_
 _atom_site_type_symbol
 _atom_site_label
 _atom_site_symmetry_multiplicity
 _atom_site_fract_x
 _atom_site_fract_y
 _atom_site_fract_z
 _atom_site_occupancy
  Li  Li0  1  0.114821  0.845040  0.338927  1
  Li  Li1  1  0.182551  0.868118  0.578189  1
  Li  Li2  1  0.160107  0.860776  0.082501  1
  Li  Li3  1  0.819476  0.163615  0.947685  1
  Li  Li4  1  0.872722  0.135519  0.711271  1
  Mn  Mn5  1  0.198964  0.493122  0.691150  1
  Mn  Mn6  1  0.162018  0.478405  0.189545  1
  Mn  Mn7  1  0.518166  0.189564  0.562887  1
  Mn  Mn8  1  0.497059  0.183867  0.063516  1
  Mn  Mn9  1  0.465144  0.834025  0.937221  1
  Mn  Mn10  1  0.528519  0.823176  0.439569  1
  Mn  Mn11  1  0.829177  0.521215  0.815248  1
  Mn  Mn12  1  0.799333  0.491000  0.312369  1
  B  B13  1  0.141786  0.502093  0.936679  1
  B  B14  1  0.158510  0.485072  0.437087  1
  B  B15  1  0.509048  0.152996  0.812200  1
  B  B16  1  0.482891  0.150965  0.314608  1
  B  B17  1  0.520981  0.844561  0.689783  1
  B  B18  1  0.497059  0.850094  0.186460  1
  B  B19  1  0.863620  0.508886  0.563398  1
  B  B20  1  0.829184  0.508351  0.062599  1
  O  O21  1  0.098263  0.544492  0.584648  1
  O  O22  1  0.064369  0.534634  0.090913  1
  O  O23  1  0.241340  0.380518  0.793162  1
  O  O24  1  0.110232  0.768746  0.942181  1
  O  O25  1  0.233268  0.390811  0.287330  1
  O  O26  1  0.395475  0.256545  0.956627  1
  O  O27  1  0.371568  0.225034  0.463829  1
  O  O28  1  0.555566  0.078120  0.669728  1
  O  O29  1  0.200957  0.716302  0.431501  1
  O  O30  1  0.490331  0.109553  0.167276  1
  O  O31  1  0.262620  0.847973  0.680817  1
  O  O32  1  0.265056  0.807908  0.178304  1
  O  O33  1  0.754729  0.174180  0.806066  1
  O  O34  1  0.740747  0.139701  0.316348  1
  O  O35  1  0.511975  0.900108  0.834256  1
  O  O36  1  0.446029  0.922140  0.341446  1
  O  O37  1  0.611032  0.756238  0.537872  1
  O  O38  1  0.868554  0.253369  0.568834  1
  O  O39  1  0.577254  0.756078  0.044026  1
  O  O40  1  0.765805  0.597518  0.716935  1
  O  O41  1  0.859193  0.241151  0.051367  1
  O  O42  1  0.756640  0.636854  0.214309  1
  O  O43  1  0.904971  0.464152  0.912246  1
  O  O44  1  0.897507  0.497420  0.415229  1
