# generated using pymatgen
data_Li3Cr4(PO4)6
_symmetry_space_group_name_H-M   'P 1'
_cell_length_a   8.35682842
_cell_length_b   8.63555970
_cell_length_c   11.91805848
_cell_angle_alpha   89.88145094
_cell_angle_beta   89.83822454
_cell_angle_gamma   90.11342187
_symmetry_Int_Tables_number   1
_chemical_formula_structural   Li3Cr4(PO4)6
_chemical_formula_sum   'Li6 Cr8 P12 O48'
_cell_volume   860.07034177
_cell_formula_units_Z   2
loop_
 _symmetry_equiv_pos_site_id
 _symmetry_equiv_pos_as_xyz
  1  'x, y, z'
loop_
 _atom_site_type_symbol
 _atom_site_label
 _atom_site_symmetry_multiplicity
 _atom_site_fract_x
 _atom_site_fract_y
 _atom_site_fract_z
 _atom_site_occupancy
  Li  Li0  1  0.192519  0.786314  0.821867  1
  Li  Li1  1  0.319249  0.284971  0.680745  1
  Li  Li2  1  0.427337  0.594654  0.194761  1
  Li  Li3  1  0.818751  0.211187  0.178748  1
  Li  Li4  1  0.918471  0.909830  0.690806  1
  Li  Li5  1  0.919233  0.500162  0.342246  1
  Cr  Cr6  1  0.253398  0.026045  0.114631  1
  Cr  Cr7  1  0.249068  0.464985  0.886719  1
  Cr  Cr8  1  0.251722  0.526862  0.391074  1
  Cr  Cr9  1  0.256522  0.966829  0.612751  1
  Cr  Cr10  1  0.747444  0.030552  0.385290  1
  Cr  Cr11  1  0.755276  0.472604  0.613214  1
  Cr  Cr12  1  0.753464  0.534343  0.112864  1
  Cr  Cr13  1  0.742571  0.976027  0.890156  1
  P  P14  1  0.032845  0.248785  0.507942  1
  P  P15  1  0.113015  0.381531  0.147107  1
  P  P16  1  0.112482  0.108269  0.857950  1
  P  P17  1  0.392528  0.884454  0.350860  1
  P  P18  1  0.388919  0.608981  0.645090  1
  P  P19  1  0.465573  0.751074  0.991638  1
  P  P20  1  0.534805  0.249888  0.008207  1
  P  P21  1  0.611949  0.388550  0.356837  1
  P  P22  1  0.609910  0.118648  0.645687  1
  P  P23  1  0.886621  0.888535  0.144862  1
  P  P24  1  0.890043  0.617131  0.850208  1
  P  P25  1  0.962003  0.751781  0.491400  1
  O  O26  1  0.057592  0.872149  0.559771  1
  O  O27  1  0.064874  0.893148  0.106961  1
  O  O28  1  0.057339  0.668751  0.398400  1
  O  O29  1  0.070674  0.582948  0.824445  1
  O  O30  1  0.085950  0.365903  0.417627  1
  O  O31  1  0.119286  0.204104  0.158666  1
  O  O32  1  0.128940  0.992720  0.757345  1
  O  O33  1  0.135805  0.428366  0.023674  1
  O  O34  1  0.170122  0.269689  0.818078  1
  O  O35  1  0.180718  0.177940  0.565346  1
  O  O36  1  0.229813  0.473866  0.222459  1
  O  O37  1  0.222654  0.047767  0.951232  1
  O  O38  1  0.276935  0.554700  0.550661  1
  O  O39  1  0.280733  0.977660  0.272631  1
  O  O40  1  0.320860  0.676093  0.931899  1
  O  O41  1  0.334603  0.771565  0.683944  1
  O  O42  1  0.358166  0.919997  0.473154  1
  O  O43  1  0.362217  0.492046  0.742706  1
  O  O44  1  0.376267  0.707614  0.330984  1
  O  O45  1  0.402094  0.861176  0.082609  1
  O  O46  1  0.434019  0.081769  0.678652  1
  O  O47  1  0.431101  0.172200  0.100288  1
  O  O48  1  0.438950  0.383301  0.396840  1
  O  O49  1  0.438246  0.374552  0.945155  1
  O  O50  1  0.553972  0.625727  0.059005  1
  O  O51  1  0.565626  0.606314  0.607253  1
  O  O52  1  0.572230  0.825506  0.899052  1
  O  O53  1  0.567863  0.928827  0.322743  1
  O  O54  1  0.595563  0.137645  0.916524  1
  O  O55  1  0.619795  0.296326  0.658630  1
  O  O56  1  0.628019  0.498386  0.254324  1
  O  O57  1  0.637595  0.073586  0.523371  1
  O  O58  1  0.677108  0.227637  0.318258  1
  O  O59  1  0.682117  0.322368  0.065575  1
  O  O60  1  0.725118  0.025872  0.722982  1
  O  O61  1  0.732180  0.448748  0.446723  1
  O  O62  1  0.776197  0.946849  0.049915  1
  O  O63  1  0.781538  0.522405  0.772045  1
  O  O64  1  0.817028  0.831402  0.438443  1
  O  O65  1  0.840947  0.723628  0.180534  1
  O  O66  1  0.855888  0.577640  0.971544  1
  O  O67  1  0.862780  0.004114  0.242419  1
  O  O68  1  0.877677  0.796530  0.831833  1
  O  O69  1  0.898853  0.641109  0.584105  1
  O  O70  1  0.937320  0.421214  0.184718  1
  O  O71  1  0.928658  0.324055  0.602113  1
  O  O72  1  0.934264  0.109073  0.893567  1
  O  O73  1  0.936781  0.123233  0.445210  1
