# generated using pymatgen
data_LiNbPO5
_symmetry_space_group_name_H-M   'P 1'
_cell_length_a   5.43701573
_cell_length_b   10.70503858
_cell_length_c   7.61866454
_cell_angle_alpha   98.64510414
_cell_angle_beta   69.12774041
_cell_angle_gamma   75.35230748
_symmetry_Int_Tables_number   1
_chemical_formula_structural   LiNbPO5
_chemical_formula_sum   'Li4 Nb4 P4 O20'
_cell_volume   386.43202902
_cell_formula_units_Z   4
loop_
 _symmetry_equiv_pos_site_id
 _symmetry_equiv_pos_as_xyz
  1  'x, y, z'
loop_
 _atom_site_type_symbol
 _atom_site_label
 _atom_site_symmetry_multiplicity
 _atom_site_fract_x
 _atom_site_fract_y
 _atom_site_fract_z
 _atom_site_occupancy
  Li  Li0  1  0.249925  0.251824  0.245705  1
  Li  Li1  1  0.251114  0.249003  0.750920  1
  Li  Li2  1  0.746773  0.750270  0.246114  1
  Li  Li3  1  0.245004  0.750251  0.750989  1
  Nb  Nb4  1  0.499914  0.998901  0.499236  1
  Nb  Nb5  1  0.748752  0.249382  0.251950  1
  Nb  Nb6  1  0.999496  0.499567  0.000796  1
  Nb  Nb7  1  0.748412  0.749505  0.749122  1
  P  P8  1  0.814843  0.061176  0.810518  1
  P  P9  1  0.683891  0.437662  0.690100  1
  P  P10  1  0.310665  0.561738  0.312665  1
  P  P11  1  0.187656  0.937864  0.187836  1
  O  O12  1  0.105654  0.090936  0.202993  1
  O  O13  1  0.673416  0.147530  0.024016  1
  O  O14  1  0.086433  0.092153  0.704634  1
  O  O15  1  0.001908  0.332812  0.085371  1
  O  O16  1  0.606792  0.095679  0.716169  1
  O  O17  1  0.497264  0.166445  0.417461  1
  O  O18  1  0.391929  0.409169  0.301051  1
  O  O19  1  0.828340  0.350356  0.477118  1
  O  O20  1  0.112905  0.591754  0.207257  1
  O  O21  1  0.578719  0.596422  0.217120  1
  O  O22  1  0.411868  0.406071  0.794394  1
  O  O23  1  0.888636  0.403916  0.787189  1
  O  O24  1  0.598324  0.590075  0.702348  1
  O  O25  1  0.153921  0.648128  0.525634  1
  O  O26  1  0.920588  0.903344  0.283035  1
  O  O27  1  0.914090  0.667095  0.917713  1
  O  O28  1  0.386829  0.906317  0.292040  1
  O  O29  1  0.581147  0.831592  0.581258  1
  O  O30  1  0.343226  0.852508  0.973753  1
  O  O31  1  0.899667  0.908260  0.796133  1
