# generated using pymatgen
data_Li2FeBO4
_symmetry_space_group_name_H-M   'P 1'
_cell_length_a   5.81463517
_cell_length_b   5.35830483
_cell_length_c   4.80063149
_cell_angle_alpha   89.99987681
_cell_angle_beta   89.99980033
_cell_angle_gamma   89.99996805
_symmetry_Int_Tables_number   1
_chemical_formula_structural   Li2FeBO4
_chemical_formula_sum   'Li4 Fe2 B2 O8'
_cell_volume   149.57129611
_cell_formula_units_Z   2
loop_
 _symmetry_equiv_pos_site_id
 _symmetry_equiv_pos_as_xyz
  1  'x, y, z'
loop_
 _atom_site_type_symbol
 _atom_site_label
 _atom_site_symmetry_multiplicity
 _atom_site_fract_x
 _atom_site_fract_y
 _atom_site_fract_z
 _atom_site_occupancy
  Li  Li0  1  0.252585  0.336386  0.993389  1
  Li  Li1  1  0.247416  0.663614  0.493392  1
  Li  Li2  1  0.747414  0.336383  0.993392  1
  Li  Li3  1  0.752583  0.663615  0.493390  1
  Fe  Fe4  1  0.000005  0.858119  0.996114  1
  Fe  Fe5  1  0.499991  0.141883  0.496107  1
  B  B6  1  0.000004  0.172241  0.502401  1
  B  B7  1  0.499996  0.827766  0.002415  1
  O  O8  1  0.999996  0.168237  0.812340  1
  O  O9  1  -0.000004  0.908363  0.393305  1
  O  O10  1  0.287128  0.693794  0.904528  1
  O  O11  1  0.212867  0.306206  0.404525  1
  O  O12  1  0.499999  0.091637  0.893304  1
  O  O13  1  0.500002  0.831768  0.312343  1
  O  O14  1  0.787141  0.306202  0.404531  1
  O  O15  1  0.712876  0.693785  0.904528  1
