# generated using pymatgen
data_Hf2N2O
_symmetry_space_group_name_H-M   'P 1'
_cell_length_a   8.73681303
_cell_length_b   8.74617167
_cell_length_c   8.71451777
_cell_angle_alpha   109.39608465
_cell_angle_beta   109.41154887
_cell_angle_gamma   109.66879044
_symmetry_Int_Tables_number   1
_chemical_formula_structural   Hf2N2O
_chemical_formula_sum   'Hf16 N16 O8'
_cell_volume   512.21622609
_cell_formula_units_Z   8
loop_
 _symmetry_equiv_pos_site_id
 _symmetry_equiv_pos_as_xyz
  1  'x, y, z'
loop_
 _atom_site_type_symbol
 _atom_site_label
 _atom_site_symmetry_multiplicity
 _atom_site_fract_x
 _atom_site_fract_y
 _atom_site_fract_z
 _atom_site_occupancy
  Hf  Hf0  1  0.500318  0.007532  0.998800  1
  Hf  Hf1  1  0.748910  0.285528  0.536460  1
  Hf  Hf2  1  0.215379  0.964902  0.251462  1
  Hf  Hf3  1  0.720084  0.460365  0.242893  1
  Hf  Hf4  1  0.244548  0.212339  0.950135  1
  Hf  Hf5  1  0.966923  0.255601  0.225922  1
  Hf  Hf6  1  0.035792  0.748194  0.781048  1
  Hf  Hf7  1  0.531824  0.744532  0.290479  1
  Hf  Hf8  1  0.493424  0.497717  0.510113  1
  Hf  Hf9  1  0.998351  0.508551  0.996954  1
  Hf  Hf10  1  0.000474  0.999622  0.498108  1
  Hf  Hf11  1  0.472167  0.259338  0.718019  1
  Hf  Hf12  1  0.759926  0.784752  0.044976  1
  Hf  Hf13  1  0.781591  0.030868  0.747699  1
  Hf  Hf14  1  0.282545  0.537221  0.747792  1
  Hf  Hf15  1  0.250354  0.709021  0.463113  1
  N  N16  1  0.508476  0.237661  0.968296  1
  N  N17  1  0.737807  0.221874  0.274028  1
  N  N18  1  0.727186  0.253997  0.772693  1
  N  N19  1  0.768114  0.726341  0.262240  1
  N  N20  1  0.464075  0.227978  0.451941  1
  N  N21  1  0.012103  0.045672  0.273812  1
  N  N22  1  0.276466  0.740802  0.225822  1
  N  N23  1  0.966389  0.510507  0.237145  1
  N  N24  1  0.228675  0.456336  0.467509  1
  N  N25  1  0.955814  0.728493  0.986768  1
  N  N26  1  0.988373  0.954858  0.728107  1
  N  N27  1  0.224674  0.271815  0.737012  1
  N  N28  1  0.547813  0.537430  0.775639  1
  N  N29  1  0.540288  0.771881  0.545434  1
  N  N30  1  0.030473  0.487562  0.756472  1
  N  N31  1  0.266367  0.780491  0.730156  1
  O  O32  1  0.725593  0.990700  0.954368  1
  O  O33  1  0.274213  0.007689  0.044930  1
  O  O34  1  0.761905  0.033865  0.488158  1
  O  O35  1  0.493352  0.768289  0.037391  1
  O  O36  1  0.771024  0.544418  0.529664  1
  O  O37  1  0.048324  0.269049  0.016668  1
  O  O38  1  0.446136  0.462859  0.223929  1
  O  O39  1  0.233752  0.963346  0.507848  1
