# generated using pymatgen
data_V5Cr(PO4)6
_symmetry_space_group_name_H-M   'P 1'
_cell_length_a   8.53520629
_cell_length_b   8.60642792
_cell_length_c   8.60642833
_cell_angle_alpha   59.99999827
_cell_angle_beta   59.72357790
_cell_angle_gamma   59.72357879
_symmetry_Int_Tables_number   1
_chemical_formula_structural   V5Cr(PO4)6
_chemical_formula_sum   'V5 Cr1 P6 O24'
_cell_volume   445.16159351
_cell_formula_units_Z   1
loop_
 _symmetry_equiv_pos_site_id
 _symmetry_equiv_pos_as_xyz
  1  'x, y, z'
loop_
 _atom_site_type_symbol
 _atom_site_label
 _atom_site_symmetry_multiplicity
 _atom_site_fract_x
 _atom_site_fract_y
 _atom_site_fract_z
 _atom_site_occupancy
  V  V0  1  0.000721  -0.000240  -0.000240  1
  V  V1  1  0.070368  0.643210  0.643210  1
  V  V2  1  0.497417  0.500861  0.500861  1
  V  V3  1  0.428928  0.857024  0.857024  1
  V  V4  1  0.930343  0.356552  0.356552  1
  Cr  Cr5  1  0.574840  0.141720  0.141720  1
  P  P6  1  0.251595  0.250604  0.540806  1
  P  P7  1  0.251595  0.956995  0.250604  1
  P  P8  1  0.251595  0.540806  0.956995  1
  P  P9  1  0.750675  0.455581  0.043567  1
  P  P10  1  0.750675  0.043567  0.750176  1
  P  P11  1  0.750675  0.750176  0.455581  1
  O  O12  1  0.066201  0.116287  0.315919  1
  O  O13  1  0.066201  0.501594  0.116287  1
  O  O14  1  0.066201  0.315919  0.501594  1
  O  O15  1  0.225970  0.090051  0.741463  1
  O  O16  1  0.434110  0.187017  0.385762  1
  O  O17  1  0.269947  0.409777  0.561918  1
  O  O18  1  0.225970  0.942515  0.090051  1
  O  O19  1  0.269947  0.758358  0.409777  1
  O  O20  1  0.566454  0.613511  0.004936  1
  O  O21  1  0.269947  0.561918  0.758358  1
  O  O22  1  0.773875  0.257228  0.058760  1
  O  O23  1  0.566454  0.004936  0.815099  1
  O  O24  1  0.434110  0.993110  0.187017  1
  O  O25  1  0.225970  0.741463  0.942515  1
  O  O26  1  0.729429  0.438747  0.243425  1
  O  O27  1  0.434110  0.385762  0.993110  1
  O  O28  1  0.729429  0.243425  0.588400  1
  O  O29  1  0.773875  0.058760  0.910136  1
  O  O30  1  0.729429  0.588400  0.438747  1
  O  O31  1  0.566454  0.815099  0.613511  1
  O  O32  1  0.773875  0.910136  0.257228  1
  O  O33  1  0.930871  0.682284  0.497905  1
  O  O34  1  0.930871  0.497905  0.888941  1
  O  O35  1  0.930871  0.888941  0.682284  1
