# generated using pymatgen
data_LiFePO4
_symmetry_space_group_name_H-M   'P 1'
_cell_length_a   18.73264522
_cell_length_b   5.62009735
_cell_length_c   8.37811639
_cell_angle_alpha   89.99998185
_cell_angle_beta   89.99181290
_cell_angle_gamma   90.00063778
_symmetry_Int_Tables_number   1
_chemical_formula_structural   LiFePO4
_chemical_formula_sum   'Li12 Fe12 P12 O48'
_cell_volume   882.04213407
_cell_formula_units_Z   12
loop_
 _symmetry_equiv_pos_site_id
 _symmetry_equiv_pos_as_xyz
  1  'x, y, z'
loop_
 _atom_site_type_symbol
 _atom_site_label
 _atom_site_symmetry_multiplicity
 _atom_site_fract_x
 _atom_site_fract_y
 _atom_site_fract_z
 _atom_site_occupancy
  Li  Li0  1  0.582633  0.244978  0.416062  1
  Li  Li1  1  0.249153  0.229536  0.412884  1
  Li  Li2  1  0.917342  0.744964  0.916089  1
  Li  Li3  1  0.915686  0.231921  0.413801  1
  Li  Li4  1  0.749173  0.229555  0.087024  1
  Li  Li5  1  0.415722  0.231909  0.086254  1
  Li  Li6  1  0.250813  0.729542  0.912981  1
  Li  Li7  1  0.084322  0.731917  0.586200  1
  Li  Li8  1  0.417370  0.744959  0.583878  1
  Li  Li9  1  0.584276  0.731925  0.913784  1
  Li  Li10  1  0.750852  0.729536  0.587098  1
  Li  Li11  1  0.082653  0.244974  0.083914  1
  Fe  Fe12  1  0.166558  0.236168  0.748749  1
  Fe  Fe13  1  0.666561  0.236230  0.751214  1
  Fe  Fe14  1  0.833266  0.236702  0.752049  1
  Fe  Fe15  1  0.666706  0.736758  0.252034  1
  Fe  Fe16  1  0.166716  0.736741  0.247974  1
  Fe  Fe17  1  0.999795  0.234827  0.749031  1
  Fe  Fe18  1  0.333437  0.736141  0.248707  1
  Fe  Fe19  1  0.500204  0.734846  0.249113  1
  Fe  Fe20  1  0.000219  0.734852  0.250967  1
  Fe  Fe21  1  0.833428  0.736191  0.251254  1
  Fe  Fe22  1  0.333260  0.236727  0.748027  1
  Fe  Fe23  1  0.499814  0.234785  0.750928  1
  P  P24  1  0.749646  0.237806  0.401984  1
  P  P25  1  0.249504  0.237778  0.098034  1
  P  P26  1  0.416405  0.236248  0.399666  1
  P  P27  1  0.916263  0.236264  0.100304  1
  P  P28  1  0.582726  0.233890  0.101063  1
  P  P29  1  0.082855  0.233908  0.398925  1
  P  P30  1  0.417300  0.733882  0.898953  1
  P  P31  1  0.583623  0.736271  0.600341  1
  P  P32  1  0.750429  0.737798  0.901993  1
  P  P33  1  0.917164  0.733872  0.601074  1
  P  P34  1  0.083769  0.736257  0.899645  1
  P  P35  1  0.250313  0.737785  0.598007  1
  O  O36  1  0.250253  0.515519  0.712852  1
  O  O37  1  0.916756  0.458244  0.214916  1
  O  O38  1  0.250058  0.961501  0.710932  1
  O  O39  1  0.014633  0.233363  0.502325  1
  O  O40  1  0.583211  0.958226  0.714911  1
  O  O41  1  0.416841  0.511305  0.785189  1
  O  O42  1  0.514661  0.233364  0.997742  1
  O  O43  1  0.682603  0.736164  0.006019  1
  O  O44  1  0.083254  0.958220  0.785090  1
  O  O45  1  0.416820  0.458211  0.285102  1
  O  O46  1  0.848125  0.236837  0.997994  1
  O  O47  1  0.650466  0.235990  0.996752  1
  O  O48  1  0.318376  0.737877  0.494679  1
  O  O49  1  0.083222  0.011337  0.285198  1
  O  O50  1  0.651928  0.736834  0.497938  1
  O  O51  1  0.583168  0.011360  0.214820  1
  O  O52  1  0.749739  0.015522  0.287131  1
  O  O53  1  0.349541  0.735979  0.003227  1
  O  O54  1  0.916787  0.511319  0.714788  1
  O  O55  1  0.818341  0.737887  0.005221  1
  O  O56  1  0.985370  0.733363  0.497694  1
  O  O57  1  0.485340  0.733363  0.002256  1
  O  O58  1  0.150446  0.235978  0.503190  1
  O  O59  1  0.583365  0.512294  0.713601  1
  O  O60  1  0.983886  0.235466  0.995373  1
  O  O61  1  0.181652  0.237882  0.994767  1
  O  O62  1  0.749938  0.461515  0.289046  1
  O  O63  1  0.417100  0.957198  0.784924  1
  O  O64  1  0.483858  0.235457  0.504574  1
  O  O65  1  0.750078  0.961477  0.789074  1
  O  O66  1  0.582912  0.457233  0.215064  1
  O  O67  1  0.849554  0.735979  0.496838  1
  O  O68  1  0.182648  0.736166  0.494071  1
  O  O69  1  0.516160  0.735465  0.495453  1
  O  O70  1  0.249888  0.461462  0.210929  1
  O  O71  1  0.083412  0.512291  0.786401  1
  O  O72  1  0.917045  0.957210  0.715049  1
  O  O73  1  0.817337  0.236173  0.505965  1
  O  O74  1  0.348080  0.236825  0.502077  1
  O  O75  1  0.151882  0.736841  0.001996  1
  O  O76  1  0.249683  0.015475  0.212809  1
  O  O77  1  0.082969  0.457192  0.284953  1
  O  O78  1  0.016113  0.735459  0.004636  1
  O  O79  1  0.317396  0.236158  0.993986  1
  O  O80  1  0.681609  0.237891  0.505242  1
  O  O81  1  0.750283  0.515482  0.787180  1
  O  O82  1  0.916597  0.012292  0.213605  1
  O  O83  1  0.416660  0.012272  0.286417  1
