# generated using pymatgen
data_Mn6O5F7
_symmetry_space_group_name_H-M   'P 1'
_cell_length_a   5.76146139
_cell_length_b   5.11292102
_cell_length_c   14.52533048
_cell_angle_alpha   93.43635211
_cell_angle_beta   90.89496443
_cell_angle_gamma   90.11610200
_symmetry_Int_Tables_number   1
_chemical_formula_structural   Mn6O5F7
_chemical_formula_sum   'Mn12 O10 F14'
_cell_volume   427.06236587
_cell_formula_units_Z   2
loop_
 _symmetry_equiv_pos_site_id
 _symmetry_equiv_pos_as_xyz
  1  'x, y, z'
loop_
 _atom_site_type_symbol
 _atom_site_label
 _atom_site_symmetry_multiplicity
 _atom_site_fract_x
 _atom_site_fract_y
 _atom_site_fract_z
 _atom_site_occupancy
  Mn  Mn0  1  0.121912  0.954739  0.004500  1
  Mn  Mn1  1  0.866332  0.485648  0.166284  1
  Mn  Mn2  1  0.061077  0.032921  0.342108  1
  Mn  Mn3  1  0.115674  0.491136  0.502489  1
  Mn  Mn4  1  0.883761  0.008378  0.661930  1
  Mn  Mn5  1  0.094228  0.524175  0.833094  1
  Mn  Mn6  1  0.579077  0.991848  0.160565  1
  Mn  Mn7  1  0.428362  0.457766  0.005242  1
  Mn  Mn8  1  0.540566  0.481110  0.662599  1
  Mn  Mn9  1  0.447500  0.961174  0.495705  1
  Mn  Mn10  1  0.440137  0.518137  0.332354  1
  Mn  Mn11  1  0.415038  0.054373  0.838653  1
  O  O12  1  0.218726  0.736660  0.413298  1
  O  O13  1  0.195288  0.265374  0.920111  1
  O  O14  1  0.367659  0.143566  0.075786  1
  O  O15  1  0.355615  0.665591  0.574665  1
  O  O16  1  0.347653  0.768262  0.927988  1
  O  O17  1  0.335532  0.339996  0.761995  1
  O  O18  1  0.353076  0.235705  0.410209  1
  O  O19  1  0.616368  0.159896  0.592682  1
  O  O20  1  0.630173  0.319070  0.235454  1
  O  O21  1  0.629693  0.652539  0.093140  1
  F  F22  1  0.104099  0.347935  0.249947  1
  F  F23  1  0.113827  0.628780  0.087898  1
  F  F24  1  0.125857  0.178494  0.577638  1
  F  F25  1  0.102362  0.840753  0.756195  1
  F  F26  1  0.367122  0.817405  0.252693  1
  F  F27  1  0.657092  0.263602  0.917320  1
  F  F28  1  0.683408  0.783206  0.404667  1
  F  F29  1  0.596507  0.831255  0.746084  1
  F  F30  1  0.884464  0.310084  0.425174  1
  F  F31  1  0.881601  0.131352  0.080041  1
  F  F32  1  0.832136  0.352006  0.743288  1
  F  F33  1  0.849194  0.658627  0.590635  1
  F  F34  1  0.903701  0.751367  0.920478  1
  F  F35  1  0.855183  0.857068  0.237093  1
