# generated using pymatgen
data_Li2MnV(P2O7)2
_symmetry_space_group_name_H-M   'P 1'
_cell_length_a   4.86871576
_cell_length_b   8.29607179
_cell_length_c   20.11759438
_cell_angle_alpha   90.46390394
_cell_angle_beta   95.43962161
_cell_angle_gamma   89.76541316
_symmetry_Int_Tables_number   1
_chemical_formula_structural   Li2MnV(P2O7)2
_chemical_formula_sum   'Li6 Mn3 V3 P12 O42'
_cell_volume   808.88375049
_cell_formula_units_Z   3
loop_
 _symmetry_equiv_pos_site_id
 _symmetry_equiv_pos_as_xyz
  1  'x, y, z'
loop_
 _atom_site_type_symbol
 _atom_site_label
 _atom_site_symmetry_multiplicity
 _atom_site_fract_x
 _atom_site_fract_y
 _atom_site_fract_z
 _atom_site_occupancy
  Li  Li0  1  0.051130  0.359524  0.775310  1
  Li  Li1  1  0.281528  0.859832  0.890830  1
  Li  Li2  1  0.381639  0.360057  0.442066  1
  Li  Li3  1  0.616338  0.862125  0.558112  1
  Li  Li4  1  0.714364  0.361504  0.107913  1
  Li  Li5  1  0.951519  0.862251  0.225274  1
  Mn  Mn6  1  0.029454  0.997162  0.756622  1
  Mn  Mn7  1  0.303871  0.497084  0.909524  1
  Mn  Mn8  1  0.361223  -0.000845  0.423167  1
  V  V9  1  0.638583  0.499254  0.575883  1
  V  V10  1  0.694484  0.001195  0.090360  1
  V  V11  1  0.972402  0.501072  0.242977  1
  P  P12  1  0.150656  0.286954  0.637527  1
  P  P13  1  0.107726  0.679867  0.494014  1
  P  P14  1  0.226268  0.180450  0.174369  1
  P  P15  1  0.183591  0.787180  0.029220  1
  P  P16  1  0.560661  0.176345  0.838781  1
  P  P17  1  0.518194  0.783473  0.696208  1
  P  P18  1  0.484442  0.287852  0.304443  1
  P  P19  1  0.440721  0.681849  0.158911  1
  P  P20  1  0.815874  0.284019  0.970780  1
  P  P21  1  0.772835  0.677307  0.827990  1
  P  P22  1  0.893933  0.178691  0.507459  1
  P  P23  1  0.850857  0.784296  0.362487  1
  O  O24  1  0.105952  0.325157  0.951988  1
  O  O25  1  0.014121  0.152804  0.584201  1
  O  O26  1  0.164247  0.702908  0.961571  1
  O  O27  1  0.169108  0.202897  0.704669  1
  O  O28  1  0.034381  0.934145  0.360834  1
  O  O29  1  0.227147  0.825399  0.714917  1
  O  O30  1  0.138785  0.176722  0.463942  1
  O  O31  1  0.025276  0.039532  0.160709  1
  O  O32  1  0.079190  0.344351  0.168925  1
  O  O33  1  0.361832  0.032773  0.827206  1
  O  O34  1  0.252821  0.842229  0.501929  1
  O  O35  1  0.417392  0.339471  0.831646  1
  O  O36  1  0.306152  0.536217  0.505634  1
  O  O37  1  0.194169  0.678264  0.201520  1
  O  O38  1  0.295202  0.437093  0.304213  1
  O  O39  1  0.524006  0.671955  0.870036  1
  O  O40  1  0.432595  0.327721  0.615297  1
  O  O41  1  0.345812  0.154106  0.251367  1
  O  O42  1  0.629998  0.433982  0.972336  1
  O  O43  1  0.504563  0.693715  0.629645  1
  O  O44  1  0.321846  0.654115  0.081879  1
  O  O45  1  0.680522  0.153884  0.916301  1
  O  O46  1  0.503448  0.204657  0.371783  1
  O  O47  1  0.370599  0.936035  0.029801  1
  O  O48  1  0.653136  0.654088  0.750201  1
  O  O49  1  0.560318  0.824746  0.381366  1
  O  O50  1  0.472483  0.177077  0.131894  1
  O  O51  1  0.703197  0.933335  0.695088  1
  O  O52  1  0.810546  0.170920  0.796620  1
  O  O53  1  0.695272  0.036150  0.494165  1
  O  O54  1  0.586774  0.845097  0.164109  1
  O  O55  1  0.747364  0.342318  0.502636  1
  O  O56  1  0.642079  0.539704  0.172188  1
  O  O57  1  0.915787  0.839936  0.835403  1
  O  O58  1  0.971028  0.533161  0.839174  1
  O  O59  1  0.856910  0.674094  0.535027  1
  O  O60  1  0.766053  0.327181  0.281716  1
  O  O61  1  0.961988  0.435971  0.637318  1
  O  O62  1  0.836385  0.695469  0.295641  1
  O  O63  1  0.829076  0.195502  0.037064  1
  O  O64  1  0.988967  0.655592  0.416166  1
  O  O65  1  0.901186  0.827765  0.051650  1
