# generated using pymatgen
data_Li4Fe3NiO8
_symmetry_space_group_name_H-M   'P 1'
_cell_length_a   10.41454390
_cell_length_b   10.35037309
_cell_length_c   14.70095819
_cell_angle_alpha   19.23253068
_cell_angle_beta   19.21379332
_cell_angle_gamma   33.12137301
_symmetry_Int_Tables_number   1
_chemical_formula_structural   Li4Fe3NiO8
_chemical_formula_sum   'Li4 Fe3 Ni1 O8'
_cell_volume   148.88268693
_cell_formula_units_Z   1
loop_
 _symmetry_equiv_pos_site_id
 _symmetry_equiv_pos_as_xyz
  1  'x, y, z'
loop_
 _atom_site_type_symbol
 _atom_site_label
 _atom_site_symmetry_multiplicity
 _atom_site_fract_x
 _atom_site_fract_y
 _atom_site_fract_z
 _atom_site_occupancy
  Li  Li0  1  0.999993  0.999996  0.500007  1
  Li  Li1  1  0.999991  0.499999  0.500006  1
  Li  Li2  1  0.499992  0.000004  0.500003  1
  Li  Li3  1  0.499997  0.500006  0.499998  1
  Fe  Fe4  1  0.000012  0.499995  -0.000003  1
  Fe  Fe5  1  0.500010  0.000007  -0.000012  1
  Fe  Fe6  1  0.500009  0.500001  0.999991  1
  Ni  Ni7  1  -0.000001  0.000001  -0.000001  1
  O  O8  1  0.001978  -0.000718  0.255054  1
  O  O9  1  0.001083  0.501463  0.256355  1
  O  O10  1  0.492442  0.997540  0.263415  1
  O  O11  1  0.998017  0.000715  0.744952  1
  O  O12  1  0.505305  0.503373  0.251456  1
  O  O13  1  0.998915  0.498540  0.743645  1
  O  O14  1  0.507558  0.002460  0.736587  1
  O  O15  1  0.494699  0.496619  0.748545  1
