# generated using pymatgen
data_CoP2H24C8S4NClO4
_symmetry_space_group_name_H-M   'P 1'
_cell_length_a   7.33007125
_cell_length_b   8.78068883
_cell_length_c   16.83196820
_cell_angle_alpha   84.83082943
_cell_angle_beta   84.51902147
_cell_angle_gamma   89.90307032
_symmetry_Int_Tables_number   1
_chemical_formula_structural   CoP2H24C8S4NClO4
_chemical_formula_sum   'Co2 P4 H48 C16 S8 N2 Cl2 O8'
_cell_volume   1073.99211353
_cell_formula_units_Z   2
loop_
 _symmetry_equiv_pos_site_id
 _symmetry_equiv_pos_as_xyz
  1  'x, y, z'
loop_
 _atom_site_type_symbol
 _atom_site_label
 _atom_site_symmetry_multiplicity
 _atom_site_fract_x
 _atom_site_fract_y
 _atom_site_fract_z
 _atom_site_occupancy
  Co  Co0  1  0.750481  0.177520  0.755476  1
  Co  Co1  1  0.249519  0.822480  0.244524  1
  P  P2  1  0.818526  0.327928  0.903121  1
  P  P3  1  0.181474  0.672072  0.096879  1
  P  P4  1  0.730798  0.229841  0.574247  1
  P  P5  1  0.269202  0.770159  0.425753  1
  H  H6  1  0.669269  0.050718  0.956431  1
  H  H7  1  0.330731  0.949282  0.043569  1
  H  H8  1  0.618562  0.081486  0.060331  1
  H  H9  1  0.381438  0.918514  0.939669  1
  H  H10  1  0.845468  0.027321  0.024097  1
  H  H11  1  0.154531  0.972679  0.975903  1
  H  H12  1  0.628423  0.609958  0.933362  1
  H  H13  1  0.371577  0.390042  0.066638  1
  H  H14  1  0.722971  0.548645  0.026043  1
  H  H15  1  0.277029  0.451355  0.973957  1
  H  H16  1  0.824941  0.705777  0.961799  1
  H  H17  1  0.175059  0.294223  0.038201  1
  H  H18  1  0.864225  0.546314  0.554965  1
  H  H19  1  0.135775  0.453686  0.445035  1
  H  H20  1  0.617181  0.543099  0.565547  1
  H  H21  1  0.382819  0.456901  0.434453  1
  H  H22  1  0.739551  0.599105  0.469743  1
  H  H23  1  0.260449  0.400895  0.530257  1
  H  H24  1  0.734692  0.874565  0.490687  1
  H  H25  1  0.265308  0.125435  0.509313  1
  H  H26  1  0.849213  0.910063  0.577357  1
  H  H27  1  0.150787  0.089937  0.422643  1
  H  H28  1  0.602908  0.919939  0.581515  1
  H  H29  1  0.397092  0.080061  0.418485  1
  H  H30  1  0.495011  0.295924  0.287402  1
  H  H31  1  0.504989  0.704076  0.712598  1
  H  H32  1  0.612917  0.476295  0.284859  1
  H  H33  1  0.387083  0.523705  0.715141  1
  H  H34  1  0.620293  0.338156  0.370239  1
  H  H35  1  0.379707  0.661844  0.629761  1
  H  H36  1  0.948082  0.344301  0.355342  1
  H  H37  1  0.051918  0.655699  0.644658  1
  H  H38  1  0.072725  0.306596  0.261500  1
  H  H39  1  0.927275  0.693404  0.738500  1
  H  H40  1  0.948126  0.482898  0.269713  1
  H  H41  1  0.051874  0.517102  0.730287  1
  H  H42  1  0.664457  0.062775  0.276323  1
  H  H43  1  0.335543  0.937225  0.723677  1
  H  H44  1  0.788693  0.104333  0.359019  1
  H  H45  1  0.211307  0.895667  0.640981  1
  H  H46  1  0.912737  0.068481  0.265268  1
  H  H47  1  0.087263  0.931519  0.734732  1
  H  H48  1  0.654871  0.253607  0.162066  1
  H  H49  1  0.345129  0.746393  0.837934  1
  H  H50  1  0.901956  0.247032  0.150403  1
  H  H51  1  0.098044  0.752968  0.849597  1
  H  H52  1  0.788466  0.427068  0.158003  1
  H  H53  1  0.211534  0.572932  0.841997  1
  C  C54  1  0.723486  0.092727  0.009134  1
  C  C55  1  0.276514  0.907273  0.990866  1
  C  C56  1  0.754541  0.595380  0.963587  1
  C  C57  1  0.245459  0.404620  0.036413  1
  C  C58  1  0.740624  0.524170  0.525426  1
  C  C59  1  0.259376  0.475830  0.474574  1
  C  C60  1  0.732049  0.940448  0.543137  1
  C  C61  1  0.267951  0.059552  0.456863  1
  C  C62  1  0.614984  0.354097  0.305177  1
  C  C63  1  0.385016  0.645903  0.694823  1
  C  C64  1  0.951471  0.360474  0.289917  1
  C  C65  1  0.048529  0.639526  0.710083  1
  C  C66  1  0.787672  0.116752  0.293555  1
  C  C67  1  0.212328  0.883248  0.706445  1
  C  C68  1  0.781893  0.304450  0.177226  1
  C  C69  1  0.218107  0.695550  0.822774  1
  S  S70  1  0.591350  0.331563  0.843171  1
  S  S71  1  0.408650  0.668437  0.156829  1
  S  S72  1  0.020988  0.225225  0.843464  1
  S  S73  1  0.979012  0.774775  0.156536  1
  S  S74  1  0.949170  0.229442  0.638804  1
  S  S75  1  0.050830  0.770558  0.361196  1
  S  S76  1  0.502551  0.222789  0.647007  1
  S  S77  1  0.497449  0.777211  0.352993  1
  N  N78  1  0.783923  0.284415  0.266538  1
  N  N79  1  0.216077  0.715585  0.733462  1
  Cl  Cl80  1  0.695644  0.922998  0.790542  1
  Cl  Cl81  1  0.304356  0.077002  0.209458  1
  O  O82  1  0.771479  0.253800  0.994385  1
  O  O83  1  0.228521  0.746200  0.005615  1
  O  O84  1  0.880413  0.495831  0.920874  1
  O  O85  1  0.119587  0.504169  0.079126  1
  O  O86  1  0.742570  0.368747  0.503245  1
  O  O87  1  0.257430  0.631253  0.496755  1
  O  O88  1  0.745435  0.099543  0.511809  1
  O  O89  1  0.254565  0.900457  0.488191  1
