# generated using pymatgen
data_Li4Mn3OF11
_symmetry_space_group_name_H-M   'P 1'
_cell_length_a   5.78016853
_cell_length_b   6.16221707
_cell_length_c   6.11854639
_cell_angle_alpha   98.59381426
_cell_angle_beta   97.57975299
_cell_angle_gamma   98.49451202
_symmetry_Int_Tables_number   1
_chemical_formula_structural   Li4Mn3OF11
_chemical_formula_sum   'Li4 Mn3 O1 F11'
_cell_volume   210.46517694
_cell_formula_units_Z   1
loop_
 _symmetry_equiv_pos_site_id
 _symmetry_equiv_pos_as_xyz
  1  'x, y, z'
loop_
 _atom_site_type_symbol
 _atom_site_label
 _atom_site_symmetry_multiplicity
 _atom_site_fract_x
 _atom_site_fract_y
 _atom_site_fract_z
 _atom_site_occupancy
  Li  Li0  1  0.009739  0.978002  0.003036  1
  Li  Li1  1  0.877957  0.673625  0.397764  1
  Li  Li2  1  0.706762  0.392747  0.905995  1
  Li  Li3  1  0.581680  0.137033  0.272079  1
  Mn  Mn4  1  0.404241  0.848822  0.636839  1
  Mn  Mn5  1  0.287059  0.594303  0.134630  1
  Mn  Mn6  1  0.103221  0.317129  0.581948  1
  O  O7  1  0.224229  0.593509  0.428392  1
  F  F8  1  0.096625  0.888221  0.702928  1
  F  F9  1  0.311891  0.923109  0.154882  1
  F  F10  1  0.647710  0.852889  0.457323  1
  F  F11  1  0.100577  0.287661  0.897758  1
  F  F12  1  0.406436  0.603076  0.848071  1
  F  F13  1  0.539755  0.420142  0.182706  1
  F  F14  1  0.935236  0.647894  0.074841  1
  F  F15  1  0.374900  0.195669  0.550662  1
  F  F16  1  0.829004  0.437670  0.608781  1
  F  F17  1  0.625152  0.047377  0.871098  1
  F  F18  1  0.937828  0.161123  0.290268  1
