# generated using pymatgen
data_Li2Si12(NiO6)5
_symmetry_space_group_name_H-M   'P 1'
_cell_length_a   10.15020302
_cell_length_b   10.15066434
_cell_length_c   14.38804151
_cell_angle_alpha   90.00044391
_cell_angle_beta   90.00050747
_cell_angle_gamma   120.00224535
_symmetry_Int_Tables_number   1
_chemical_formula_structural   Li2Si12(NiO6)5
_chemical_formula_sum   'Li4 Si24 Ni10 O60'
_cell_volume   1283.78318412
_cell_formula_units_Z   2
loop_
 _symmetry_equiv_pos_site_id
 _symmetry_equiv_pos_as_xyz
  1  'x, y, z'
loop_
 _atom_site_type_symbol
 _atom_site_label
 _atom_site_symmetry_multiplicity
 _atom_site_fract_x
 _atom_site_fract_y
 _atom_site_fract_z
 _atom_site_occupancy
  Li  Li0  1  0.333319  0.666737  0.000020  1
  Li  Li1  1  0.999987  0.999971  0.749959  1
  Li  Li2  1  0.000004  0.000022  0.250028  1
  Li  Li3  1  0.666690  0.333419  0.499993  1
  Si  Si4  1  0.114643  0.759620  0.610835  1
  Si  Si5  1  0.114631  0.759636  0.389166  1
  Si  Si6  1  0.237457  0.882975  0.110602  1
  Si  Si7  1  0.237431  0.882944  0.889373  1
  Si  Si8  1  0.117023  0.354474  0.110614  1
  Si  Si9  1  0.117020  0.354496  0.889380  1
  Si  Si10  1  0.240367  0.354987  0.389154  1
  Si  Si11  1  0.240383  0.355011  0.610833  1
  Si  Si12  1  0.645012  0.885365  0.389174  1
  Si  Si13  1  0.645072  0.885401  0.610832  1
  Si  Si14  1  0.354992  0.240343  0.110829  1
  Si  Si15  1  0.354938  0.240298  0.889177  1
  Si  Si16  1  0.645543  0.762573  0.889397  1
  Si  Si17  1  0.645529  0.762565  0.110623  1
  Si  Si18  1  0.354432  0.117004  0.610607  1
  Si  Si19  1  0.354453  0.117011  0.389373  1
  Si  Si20  1  0.762526  0.645521  0.389402  1
  Si  Si21  1  0.762539  0.645530  0.610635  1
  Si  Si22  1  0.885346  0.645000  0.110833  1
  Si  Si23  1  0.885318  0.644959  0.889171  1
  Si  Si24  1  0.759635  0.114639  0.110836  1
  Si  Si25  1  0.759635  0.114645  0.889163  1
  Si  Si26  1  0.882996  0.237463  0.389380  1
  Si  Si27  1  0.883017  0.237514  0.610620  1
  Ni  Ni28  1  0.000004  0.488255  0.750011  1
  Ni  Ni29  1  -0.000001  0.488205  0.249993  1
  Ni  Ni30  1  0.333338  0.666670  0.251337  1
  Ni  Ni31  1  0.333372  0.666677  0.748649  1
  Ni  Ni32  1  0.511799  0.511784  0.249981  1
  Ni  Ni33  1  0.511746  0.511732  0.750070  1
  Ni  Ni34  1  0.666660  0.333332  0.248678  1
  Ni  Ni35  1  0.666629  0.333304  0.751320  1
  Ni  Ni36  1  0.488206  0.999992  0.250014  1
  Ni  Ni37  1  0.488224  0.999997  0.749952  1
  O  O38  1  0.056709  0.785815  0.862732  1
  O  O39  1  0.056729  0.785915  0.137245  1
  O  O40  1  0.225121  0.941248  0.635155  1
  O  O41  1  0.225137  0.941251  0.364836  1
  O  O42  1  0.124968  0.734023  0.499996  1
  O  O43  1  0.153169  0.652774  0.326734  1
  O  O44  1  0.153209  0.652769  0.673250  1
  O  O45  1  0.259359  0.855993  -0.000010  1
  O  O46  1  0.162191  0.508709  0.165799  1
  O  O47  1  0.162218  0.508729  0.834189  1
  O  O48  1  0.058749  0.283895  0.364820  1
  O  O49  1  0.058783  0.284002  0.635173  1
  O  O50  1  0.346532  0.837823  0.165795  1
  O  O51  1  0.346529  0.837853  0.834163  1
  O  O52  1  0.143967  0.403310  0.000001  1
  O  O53  1  0.265992  0.390913  0.499989  1
  O  O54  1  0.499648  0.846821  0.673250  1
  O  O55  1  0.499599  0.846824  0.326747  1
  O  O56  1  0.214080  0.270807  0.137254  1
  O  O57  1  0.214054  0.270802  0.862750  1
  O  O58  1  0.347308  0.500420  0.673243  1
  O  O59  1  0.347253  0.500409  0.326741  1
  O  O60  1  0.270782  0.214054  0.362706  1
  O  O61  1  0.270738  0.214031  0.637266  1
  O  O62  1  0.609057  0.875029  0.500003  1
  O  O63  1  0.491291  0.653487  0.834223  1
  O  O64  1  0.491288  0.653474  0.165801  1
  O  O65  1  0.283868  0.058722  0.135131  1
  O  O66  1  0.283734  0.058669  0.864878  1
  O  O67  1  0.596692  0.740710  0.000010  1
  O  O68  1  0.390970  0.265975  0.000003  1
  O  O69  1  0.729197  0.943282  0.137277  1
  O  O70  1  0.729252  0.943296  0.862743  1
  O  O71  1  0.500398  0.347210  0.173264  1
  O  O72  1  0.500345  0.347120  0.826739  1
  O  O73  1  0.403244  0.143973  0.499990  1
  O  O74  1  0.716134  0.774868  0.364866  1
  O  O75  1  0.716279  0.774980  0.635143  1
  O  O76  1  0.653447  0.491287  0.334215  1
  O  O77  1  0.653430  0.491325  0.665830  1
  O  O78  1  0.774854  0.716131  0.135145  1
  O  O79  1  0.774848  0.716117  0.864872  1
  O  O80  1  0.508712  0.162176  0.334211  1
  O  O81  1  0.508701  0.162176  0.665761  1
  O  O82  1  0.740623  0.596664  0.500017  1
  O  O83  1  0.875003  0.609009  0.000007  1
  O  O84  1  0.652767  0.153171  0.173269  1
  O  O85  1  0.652742  0.153136  0.826728  1
  O  O86  1  0.943253  0.729178  0.362754  1
  O  O87  1  0.943261  0.729104  0.637280  1
  O  O88  1  0.846806  0.499613  0.173277  1
  O  O89  1  0.846751  0.499563  0.826733  1
  O  O90  1  0.733995  0.124948  0.000003  1
  O  O91  1  0.837819  0.346528  0.334204  1
  O  O92  1  0.837815  0.346559  0.665795  1
  O  O93  1  0.856085  0.259360  0.499996  1
  O  O94  1  0.785930  0.056736  0.362743  1
  O  O95  1  0.785968  0.056787  0.637258  1
  O  O96  1  0.941262  0.225156  0.135155  1
  O  O97  1  0.941245  0.225221  0.864841  1
