# generated using pymatgen
data_Ba(H9O5)2
_symmetry_space_group_name_H-M   'P 1'
_cell_length_a   9.24812402
_cell_length_b   10.90879144
_cell_length_c   13.28250394
_cell_angle_alpha   90.00000000
_cell_angle_beta   98.53042322
_cell_angle_gamma   90.00000000
_symmetry_Int_Tables_number   1
_chemical_formula_structural   Ba(H9O5)2
_chemical_formula_sum   'Ba4 H72 O40'
_cell_volume   1325.19249696
_cell_formula_units_Z   4
loop_
 _symmetry_equiv_pos_site_id
 _symmetry_equiv_pos_as_xyz
  1  'x, y, z'
loop_
 _atom_site_type_symbol
 _atom_site_label
 _atom_site_symmetry_multiplicity
 _atom_site_fract_x
 _atom_site_fract_y
 _atom_site_fract_z
 _atom_site_occupancy
  Ba  Ba0  1  0.525266  0.722527  0.277085  1
  Ba  Ba1  1  0.025266  0.777473  0.777085  1
  Ba  Ba2  1  0.474734  0.277473  0.722915  1
  Ba  Ba3  1  0.974734  0.222527  0.222915  1
  H  H4  1  0.380221  0.030588  0.920915  1
  H  H5  1  0.880221  0.469412  0.420915  1
  H  H6  1  0.619779  0.969412  0.079085  1
  H  H7  1  0.119779  0.530588  0.579085  1
  H  H8  1  0.406830  0.139564  0.081228  1
  H  H9  1  0.906830  0.360436  0.581228  1
  H  H10  1  0.593170  0.860436  0.918772  1
  H  H11  1  0.093170  0.639564  0.418772  1
  H  H12  1  0.788836  0.627203  0.067096  1
  H  H13  1  0.288836  0.872797  0.567096  1
  H  H14  1  0.211164  0.372797  0.932904  1
  H  H15  1  0.711164  0.127203  0.432904  1
  H  H16  1  0.624444  0.513119  0.909348  1
  H  H17  1  0.124444  0.986881  0.409348  1
  H  H18  1  0.375556  0.486881  0.090652  1
  H  H19  1  0.875556  0.013119  0.590652  1
  H  H20  1  0.761815  0.915302  0.052199  1
  H  H21  1  0.261815  0.584698  0.552199  1
  H  H22  1  0.238185  0.084698  0.947801  1
  H  H23  1  0.738185  0.415302  0.447801  1
  H  H24  1  0.325664  0.524678  0.117994  1
  H  H25  1  0.825664  0.975322  0.617994  1
  H  H26  1  0.674336  0.475322  0.882006  1
  H  H27  1  0.174336  0.024678  0.382006  1
  H  H28  1  0.142177  0.429442  0.103104  1
  H  H29  1  0.642177  0.070558  0.603104  1
  H  H30  1  0.857823  0.570558  0.896896  1
  H  H31  1  0.357823  0.929442  0.396896  1
  H  H32  1  0.453005  0.268228  0.129502  1
  H  H33  1  0.953005  0.231772  0.629502  1
  H  H34  1  0.546995  0.731772  0.870498  1
  H  H35  1  0.046995  0.768228  0.370498  1
  H  H36  1  0.120688  0.631430  0.129292  1
  H  H37  1  0.620688  0.868570  0.629292  1
  H  H38  1  0.879312  0.368570  0.870708  1
  H  H39  1  0.379312  0.131430  0.370708  1
  H  H40  1  0.313595  0.763861  0.036514  1
  H  H41  1  0.813595  0.736139  0.536514  1
  H  H42  1  0.686405  0.236139  0.963486  1
  H  H43  1  0.186405  0.263861  0.463486  1
  H  H44  1  0.745167  0.071180  0.413158  1
  H  H45  1  0.245167  0.428820  0.913158  1
  H  H46  1  0.254833  0.928820  0.586842  1
  H  H47  1  0.754833  0.571180  0.086842  1
  H  H48  1  0.875561  0.705530  0.378298  1
  H  H49  1  0.375561  0.794470  0.878298  1
  H  H50  1  0.124439  0.294470  0.621702  1
  H  H51  1  0.624439  0.205530  0.121702  1
  H  H52  1  0.720073  0.498096  0.625663  1
  H  H53  1  0.220073  0.001904  0.125663  1
  H  H54  1  0.279927  0.501904  0.374337  1
  H  H55  1  0.779927  0.998096  0.874337  1
  H  H56  1  0.575216  0.291210  0.390026  1
  H  H57  1  0.075216  0.208790  0.890026  1
  H  H58  1  0.424784  0.708790  0.609974  1
  H  H59  1  0.924784  0.791210  0.109974  1
  H  H60  1  0.565607  0.315809  0.336132  1
  H  H61  1  0.065607  0.184191  0.836132  1
  H  H62  1  0.434393  0.684191  0.663868  1
  H  H63  1  0.934393  0.815809  0.163868  1
  H  H64  1  0.553206  0.885504  0.593484  1
  H  H65  1  0.053206  0.614496  0.093484  1
  H  H66  1  0.446794  0.114496  0.406516  1
  H  H67  1  0.946794  0.385504  0.906516  1
  H  H68  1  0.205441  0.593823  0.299171  1
  H  H69  1  0.705441  0.906177  0.799171  1
  H  H70  1  0.794559  0.406177  0.700829  1
  H  H71  1  0.294559  0.093823  0.200829  1
  H  H72  1  0.276489  0.301800  0.377589  1
  H  H73  1  0.776489  0.198200  0.877589  1
  H  H74  1  0.723511  0.698200  0.622411  1
  H  H75  1  0.223511  0.801800  0.122411  1
  O  O76  1  0.451168  0.178763  0.146047  1
  O  O77  1  0.951168  0.321237  0.646047  1
  O  O78  1  0.548832  0.821237  0.853953  1
  O  O79  1  0.048832  0.678763  0.353953  1
  O  O80  1  0.549539  0.115207  0.592945  1
  O  O81  1  0.049539  0.384793  0.092945  1
  O  O82  1  0.450461  0.884793  0.407055  1
  O  O83  1  0.950461  0.615207  0.907055  1
  O  O84  1  0.796880  0.460401  0.267491  1
  O  O85  1  0.296880  0.039599  0.767491  1
  O  O86  1  0.203120  0.539599  0.732509  1
  O  O87  1  0.703120  0.960401  0.232509  1
  O  O88  1  0.691768  0.268048  0.096883  1
  O  O89  1  0.191768  0.231952  0.596883  1
  O  O90  1  0.308232  0.731952  0.903117  1
  O  O91  1  0.808232  0.768048  0.403117  1
  O  O92  1  0.591940  0.370007  0.084816  1
  O  O93  1  0.091940  0.129993  0.584816  1
  O  O94  1  0.408060  0.629993  0.915184  1
  O  O95  1  0.908060  0.870007  0.415184  1
  O  O96  1  0.323548  0.790072  0.109176  1
  O  O97  1  0.823548  0.709928  0.609176  1
  O  O98  1  0.676452  0.209928  0.890824  1
  O  O99  1  0.176452  0.290072  0.390824  1
  O  O100  1  0.830195  0.452211  0.479247  1
  O  O101  1  0.330195  0.047789  0.979247  1
  O  O102  1  0.169805  0.547789  0.520753  1
  O  O103  1  0.669805  0.952211  0.020753  1
  O  O104  1  0.660332  0.487165  0.242920  1
  O  O105  1  0.160332  0.012835  0.742920  1
  O  O106  1  0.339668  0.512835  0.757080  1
  O  O107  1  0.839668  0.987165  0.257080  1
  O  O108  1  0.288300  0.536791  0.307470  1
  O  O109  1  0.788300  0.963209  0.807470  1
  O  O110  1  0.711700  0.463209  0.692530  1
  O  O111  1  0.211700  0.036791  0.192530  1
  O  O112  1  0.400957  0.757289  0.422975  1
  O  O113  1  0.900957  0.742711  0.922975  1
  O  O114  1  0.599043  0.242711  0.577025  1
  O  O115  1  0.099043  0.257289  0.077025  1
