# generated using pymatgen
data_VFe(PO4)2
_symmetry_space_group_name_H-M   'P 1'
_cell_length_a   8.50831564
_cell_length_b   8.66342397
_cell_length_c   8.66342401
_cell_angle_alpha   59.99999781
_cell_angle_beta   59.39509743
_cell_angle_gamma   59.39509435
_symmetry_Int_Tables_number   1
_chemical_formula_structural   VFe(PO4)2
_chemical_formula_sum   'V3 Fe3 P6 O24'
_cell_volume   447.37922271
_cell_formula_units_Z   3
loop_
 _symmetry_equiv_pos_site_id
 _symmetry_equiv_pos_as_xyz
  1  'x, y, z'
loop_
 _atom_site_type_symbol
 _atom_site_label
 _atom_site_symmetry_multiplicity
 _atom_site_fract_x
 _atom_site_fract_y
 _atom_site_fract_z
 _atom_site_occupancy
  V  V0  1  0.071323  0.642892  0.642892  1
  V  V1  1  0.425056  0.858315  0.858315  1
  V  V2  1  0.928557  0.357147  0.357147  1
  Fe  Fe3  1  0.996553  0.001149  0.001149  1
  Fe  Fe4  1  0.570065  0.143312  0.143312  1
  Fe  Fe5  1  0.498911  0.500363  0.500363  1
  P  P6  1  0.250085  0.249733  0.543247  1
  P  P7  1  0.250085  0.956936  0.249733  1
  P  P8  1  0.250085  0.543247  0.956936  1
  P  P9  1  0.751071  0.457912  0.041690  1
  P  P10  1  0.751071  0.041690  0.749327  1
  P  P11  1  0.751071  0.749327  0.457912  1
  O  O12  1  0.064781  0.118057  0.312885  1
  O  O13  1  0.064781  0.504275  0.118057  1
  O  O14  1  0.064781  0.312885  0.504275  1
  O  O15  1  0.227797  0.090055  0.740569  1
  O  O16  1  0.434934  0.187642  0.386618  1
  O  O17  1  0.264986  0.412677  0.561674  1
  O  O18  1  0.227797  0.941580  0.090055  1
  O  O19  1  0.264986  0.760663  0.412677  1
  O  O20  1  0.566627  0.618278  0.003009  1
  O  O21  1  0.264986  0.561674  0.760663  1
  O  O22  1  0.776912  0.262773  0.053084  1
  O  O23  1  0.566627  0.003009  0.812085  1
  O  O24  1  0.434934  0.990807  0.187642  1
  O  O25  1  0.227797  0.740569  0.941580  1
  O  O26  1  0.731030  0.443301  0.238123  1
  O  O27  1  0.434934  0.386618  0.990807  1
  O  O28  1  0.731030  0.238123  0.587545  1
  O  O29  1  0.776912  0.053084  0.907231  1
  O  O30  1  0.731030  0.587545  0.443301  1
  O  O31  1  0.566627  0.812085  0.618278  1
  O  O32  1  0.776912  0.907231  0.262773  1
  O  O33  1  0.934955  0.680498  0.501798  1
  O  O34  1  0.934955  0.501798  0.882747  1
  O  O35  1  0.934955  0.882747  0.680498  1
