# generated using pymatgen
data_Li2Fe3CuO8
_symmetry_space_group_name_H-M   'P 1'
_cell_length_a   5.94577745
_cell_length_b   5.92497732
_cell_length_c   9.45908701
_cell_angle_alpha   90.13804858
_cell_angle_beta   89.93121629
_cell_angle_gamma   119.88434711
_symmetry_Int_Tables_number   1
_chemical_formula_structural   Li2Fe3CuO8
_chemical_formula_sum   'Li4 Fe6 Cu2 O16'
_cell_volume   288.92084657
_cell_formula_units_Z   2
loop_
 _symmetry_equiv_pos_site_id
 _symmetry_equiv_pos_as_xyz
  1  'x, y, z'
loop_
 _atom_site_type_symbol
 _atom_site_label
 _atom_site_symmetry_multiplicity
 _atom_site_fract_x
 _atom_site_fract_y
 _atom_site_fract_z
 _atom_site_occupancy
  Li  Li0  1  0.332829  0.668588  0.898297  1
  Li  Li1  1  0.999249  0.998329  0.991591  1
  Li  Li2  1  0.000751  0.999079  0.491591  1
  Li  Li3  1  0.667171  0.335760  0.398297  1
  Fe  Fe4  1  0.171436  0.827555  0.211244  1
  Fe  Fe5  1  0.168845  0.342173  0.211647  1
  Fe  Fe6  1  0.657436  0.829392  0.211089  1
  Fe  Fe7  1  0.342564  0.171957  0.711089  1
  Fe  Fe8  1  0.828564  0.656120  0.711244  1
  Fe  Fe9  1  0.831155  0.173327  0.711647  1
  Cu  Cu10  1  0.333794  0.667426  0.485835  1
  Cu  Cu11  1  0.666206  0.333632  0.985835  1
  O  O12  1  0.170076  0.830517  0.601073  1
  O  O13  1  0.042979  0.521303  0.345505  1
  O  O14  1  0.332626  0.666445  0.101999  1
  O  O15  1  0.002424  0.998683  0.300339  1
  O  O16  1  0.997576  0.996258  0.800339  1
  O  O17  1  0.170828  0.340772  0.599065  1
  O  O18  1  0.477346  0.954636  0.348174  1
  O  O19  1  0.477969  0.523185  0.346780  1
  O  O20  1  0.338146  0.169137  0.101283  1
  O  O21  1  0.661854  0.830991  0.601283  1
  O  O22  1  0.522654  0.477291  0.848174  1
  O  O23  1  0.522031  0.045215  0.846780  1
  O  O24  1  0.667374  0.333819  0.601999  1
  O  O25  1  0.829924  0.660440  0.101073  1
  O  O26  1  0.957021  0.478325  0.845505  1
  O  O27  1  0.829172  0.169945  0.099065  1
