# generated using pymatgen
data_NaV4O10
_symmetry_space_group_name_H-M   'P 1'
_cell_length_a   3.68001694
_cell_length_b   6.17130760
_cell_length_c   9.57330264
_cell_angle_alpha   79.40726901
_cell_angle_beta   90.00000000
_cell_angle_gamma   72.65315629
_symmetry_Int_Tables_number   1
_chemical_formula_structural   NaV4O10
_chemical_formula_sum   'Na1 V4 O10'
_cell_volume   203.64118828
_cell_formula_units_Z   1
loop_
 _symmetry_equiv_pos_site_id
 _symmetry_equiv_pos_as_xyz
  1  'x, y, z'
loop_
 _atom_site_type_symbol
 _atom_site_label
 _atom_site_symmetry_multiplicity
 _atom_site_fract_x
 _atom_site_fract_y
 _atom_site_fract_z
 _atom_site_occupancy
  Na  Na0  1  0.500000  0.000000  0.500000  1
  V  V1  1  0.088606  0.822789  0.162469  1
  V  V2  1  0.203110  0.593780  0.832021  1
  V  V3  1  0.796890  0.406220  0.167979  1
  V  V4  1  0.911394  0.177211  0.837531  1
  O  O5  1  0.064966  0.870068  0.904062  1
  O  O6  1  0.093664  0.812673  0.334372  1
  O  O7  1  0.150232  0.699536  0.661662  1
  O  O8  1  0.623830  0.752339  0.137860  1
  O  O9  1  0.741581  0.516838  0.877120  1
  O  O10  1  0.258419  0.483162  0.122880  1
  O  O11  1  0.376170  0.247661  0.862140  1
  O  O12  1  0.849768  0.300464  0.338338  1
  O  O13  1  0.906336  0.187327  0.665628  1
  O  O14  1  0.935034  0.129932  0.095938  1
