# generated using pymatgen
data_LiV3(OF2)4
_symmetry_space_group_name_H-M   'P 1'
_cell_length_a   5.43989708
_cell_length_b   6.97933557
_cell_length_c   5.83861701
_cell_angle_alpha   103.19034854
_cell_angle_beta   92.78115088
_cell_angle_gamma   103.62793838
_symmetry_Int_Tables_number   1
_chemical_formula_structural   LiV3(OF2)4
_chemical_formula_sum   'Li1 V3 O4 F8'
_cell_volume   208.52019957
_cell_formula_units_Z   1
loop_
 _symmetry_equiv_pos_site_id
 _symmetry_equiv_pos_as_xyz
  1  'x, y, z'
loop_
 _atom_site_type_symbol
 _atom_site_label
 _atom_site_symmetry_multiplicity
 _atom_site_fract_x
 _atom_site_fract_y
 _atom_site_fract_z
 _atom_site_occupancy
  Li  Li0  1  0.792333  0.380041  0.544834  1
  V  V1  1  0.381893  0.661498  0.829416  1
  V  V2  1  0.692522  0.837534  0.361759  1
  V  V3  1  0.019453  0.028958  0.984625  1
  O  O4  1  0.166010  0.797022  0.935266  1
  O  O5  1  0.465354  0.766529  0.599188  1
  O  O6  1  0.688892  0.848977  0.048074  1
  O  O7  1  0.904037  0.982865  0.704394  1
  F  F8  1  0.035796  0.988237  0.327201  1
  F  F9  1  0.133651  0.428074  0.690786  1
  F  F10  1  0.336322  0.178855  0.011346  1
  F  F11  1  0.404664  0.624786  0.192819  1
  F  F12  1  0.605499  0.489893  0.787284  1
  F  F13  1  0.607381  0.080419  0.433545  1
  F  F14  1  0.841727  0.638067  0.394728  1
  F  F15  1  0.907626  0.247995  0.115556  1
