# generated using pymatgen
data_Li3Fe2(PO4)3
_symmetry_space_group_name_H-M   'P 1'
_cell_length_a   8.76948926
_cell_length_b   8.71305194
_cell_length_c   8.76948880
_cell_angle_alpha   60.12843839
_cell_angle_beta   120.35736155
_cell_angle_gamma   119.87155954
_symmetry_Int_Tables_number   1
_chemical_formula_structural   Li3Fe2(PO4)3
_chemical_formula_sum   'Li6 Fe4 P6 O24'
_cell_volume   473.42710456
_cell_formula_units_Z   2
loop_
 _symmetry_equiv_pos_site_id
 _symmetry_equiv_pos_as_xyz
  1  'x, y, z'
loop_
 _atom_site_type_symbol
 _atom_site_label
 _atom_site_symmetry_multiplicity
 _atom_site_fract_x
 _atom_site_fract_y
 _atom_site_fract_z
 _atom_site_occupancy
  Li  Li0  1  0.035574  0.063854  0.645389  1
  Li  Li1  1  0.624802  0.730951  0.640027  1
  Li  Li2  1  0.741508  0.328798  0.113167  1
  Li  Li3  1  0.359973  0.230951  0.375198  1
  Li  Li4  1  0.354611  0.563854  0.964426  1
  Li  Li5  1  0.886833  0.828798  0.258491  1
  Fe  Fe6  1  0.353798  0.065045  0.145311  1
  Fe  Fe7  1  0.646792  0.942695  0.846273  1
  Fe  Fe8  1  0.153727  0.442695  0.353208  1
  Fe  Fe9  1  0.854689  0.565045  0.646202  1
  P  P10  1  0.249977  0.763718  0.528066  1
  P  P11  1  0.045213  0.250934  0.049198  1
  P  P12  1  0.950802  0.750933  0.954787  1
  P  P13  1  0.471934  0.263718  0.750023  1
  P  P14  1  0.530525  0.738388  0.248260  1
  P  P15  1  0.751740  0.238388  0.469475  1
  O  O16  1  0.060647  0.246480  0.235591  1
  O  O17  1  0.241483  0.267290  0.071597  1
  O  O18  1  0.928403  0.767290  0.758517  1
  O  O19  1  0.479232  0.884645  0.245001  1
  O  O20  1  0.377167  0.541970  0.278930  1
  O  O21  1  0.979689  0.565614  0.109730  1
  O  O22  1  0.754999  0.384645  0.520768  1
  O  O23  1  0.258145  0.624599  0.474793  1
  O  O24  1  0.890270  0.065614  0.020311  1
  O  O25  1  0.933984  0.279757  0.447223  1
  O  O26  1  0.721070  0.041970  0.622833  1
  O  O27  1  0.053862  0.714966  0.525631  1
  O  O28  1  0.594209  0.239113  0.276629  1
  O  O29  1  0.618759  0.463181  0.709037  1
  O  O30  1  0.115368  0.927493  0.993965  1
  O  O31  1  0.006035  0.427493  0.884632  1
  O  O32  1  0.723371  0.739113  0.405791  1
  O  O33  1  0.290963  0.963181  0.381241  1
  O  O34  1  0.552777  0.779757  0.066016  1
  O  O35  1  0.399831  0.755964  0.725745  1
  O  O36  1  0.525207  0.124599  0.741855  1
  O  O37  1  0.764409  0.746480  0.939353  1
  O  O38  1  0.274255  0.255964  0.600169  1
  O  O39  1  0.474369  0.214966  0.946138  1
