# generated using pymatgen
data_CuH2N2O7
_symmetry_space_group_name_H-M   'P 1'
_cell_length_a   6.46872167
_cell_length_b   9.57668383
_cell_length_c   10.86318874
_cell_angle_alpha   90.00000000
_cell_angle_beta   103.30011427
_cell_angle_gamma   90.00000000
_symmetry_Int_Tables_number   1
_chemical_formula_structural   CuH2N2O7
_chemical_formula_sum   'Cu4 H8 N8 O28'
_cell_volume   654.91269283
_cell_formula_units_Z   4
loop_
 _symmetry_equiv_pos_site_id
 _symmetry_equiv_pos_as_xyz
  1  'x, y, z'
loop_
 _atom_site_type_symbol
 _atom_site_label
 _atom_site_symmetry_multiplicity
 _atom_site_fract_x
 _atom_site_fract_y
 _atom_site_fract_z
 _atom_site_occupancy
  Cu  Cu0  1  0.974408  0.917201  0.784050  1
  Cu  Cu1  1  0.025592  0.417201  0.715950  1
  Cu  Cu2  1  0.025592  0.082799  0.215950  1
  Cu  Cu3  1  0.974408  0.582799  0.284050  1
  H  H4  1  0.949617  0.142199  0.403675  1
  H  H5  1  0.050383  0.642199  0.096325  1
  H  H6  1  0.050383  0.857801  0.596325  1
  H  H7  1  0.949617  0.357801  0.903675  1
  H  H8  1  0.204438  0.610486  0.661638  1
  H  H9  1  0.795562  0.110486  0.838362  1
  H  H10  1  0.795562  0.389514  0.338362  1
  H  H11  1  0.204438  0.889514  0.161638  1
  N  N12  1  0.588859  0.206096  0.013671  1
  N  N13  1  0.411141  0.706096  0.486329  1
  N  N14  1  0.411141  0.793904  0.986329  1
  N  N15  1  0.588859  0.293904  0.513671  1
  N  N16  1  0.894200  0.632472  0.854602  1
  N  N17  1  0.105800  0.132472  0.645398  1
  N  N18  1  0.105800  0.367528  0.145398  1
  N  N19  1  0.894200  0.867528  0.354602  1
  O  O20  1  0.717636  0.102289  0.047567  1
  O  O21  1  0.282364  0.602289  0.452433  1
  O  O22  1  0.282364  0.897711  0.952433  1
  O  O23  1  0.717636  0.397711  0.547567  1
  O  O24  1  0.476318  0.207354  0.904681  1
  O  O25  1  0.523682  0.707354  0.595319  1
  O  O26  1  0.523682  0.792646  0.095319  1
  O  O27  1  0.476318  0.292646  0.404681  1
  O  O28  1  0.586399  0.301015  0.091779  1
  O  O29  1  0.413601  0.801015  0.408221  1
  O  O30  1  0.413601  0.698985  0.908221  1
  O  O31  1  0.586399  0.198985  0.591779  1
  O  O32  1  0.931309  0.601595  0.749295  1
  O  O33  1  0.068691  0.101595  0.750705  1
  O  O34  1  0.068691  0.398405  0.250705  1
  O  O35  1  0.931309  0.898405  0.249295  1
  O  O36  1  0.880363  0.760126  0.876416  1
  O  O37  1  0.119637  0.260126  0.623584  1
  O  O38  1  0.119637  0.239874  0.123584  1
  O  O39  1  0.880363  0.739874  0.376416  1
  O  O40  1  0.879149  0.328206  0.818077  1
  O  O41  1  0.120851  0.828206  0.681923  1
  O  O42  1  0.120851  0.671794  0.181923  1
  O  O43  1  0.879149  0.171794  0.318077  1
  O  O44  1  0.785349  0.009097  0.853354  1
  O  O45  1  0.214651  0.509097  0.646646  1
  O  O46  1  0.214651  0.990903  0.146646  1
  O  O47  1  0.785349  0.490903  0.353354  1
