# generated using pymatgen
data_Na2SnBPO7
_symmetry_space_group_name_H-M   'P 1'
_cell_length_a   9.40690269
_cell_length_b   6.76520707
_cell_length_c   5.41579020
_cell_angle_alpha   90.00000000
_cell_angle_beta   88.01858616
_cell_angle_gamma   90.00000000
_symmetry_Int_Tables_number   1
_chemical_formula_structural   Na2SnBPO7
_chemical_formula_sum   'Na4 Sn2 B2 P2 O14'
_cell_volume   344.45289007
_cell_formula_units_Z   2
loop_
 _symmetry_equiv_pos_site_id
 _symmetry_equiv_pos_as_xyz
  1  'x, y, z'
loop_
 _atom_site_type_symbol
 _atom_site_label
 _atom_site_symmetry_multiplicity
 _atom_site_fract_x
 _atom_site_fract_y
 _atom_site_fract_z
 _atom_site_occupancy
  Na  Na0  1  0.190791  0.508187  0.235115  1
  Na  Na1  1  0.190791  0.991813  0.235115  1
  Na  Na2  1  0.809209  0.491813  0.764885  1
  Na  Na3  1  0.809209  0.008187  0.764885  1
  Sn  Sn4  1  0.344063  0.750000  0.773551  1
  Sn  Sn5  1  0.655937  0.250000  0.226449  1
  B  B6  1  0.076311  0.750000  0.724000  1
  B  B7  1  0.923689  0.250000  0.276000  1
  P  P8  1  0.433759  0.250000  0.726785  1
  P  P9  1  0.566241  0.750000  0.273215  1
  O  O10  1  0.061766  0.250000  0.306701  1
  O  O11  1  0.147361  0.750000  0.953331  1
  O  O12  1  0.184741  0.750000  0.526562  1
  O  O13  1  0.344394  0.065832  0.796719  1
  O  O14  1  0.344394  0.434168  0.796719  1
  O  O15  1  0.422783  0.750000  0.137059  1
  O  O16  1  0.467819  0.250000  0.439671  1
  O  O17  1  0.532181  0.750000  0.560329  1
  O  O18  1  0.577217  0.250000  0.862941  1
  O  O19  1  0.655606  0.565832  0.203281  1
  O  O20  1  0.655606  0.934168  0.203281  1
  O  O21  1  0.815259  0.250000  0.473438  1
  O  O22  1  0.852639  0.250000  0.046670  1
  O  O23  1  0.938234  0.750000  0.693299  1
