# generated using pymatgen
data_CdH18Se4(N2O7)2
_symmetry_space_group_name_H-M   'P 1'
_cell_length_a   5.85879895
_cell_length_b   7.46654902
_cell_length_c   10.96187697
_cell_angle_alpha   90.01465585
_cell_angle_beta   105.25551141
_cell_angle_gamma   112.60963506
_symmetry_Int_Tables_number   1
_chemical_formula_structural   CdH18Se4(N2O7)2
_chemical_formula_sum   'Cd1 H18 Se4 N4 O14'
_cell_volume   424.29687176
_cell_formula_units_Z   1
loop_
 _symmetry_equiv_pos_site_id
 _symmetry_equiv_pos_as_xyz
  1  'x, y, z'
loop_
 _atom_site_type_symbol
 _atom_site_label
 _atom_site_symmetry_multiplicity
 _atom_site_fract_x
 _atom_site_fract_y
 _atom_site_fract_z
 _atom_site_occupancy
  Cd  Cd0  1  0.000000  0.000000  0.000000  1
  H  H1  1  0.868963  0.429493  0.190657  1
  H  H2  1  0.131037  0.570507  0.809343  1
  H  H3  1  0.718553  0.357312  0.032115  1
  H  H4  1  0.281447  0.642688  0.967885  1
  H  H5  1  0.620276  0.489782  0.115761  1
  H  H6  1  0.379724  0.510218  0.884239  1
  H  H7  1  0.909563  0.595175  0.086323  1
  H  H8  1  0.090437  0.404825  0.913677  1
  H  H9  1  0.155543  0.878135  0.406175  1
  H  H10  1  0.844457  0.121865  0.593825  1
  H  H11  1  0.113351  0.638252  0.406116  1
  H  H12  1  0.886649  0.361748  0.593884  1
  H  H13  1  0.019309  0.736464  0.511863  1
  H  H14  1  0.980691  0.263536  0.488137  1
  H  H15  1  0.336159  0.805554  0.526738  1
  H  H16  1  0.663841  0.194446  0.473262  1
  H  H17  1  0.412268  0.267695  0.674543  1
  H  H18  1  0.587732  0.732305  0.325457  1
  Se  Se19  1  0.451419  0.046944  0.823602  1
  Se  Se20  1  0.548581  0.953056  0.176398  1
  Se  Se21  1  0.303925  0.337991  0.295895  1
  Se  Se22  1  0.696075  0.662009  0.704105  1
  N  N23  1  0.777712  0.467361  0.105263  1
  N  N24  1  0.222288  0.532639  0.894737  1
  N  N25  1  0.153848  0.765531  0.461656  1
  N  N26  1  0.846152  0.234469  0.538344  1
  O  O27  1  0.336113  0.147740  0.365798  1
  O  O28  1  0.663887  0.852260  0.634202  1
  O  O29  1  0.588494  0.529469  0.342515  1
  O  O30  1  0.411506  0.470531  0.657485  1
  O  O31  1  0.069055  0.387864  0.331443  1
  O  O32  1  0.930945  0.612136  0.668557  1
  O  O33  1  0.225201  0.295658  0.136109  1
  O  O34  1  0.774799  0.704342  0.863891  1
  O  O35  1  0.772741  0.183368  0.900490  1
  O  O36  1  0.227259  0.816632  0.099510  1
  O  O37  1  0.307055  0.158951  0.894666  1
  O  O38  1  0.692945  0.841049  0.105334  1
  O  O39  1  0.401141  0.126201  0.669132  1
  O  O40  1  0.598859  0.873799  0.330868  1
