# generated using pymatgen
data_Li2V3SnO8
_symmetry_space_group_name_H-M   'P 1'
_cell_length_a   8.63534256
_cell_length_b   8.48306932
_cell_length_c   8.61959132
_cell_angle_alpha   90.00553706
_cell_angle_beta   90.00552693
_cell_angle_gamma   89.99847200
_symmetry_Int_Tables_number   1
_chemical_formula_structural   Li2V3SnO8
_chemical_formula_sum   'Li8 V12 Sn4 O32'
_cell_volume   631.42134270
_cell_formula_units_Z   4
loop_
 _symmetry_equiv_pos_site_id
 _symmetry_equiv_pos_as_xyz
  1  'x, y, z'
loop_
 _atom_site_type_symbol
 _atom_site_label
 _atom_site_symmetry_multiplicity
 _atom_site_fract_x
 _atom_site_fract_y
 _atom_site_fract_z
 _atom_site_occupancy
  Li  Li0  1  0.125753  0.876027  0.377316  1
  Li  Li1  1  0.247327  0.752324  0.753406  1
  Li  Li2  1  0.252766  0.247573  0.253575  1
  Li  Li3  1  0.374419  0.124003  0.877117  1
  Li  Li4  1  0.625512  0.623968  0.622885  1
  Li  Li5  1  0.747159  0.747606  0.246409  1
  Li  Li6  1  0.752821  0.252416  0.746467  1
  Li  Li7  1  0.874401  0.376136  0.123079  1
  V  V8  1  0.113150  0.611000  0.121609  1
  V  V9  1  0.118716  0.377856  0.880008  1
  V  V10  1  0.122878  0.115211  0.620892  1
  V  V11  1  0.377027  0.884844  0.120887  1
  V  V12  1  0.381245  0.622038  0.379918  1
  V  V13  1  0.386881  0.389007  0.621518  1
  V  V14  1  0.613214  0.889099  0.878377  1
  V  V15  1  0.618818  0.122028  0.120089  1
  V  V16  1  0.623043  0.384822  0.379051  1
  V  V17  1  0.876892  0.615239  0.879166  1
  V  V18  1  0.881279  0.877937  0.619945  1
  V  V19  1  0.886653  0.110805  0.378443  1
  Sn  Sn20  1  0.000339  0.496927  0.498086  1
  Sn  Sn21  1  0.499564  0.503066  0.998046  1
  Sn  Sn22  1  0.500383  0.003130  0.502043  1
  Sn  Sn23  1  0.999592  0.996878  0.002162  1
  O  O24  1  0.100925  0.132024  0.390031  1
  O  O25  1  0.107812  0.889302  0.623125  1
  O  O26  1  0.116413  0.614261  0.893221  1
  O  O27  1  0.132816  0.398861  0.116675  1
  O  O28  1  0.127496  0.136070  0.865310  1
  O  O29  1  0.138037  0.363520  0.634889  1
  O  O30  1  0.135475  0.625788  0.358725  1
  O  O31  1  0.136485  0.858445  0.128407  1
  O  O32  1  0.363550  0.141643  0.628329  1
  O  O33  1  0.364416  0.374238  0.858613  1
  O  O34  1  0.361941  0.636545  0.134871  1
  O  O35  1  0.372414  0.863887  0.365291  1
  O  O36  1  0.367510  0.601087  0.616698  1
  O  O37  1  0.383505  0.385741  0.393053  1
  O  O38  1  0.392338  0.110720  0.123575  1
  O  O39  1  0.398998  0.868114  0.889774  1
  O  O40  1  0.601082  0.368010  0.610162  1
  O  O41  1  0.607779  0.610671  0.376447  1
  O  O42  1  0.616574  0.885720  0.106821  1
  O  O43  1  0.632668  0.101175  0.883310  1
  O  O44  1  0.627772  0.363914  0.134686  1
  O  O45  1  0.638044  0.136439  0.365126  1
  O  O46  1  0.635525  0.874159  0.641325  1
  O  O47  1  0.636340  0.641554  0.871653  1
  O  O48  1  0.863538  0.358363  0.371809  1
  O  O49  1  0.864461  0.125861  0.141406  1
  O  O50  1  0.861998  0.863596  0.865118  1
  O  O51  1  0.872255  0.636363  0.634620  1
  O  O52  1  0.867630  0.898707  0.382969  1
  O  O53  1  0.883172  0.114092  0.606827  1
  O  O54  1  0.892231  0.389374  0.876426  1
  O  O55  1  0.898964  0.631889  0.110296  1
