# generated using pymatgen
data_Li3V3P8O29
_symmetry_space_group_name_H-M   'P 1'
_cell_length_a   9.76844026
_cell_length_b   9.73309475
_cell_length_c   14.22680993
_cell_angle_alpha   90.18799613
_cell_angle_beta   90.85913904
_cell_angle_gamma   60.22080081
_symmetry_Int_Tables_number   1
_chemical_formula_structural   Li3V3P8O29
_chemical_formula_sum   'Li6 V6 P16 O58'
_cell_volume   1173.87672257
_cell_formula_units_Z   2
loop_
 _symmetry_equiv_pos_site_id
 _symmetry_equiv_pos_as_xyz
  1  'x, y, z'
loop_
 _atom_site_type_symbol
 _atom_site_label
 _atom_site_symmetry_multiplicity
 _atom_site_fract_x
 _atom_site_fract_y
 _atom_site_fract_z
 _atom_site_occupancy
  Li  Li0  1  0.906960  0.315438  0.553665  1
  Li  Li1  1  0.329162  0.904417  0.058144  1
  Li  Li2  1  0.309645  0.769925  0.562402  1
  Li  Li3  1  0.670125  0.097262  0.943551  1
  Li  Li4  1  0.224926  0.088352  0.441035  1
  Li  Li5  1  0.002376  0.002357  0.007388  1
  V  V6  1  0.567354  0.436832  0.250402  1
  V  V7  1  0.433194  0.558853  0.754025  1
  V  V8  1  0.570572  0.997190  0.743855  1
  V  V9  1  0.440571  0.998505  0.250484  1
  V  V10  1  0.998423  0.567879  0.244607  1
  V  V11  1  0.001574  0.439900  0.757917  1
  P  P12  1  0.918050  0.783951  0.842251  1
  P  P13  1  0.779956  0.910404  0.341217  1
  P  P14  1  0.915020  0.316483  0.339025  1
  P  P15  1  0.661802  0.668662  0.131469  1
  P  P16  1  0.664020  0.661488  0.631812  1
  P  P17  1  0.778564  0.305518  0.840295  1
  P  P18  1  0.685248  0.230061  0.655677  1
  P  P19  1  0.318879  0.910847  0.840345  1
  P  P20  1  0.687972  0.089380  0.159904  1
  P  P21  1  0.319897  0.770130  0.345846  1
  P  P22  1  0.221768  0.695690  0.162767  1
  P  P23  1  0.331881  0.334407  0.366319  1
  P  P24  1  0.339543  0.325905  0.869162  1
  P  P25  1  0.082549  0.688060  0.656821  1
  P  P26  1  0.226066  0.093064  0.660776  1
  P  P27  1  0.085463  0.217907  0.157296  1
  O  O28  1  0.001370  0.759982  0.567974  1
  O  O29  1  0.919034  0.738536  0.330205  1
  O  O30  1  0.762635  0.021520  0.068291  1
  O  O31  1  0.741729  0.918797  0.833441  1
  O  O32  1  0.920009  0.620822  0.831336  1
  O  O33  1  0.809511  0.672274  0.172806  1
  O  O34  1  0.906543  0.476539  0.319722  1
  O  O35  1  0.009537  0.186554  0.075686  1
  O  O36  1  0.911608  0.347910  0.833914  1
  O  O37  1  0.659142  0.815452  0.677106  1
  O  O38  1  0.623390  0.903743  0.318780  1
  O  O39  1  0.815641  0.517603  0.675505  1
  O  O40  1  0.645741  0.677467  0.027560  1
  O  O41  1  0.658847  0.667481  0.527787  1
  O  O42  1  0.667742  0.518770  0.177024  1
  O  O43  1  0.473554  0.913719  0.824668  1
  O  O44  1  0.508678  0.816253  0.174028  1
  O  O45  1  0.745708  0.342221  0.333677  1
  O  O46  1  0.796971  0.206317  0.746172  1
  O  O47  1  0.763993  0.239416  0.570367  1
  O  O48  1  0.791348  0.205989  0.922531  1
  O  O49  1  0.617260  0.462300  0.829374  1
  O  O50  1  0.516113  0.661824  0.673404  1
  O  O51  1  0.653469  0.261834  0.171473  1
  O  O52  1  0.479095  0.619962  0.323580  1
  O  O53  1  0.340793  0.918972  0.337737  1
  O  O54  1  0.799722  0.994635  0.246865  1
  O  O55  1  0.767406  0.998041  0.427303  1
  O  O56  1  0.239722  0.002238  0.572631  1
  O  O57  1  0.655774  0.087185  0.664307  1
  O  O58  1  0.524784  0.381268  0.676348  1
  O  O59  1  0.350054  0.738922  0.827706  1
  O  O60  1  0.473424  0.343583  0.322604  1
  O  O61  1  0.382627  0.540390  0.170567  1
  O  O62  1  0.204482  0.803749  0.083780  1
  O  O63  1  0.253272  0.764326  0.437388  1
  O  O64  1  0.201988  0.788283  0.261059  1
  O  O65  1  0.255531  0.658263  0.665043  1
  O  O66  1  0.491891  0.181228  0.829083  1
  O  O67  1  0.529739  0.089379  0.174734  1
  O  O68  1  0.331348  0.478482  0.822634  1
  O  O69  1  0.343725  0.328682  0.973103  1
  O  O70  1  0.326130  0.330846  0.470086  1
  O  O71  1  0.182272  0.473731  0.316939  1
  O  O72  1  0.378832  0.102492  0.678534  1
  O  O73  1  0.335678  0.180032  0.324948  1
  O  O74  1  0.086816  0.655309  0.164192  1
  O  O75  1  0.998206  0.797753  0.747769  1
  O  O76  1  0.992828  0.805073  0.927619  1
  O  O77  1  0.089088  0.527537  0.682856  1
  O  O78  1  0.189797  0.324420  0.825480  1
  O  O79  1  0.074419  0.382159  0.165744  1
  O  O80  1  0.262834  0.083664  0.164342  1
  O  O81  1  0.239125  0.978922  0.930524  1
  O  O82  1  0.206387  0.004557  0.750834  1
  O  O83  1  0.079534  0.260066  0.661022  1
  O  O84  1  0.999710  0.243219  0.430003  1
  O  O85  1  0.010959  0.198733  0.255244  1
