# generated using pymatgen
data_Ba2YBr7
_symmetry_space_group_name_H-M   'P 1'
_cell_length_a   7.68580571
_cell_length_b   18.23874830
_cell_length_c   12.53350347
_cell_angle_alpha   90.00000000
_cell_angle_beta   90.34591244
_cell_angle_gamma   90.00000000
_symmetry_Int_Tables_number   1
_chemical_formula_structural   Ba2YBr7
_chemical_formula_sum   'Ba8 Y4 Br28'
_cell_volume   1756.90792705
_cell_formula_units_Z   4
loop_
 _symmetry_equiv_pos_site_id
 _symmetry_equiv_pos_as_xyz
  1  'x, y, z'
loop_
 _atom_site_type_symbol
 _atom_site_label
 _atom_site_symmetry_multiplicity
 _atom_site_fract_x
 _atom_site_fract_y
 _atom_site_fract_z
 _atom_site_occupancy
  Ba  Ba0  1  0.201807  0.510127  0.822516  1
  Ba  Ba1  1  0.244367  0.771637  0.982664  1
  Ba  Ba2  1  0.255633  0.271637  0.517336  1
  Ba  Ba3  1  0.298193  0.010127  0.677484  1
  Ba  Ba4  1  0.701807  0.989873  0.322516  1
  Ba  Ba5  1  0.744367  0.728363  0.482664  1
  Ba  Ba6  1  0.755633  0.228363  0.017336  1
  Ba  Ba7  1  0.798193  0.489873  0.177484  1
  Y  Y8  1  0.235828  0.838074  0.357489  1
  Y  Y9  1  0.264172  0.338074  0.142511  1
  Y  Y10  1  0.735828  0.661926  0.857489  1
  Y  Y11  1  0.764172  0.161926  0.642511  1
  Br  Br12  1  0.033023  0.718224  0.762431  1
  Br  Br13  1  0.159819  0.705159  0.454083  1
  Br  Br14  1  0.041760  0.104629  0.517183  1
  Br  Br15  1  0.199576  0.475605  0.234445  1
  Br  Br16  1  0.009093  0.810731  0.191164  1
  Br  Br17  1  0.029008  0.382276  0.975929  1
  Br  Br18  1  0.202572  0.927611  0.882524  1
  Br  Br19  1  0.297428  0.427611  0.617476  1
  Br  Br20  1  0.470992  0.882276  0.524071  1
  Br  Br21  1  0.490907  0.310731  0.308836  1
  Br  Br22  1  0.458240  0.604629  0.982817  1
  Br  Br23  1  0.300424  0.975605  0.265555  1
  Br  Br24  1  0.466977  0.218224  0.737569  1
  Br  Br25  1  0.340181  0.205159  0.045917  1
  Br  Br26  1  0.659819  0.794841  0.954083  1
  Br  Br27  1  0.533023  0.781776  0.262431  1
  Br  Br28  1  0.699576  0.024395  0.734445  1
  Br  Br29  1  0.541760  0.395371  0.017183  1
  Br  Br30  1  0.509093  0.689269  0.691164  1
  Br  Br31  1  0.529008  0.117724  0.475929  1
  Br  Br32  1  0.702572  0.572389  0.382524  1
  Br  Br33  1  0.797428  0.072389  0.117476  1
  Br  Br34  1  0.970992  0.617724  0.024070  1
  Br  Br35  1  0.990907  0.189269  0.808836  1
  Br  Br36  1  0.800424  0.524395  0.765555  1
  Br  Br37  1  0.958240  0.895371  0.482817  1
  Br  Br38  1  0.840181  0.294841  0.545917  1
  Br  Br39  1  0.966977  0.281776  0.237569  1
