# generated using pymatgen
data_Na4Co2C4SO16
_symmetry_space_group_name_H-M   'P 1'
_cell_length_a   9.92532432
_cell_length_b   9.89686619
_cell_length_c   9.95457662
_cell_angle_alpha   120.00348551
_cell_angle_beta   59.71322514
_cell_angle_gamma   119.70973962
_symmetry_Int_Tables_number   1
_chemical_formula_structural   Na4Co2C4SO16
_chemical_formula_sum   'Na8 Co4 C8 S2 O32'
_cell_volume   691.39808209
_cell_formula_units_Z   2
loop_
 _symmetry_equiv_pos_site_id
 _symmetry_equiv_pos_as_xyz
  1  'x, y, z'
loop_
 _atom_site_type_symbol
 _atom_site_label
 _atom_site_symmetry_multiplicity
 _atom_site_fract_x
 _atom_site_fract_y
 _atom_site_fract_z
 _atom_site_occupancy
  Na  Na0  1  0.910079  0.160079  0.339921  1
  Na  Na1  1  0.909996  0.159996  0.909996  1
  Na  Na2  1  0.910072  0.589928  0.339928  1
  Na  Na3  1  0.339928  0.160072  0.910072  1
  Na  Na4  1  0.661196  0.838804  0.088804  1
  Na  Na5  1  0.340004  0.590004  0.340004  1
  Na  Na6  1  0.339921  0.589921  0.910079  1
  Na  Na7  1  0.088804  0.411196  0.661196  1
  Co  Co8  1  0.497550  0.003193  0.000933  1
  Co  Co9  1  0.496807  0.002450  0.504710  1
  Co  Co10  1  0.504710  0.499067  0.496807  1
  Co  Co11  1  0.000933  0.995290  0.497550  1
  C  C12  1  0.713878  0.142969  0.714016  1
  C  C13  1  0.645984  0.212444  0.282781  1
  C  C14  1  0.282781  0.216321  0.645984  1
  C  C15  1  0.283679  0.217219  0.287556  1
  C  C16  1  0.714016  0.784926  0.713878  1
  C  C17  1  0.715074  0.785984  0.357031  1
  C  C18  1  0.357031  0.786122  0.715074  1
  C  C19  1  0.287556  0.854016  0.283679  1
  S  S20  1  0.875000  0.625000  0.875000  1
  S  S21  1  0.125000  0.375000  0.125000  1
  O  O22  1  0.860521  0.154804  0.690834  1
  O  O23  1  0.649189  0.100242  0.313961  1
  O  O24  1  0.687368  0.141883  0.599454  1
  O  O25  1  0.649422  0.178813  0.138135  1
  O  O26  1  0.597454  0.138293  0.854874  1
  O  O27  1  0.937436  0.562322  0.934006  1
  O  O28  1  0.937678  0.562564  0.690881  1
  O  O29  1  0.649818  0.356499  0.392670  1
  O  O30  1  0.392670  0.185989  0.649818  1
  O  O31  1  0.314011  0.107330  0.143501  1
  O  O32  1  0.934006  0.809119  0.937436  1
  O  O33  1  0.690881  0.565994  0.937678  1
  O  O34  1  0.685966  0.645126  0.361707  1
  O  O35  1  0.854874  0.814034  0.597454  1
  O  O36  1  0.391256  0.361864  0.321188  1
  O  O37  1  0.138135  0.108744  0.649422  1
  O  O38  1  0.599454  0.644939  0.687368  1
  O  O39  1  0.855061  0.900546  0.358117  1
  O  O40  1  0.313961  0.362909  0.649189  1
  O  O41  1  0.137091  0.186039  0.399758  1
  O  O42  1  0.309696  0.436408  0.063042  1
  O  O43  1  0.063592  0.190304  0.063670  1
  O  O44  1  0.690834  0.896552  0.860521  1
  O  O45  1  0.603448  0.809166  0.345196  1
  O  O46  1  0.345196  0.639479  0.603448  1
  O  O47  1  0.063670  0.436958  0.063592  1
  O  O48  1  0.063042  0.436330  0.309696  1
  O  O49  1  0.399758  0.850811  0.137091  1
  O  O50  1  0.358117  0.812632  0.855061  1
  O  O51  1  0.321188  0.850578  0.391256  1
  O  O52  1  0.361707  0.902546  0.685966  1
  O  O53  1  0.143501  0.850182  0.314011  1
