# generated using pymatgen
data_Li4Fe3Cu2Sb3O16
_symmetry_space_group_name_H-M   'P 1'
_cell_length_a   6.12024685
_cell_length_b   6.14169656
_cell_length_c   9.94921887
_cell_angle_alpha   90.57009030
_cell_angle_beta   90.65731831
_cell_angle_gamma   120.27932354
_symmetry_Int_Tables_number   1
_chemical_formula_structural   Li4Fe3Cu2Sb3O16
_chemical_formula_sum   'Li4 Fe3 Cu2 Sb3 O16'
_cell_volume   322.88431168
_cell_formula_units_Z   1
loop_
 _symmetry_equiv_pos_site_id
 _symmetry_equiv_pos_as_xyz
  1  'x, y, z'
loop_
 _atom_site_type_symbol
 _atom_site_label
 _atom_site_symmetry_multiplicity
 _atom_site_fract_x
 _atom_site_fract_y
 _atom_site_fract_z
 _atom_site_occupancy
  Li  Li0  1  0.326553  0.664725  0.876819  1
  Li  Li1  1  0.974350  0.980438  0.991544  1
  Li  Li2  1  0.978963  0.987429  0.502806  1
  Li  Li3  1  0.658328  0.333224  0.396514  1
  Fe  Fe4  1  0.666204  0.834016  0.217537  1
  Fe  Fe5  1  0.829393  0.661817  0.715688  1
  Fe  Fe6  1  0.831223  0.168717  0.715663  1
  Cu  Cu7  1  0.340269  0.667950  0.529627  1
  Cu  Cu8  1  0.696799  0.349268  0.978639  1
  Sb  Sb9  1  0.174585  0.833801  0.214453  1
  Sb  Sb10  1  0.173876  0.339752  0.213819  1
  Sb  Sb11  1  0.340079  0.171042  0.716785  1
  O  O12  1  0.159468  0.846632  0.603501  1
  O  O13  1  0.031342  0.516583  0.327643  1
  O  O14  1  0.327741  0.662646  0.100134  1
  O  O15  1  0.012858  0.006372  0.320087  1
  O  O16  1  0.007079  0.004245  0.813423  1
  O  O17  1  0.157229  0.310200  0.604120  1
  O  O18  1  0.490673  0.981159  0.320941  1
  O  O19  1  0.487409  0.514357  0.322986  1
  O  O20  1  0.309187  0.153110  0.100921  1
  O  O21  1  0.678204  0.839904  0.607405  1
  O  O22  1  0.511787  0.484415  0.832331  1
  O  O23  1  0.514967  0.036376  0.835397  1
  O  O24  1  0.657589  0.328110  0.603455  1
  O  O25  1  0.851362  0.686141  0.105401  1
  O  O26  1  0.958887  0.481263  0.835018  1
  O  O27  1  0.853596  0.156608  0.105183  1
