# generated using pymatgen
data_BiOF3
_symmetry_space_group_name_H-M   'P 1'
_cell_length_a   4.16779593
_cell_length_b   14.82885240
_cell_length_c   6.44514491
_cell_angle_alpha   90.00000000
_cell_angle_beta   95.91730021
_cell_angle_gamma   90.00000000
_symmetry_Int_Tables_number   1
_chemical_formula_structural   BiOF3
_chemical_formula_sum   'Bi4 O4 F12'
_cell_volume   396.21092964
_cell_formula_units_Z   4
loop_
 _symmetry_equiv_pos_site_id
 _symmetry_equiv_pos_as_xyz
  1  'x, y, z'
loop_
 _atom_site_type_symbol
 _atom_site_label
 _atom_site_symmetry_multiplicity
 _atom_site_fract_x
 _atom_site_fract_y
 _atom_site_fract_z
 _atom_site_occupancy
  Bi  Bi0  1  0.981326  0.816666  0.681166  1
  Bi  Bi1  1  0.981326  0.683334  0.181166  1
  Bi  Bi2  1  0.018674  0.316666  0.818834  1
  Bi  Bi3  1  0.018674  0.183334  0.318834  1
  O  O4  1  0.119584  0.488643  0.558907  1
  O  O5  1  0.119584  0.011357  0.058907  1
  O  O6  1  0.880416  0.988643  0.941093  1
  O  O7  1  0.880416  0.511357  0.441093  1
  F  F8  1  0.194784  0.189327  0.662760  1
  F  F9  1  0.194784  0.310673  0.162759  1
  F  F10  1  0.237948  0.710006  0.529898  1
  F  F11  1  0.443566  0.888759  0.668734  1
  F  F12  1  0.237948  0.789994  0.029898  1
  F  F13  1  0.443566  0.611241  0.168734  1
  F  F14  1  0.556434  0.388759  0.831266  1
  F  F15  1  0.762052  0.210006  0.970102  1
  F  F16  1  0.556434  0.111241  0.331266  1
  F  F17  1  0.762052  0.289994  0.470102  1
  F  F18  1  0.805216  0.689327  0.837240  1
  F  F19  1  0.805216  0.810673  0.337241  1
