# generated using pymatgen
data_Li2Ti3NiO8
_symmetry_space_group_name_H-M   'P 1'
_cell_length_a   5.93700505
_cell_length_b   5.93700187
_cell_length_c   9.69619768
_cell_angle_alpha   89.99973513
_cell_angle_beta   90.00013017
_cell_angle_gamma   119.99997457
_symmetry_Int_Tables_number   1
_chemical_formula_structural   Li2Ti3NiO8
_chemical_formula_sum   'Li4 Ti6 Ni2 O16'
_cell_volume   295.98302752
_cell_formula_units_Z   2
loop_
 _symmetry_equiv_pos_site_id
 _symmetry_equiv_pos_as_xyz
  1  'x, y, z'
loop_
 _atom_site_type_symbol
 _atom_site_label
 _atom_site_symmetry_multiplicity
 _atom_site_fract_x
 _atom_site_fract_y
 _atom_site_fract_z
 _atom_site_occupancy
  Li  Li0  1  0.333330  0.666681  0.888087  1
  Li  Li1  1  0.999999  0.000003  0.999329  1
  Li  Li2  1  0.000001  0.000004  0.499329  1
  Li  Li3  1  0.666670  0.333351  0.388087  1
  Ti  Ti4  1  0.168717  0.831278  0.215118  1
  Ti  Ti5  1  0.168723  0.337446  0.215102  1
  Ti  Ti6  1  0.662556  0.831286  0.215109  1
  Ti  Ti7  1  0.337444  0.168729  0.715109  1
  Ti  Ti8  1  0.831283  0.662561  0.715118  1
  Ti  Ti9  1  0.831277  0.168722  0.715102  1
  Ni  Ni10  1  0.333337  0.666679  0.489588  1
  Ni  Ni11  1  0.666663  0.333342  0.989588  1
  O  O12  1  0.159052  0.840969  0.607186  1
  O  O13  1  0.036451  0.518240  0.330416  1
  O  O14  1  0.333329  0.666680  0.103586  1
  O  O15  1  0.999998  0.000011  0.315194  1
  O  O16  1  0.000002  0.000013  0.815194  1
  O  O17  1  0.159044  0.318100  0.607186  1
  O  O18  1  0.481773  0.963563  0.330415  1
  O  O19  1  0.481773  0.518238  0.330416  1
  O  O20  1  0.318089  0.159061  0.107187  1
  O  O21  1  0.681911  0.840973  0.607187  1
  O  O22  1  0.518227  0.481789  0.830415  1
  O  O23  1  0.518227  0.036464  0.830416  1
  O  O24  1  0.666671  0.333351  0.603586  1
  O  O25  1  0.840948  0.681918  0.107186  1
  O  O26  1  0.963549  0.481789  0.830416  1
  O  O27  1  0.840956  0.159055  0.107186  1
