# generated using pymatgen
data_Li2MnO2F
_symmetry_space_group_name_H-M   'P 1'
_cell_length_a   5.15224461
_cell_length_b   5.15224461
_cell_length_c   10.28834575
_cell_angle_alpha   80.33032491
_cell_angle_beta   99.66967509
_cell_angle_gamma   60.32172322
_symmetry_Int_Tables_number   1
_chemical_formula_structural   Li2MnO2F
_chemical_formula_sum   'Li8 Mn4 O8 F4'
_cell_volume   223.63109672
_cell_formula_units_Z   4
loop_
 _symmetry_equiv_pos_site_id
 _symmetry_equiv_pos_as_xyz
  1  'x, y, z'
loop_
 _atom_site_type_symbol
 _atom_site_label
 _atom_site_symmetry_multiplicity
 _atom_site_fract_x
 _atom_site_fract_y
 _atom_site_fract_z
 _atom_site_occupancy
  Li  Li0  1  0.545165  0.607658  0.872506  1
  Li  Li1  1  0.265324  0.238274  0.882375  1
  Li  Li2  1  0.415860  0.415860  0.625000  1
  Li  Li3  1  0.769435  0.769435  0.625000  1
  Li  Li4  1  0.238274  0.265324  0.367625  1
  Li  Li5  1  0.607658  0.545165  0.377494  1
  Li  Li6  1  0.416899  0.416899  0.125000  1
  Li  Li7  1  0.739812  0.739812  0.125000  1
  Mn  Mn8  1  0.886313  0.939362  0.870346  1
  Mn  Mn9  1  0.102034  0.102034  0.625000  1
  Mn  Mn10  1  0.939362  0.886313  0.379654  1
  Mn  Mn11  1  0.056945  0.056945  0.125000  1
  O  O12  1  0.132286  0.749231  0.751142  1
  O  O13  1  0.026427  0.490297  0.500033  1
  O  O14  1  0.663859  0.157598  0.990716  1
  O  O15  1  0.157598  0.663859  0.259284  1
  O  O16  1  0.490297  0.026427  0.749967  1
  O  O17  1  0.270000  0.853860  0.001857  1
  O  O18  1  0.749231  0.132286  0.498858  1
  O  O19  1  0.853860  0.270000  0.248143  1
  F  F20  1  0.385560  0.810867  0.502275  1
  F  F21  1  0.810867  0.385560  0.747725  1
  F  F22  1  0.988793  0.488141  0.006477  1
  F  F23  1  0.488141  0.988793  0.243523  1
