# generated using pymatgen
data_Na3Mn2P2(CO7)2
_symmetry_space_group_name_H-M   'P 1'
_cell_length_a   9.01112823
_cell_length_b   8.37384555
_cell_length_c   8.42750162
_cell_angle_alpha   103.28920191
_cell_angle_beta   88.94690197
_cell_angle_gamma   88.93409417
_symmetry_Int_Tables_number   1
_chemical_formula_structural   Na3Mn2P2(CO7)2
_chemical_formula_sum   'Na6 Mn4 P4 C4 O28'
_cell_volume   618.61731850
_cell_formula_units_Z   2
loop_
 _symmetry_equiv_pos_site_id
 _symmetry_equiv_pos_as_xyz
  1  'x, y, z'
loop_
 _atom_site_type_symbol
 _atom_site_label
 _atom_site_symmetry_multiplicity
 _atom_site_fract_x
 _atom_site_fract_y
 _atom_site_fract_z
 _atom_site_occupancy
  Na  Na0  1  0.757854  0.380910  0.370896  1
  Na  Na1  1  0.755349  0.113276  0.650828  1
  Na  Na2  1  0.765716  0.626288  0.125406  1
  Na  Na3  1  0.244769  0.105735  0.142788  1
  Na  Na4  1  0.242030  0.384242  0.875250  1
  Na  Na5  1  0.234602  0.616804  0.617441  1
  Mn  Mn6  1  0.655622  0.488682  0.729191  1
  Mn  Mn7  1  0.649051  0.982883  0.230444  1
  Mn  Mn8  1  0.342377  0.528443  0.264351  1
  Mn  Mn9  1  0.353469  0.016785  0.763264  1
  P  P10  1  0.574094  0.267574  0.022115  1
  P  P11  1  0.571157  0.767655  0.508934  1
  P  P12  1  0.427706  0.230232  0.489166  1
  P  P13  1  0.425961  0.736680  0.973725  1
  C  C14  1  0.918259  0.008528  0.263490  1
  C  C15  1  0.923280  0.508759  0.757760  1
  C  C16  1  0.075724  0.487559  0.241622  1
  C  C17  1  0.083609  0.992171  0.742053  1
  O  O18  1  0.939221  0.472238  0.225440  1
  O  O19  1  0.948717  0.977949  0.728973  1
  O  O20  1  0.856198  0.398446  0.644729  1
  O  O21  1  0.853794  0.898161  0.151199  1
  O  O22  1  0.815621  0.102763  0.360496  1
  O  O23  1  0.827128  0.605542  0.854466  1
  O  O24  1  0.667274  0.143288  0.092411  1
  O  O25  1  0.671744  0.641088  0.561304  1
  O  O26  1  0.670663  0.323045  0.894531  1
  O  O27  1  0.665602  0.828177  0.377699  1
  O  O28  1  0.531918  0.418589  0.164958  1
  O  O29  1  0.577354  0.302917  0.557913  1
  O  O30  1  0.569869  0.806018  0.058554  1
  O  O31  1  0.534526  0.917835  0.655452  1
  O  O32  1  0.466669  0.084688  0.339670  1
  O  O33  1  0.426383  0.191916  0.948079  1
  O  O34  1  0.422649  0.694737  0.443025  1
  O  O35  1  0.468497  0.594718  0.821919  1
  O  O36  1  0.339460  0.171259  0.626208  1
  O  O37  1  0.326211  0.354170  0.435498  1
  O  O38  1  0.320672  0.667614  0.082345  1
  O  O39  1  0.337453  0.872862  0.912888  1
  O  O40  1  0.176302  0.391581  0.146224  1
  O  O41  1  0.183917  0.896266  0.646892  1
  O  O42  1  0.150434  0.104825  0.852581  1
  O  O43  1  0.137896  0.600436  0.352526  1
  O  O44  1  0.052749  0.026370  0.278721  1
  O  O45  1  0.060450  0.517196  0.768674  1
