# generated using pymatgen
data_Ti3(SnO5)2
_symmetry_space_group_name_H-M   'P 1'
_cell_length_a   4.72613967
_cell_length_b   4.72613967
_cell_length_c   15.43283908
_cell_angle_alpha   90.00000000
_cell_angle_beta   90.00000000
_cell_angle_gamma   90.04259402
_symmetry_Int_Tables_number   1
_chemical_formula_structural   Ti3(SnO5)2
_chemical_formula_sum   'Ti6 Sn4 O20'
_cell_volume   344.71391211
_cell_formula_units_Z   2
loop_
 _symmetry_equiv_pos_site_id
 _symmetry_equiv_pos_as_xyz
  1  'x, y, z'
loop_
 _atom_site_type_symbol
 _atom_site_label
 _atom_site_symmetry_multiplicity
 _atom_site_fract_x
 _atom_site_fract_y
 _atom_site_fract_z
 _atom_site_occupancy
  Ti  Ti0  1  0.000000  0.000000  0.192345  1
  Ti  Ti1  1  0.000000  0.000000  0.000731  1
  Ti  Ti2  1  0.000000  0.000000  0.600819  1
  Ti  Ti3  1  0.000000  0.000000  0.800355  1
  Ti  Ti4  1  0.500000  0.500000  0.502679  1
  Ti  Ti5  1  0.500000  0.500000  0.100577  1
  Sn  Sn6  1  0.000000  0.000000  0.401591  1
  Sn  Sn7  1  0.500000  0.500000  0.698624  1
  Sn  Sn8  1  0.500000  0.500000  0.297570  1
  Sn  Sn9  1  0.500000  0.500000  0.902590  1
  O  O10  1  0.199386  0.800614  0.506742  1
  O  O11  1  0.193094  0.806906  0.099038  1
  O  O12  1  0.190460  0.809540  0.294155  1
  O  O13  1  0.186625  0.813375  0.700770  1
  O  O14  1  0.186239  0.813761  0.901407  1
  O  O15  1  0.300165  0.300165  0.005712  1
  O  O16  1  0.301325  0.301325  0.192395  1
  O  O17  1  0.296610  0.296610  0.800516  1
  O  O18  1  0.309491  0.309491  0.404512  1
  O  O19  1  0.299805  0.299805  0.595811  1
  O  O20  1  0.699835  0.699835  0.005712  1
  O  O21  1  0.698675  0.698675  0.192395  1
  O  O22  1  0.690509  0.690509  0.404512  1
  O  O23  1  0.700195  0.700195  0.595811  1
  O  O24  1  0.703390  0.703390  0.800516  1
  O  O25  1  0.806906  0.193094  0.099038  1
  O  O26  1  0.800614  0.199386  0.506742  1
  O  O27  1  0.809540  0.190460  0.294155  1
  O  O28  1  0.813375  0.186625  0.700770  1
  O  O29  1  0.813761  0.186239  0.901407  1
