# generated using pymatgen
data_LiMn(PO3)3
_symmetry_space_group_name_H-M   'P 1'
_cell_length_a   6.85388764
_cell_length_b   7.38929953
_cell_length_c   6.66417883
_cell_angle_alpha   97.83689749
_cell_angle_beta   97.10034945
_cell_angle_gamma   84.61944450
_symmetry_Int_Tables_number   1
_chemical_formula_structural   LiMn(PO3)3
_chemical_formula_sum   'Li2 Mn2 P6 O18'
_cell_volume   330.77666933
_cell_formula_units_Z   2
loop_
 _symmetry_equiv_pos_site_id
 _symmetry_equiv_pos_as_xyz
  1  'x, y, z'
loop_
 _atom_site_type_symbol
 _atom_site_label
 _atom_site_symmetry_multiplicity
 _atom_site_fract_x
 _atom_site_fract_y
 _atom_site_fract_z
 _atom_site_occupancy
  Li  Li0  1  0.160885  0.177506  0.460129  1
  Li  Li1  1  0.839115  0.822494  0.539871  1
  Mn  Mn2  1  0.219500  0.129901  0.958917  1
  Mn  Mn3  1  0.780500  0.870099  0.041083  1
  P  P4  1  0.153700  0.547079  0.791998  1
  P  P5  1  0.298585  0.777508  0.147389  1
  P  P6  1  0.385270  0.789947  0.605140  1
  P  P7  1  0.614730  0.210053  0.394860  1
  P  P8  1  0.701415  0.222492  0.852611  1
  P  P9  1  0.846300  0.452921  0.208002  1
  O  O10  1  0.028844  0.328694  0.243923  1
  O  O11  1  0.149998  0.341462  0.745567  1
  O  O12  1  0.120279  0.916307  0.141053  1
  O  O13  1  0.234337  0.948641  0.649936  1
  O  O14  1  0.240046  0.580881  0.030776  1
  O  O15  1  0.329198  0.604143  0.679564  1
  O  O16  1  0.358313  0.716756  0.365035  1
  O  O17  1  0.400492  0.187430  0.332514  1
  O  O18  1  0.530179  0.164958  0.942265  1
  O  O19  1  0.469821  0.835042  0.057735  1
  O  O20  1  0.599508  0.812570  0.667486  1
  O  O21  1  0.641687  0.283244  0.634965  1
  O  O22  1  0.670802  0.395857  0.320436  1
  O  O23  1  0.759954  0.419119  0.969224  1
  O  O24  1  0.765663  0.051359  0.350064  1
  O  O25  1  0.879721  0.083693  0.858947  1
  O  O26  1  0.850002  0.658538  0.254433  1
  O  O27  1  0.971156  0.671307  0.756077  1
