# generated using pymatgen
data_LiCoPO4
_symmetry_space_group_name_H-M   'P 1'
_cell_length_a   5.19856033
_cell_length_b   5.16816108
_cell_length_c   9.21961590
_cell_angle_alpha   88.57610916
_cell_angle_beta   90.70772304
_cell_angle_gamma   119.80674087
_symmetry_Int_Tables_number   1
_chemical_formula_structural   LiCoPO4
_chemical_formula_sum   'Li2 Co2 P2 O8'
_cell_volume   214.86759512
_cell_formula_units_Z   2
loop_
 _symmetry_equiv_pos_site_id
 _symmetry_equiv_pos_as_xyz
  1  'x, y, z'
loop_
 _atom_site_type_symbol
 _atom_site_label
 _atom_site_symmetry_multiplicity
 _atom_site_fract_x
 _atom_site_fract_y
 _atom_site_fract_z
 _atom_site_occupancy
  Li  Li0  1  0.999571  0.994846  0.786378  1
  Li  Li1  1  0.000429  0.995276  0.286378  1
  Co  Co2  1  0.334922  0.663881  0.335099  1
  Co  Co3  1  0.665078  0.328960  0.835099  1
  P  P4  1  0.334986  0.668621  0.705436  1
  P  P5  1  0.665014  0.333635  0.205436  1
  O  O6  1  0.052269  0.661792  0.765327  1
  O  O7  1  0.344382  0.700869  0.540621  1
  O  O8  1  0.613691  0.939551  0.772180  1
  O  O9  1  0.331338  0.376168  0.755408  1
  O  O10  1  0.386309  0.325861  0.272180  1
  O  O11  1  0.655618  0.356487  0.040621  1
  O  O12  1  0.668662  0.044830  0.255408  1
  O  O13  1  0.947731  0.609523  0.265327  1
