# generated using pymatgen
data_Fe3O4
_symmetry_space_group_name_H-M   'P 1'
_cell_length_a   6.00711340
_cell_length_b   6.12170466
_cell_length_c   8.50923247
_cell_angle_alpha   90.50376355
_cell_angle_beta   90.00000000
_cell_angle_gamma   90.00000000
_symmetry_Int_Tables_number   1
_chemical_formula_structural   Fe3O4
_chemical_formula_sum   'Fe12 O16'
_cell_volume   312.90449766
_cell_formula_units_Z   4
loop_
 _symmetry_equiv_pos_site_id
 _symmetry_equiv_pos_as_xyz
  1  'x, y, z'
loop_
 _atom_site_type_symbol
 _atom_site_label
 _atom_site_symmetry_multiplicity
 _atom_site_fract_x
 _atom_site_fract_y
 _atom_site_fract_z
 _atom_site_occupancy
  Fe  Fe0  1  0.000000  0.744545  0.128278  1
  Fe  Fe1  1  0.000000  0.255455  0.871722  1
  Fe  Fe2  1  0.000000  0.500000  0.500000  1
  Fe  Fe3  1  0.500000  0.500000  0.000000  1
  Fe  Fe4  1  0.500000  0.000000  0.000000  1
  Fe  Fe5  1  0.000000  0.000000  0.500000  1
  Fe  Fe6  1  0.253321  0.748661  0.751907  1
  Fe  Fe7  1  0.253321  0.251339  0.248093  1
  Fe  Fe8  1  0.746679  0.251339  0.248093  1
  Fe  Fe9  1  0.746679  0.748661  0.751907  1
  Fe  Fe10  1  0.500000  0.758010  0.376096  1
  Fe  Fe11  1  0.500000  0.241990  0.623904  1
  O  O12  1  0.258539  0.738481  0.992054  1
  O  O13  1  0.258539  0.261519  0.007946  1
  O  O14  1  0.741461  0.261519  0.007946  1
  O  O15  1  0.741461  0.738481  0.992054  1
  O  O16  1  0.239447  0.761775  0.506419  1
  O  O17  1  0.239447  0.238225  0.493581  1
  O  O18  1  0.760553  0.238225  0.493581  1
  O  O19  1  0.760553  0.761775  0.506419  1
  O  O20  1  0.500000  0.009808  0.243748  1
  O  O21  1  0.500000  0.990192  0.756252  1
  O  O22  1  0.500000  0.502523  0.758508  1
  O  O23  1  0.500000  0.497477  0.241492  1
  O  O24  1  0.000000  0.488801  0.254018  1
  O  O25  1  0.000000  0.511199  0.745982  1
  O  O26  1  0.000000  0.990843  0.743603  1
  O  O27  1  0.000000  0.009157  0.256397  1
