# generated using pymatgen
data_Ba2VI5O17
_symmetry_space_group_name_H-M   'P 1'
_cell_length_a   7.26160228
_cell_length_b   7.68588114
_cell_length_c   33.69774524
_cell_angle_alpha   90.00000000
_cell_angle_beta   90.00000000
_cell_angle_gamma   116.19585323
_symmetry_Int_Tables_number   1
_chemical_formula_structural   Ba2VI5O17
_chemical_formula_sum   'Ba8 V4 I20 O68'
_cell_volume   1687.56282023
_cell_formula_units_Z   4
loop_
 _symmetry_equiv_pos_site_id
 _symmetry_equiv_pos_as_xyz
  1  'x, y, z'
loop_
 _atom_site_type_symbol
 _atom_site_label
 _atom_site_symmetry_multiplicity
 _atom_site_fract_x
 _atom_site_fract_y
 _atom_site_fract_z
 _atom_site_occupancy
  Ba  Ba0  1  0.171942  0.815295  0.002155  1
  Ba  Ba1  1  0.480901  0.377959  0.186971  1
  Ba  Ba2  1  0.519099  0.622041  0.813029  1
  Ba  Ba3  1  0.828058  0.184705  0.997845  1
  Ba  Ba4  1  0.019099  0.622041  0.686971  1
  Ba  Ba5  1  0.980901  0.377959  0.313029  1
  Ba  Ba6  1  0.671942  0.815295  0.497845  1
  Ba  Ba7  1  0.328058  0.184705  0.502155  1
  V  V8  1  0.020261  0.027345  0.096472  1
  V  V9  1  0.520261  0.027345  0.403528  1
  V  V10  1  0.479739  0.972655  0.596472  1
  V  V11  1  0.979739  0.972655  0.903528  1
  I  I12  1  0.556474  0.601876  0.952147  1
  I  I13  1  0.492098  0.125436  0.885889  1
  I  I14  1  0.133931  0.723286  0.215130  1
  I  I15  1  0.992098  0.125436  0.614111  1
  I  I16  1  0.898590  0.098687  0.199265  1
  I  I17  1  0.101410  0.901313  0.800735  1
  I  I18  1  0.601410  0.901313  0.699265  1
  I  I19  1  0.633931  0.723286  0.284870  1
  I  I20  1  0.443526  0.398124  0.047853  1
  I  I21  1  0.581718  0.560807  0.603818  1
  I  I22  1  0.507902  0.874564  0.114111  1
  I  I23  1  0.081718  0.560807  0.896182  1
  I  I24  1  0.398590  0.098687  0.300735  1
  I  I25  1  0.866069  0.276714  0.784870  1
  I  I26  1  0.056474  0.601876  0.547853  1
  I  I27  1  0.418282  0.439193  0.396182  1
  I  I28  1  0.918282  0.439193  0.103818  1
  I  I29  1  0.943526  0.398124  0.452147  1
  I  I30  1  0.366069  0.276714  0.715130  1
  I  I31  1  0.007902  0.874564  0.385889  1
  O  O32  1  0.963776  0.179650  0.468062  1
  O  O33  1  0.838368  0.585292  0.613810  1
  O  O34  1  0.048773  0.466295  0.946363  1
  O  O35  1  0.161632  0.414708  0.386190  1
  O  O36  1  0.342617  0.088622  0.611384  1
  O  O37  1  0.245662  0.293565  0.088319  1
  O  O38  1  0.834037  0.185951  0.086898  1
  O  O39  1  0.665963  0.814049  0.586898  1
  O  O40  1  0.556513  0.233994  0.935143  1
  O  O41  1  0.526484  0.029658  0.548012  1
  O  O42  1  0.544322  0.311472  0.269946  1
  O  O43  1  0.056513  0.233994  0.564857  1
  O  O44  1  0.943487  0.766006  0.435143  1
  O  O45  1  0.068139  0.192744  0.155304  1
  O  O46  1  0.044322  0.311472  0.230054  1
  O  O47  1  0.473787  0.321909  0.765351  1
  O  O48  1  0.931861  0.807256  0.844696  1
  O  O49  1  0.026213  0.678091  0.265351  1
  O  O50  1  0.548773  0.466295  0.553637  1
  O  O51  1  0.862548  0.668859  0.353785  1
  O  O52  1  0.774393  0.410737  0.491405  1
  O  O53  1  0.473516  0.970342  0.451988  1
  O  O54  1  0.259012  0.854962  0.378274  1
  O  O55  1  0.443487  0.766006  0.064857  1
  O  O56  1  0.951227  0.533705  0.053637  1
  O  O57  1  0.463776  0.179650  0.031938  1
  O  O58  1  0.240988  0.145038  0.878274  1
  O  O59  1  0.165963  0.814049  0.913102  1
  O  O60  1  0.097844  0.369835  0.814961  1
  O  O61  1  0.431861  0.807256  0.655304  1
  O  O62  1  0.289150  0.013082  0.715127  1
  O  O63  1  0.338368  0.585292  0.886190  1
  O  O64  1  0.455678  0.688528  0.730054  1
  O  O65  1  0.682650  0.139374  0.181510  1
  O  O66  1  0.745662  0.293565  0.411681  1
  O  O67  1  0.754338  0.706435  0.911681  1
  O  O68  1  0.317350  0.860626  0.818490  1
  O  O69  1  0.536224  0.820350  0.968062  1
  O  O70  1  0.568139  0.192744  0.344696  1
  O  O71  1  0.725607  0.589263  0.991405  1
  O  O72  1  0.842617  0.088622  0.888616  1
  O  O73  1  0.955678  0.688528  0.769946  1
  O  O74  1  0.026484  0.029658  0.951988  1
  O  O75  1  0.710850  0.986918  0.284873  1
  O  O76  1  0.274393  0.410737  0.008595  1
  O  O77  1  0.225607  0.589263  0.508595  1
  O  O78  1  0.789150  0.013082  0.784873  1
  O  O79  1  0.451227  0.533705  0.446363  1
  O  O80  1  0.759012  0.854962  0.121726  1
  O  O81  1  0.182650  0.139374  0.318490  1
  O  O82  1  0.973516  0.970342  0.048012  1
  O  O83  1  0.362548  0.668859  0.146215  1
  O  O84  1  0.740988  0.145038  0.621726  1
  O  O85  1  0.210850  0.986918  0.215127  1
  O  O86  1  0.902156  0.630165  0.185039  1
  O  O87  1  0.973787  0.321909  0.734649  1
  O  O88  1  0.254338  0.706435  0.588319  1
  O  O89  1  0.036224  0.820350  0.531938  1
  O  O90  1  0.817350  0.860626  0.681510  1
  O  O91  1  0.402156  0.630165  0.314961  1
  O  O92  1  0.334037  0.185951  0.413102  1
  O  O93  1  0.661632  0.414708  0.113810  1
  O  O94  1  0.526213  0.678091  0.234649  1
  O  O95  1  0.597844  0.369835  0.685039  1
  O  O96  1  0.157383  0.911378  0.111384  1
  O  O97  1  0.137452  0.331141  0.646215  1
  O  O98  1  0.637452  0.331141  0.853785  1
  O  O99  1  0.657383  0.911378  0.388616  1
