# generated using pymatgen
data_Li3Mn2P2(CO7)2
_symmetry_space_group_name_H-M   'P 1'
_cell_length_a   8.31497629
_cell_length_b   5.06316065
_cell_length_c   6.47587453
_cell_angle_alpha   90.20232198
_cell_angle_beta   89.07309748
_cell_angle_gamma   85.87249644
_symmetry_Int_Tables_number   1
_chemical_formula_structural   Li3Mn2P2(CO7)2
_chemical_formula_sum   'Li3 Mn2 P2 C2 O14'
_cell_volume   271.88899517
_cell_formula_units_Z   1
loop_
 _symmetry_equiv_pos_site_id
 _symmetry_equiv_pos_as_xyz
  1  'x, y, z'
loop_
 _atom_site_type_symbol
 _atom_site_label
 _atom_site_symmetry_multiplicity
 _atom_site_fract_x
 _atom_site_fract_y
 _atom_site_fract_z
 _atom_site_occupancy
  Li  Li0  1  0.265155  0.239708  0.462357  1
  Li  Li1  1  0.746727  0.753412  0.514222  1
  Li  Li2  1  0.747849  0.755766  0.981941  1
  Mn  Mn3  1  0.330043  0.798417  0.755287  1
  Mn  Mn4  1  0.663783  0.209362  0.250295  1
  P  P5  1  0.419660  0.723106  0.253193  1
  P  P6  1  0.577529  0.270756  0.746759  1
  C  C7  1  0.046604  0.717467  0.743449  1
  C  C8  1  0.949055  0.290279  0.255737  1
  O  O9  1  0.098497  0.953656  0.755377  1
  O  O10  1  0.090597  0.335492  0.276537  1
  O  O11  1  0.165254  0.531896  0.734000  1
  O  O12  1  0.323900  0.795414  0.061192  1
  O  O13  1  0.317244  0.831679  0.439385  1
  O  O14  1  0.411238  0.155251  0.734397  1
  O  O15  1  0.456622  0.417214  0.279107  1
  O  O16  1  0.549941  0.581076  0.745890  1
  O  O17  1  0.588845  0.842522  0.250129  1
  O  O18  1  0.672003  0.172507  0.938078  1
  O  O19  1  0.687213  0.172622  0.562457  1
  O  O20  1  0.828119  0.480976  0.246681  1
  O  O21  1  0.899774  0.671076  0.743539  1
  O  O22  1  0.891408  0.054444  0.243808  1
