# generated using pymatgen
data_SrLaI5
_symmetry_space_group_name_H-M   'P 1'
_cell_length_a   6.41181244
_cell_length_b   11.44291773
_cell_length_c   7.98041326
_cell_angle_alpha   88.63847096
_cell_angle_beta   95.42409356
_cell_angle_gamma   106.14980880
_symmetry_Int_Tables_number   1
_chemical_formula_structural   SrLaI5
_chemical_formula_sum   'Sr2 La2 I10'
_cell_volume   559.89534923
_cell_formula_units_Z   2
loop_
 _symmetry_equiv_pos_site_id
 _symmetry_equiv_pos_as_xyz
  1  'x, y, z'
loop_
 _atom_site_type_symbol
 _atom_site_label
 _atom_site_symmetry_multiplicity
 _atom_site_fract_x
 _atom_site_fract_y
 _atom_site_fract_z
 _atom_site_occupancy
  Sr  Sr0  1  0.324399  0.645522  0.256373  1
  Sr  Sr1  1  0.681325  0.356245  0.752839  1
  La  La2  1  0.079731  0.158815  0.249392  1
  La  La3  1  0.922201  0.841329  0.750175  1
  I  I4  1  0.211491  0.923340  0.106529  1
  I  I5  1  0.194189  0.393096  0.992848  1
  I  I6  1  0.370903  0.739775  0.744375  1
  I  I7  1  0.204289  0.393770  0.505751  1
  I  I8  1  0.285485  0.077833  0.607760  1
  I  I9  1  0.715988  0.923155  0.392051  1
  I  I10  1  0.805688  0.606673  0.492899  1
  I  I11  1  0.631578  0.260813  0.246877  1
  I  I12  1  0.805451  0.607739  0.006533  1
  I  I13  1  0.790484  0.075208  0.892871  1
