# generated using pymatgen
data_CaTm2O4
_symmetry_space_group_name_H-M   'P 1'
_cell_length_a   9.85069756
_cell_length_b   11.66279741
_cell_length_c   3.32779806
_cell_angle_alpha   90.00000000
_cell_angle_beta   90.00000000
_cell_angle_gamma   90.00000000
_symmetry_Int_Tables_number   1
_chemical_formula_structural   CaTm2O4
_chemical_formula_sum   'Ca4 Tm8 O16'
_cell_volume   382.31970407
_cell_formula_units_Z   4
loop_
 _symmetry_equiv_pos_site_id
 _symmetry_equiv_pos_as_xyz
  1  'x, y, z'
loop_
 _atom_site_type_symbol
 _atom_site_label
 _atom_site_symmetry_multiplicity
 _atom_site_fract_x
 _atom_site_fract_y
 _atom_site_fract_z
 _atom_site_occupancy
  Ca  Ca0  1  0.248213  0.351174  0.750000  1
  Ca  Ca1  1  0.251787  0.851174  0.250000  1
  Ca  Ca2  1  0.748213  0.148826  0.750000  1
  Ca  Ca3  1  0.751787  0.648826  0.250000  1
  Tm  Tm4  1  0.079450  0.610325  0.750000  1
  Tm  Tm5  1  0.075728  0.113969  0.750000  1
  Tm  Tm6  1  0.424272  0.613969  0.250000  1
  Tm  Tm7  1  0.420550  0.110325  0.250000  1
  Tm  Tm8  1  0.579450  0.889675  0.750000  1
  Tm  Tm9  1  0.575727  0.386031  0.750000  1
  Tm  Tm10  1  0.924273  0.886031  0.250000  1
  Tm  Tm11  1  0.920550  0.389675  0.250000  1
  O  O12  1  0.020723  0.717057  0.250000  1
  O  O13  1  0.078679  0.921999  0.750000  1
  O  O14  1  0.129556  0.476496  0.250000  1
  O  O15  1  0.210130  0.182463  0.250000  1
  O  O16  1  0.289870  0.682463  0.750000  1
  O  O17  1  0.370444  0.976496  0.750000  1
  O  O18  1  0.421321  0.421999  0.250000  1
  O  O19  1  0.479277  0.217057  0.750000  1
  O  O20  1  0.520723  0.782943  0.250000  1
  O  O21  1  0.578679  0.578001  0.750000  1
  O  O22  1  0.629556  0.023504  0.250000  1
  O  O23  1  0.710130  0.317537  0.250000  1
  O  O24  1  0.789870  0.817537  0.750000  1
  O  O25  1  0.870444  0.523504  0.750000  1
  O  O26  1  0.921321  0.078001  0.250000  1
  O  O27  1  0.979277  0.282943  0.750000  1
