# generated using pymatgen
data_CaPH4O5F
_symmetry_space_group_name_H-M   'P 1'
_cell_length_a   8.74854741
_cell_length_b   6.52927226
_cell_length_c   5.80422972
_cell_angle_alpha   118.85638011
_cell_angle_beta   110.64941016
_cell_angle_gamma   94.26336659
_symmetry_Int_Tables_number   1
_chemical_formula_structural   CaPH4O5F
_chemical_formula_sum   'Ca2 P2 H8 O10 F2'
_cell_volume   259.34735302
_cell_formula_units_Z   2
loop_
 _symmetry_equiv_pos_site_id
 _symmetry_equiv_pos_as_xyz
  1  'x, y, z'
loop_
 _atom_site_type_symbol
 _atom_site_label
 _atom_site_symmetry_multiplicity
 _atom_site_fract_x
 _atom_site_fract_y
 _atom_site_fract_z
 _atom_site_occupancy
  Ca  Ca0  1  0.857756  0.681029  0.655177  1
  Ca  Ca1  1  0.142244  0.318971  0.344823  1
  P  P2  1  0.849632  0.201164  0.639170  1
  P  P3  1  0.150368  0.798836  0.360830  1
  H  H4  1  0.637177  0.961413  0.860101  1
  H  H5  1  0.362823  0.038587  0.139899  1
  H  H6  1  0.490201  0.746072  0.550903  1
  H  H7  1  0.509799  0.253928  0.449097  1
  H  H8  1  0.467799  0.659788  0.926353  1
  H  H9  1  0.532201  0.340212  0.073647  1
  H  H10  1  0.316021  0.615061  0.007344  1
  H  H11  1  0.683979  0.384939  0.992656  1
  O  O12  1  0.934073  0.122304  0.849875  1
  O  O13  1  0.065927  0.877696  0.150125  1
  O  O14  1  0.725458  0.347878  0.707308  1
  O  O15  1  0.274542  0.652122  0.292692  1
  O  O16  1  0.968588  0.322955  0.573721  1
  O  O17  1  0.031412  0.677045  0.426279  1
  O  O18  1  0.607033  0.789283  0.705064  1
  O  O19  1  0.392967  0.210717  0.294936  1
  O  O20  1  0.343976  0.610748  0.852304  1
  O  O21  1  0.656024  0.389252  0.147696  1
  F  F22  1  0.268877  0.057339  0.665847  1
  F  F23  1  0.731123  0.942661  0.334153  1
