# generated using pymatgen
data_Mn12O7F17
_symmetry_space_group_name_H-M   'P 1'
_cell_length_a   4.81704322
_cell_length_b   5.87091122
_cell_length_c   15.71437032
_cell_angle_alpha   90.62909832
_cell_angle_beta   89.91654570
_cell_angle_gamma   93.65850830
_symmetry_Int_Tables_number   1
_chemical_formula_structural   Mn12O7F17
_chemical_formula_sum   'Mn12 O7 F17'
_cell_volume   443.47667110
_cell_formula_units_Z   1
loop_
 _symmetry_equiv_pos_site_id
 _symmetry_equiv_pos_as_xyz
  1  'x, y, z'
loop_
 _atom_site_type_symbol
 _atom_site_label
 _atom_site_symmetry_multiplicity
 _atom_site_fract_x
 _atom_site_fract_y
 _atom_site_fract_z
 _atom_site_occupancy
  Mn  Mn0  1  0.038113  0.162404  0.410727  1
  Mn  Mn1  1  0.999723  0.841395  0.244481  1
  Mn  Mn2  1  0.966333  0.190260  0.073133  1
  Mn  Mn3  1  0.032116  0.175247  0.749365  1
  Mn  Mn4  1  0.008428  0.855866  0.587166  1
  Mn  Mn5  1  0.019918  0.857689  0.920055  1
  Mn  Mn6  1  0.474861  0.329124  0.579513  1
  Mn  Mn7  1  0.480895  0.336225  0.919878  1
  Mn  Mn8  1  0.495103  0.343306  0.250918  1
  Mn  Mn9  1  0.517028  0.635815  0.088208  1
  Mn  Mn10  1  0.493753  0.650035  0.419040  1
  Mn  Mn11  1  0.500077  0.642419  0.754101  1
  O  O12  1  0.233897  0.121655  0.304628  1
  O  O13  1  0.219112  0.126411  0.641497  1
  O  O14  1  0.200976  0.131527  0.971407  1
  O  O15  1  0.285628  0.372496  0.472479  1
  O  O16  1  0.293900  0.375737  0.811197  1
  O  O17  1  0.688848  0.393431  0.025903  1
  O  O18  1  0.711046  0.596805  0.193434  1
  F  F19  1  0.249623  0.859196  0.134910  1
  F  F20  1  0.237585  0.879581  0.475514  1
  F  F21  1  0.236809  0.876467  0.810081  1
  F  F22  1  0.246998  0.365688  0.148139  1
  F  F23  1  0.258398  0.614605  0.307256  1
  F  F24  1  0.266636  0.620893  0.641998  1
  F  F25  1  0.270835  0.630498  0.982625  1
  F  F26  1  0.734707  0.390955  0.355805  1
  F  F27  1  0.730267  0.610623  0.533799  1
  F  F28  1  0.744592  0.614911  0.867814  1
  F  F29  1  0.722614  0.380344  0.684438  1
  F  F30  1  0.761554  0.106547  0.186399  1
  F  F31  1  0.786809  0.116759  0.515842  1
  F  F32  1  0.779393  0.892799  0.363179  1
  F  F33  1  0.759872  0.889154  0.022402  1
  F  F34  1  0.781415  0.121299  0.852099  1
  F  F35  1  0.772138  0.891831  0.700571  1
