# generated using pymatgen
data_FeOF
_symmetry_space_group_name_H-M   'P 1'
_cell_length_a   14.34313365
_cell_length_b   14.38940955
_cell_length_c   3.11483734
_cell_angle_alpha   90.00000000
_cell_angle_beta   90.00000000
_cell_angle_gamma   90.10492466
_symmetry_Int_Tables_number   1
_chemical_formula_structural   FeOF
_chemical_formula_sum   'Fe18 O18 F18'
_cell_volume   642.86778486
_cell_formula_units_Z   18
loop_
 _symmetry_equiv_pos_site_id
 _symmetry_equiv_pos_as_xyz
  1  'x, y, z'
loop_
 _atom_site_type_symbol
 _atom_site_label
 _atom_site_symmetry_multiplicity
 _atom_site_fract_x
 _atom_site_fract_y
 _atom_site_fract_z
 _atom_site_occupancy
  Fe  Fe0  1  0.004072  0.987745  0.000000  1
  Fe  Fe1  1  0.004775  0.335854  0.000000  1
  Fe  Fe2  1  0.014045  0.664274  0.000000  1
  Fe  Fe3  1  0.184714  0.163908  0.500000  1
  Fe  Fe4  1  0.152678  0.496499  0.500000  1
  Fe  Fe5  1  0.153594  0.832173  0.500000  1
  Fe  Fe6  1  0.339020  0.003875  0.000000  1
  Fe  Fe7  1  0.336188  0.320260  0.000000  1
  Fe  Fe8  1  0.346026  0.664407  0.000000  1
  Fe  Fe9  1  0.501575  0.513670  0.500000  1
  Fe  Fe10  1  0.486006  0.163892  0.500000  1
  Fe  Fe11  1  0.483305  0.835530  0.500000  1
  Fe  Fe12  1  0.679441  0.997199  0.000000  1
  Fe  Fe13  1  0.679504  0.329759  0.000000  1
  Fe  Fe14  1  0.667767  0.656748  0.000000  1
  Fe  Fe15  1  0.819647  0.163792  0.500000  1
  Fe  Fe16  1  0.816637  0.500442  0.500000  1
  Fe  Fe17  1  0.835721  0.847768  0.500000  1
  O  O18  1  0.064690  0.601672  0.500000  1
  O  O19  1  0.068245  0.939371  0.500000  1
  O  O20  1  0.103724  0.432739  0.000000  1
  O  O21  1  0.100489  0.770219  0.000000  1
  O  O22  1  0.230399  0.231169  0.000000  1
  O  O23  1  0.272268  0.060476  0.500000  1
  O  O24  1  0.399625  0.271004  0.500000  1
  O  O25  1  0.395381  0.600756  0.500000  1
  O  O26  1  0.395012  0.937083  0.500000  1
  O  O27  1  0.437589  0.102143  0.000000  1
  O  O28  1  0.433502  0.771721  0.000000  1
  O  O29  1  0.564222  0.565909  0.000000  1
  O  O30  1  0.732528  0.268734  0.500000  1
  O  O31  1  0.731666  0.607750  0.500000  1
  O  O32  1  0.728555  0.933137  0.500000  1
  O  O33  1  0.769456  0.101047  0.000000  1
  O  O34  1  0.766231  0.436708  0.000000  1
  O  O35  1  0.898861  0.899405  0.000000  1
  F  F36  1  0.063380  0.260936  0.500000  1
  F  F37  1  0.101914  0.102839  0.000000  1
  F  F38  1  0.230573  0.566194  0.000000  1
  F  F39  1  0.231821  0.894447  0.000000  1
  F  F40  1  0.267517  0.731433  0.500000  1
  F  F41  1  0.271235  0.402018  0.500000  1
  F  F42  1  0.435137  0.435722  0.000000  1
  F  F43  1  0.566667  0.231429  0.000000  1
  F  F44  1  0.562230  0.902139  0.000000  1
  F  F45  1  0.602691  0.065519  0.500000  1
  F  F46  1  0.598317  0.395498  0.500000  1
  F  F47  1  0.602105  0.737467  0.500000  1
  F  F48  1  0.768270  0.769973  0.000000  1
  F  F49  1  0.900570  0.233168  0.000000  1
  F  F50  1  0.898302  0.564122  0.000000  1
  F  F51  1  0.937774  0.069739  0.500000  1
  F  F52  1  0.932710  0.399304  0.500000  1
  F  F53  1  0.931632  0.729212  0.500000  1
