# generated using pymatgen
data_Li3V3P8O29
_symmetry_space_group_name_H-M   'P 1'
_cell_length_a   9.75475723
_cell_length_b   9.72827014
_cell_length_c   13.99752570
_cell_angle_alpha   90.00093981
_cell_angle_beta   90.58928536
_cell_angle_gamma   60.08860406
_symmetry_Int_Tables_number   1
_chemical_formula_structural   Li3V3P8O29
_chemical_formula_sum   'Li6 V6 P16 O58'
_cell_volume   1151.30536586
_cell_formula_units_Z   2
loop_
 _symmetry_equiv_pos_site_id
 _symmetry_equiv_pos_as_xyz
  1  'x, y, z'
loop_
 _atom_site_type_symbol
 _atom_site_label
 _atom_site_symmetry_multiplicity
 _atom_site_fract_x
 _atom_site_fract_y
 _atom_site_fract_z
 _atom_site_occupancy
  Li  Li0  1  0.667347  0.235918  0.439659  1
  Li  Li1  1  0.332670  0.764062  0.560327  1
  Li  Li2  1  0.000159  0.998826  0.999967  1
  Li  Li3  1  0.332644  0.903264  0.060340  1
  Li  Li4  1  0.667340  0.096737  0.939670  1
  Li  Li5  1  0.999823  0.999014  0.500045  1
  V  V6  1  0.568982  0.437478  0.244290  1
  V  V7  1  0.000017  0.562797  0.249999  1
  V  V8  1  0.999980  0.437170  0.749996  1
  V  V9  1  0.431086  0.562543  0.755725  1
  V  V10  1  0.568857  0.993663  0.744290  1
  V  V11  1  0.431048  0.006422  0.255691  1
  P  P12  1  0.917406  0.305433  0.344384  1
  P  P13  1  0.315443  0.913373  0.843834  1
  P  P14  1  0.220949  0.690802  0.159453  1
  P  P15  1  0.684519  0.228836  0.656171  1
  P  P16  1  0.335938  0.327061  0.871449  1
  P  P17  1  0.082602  0.222826  0.155619  1
  P  P18  1  0.779069  0.911754  0.340547  1
  P  P19  1  0.684552  0.086679  0.156185  1
  P  P20  1  0.315464  0.771206  0.343812  1
  P  P21  1  0.779072  0.309168  0.840543  1
  P  P22  1  0.664034  0.663034  0.628558  1
  P  P23  1  0.335981  0.337038  0.371446  1
  P  P24  1  0.664040  0.673028  0.128536  1
  P  P25  1  0.917336  0.777252  0.844361  1
  P  P26  1  0.082648  0.694597  0.655649  1
  P  P27  1  0.220894  0.088247  0.659447  1
  O  O28  1  0.619177  0.467852  0.827611  1
  O  O29  1  0.082608  0.535571  0.671759  1
  O  O30  1  0.527223  0.383989  0.673652  1
  O  O31  1  0.619157  0.913073  0.327625  1
  O  O32  1  0.762120  0.016714  0.064115  1
  O  O33  1  0.917388  0.618182  0.828245  1
  O  O34  1  0.084075  0.655034  0.164353  1
  O  O35  1  0.917285  0.464538  0.328157  1
  O  O36  1  0.335094  0.186387  0.324841  1
  O  O37  1  0.994824  0.212887  0.431694  1
  O  O38  1  0.653469  0.087372  0.668069  1
  O  O39  1  0.380882  0.532196  0.172372  1
  O  O40  1  0.082720  0.381808  0.171836  1
  O  O41  1  0.346471  0.912697  0.331942  1
  O  O42  1  0.237897  0.778796  0.435878  1
  O  O43  1  0.783065  0.004845  0.423736  1
  O  O44  1  0.200327  0.008156  0.756034  1
  O  O45  1  0.187111  0.480028  0.323969  1
  O  O46  1  0.799642  0.991900  0.243991  1
  O  O47  1  0.258795  0.083754  0.163839  1
  O  O48  1  0.994695  0.792672  0.931630  1
  O  O49  1  0.653533  0.259198  0.168057  1
  O  O50  1  0.487010  0.332107  0.330027  1
  O  O51  1  0.915987  0.344912  0.835635  1
  O  O52  1  0.512997  0.819105  0.169985  1
  O  O53  1  0.335099  0.478633  0.824866  1
  O  O54  1  0.237948  0.983297  0.935913  1
  O  O55  1  0.527243  0.088841  0.173617  1
  O  O56  1  0.005300  0.787378  0.568380  1
  O  O57  1  0.472749  0.911213  0.826357  1
  O  O58  1  0.486967  0.180955  0.830028  1
  O  O59  1  0.664906  0.521420  0.175163  1
  O  O60  1  0.187090  0.332976  0.823883  1
  O  O61  1  0.000005  0.797209  0.750011  1
  O  O62  1  0.782930  0.212131  0.923721  1
  O  O63  1  0.762025  0.221246  0.564098  1
  O  O64  1  0.200368  0.791527  0.256000  1
  O  O65  1  0.799657  0.208493  0.743966  1
  O  O66  1  0.472778  0.616080  0.326367  1
  O  O67  1  0.340198  0.331344  0.977032  1
  O  O68  1  0.340338  0.328423  0.477030  1
  O  O69  1  0.346484  0.740854  0.831948  1
  O  O70  1  0.513011  0.667952  0.669975  1
  O  O71  1  0.216950  0.787895  0.076252  1
  O  O72  1  0.659651  0.668759  0.022959  1
  O  O73  1  0.217045  0.995057  0.576277  1
  O  O74  1  0.083996  0.260903  0.664355  1
  O  O75  1  0.000025  0.202811  0.250007  1
  O  O76  1  0.812904  0.520080  0.676112  1
  O  O77  1  0.005157  0.207701  0.068325  1
  O  O78  1  0.258837  0.657463  0.663866  1
  O  O79  1  0.812890  0.667130  0.176021  1
  O  O80  1  0.915936  0.739118  0.335634  1
  O  O81  1  0.741207  0.342543  0.336161  1
  O  O82  1  0.659816  0.671527  0.522973  1
  O  O83  1  0.664890  0.813723  0.675135  1
  O  O84  1  0.380788  0.087030  0.672385  1
  O  O85  1  0.741150  0.916294  0.836141  1
