# generated using pymatgen
data_Li3VS4
_symmetry_space_group_name_H-M   'P 1'
_cell_length_a   13.51537626
_cell_length_b   7.39547114
_cell_length_c   12.96537534
_cell_angle_alpha   73.42914757
_cell_angle_beta   85.52469340
_cell_angle_gamma   74.12171391
_symmetry_Int_Tables_number   1
_chemical_formula_structural   Li3VS4
_chemical_formula_sum   'Li24 V8 S32'
_cell_volume   1194.70786656
_cell_formula_units_Z   8
loop_
 _symmetry_equiv_pos_site_id
 _symmetry_equiv_pos_as_xyz
  1  'x, y, z'
loop_
 _atom_site_type_symbol
 _atom_site_label
 _atom_site_symmetry_multiplicity
 _atom_site_fract_x
 _atom_site_fract_y
 _atom_site_fract_z
 _atom_site_occupancy
  Li  Li0  1  0.000000  0.993752  0.000000  1
  Li  Li1  1  0.000000  0.480268  0.000000  1
  Li  Li2  1  0.491667  0.775432  0.993848  1
  Li  Li3  1  0.753513  0.321242  0.049667  1
  Li  Li4  1  0.279953  0.164764  0.189978  1
  Li  Li5  1  0.686022  0.724213  0.225154  1
  Li  Li6  1  0.943901  0.623145  0.242702  1
  Li  Li7  1  0.443901  0.615847  0.257298  1
  Li  Li8  1  0.186022  0.699368  0.274846  1
  Li  Li9  1  0.779953  0.104741  0.310022  1
  Li  Li10  1  0.253513  0.120909  0.450333  1
  Li  Li11  1  0.991667  0.519280  0.506152  1
  Li  Li12  1  0.500000  0.743752  0.500000  1
  Li  Li13  1  0.500000  0.230268  0.500000  1
  Li  Li14  1  0.008333  0.017099  0.493848  1
  Li  Li15  1  0.746487  0.824755  0.549667  1
  Li  Li16  1  0.220047  0.194717  0.689978  1
  Li  Li17  1  0.813978  0.160235  0.725154  1
  Li  Li18  1  0.556099  0.317046  0.742702  1
  Li  Li19  1  0.056099  0.809748  0.757298  1
  Li  Li20  1  0.313978  0.635389  0.774846  1
  Li  Li21  1  0.720047  0.634695  0.810022  1
  Li  Li22  1  0.246487  0.124421  0.950333  1
  Li  Li23  1  0.508333  0.260947  0.006152  1
  V  V24  1  0.229966  0.678520  0.018254  1
  V  V25  1  0.011992  0.171305  0.245100  1
  V  V26  1  0.511992  0.166405  0.254900  1
  V  V27  1  0.729966  0.446774  0.481746  1
  V  V28  1  0.270034  0.658487  0.518254  1
  V  V29  1  0.488008  0.933297  0.745100  1
  V  V30  1  0.988008  0.428397  0.754900  1
  V  V31  1  0.770034  0.926740  0.981746  1
  S  S32  1  0.687668  0.710301  0.997387  1
  S  S33  1  0.324982  0.788646  0.097827  1
  S  S34  1  0.092668  0.649937  0.110308  1
  S  S35  1  0.106694  0.149323  0.104889  1
  S  S36  1  0.811117  0.940727  0.137445  1
  S  S37  1  0.573913  0.390007  0.146513  1
  S  S38  1  0.500640  0.966404  0.166420  1
  S  S39  1  0.863614  0.371348  0.191611  1
  S  S40  1  0.363614  0.312959  0.308389  1
  S  S41  1  0.000640  0.882824  0.333580  1
  S  S42  1  0.073913  0.286520  0.353487  1
  S  S43  1  0.311117  0.828172  0.362555  1
  S  S44  1  0.606694  0.004213  0.395111  1
  S  S45  1  0.592668  0.510245  0.389692  1
  S  S46  1  0.824982  0.636473  0.402173  1
  S  S47  1  0.187668  0.457689  0.502613  1
  S  S48  1  0.812332  0.147970  0.497387  1
  S  S49  1  0.175018  0.863627  0.597827  1
  S  S50  1  0.407332  0.492606  0.610308  1
  S  S51  1  0.393306  0.006017  0.604889  1
  S  S52  1  0.688883  0.501844  0.637445  1
  S  S53  1  0.926087  0.713920  0.646513  1
  S  S54  1  0.999360  0.217044  0.666420  1
  S  S55  1  0.636386  0.984962  0.691611  1
  S  S56  1  0.136386  0.426573  0.808389  1
  S  S57  1  0.499360  0.633464  0.833580  1
  S  S58  1  0.426087  0.110434  0.853487  1
  S  S59  1  0.188884  0.889289  0.862555  1
  S  S60  1  0.893306  0.360906  0.895111  1
  S  S61  1  0.907332  0.852913  0.889692  1
  S  S62  1  0.675018  0.211455  0.902173  1
  S  S63  1  0.312332  0.395357  0.002613  1
