# generated using pymatgen
data_Li3V3(PO4)4
_symmetry_space_group_name_H-M   'P 1'
_cell_length_a   9.16457450
_cell_length_b   8.56369707
_cell_length_c   9.11185308
_cell_angle_alpha   102.13025628
_cell_angle_beta   104.19335345
_cell_angle_gamma   115.04001999
_symmetry_Int_Tables_number   1
_chemical_formula_structural   Li3V3(PO4)4
_chemical_formula_sum   'Li6 V6 P8 O32'
_cell_volume   586.64703099
_cell_formula_units_Z   2
loop_
 _symmetry_equiv_pos_site_id
 _symmetry_equiv_pos_as_xyz
  1  'x, y, z'
loop_
 _atom_site_type_symbol
 _atom_site_label
 _atom_site_symmetry_multiplicity
 _atom_site_fract_x
 _atom_site_fract_y
 _atom_site_fract_z
 _atom_site_occupancy
  Li  Li0  1  0.990207  0.797626  0.535105  1
  Li  Li1  1  0.050778  0.809293  0.162659  1
  Li  Li2  1  0.120654  0.590460  0.306852  1
  Li  Li3  1  0.879346  0.409540  0.693148  1
  Li  Li4  1  0.949222  0.190707  0.837341  1
  Li  Li5  1  0.009793  0.202374  0.464895  1
  V  V6  1  0.502332  0.001855  0.803523  1
  V  V7  1  0.381655  0.356973  0.813024  1
  V  V8  1  0.222480  0.288775  0.262122  1
  V  V9  1  0.777520  0.711225  0.737878  1
  V  V10  1  0.618345  0.643027  0.186976  1
  V  V11  1  0.497668  0.998145  0.196477  1
  P  P12  1  0.330878  0.563168  0.630403  1
  P  P13  1  0.193813  0.018108  0.924549  1
  P  P14  1  0.228164  0.554828  0.028314  1
  P  P15  1  0.304285  0.047964  0.470551  1
  P  P16  1  0.695715  0.952036  0.529449  1
  P  P17  1  0.771836  0.445172  0.971686  1
  P  P18  1  0.806187  0.981892  0.075451  1
  P  P19  1  0.669122  0.436832  0.369597  1
  O  O20  1  0.047754  0.833474  0.790892  1
  O  O21  1  0.071141  0.455705  0.874422  1
  O  O22  1  0.159477  0.847063  0.417212  1
  O  O23  1  0.209306  0.395027  0.665564  1
  O  O24  1  0.323068  0.735025  0.710239  1
  O  O25  1  0.197171  0.176601  0.863268  1
  O  O26  1  0.261773  0.511384  0.445090  1
  O  O27  1  0.278211  0.757664  0.111948  1
  O  O28  1  0.214902  0.159594  0.419798  1
  O  O29  1  0.195695  0.447788  0.144658  1
  O  O30  1  0.510152  0.573308  0.707402  1
  O  O31  1  0.376375  0.031094  0.961141  1
  O  O32  1  0.390008  0.132613  0.663254  1
  O  O33  1  0.563838  0.929010  0.610070  1
  O  O34  1  0.169870  0.048775  0.088889  1
  O  O35  1  0.601674  0.436160  0.997269  1
  O  O36  1  0.398326  0.563840  0.002731  1
  O  O37  1  0.830130  0.951225  0.911111  1
  O  O38  1  0.436162  0.070990  0.389930  1
  O  O39  1  0.609992  0.867387  0.336746  1
  O  O40  1  0.623625  0.968906  0.038859  1
  O  O41  1  0.489848  0.426692  0.292598  1
  O  O42  1  0.804305  0.552212  0.855342  1
  O  O43  1  0.785098  0.840406  0.580202  1
  O  O44  1  0.721789  0.242336  0.888052  1
  O  O45  1  0.738227  0.488616  0.554910  1
  O  O46  1  0.802829  0.823399  0.136732  1
  O  O47  1  0.676932  0.264975  0.289761  1
  O  O48  1  0.790694  0.604973  0.334436  1
  O  O49  1  0.840523  0.152937  0.582788  1
  O  O50  1  0.928859  0.544295  0.125578  1
  O  O51  1  0.952246  0.166526  0.209108  1
