# generated using pymatgen
data_Li4Ti3Cr2Co3O16
_symmetry_space_group_name_H-M   'P 1'
_cell_length_a   5.85414239
_cell_length_b   5.89559431
_cell_length_c   9.57533431
_cell_angle_alpha   90.00281858
_cell_angle_beta   90.45090659
_cell_angle_gamma   120.21899575
_symmetry_Int_Tables_number   1
_chemical_formula_structural   Li4Ti3Cr2Co3O16
_chemical_formula_sum   'Li4 Ti3 Cr2 Co3 O16'
_cell_volume   285.55824935
_cell_formula_units_Z   1
loop_
 _symmetry_equiv_pos_site_id
 _symmetry_equiv_pos_as_xyz
  1  'x, y, z'
loop_
 _atom_site_type_symbol
 _atom_site_label
 _atom_site_symmetry_multiplicity
 _atom_site_fract_x
 _atom_site_fract_y
 _atom_site_fract_z
 _atom_site_occupancy
  Li  Li0  1  0.338761  0.669674  0.890416  1
  Li  Li1  1  0.978291  0.989131  0.994126  1
  Li  Li2  1  0.986924  0.993172  0.498384  1
  Li  Li3  1  0.672821  0.336258  0.396749  1
  Ti  Ti4  1  0.173326  0.834615  0.214487  1
  Ti  Ti5  1  0.172938  0.338604  0.214406  1
  Ti  Ti6  1  0.344307  0.172222  0.716817  1
  Cr  Cr7  1  0.335641  0.667698  0.485461  1
  Cr  Cr8  1  0.671953  0.336068  0.982464  1
  Co  Co9  1  0.661719  0.830700  0.212007  1
  Co  Co10  1  0.836388  0.663764  0.709369  1
  Co  Co11  1  0.836513  0.172899  0.709298  1
  O  O12  1  0.168338  0.838756  0.600926  1
  O  O13  1  0.039958  0.519961  0.336934  1
  O  O14  1  0.335175  0.667541  0.105386  1
  O  O15  1  0.992405  0.996161  0.310413  1
  O  O16  1  0.997455  -0.000981  0.807771  1
  O  O17  1  0.168124  0.329286  0.600694  1
  O  O18  1  0.477139  0.961433  0.341943  1
  O  O19  1  0.477222  0.515628  0.341850  1
  O  O20  1  0.329931  0.164964  0.104763  1
  O  O21  1  0.666314  0.833101  0.606217  1
  O  O22  1  0.514452  0.475760  0.841488  1
  O  O23  1  0.514579  0.039104  0.841589  1
  O  O24  1  0.661473  0.330683  0.601481  1
  O  O25  1  0.842834  0.671518  0.102923  1
  O  O26  1  0.962344  0.481344  0.836524  1
  O  O27  1  0.842675  0.171235  0.102952  1
