# generated using pymatgen
data_Li2VBO4
_symmetry_space_group_name_H-M   'P 1'
_cell_length_a   6.24825665
_cell_length_b   5.18346749
_cell_length_c   4.75028427
_cell_angle_alpha   89.95149141
_cell_angle_beta   89.98911387
_cell_angle_gamma   89.96637902
_symmetry_Int_Tables_number   1
_chemical_formula_structural   Li2VBO4
_chemical_formula_sum   'Li4 V2 B2 O8'
_cell_volume   153.85038984
_cell_formula_units_Z   2
loop_
 _symmetry_equiv_pos_site_id
 _symmetry_equiv_pos_as_xyz
  1  'x, y, z'
loop_
 _atom_site_type_symbol
 _atom_site_label
 _atom_site_symmetry_multiplicity
 _atom_site_fract_x
 _atom_site_fract_y
 _atom_site_fract_z
 _atom_site_occupancy
  Li  Li0  1  0.246883  0.351857  0.492366  1
  Li  Li1  1  0.495542  0.190176  0.995581  1
  Li  Li2  1  0.746384  0.648157  0.990845  1
  Li  Li3  1  0.994750  0.809837  0.494287  1
  V  V4  1  0.005684  0.175600  0.990439  1
  V  V5  1  0.505108  0.824186  0.489979  1
  B  B6  1  0.247676  0.678932  0.006125  1
  B  B7  1  0.747715  0.320993  0.506144  1
  O  O8  1  0.048511  0.814031  0.903647  1
  O  O9  1  0.242895  0.402982  0.910567  1
  O  O10  1  0.250776  0.691889  0.319494  1
  O  O11  1  0.448406  0.810038  0.900222  1
  O  O12  1  0.548593  0.186023  0.404489  1
  O  O13  1  0.742436  0.596836  0.409484  1
  O  O14  1  0.751140  0.308274  0.819432  1
  O  O15  1  0.948449  0.190067  0.400292  1
