# generated using pymatgen
data_Ce3Th2O9
_symmetry_space_group_name_H-M   'P 1'
_cell_length_a   3.92023661
_cell_length_b   10.42711944
_cell_length_c   5.62091819
_cell_angle_alpha   105.65956174
_cell_angle_beta   89.98834582
_cell_angle_gamma   79.14799529
_symmetry_Int_Tables_number   1
_chemical_formula_structural   Ce3Th2O9
_chemical_formula_sum   'Ce3 Th2 O9'
_cell_volume   216.96379419
_cell_formula_units_Z   1
loop_
 _symmetry_equiv_pos_site_id
 _symmetry_equiv_pos_as_xyz
  1  'x, y, z'
loop_
 _atom_site_type_symbol
 _atom_site_label
 _atom_site_symmetry_multiplicity
 _atom_site_fract_x
 _atom_site_fract_y
 _atom_site_fract_z
 _atom_site_occupancy
  Ce  Ce0  1  0.606295  0.790330  0.405343  1
  Ce  Ce1  1  0.001025  0.000290  0.957886  1
  Ce  Ce2  1  0.396074  0.209794  0.613512  1
  Th  Th3  1  0.802521  0.394708  0.201636  1
  Th  Th4  1  0.197298  0.604800  0.806352  1
  O  O5  1  0.085888  0.825725  0.154538  1
  O  O6  1  0.697909  0.603375  0.057764  1
  O  O7  1  0.703146  0.596295  0.555058  1
  O  O8  1  0.912708  0.176181  0.327559  1
  O  O9  1  0.302819  0.396940  0.452470  1
  O  O10  1  0.105087  0.792878  0.640096  1
  O  O11  1  0.298319  0.403212  0.955681  1
  O  O12  1  0.897542  0.206265  0.845224  1
  O  O13  1  0.501763  -0.000046  0.738199  1
