# generated using pymatgen
data_La2SiO5
_symmetry_space_group_name_H-M   'P 1'
_cell_length_a   8.31452816
_cell_length_b   11.80683456
_cell_length_c   8.31452816
_cell_angle_alpha   84.15001924
_cell_angle_beta   88.79710684
_cell_angle_gamma   95.84998076
_symmetry_Int_Tables_number   1
_chemical_formula_structural   La2SiO5
_chemical_formula_sum   'La12 Si6 O30'
_cell_volume   807.33717157
_cell_formula_units_Z   6
loop_
 _symmetry_equiv_pos_site_id
 _symmetry_equiv_pos_as_xyz
  1  'x, y, z'
loop_
 _atom_site_type_symbol
 _atom_site_label
 _atom_site_symmetry_multiplicity
 _atom_site_fract_x
 _atom_site_fract_y
 _atom_site_fract_z
 _atom_site_occupancy
  La  La0  1  0.998497  0.931223  0.713855  1
  La  La1  1  0.286145  0.431223  0.001503  1
  La  La2  1  0.980042  0.745224  0.359976  1
  La  La3  1  0.640024  0.245224  0.019958  1
  La  La4  1  0.337266  0.570246  0.385269  1
  La  La5  1  0.385269  0.929754  0.337266  1
  La  La6  1  0.614731  0.070246  0.662734  1
  La  La7  1  0.662734  0.429754  0.614731  1
  La  La8  1  0.359976  0.754776  0.980042  1
  La  La9  1  0.019958  0.254776  0.640024  1
  La  La10  1  0.713855  0.568777  0.998497  1
  La  La11  1  0.001503  0.068777  0.286145  1
  Si  Si12  1  0.072257  0.551219  0.730853  1
  Si  Si13  1  0.269147  0.051219  0.927743  1
  Si  Si14  1  0.632832  0.750000  0.632832  1
  Si  Si15  1  0.367168  0.250000  0.367168  1
  Si  Si16  1  0.730853  0.948781  0.072257  1
  Si  Si17  1  0.927743  0.448781  0.269147  1
  O  O18  1  0.164757  0.617756  0.874484  1
  O  O19  1  0.125516  0.117756  0.835243  1
  O  O20  1  0.256233  0.925230  0.850079  1
  O  O21  1  0.149921  0.425230  0.743767  1
  O  O22  1  0.116802  0.618144  0.549777  1
  O  O23  1  0.115837  0.923338  0.448718  1
  O  O24  1  0.450223  0.118144  0.883198  1
  O  O25  1  0.551282  0.423338  0.884163  1
  O  O26  1  0.599655  0.718796  0.830722  1
  O  O27  1  0.169278  0.218796  0.400345  1
  O  O28  1  0.764601  0.969710  0.874941  1
  O  O29  1  0.542911  0.865395  0.567601  1
  O  O30  1  0.125059  0.469710  0.235399  1
  O  O31  1  0.257247  0.750000  0.257247  1
  O  O32  1  0.432399  0.365395  0.457089  1
  O  O33  1  0.567601  0.634605  0.542911  1
  O  O34  1  0.742753  0.250000  0.742753  1
  O  O35  1  0.874941  0.530290  0.764601  1
  O  O36  1  0.457089  0.134605  0.432399  1
  O  O37  1  0.235399  0.030290  0.125059  1
  O  O38  1  0.830722  0.781204  0.599655  1
  O  O39  1  0.400345  0.281204  0.169278  1
  O  O40  1  0.448718  0.576662  0.115837  1
  O  O41  1  0.549777  0.881856  0.116802  1
  O  O42  1  0.884163  0.076662  0.551282  1
  O  O43  1  0.883198  0.381856  0.450223  1
  O  O44  1  0.850079  0.574770  0.256233  1
  O  O45  1  0.743767  0.074770  0.149921  1
  O  O46  1  0.874484  0.882244  0.164757  1
  O  O47  1  0.835243  0.382244  0.125516  1
