# generated using pymatgen
data_Ti2Sb2O7
_symmetry_space_group_name_H-M   'P 1'
_cell_length_a   7.76440956
_cell_length_b   13.26402271
_cell_length_c   5.67750230
_cell_angle_alpha   90.00000000
_cell_angle_beta   90.00000000
_cell_angle_gamma   97.74720724
_symmetry_Int_Tables_number   1
_chemical_formula_structural   Ti2Sb2O7
_chemical_formula_sum   'Ti8 Sb8 O28'
_cell_volume   579.37369482
_cell_formula_units_Z   4
loop_
 _symmetry_equiv_pos_site_id
 _symmetry_equiv_pos_as_xyz
  1  'x, y, z'
loop_
 _atom_site_type_symbol
 _atom_site_label
 _atom_site_symmetry_multiplicity
 _atom_site_fract_x
 _atom_site_fract_y
 _atom_site_fract_z
 _atom_site_occupancy
  Ti  Ti0  1  0.064183  0.313515  0.241690  1
  Ti  Ti1  1  0.028379  0.122628  0.754880  1
  Ti  Ti2  1  0.402846  0.663442  0.745349  1
  Ti  Ti3  1  0.465958  0.885859  0.265457  1
  Ti  Ti4  1  0.534042  0.114141  0.765457  1
  Ti  Ti5  1  0.597154  0.336558  0.245349  1
  Ti  Ti6  1  0.971621  0.877372  0.254880  1
  Ti  Ti7  1  0.935817  0.686485  0.741690  1
  Sb  Sb8  1  0.199860  0.925599  0.721092  1
  Sb  Sb9  1  0.134549  0.565040  0.244635  1
  Sb  Sb10  1  0.334087  0.135143  0.248502  1
  Sb  Sb11  1  0.347245  0.396804  0.665996  1
  Sb  Sb12  1  0.652755  0.603196  0.165996  1
  Sb  Sb13  1  0.665913  0.864857  0.748502  1
  Sb  Sb14  1  0.865451  0.434960  0.744635  1
  Sb  Sb15  1  0.800140  0.074401  0.221092  1
  O  O16  1  0.030432  0.201362  0.503695  1
  O  O17  1  0.082743  0.413853  0.526664  1
  O  O18  1  0.177060  0.692890  0.713225  1
  O  O19  1  0.224616  0.892146  0.360016  1
  O  O20  1  0.119933  0.434640  0.060401  1
  O  O21  1  0.014300  0.013009  0.101510  1
  O  O22  1  0.098435  0.219315  0.006669  1
  O  O23  1  0.375536  0.604767  0.045134  1
  O  O24  1  0.455466  0.817893  0.990235  1
  O  O25  1  0.333703  0.322753  0.342178  1
  O  O26  1  0.273355  0.084065  0.753067  1
  O  O27  1  0.393011  0.546531  0.562955  1
  O  O28  1  0.514439  0.976423  0.628633  1
  O  O29  1  0.500949  0.780794  0.516358  1
  O  O30  1  0.499051  0.219206  0.016358  1
  O  O31  1  0.485561  0.023577  0.128633  1
  O  O32  1  0.606989  0.453468  0.062955  1
  O  O33  1  0.726645  0.915935  0.253067  1
  O  O34  1  0.666297  0.677247  0.842178  1
  O  O35  1  0.544534  0.182107  0.490235  1
  O  O36  1  0.624464  0.395233  0.545134  1
  O  O37  1  0.901565  0.780685  0.506669  1
  O  O38  1  0.985700  0.986991  0.601510  1
  O  O39  1  0.880067  0.565360  0.560401  1
  O  O40  1  0.775384  0.107854  0.860016  1
  O  O41  1  0.822940  0.307110  0.213225  1
  O  O42  1  0.917257  0.586147  0.026664  1
  O  O43  1  0.969568  0.798638  0.003695  1
