# generated using pymatgen
data_LiVP2HO8
_symmetry_space_group_name_H-M   'P 1'
_cell_length_a   9.73184011
_cell_length_b   7.99199562
_cell_length_c   7.75989039
_cell_angle_alpha   90.09158900
_cell_angle_beta   68.15452086
_cell_angle_gamma   89.97338180
_symmetry_Int_Tables_number   1
_chemical_formula_structural   LiVP2HO8
_chemical_formula_sum   'Li4 V4 P8 H4 O32'
_cell_volume   560.19882127
_cell_formula_units_Z   4
loop_
 _symmetry_equiv_pos_site_id
 _symmetry_equiv_pos_as_xyz
  1  'x, y, z'
loop_
 _atom_site_type_symbol
 _atom_site_label
 _atom_site_symmetry_multiplicity
 _atom_site_fract_x
 _atom_site_fract_y
 _atom_site_fract_z
 _atom_site_occupancy
  Li  Li0  1  0.226405  0.371216  0.648743  1
  Li  Li1  1  0.272035  0.870491  0.850759  1
  Li  Li2  1  0.778753  0.632689  0.353646  1
  Li  Li3  1  0.774126  0.870803  0.850765  1
  V  V4  1  0.247060  0.497278  0.013860  1
  V  V5  1  0.252496  0.997204  0.486207  1
  V  V6  1  0.746988  0.492711  0.998963  1
  V  V7  1  0.748621  0.011933  0.491946  1
  P  P8  1  0.066950  0.847963  0.230167  1
  P  P9  1  0.067721  0.653752  0.736031  1
  P  P10  1  0.433737  0.346468  0.268392  1
  P  P11  1  0.569212  0.848350  0.231697  1
  P  P12  1  0.432046  0.155033  0.761606  1
  P  P13  1  0.566804  0.656782  0.738406  1
  P  P14  1  0.932430  0.351463  0.268326  1
  P  P15  1  0.933327  0.155981  0.762056  1
  H  H16  1  0.008491  0.508467  0.508253  1
  H  H17  1  0.508693  0.506980  0.509783  1
  H  H18  1  0.487885  0.010396  0.988872  1
  H  H19  1  0.987971  0.010306  0.989242  1
  O  O20  1  0.093943  0.943860  0.052098  1
  O  O21  1  0.096544  0.332344  0.136255  1
  O  O22  1  0.138678  0.673175  0.184505  1
  O  O23  1  0.140776  0.942951  0.351904  1
  O  O24  1  0.094816  0.547431  0.559643  1
  O  O25  1  0.099699  0.174513  0.641368  1
  O  O26  1  0.146276  0.824095  0.686317  1
  O  O27  1  0.144176  0.551304  0.847494  1
  O  O28  1  0.355924  0.443617  0.151730  1
  O  O29  1  0.360928  0.172798  0.315545  1
  O  O30  1  0.404213  0.832121  0.359530  1
  O  O31  1  0.409199  0.441077  0.447902  1
  O  O32  1  0.352549  0.050616  0.654525  1
  O  O33  1  0.353737  0.325497  0.812399  1
  O  O34  1  0.593971  0.939544  0.051663  1
  O  O35  1  0.597535  0.330358  0.137950  1
  O  O36  1  0.399853  0.675686  0.855310  1
  O  O37  1  0.404475  0.050570  0.940139  1
  O  O38  1  0.648502  0.676402  0.192067  1
  O  O39  1  0.643497  0.947322  0.351960  1
  O  O40  1  0.593937  0.562240  0.554155  1
  O  O41  1  0.596636  0.173700  0.639017  1
  O  O42  1  0.650168  0.824291  0.687153  1
  O  O43  1  0.638287  0.556451  0.856403  1
  O  O44  1  0.852025  0.449002  0.154640  1
  O  O45  1  0.865042  0.175594  0.316173  1
  O  O46  1  0.900685  0.831454  0.355245  1
  O  O47  1  0.907504  0.458729  0.439054  1
  O  O48  1  0.854814  0.053781  0.653499  1
  O  O49  1  0.862439  0.328518  0.817201  1
  O  O50  1  0.900870  0.674495  0.855078  1
  O  O51  1  0.904715  0.047620  0.938214  1
