# generated using pymatgen
data_Ba(WO3)6
_symmetry_space_group_name_H-M   'P 1'
_cell_length_a   7.52182218
_cell_length_b   7.52182317
_cell_length_c   7.73528811
_cell_angle_alpha   90.00000000
_cell_angle_beta   90.00000000
_cell_angle_gamma   120.00000003
_symmetry_Int_Tables_number   1
_chemical_formula_structural   Ba(WO3)6
_chemical_formula_sum   'Ba1 W6 O18'
_cell_volume   379.01230295
_cell_formula_units_Z   1
loop_
 _symmetry_equiv_pos_site_id
 _symmetry_equiv_pos_as_xyz
  1  'x, y, z'
loop_
 _atom_site_type_symbol
 _atom_site_label
 _atom_site_symmetry_multiplicity
 _atom_site_fract_x
 _atom_site_fract_y
 _atom_site_fract_z
 _atom_site_occupancy
  Ba  Ba0  1  0.000000  0.000000  0.567602  1
  W  W1  1  1.000000  0.502463  0.751110  1
  W  W2  1  0.000000  0.494607  0.249998  1
  W  W3  1  0.497537  0.497537  0.751110  1
  W  W4  1  0.505393  0.505393  0.249998  1
  W  W5  1  0.494607  1.000000  0.249998  1
  W  W6  1  0.502463  0.000000  0.751110  1
  O  O7  1  0.000000  0.498759  0.000035  1
  O  O8  1  0.000000  0.498743  0.500459  1
  O  O9  1  0.209059  0.786740  0.253319  1
  O  O10  1  0.209166  0.792554  0.745781  1
  O  O11  1  0.207446  0.416613  0.745781  1
  O  O12  1  0.213260  0.422318  0.253319  1
  O  O13  1  0.577682  0.790941  0.253319  1
  O  O14  1  0.583387  0.790834  0.745781  1
  O  O15  1  0.501241  0.501241  0.000035  1
  O  O16  1  0.501257  0.501257  0.500459  1
  O  O17  1  0.422318  0.213260  0.253319  1
  O  O18  1  0.416613  0.207446  0.745781  1
  O  O19  1  0.498743  1.000000  0.500459  1
  O  O20  1  0.790834  0.583387  0.745781  1
  O  O21  1  0.790941  0.577682  0.253319  1
  O  O22  1  0.498759  1.000000  0.000035  1
  O  O23  1  0.786740  0.209059  0.253319  1
  O  O24  1  0.792554  0.209166  0.745781  1
