# generated using pymatgen
data_Ti17(NO4)6
_symmetry_space_group_name_H-M   'P 1'
_cell_length_a   15.00148145
_cell_length_b   7.50049661
_cell_length_c   10.03944342
_cell_angle_alpha   90.00000000
_cell_angle_beta   90.00000000
_cell_angle_gamma   80.27427001
_symmetry_Int_Tables_number   1
_chemical_formula_structural   Ti17(NO4)6
_chemical_formula_sum   'Ti34 N12 O48'
_cell_volume   1113.38844036
_cell_formula_units_Z   2
loop_
 _symmetry_equiv_pos_site_id
 _symmetry_equiv_pos_as_xyz
  1  'x, y, z'
loop_
 _atom_site_type_symbol
 _atom_site_label
 _atom_site_symmetry_multiplicity
 _atom_site_fract_x
 _atom_site_fract_y
 _atom_site_fract_z
 _atom_site_occupancy
  Ti  Ti0  1  0.986865  0.692295  0.927929  1
  Ti  Ti1  1  0.986865  0.692295  0.572071  1
  Ti  Ti2  1  0.846468  0.974372  0.427929  1
  Ti  Ti3  1  0.846468  0.974372  0.072071  1
  Ti  Ti4  1  0.679752  0.966221  0.250000  1
  Ti  Ti5  1  0.984041  0.363869  0.750000  1
  Ti  Ti6  1  0.816997  0.366598  0.569486  1
  Ti  Ti7  1  0.849292  0.302798  0.250000  1
  Ti  Ti8  1  0.816997  0.366598  0.930514  1
  Ti  Ti9  1  0.680453  0.638805  0.060029  1
  Ti  Ti10  1  0.680453  0.638805  0.439971  1
  Ti  Ti11  1  0.819372  0.033409  0.750000  1
  Ti  Ti12  1  0.516340  0.640837  0.250000  1
  Ti  Ti13  1  0.489251  0.697446  0.922923  1
  Ti  Ti14  1  0.489251  0.697446  0.577077  1
  Ti  Ti15  1  0.344083  0.969221  0.077077  1
  Ti  Ti16  1  0.344083  0.969221  0.422923  1
  Ti  Ti17  1  0.652463  0.019657  0.922650  1
  Ti  Ti18  1  0.483236  0.364020  0.750000  1
  Ti  Ti19  1  0.652463  0.019657  0.577350  1
  Ti  Ti20  1  0.514586  0.305134  0.429700  1
  Ti  Ti21  1  0.514586  0.305134  0.070300  1
  Ti  Ti22  1  0.318747  0.361533  0.929700  1
  Ti  Ti23  1  0.318747  0.361533  0.570300  1
  Ti  Ti24  1  0.153582  0.700446  0.750000  1
  Ti  Ti25  1  0.350097  0.302646  0.250000  1
  Ti  Ti26  1  0.180870  0.647009  0.422650  1
  Ti  Ti27  1  0.180870  0.647009  0.077350  1
  Ti  Ti28  1  0.013961  0.633257  0.250000  1
  Ti  Ti29  1  0.316994  0.025830  0.750000  1
  Ti  Ti30  1  0.152881  0.027862  0.939971  1
  Ti  Ti31  1  0.016337  0.300069  0.430514  1
  Ti  Ti32  1  0.016337  0.300069  0.069486  1
  Ti  Ti33  1  0.152881  0.027862  0.560029  1
  N  N34  1  0.699576  0.959475  0.750000  1
  N  N35  1  0.967856  0.399450  0.250000  1
  N  N36  1  0.865477  0.267217  0.750000  1
  N  N37  1  0.633563  0.731677  0.250000  1
  N  N38  1  0.800593  0.061952  0.250000  1
  N  N39  1  0.520200  0.600487  0.750000  1
  N  N40  1  0.199770  0.934990  0.750000  1
  N  N41  1  0.470224  0.395263  0.250000  1
  N  N42  1  0.363110  0.271403  0.750000  1
  N  N43  1  0.133757  0.707192  0.250000  1
  N  N44  1  0.313133  0.066180  0.250000  1
  N  N45  1  0.032741  0.604715  0.750000  1
  O  O46  1  0.940049  0.785907  0.118503  1
  O  O47  1  0.940049  0.785907  0.381497  1
  O  O48  1  0.893285  0.880760  0.881497  1
  O  O49  1  0.893285  0.880760  0.618503  1
  O  O50  1  0.738944  0.854339  0.437373  1
  O  O51  1  0.738944  0.854339  0.062627  1
  O  O52  1  0.925748  0.480887  0.932510  1
  O  O53  1  0.925748  0.480887  0.567490  1
  O  O54  1  0.907586  0.185780  0.432510  1
  O  O55  1  0.907586  0.185780  0.067490  1
  O  O56  1  0.774729  0.450392  0.121914  1
  O  O57  1  0.774729  0.450392  0.378086  1
  O  O58  1  0.727217  0.543729  0.608769  1
  O  O59  1  0.727217  0.543729  0.891231  1
  O  O60  1  0.588268  0.823519  0.950728  1
  O  O61  1  0.588268  0.823519  0.549272  1
  O  O62  1  0.572263  0.521301  0.062914  1
  O  O63  1  0.394114  0.884393  0.880165  1
  O  O64  1  0.762637  0.142612  0.561993  1
  O  O65  1  0.439219  0.782274  0.119835  1
  O  O66  1  0.762637  0.142612  0.938007  1
  O  O67  1  0.572263  0.521301  0.437086  1
  O  O68  1  0.439219  0.782274  0.380165  1
  O  O69  1  0.394114  0.884393  0.619835  1
  O  O70  1  0.607906  0.121421  0.379789  1
  O  O71  1  0.607906  0.121421  0.120211  1
  O  O72  1  0.558815  0.213994  0.881756  1
  O  O73  1  0.427539  0.475987  0.936331  1
  O  O74  1  0.245066  0.843148  0.450728  1
  O  O75  1  0.245066  0.843148  0.049272  1
  O  O76  1  0.558815  0.213994  0.618244  1
  O  O77  1  0.427539  0.475987  0.563669  1
  O  O78  1  0.405794  0.190680  0.436331  1
  O  O79  1  0.225427  0.545245  0.879789  1
  O  O80  1  0.225427  0.545245  0.620211  1
  O  O81  1  0.094389  0.812328  0.562627  1
  O  O82  1  0.094389  0.812328  0.937373  1
  O  O83  1  0.405794  0.190680  0.063669  1
  O  O84  1  0.274518  0.452673  0.381756  1
  O  O85  1  0.274518  0.452673  0.118244  1
  O  O86  1  0.261070  0.145365  0.562914  1
  O  O87  1  0.261070  0.145365  0.937086  1
  O  O88  1  0.070696  0.524055  0.438007  1
  O  O89  1  0.070696  0.524055  0.061993  1
  O  O90  1  0.058604  0.216275  0.878086  1
  O  O91  1  0.106117  0.122938  0.108769  1
  O  O92  1  0.106117  0.122938  0.391232  1
  O  O93  1  0.058604  0.216275  0.621914  1
