# generated using pymatgen
data_Li4Fe3Ni3(SnO8)2
_symmetry_space_group_name_H-M   'P 1'
_cell_length_a   5.94027509
_cell_length_b   5.87731648
_cell_length_c   9.69145992
_cell_angle_alpha   89.84945079
_cell_angle_beta   90.70635759
_cell_angle_gamma   119.73296394
_symmetry_Int_Tables_number   1
_chemical_formula_structural   Li4Fe3Ni3(SnO8)2
_chemical_formula_sum   'Li4 Fe3 Ni3 Sn2 O16'
_cell_volume   293.78613835
_cell_formula_units_Z   1
loop_
 _symmetry_equiv_pos_site_id
 _symmetry_equiv_pos_as_xyz
  1  'x, y, z'
loop_
 _atom_site_type_symbol
 _atom_site_label
 _atom_site_symmetry_multiplicity
 _atom_site_fract_x
 _atom_site_fract_y
 _atom_site_fract_z
 _atom_site_occupancy
  Li  Li0  1  0.327064  0.663087  0.892594  1
  Li  Li1  1  0.996842  0.997869  0.992700  1
  Li  Li2  1  0.000449  0.000497  0.495480  1
  Li  Li3  1  0.670315  0.335905  0.395749  1
  Fe  Fe4  1  0.168534  0.829186  0.214147  1
  Fe  Fe5  1  0.168856  0.338739  0.214227  1
  Fe  Fe6  1  0.338512  0.169002  0.714794  1
  Ni  Ni7  1  0.659852  0.830931  0.214367  1
  Ni  Ni8  1  0.828481  0.660913  0.713951  1
  Ni  Ni9  1  0.827795  0.167852  0.713969  1
  Sn  Sn10  1  0.339945  0.671980  0.491894  1
  Sn  Sn11  1  0.662543  0.329783  0.990326  1
  O  O12  1  0.169090  0.844501  0.600703  1
  O  O13  1  0.034552  0.517904  0.341444  1
  O  O14  1  0.329435  0.667524  0.106626  1
  O  O15  1  0.999463  0.996125  0.307275  1
  O  O16  1  0.992206  0.996968  0.804138  1
  O  O17  1  0.172871  0.326364  0.599041  1
  O  O18  1  0.485475  0.969695  0.340546  1
  O  O19  1  0.494920  0.528829  0.339227  1
  O  O20  1  0.321157  0.159791  0.100258  1
  O  O21  1  0.690872  0.848207  0.602114  1
  O  O22  1  0.509404  0.480072  0.840040  1
  O  O23  1  0.506384  0.028683  0.839932  1
  O  O24  1  0.672632  0.336265  0.611639  1
  O  O25  1  0.841283  0.676595  0.098124  1
  O  O26  1  0.957502  0.475581  0.833599  1
  O  O27  1  0.833565  0.151452  0.098937  1
