# generated using pymatgen
data_Li8Mn5Fe3(BO3)8
_symmetry_space_group_name_H-M   'P 1'
_cell_length_a   5.23663675
_cell_length_b   5.23061310
_cell_length_c   20.89838415
_cell_angle_alpha   89.40471805
_cell_angle_beta   91.19688970
_cell_angle_gamma   60.14140403
_symmetry_Int_Tables_number   1
_chemical_formula_structural   Li8Mn5Fe3(BO3)8
_chemical_formula_sum   'Li8 Mn5 Fe3 B8 O24'
_cell_volume   496.18749396
_cell_formula_units_Z   1
loop_
 _symmetry_equiv_pos_site_id
 _symmetry_equiv_pos_as_xyz
  1  'x, y, z'
loop_
 _atom_site_type_symbol
 _atom_site_label
 _atom_site_symmetry_multiplicity
 _atom_site_fract_x
 _atom_site_fract_y
 _atom_site_fract_z
 _atom_site_occupancy
  Li  Li0  1  0.323063  0.653394  0.666256  1
  Li  Li1  1  0.346742  0.678242  0.915378  1
  Li  Li2  1  0.321418  0.651506  0.166395  1
  Li  Li3  1  0.347465  0.678506  0.416274  1
  Li  Li4  1  0.650867  0.336230  0.791719  1
  Li  Li5  1  0.662400  0.348952  0.541477  1
  Li  Li6  1  0.651790  0.334653  0.291350  1
  Li  Li7  1  0.662428  0.348371  0.041014  1
  Mn  Mn8  1  0.325965  0.007150  0.558994  1
  Mn  Mn9  1  0.329785  0.003652  0.058335  1
  Mn  Mn10  1  0.678302  0.000642  0.932694  1
  Mn  Mn11  1  0.678754  0.000583  0.432829  1
  Mn  Mn12  1  0.997462  0.325641  0.184480  1
  Fe  Fe13  1  0.998721  0.319861  0.684268  1
  Fe  Fe14  1  -0.010955  0.664072  0.807312  1
  Fe  Fe15  1  -0.000257  0.675226  0.308517  1
  B  B16  1  0.003233  0.341211  0.936233  1
  B  B17  1  0.003480  0.341167  0.436361  1
  B  B18  1  0.334546  -0.000040  0.810981  1
  B  B19  1  0.330646  0.005401  0.311905  1
  B  B20  1  0.662197  0.999636  0.687590  1
  B  B21  1  0.659121  0.998424  0.188094  1
  B  B22  1  0.993913  0.666860  0.563178  1
  B  B23  1  0.995683  0.665571  0.062162  1
  O  O24  1  0.071512  0.251794  0.791788  1
  O  O25  1  0.067684  0.253867  0.292653  1
  O  O26  1  0.254391  0.069666  0.951627  1
  O  O27  1  0.034874  0.577472  0.915541  1
  O  O28  1  0.254319  0.069798  0.451923  1
  O  O29  1  0.033490  0.578365  0.415579  1
  O  O30  1  0.585699  0.024361  0.824777  1
  O  O31  1  0.268644  0.642663  0.569939  1
  O  O32  1  0.581547  0.026401  0.326263  1
  O  O33  1  0.269884  0.641008  0.069616  1
  O  O34  1  0.350083  0.730724  0.818373  1
  O  O35  1  0.348388  0.732490  0.318308  1
  O  O36  1  0.639759  0.274495  0.694261  1
  O  O37  1  0.629382  0.274307  0.195133  1
  O  O38  1  0.727829  0.370457  0.943610  1
  O  O39  1  0.414989  0.980986  0.668885  1
  O  O40  1  0.728033  0.370691  0.443903  1
  O  O41  1  0.421578  0.967417  0.167070  1
  O  O42  1  0.961494  0.423705  0.578881  1
  O  O43  1  0.962268  0.422912  0.077775  1
  O  O44  1  0.750946  0.930261  0.541377  1
  O  O45  1  0.753139  0.929940  0.040658  1
  O  O46  1  0.931355  0.744519  0.700963  1
  O  O47  1  0.930742  0.747994  0.203496  1
