# generated using pymatgen
data_Li5V3Cu(PO4)4
_symmetry_space_group_name_H-M   'P 1'
_cell_length_a   7.81654080
_cell_length_b   7.81649044
_cell_length_c   10.61839469
_cell_angle_alpha   90.15744488
_cell_angle_beta   89.84342617
_cell_angle_gamma   77.26966512
_symmetry_Int_Tables_number   1
_chemical_formula_structural   Li5V3Cu(PO4)4
_chemical_formula_sum   'Li10 V6 Cu2 P8 O32'
_cell_volume   632.80784153
_cell_formula_units_Z   2
loop_
 _symmetry_equiv_pos_site_id
 _symmetry_equiv_pos_as_xyz
  1  'x, y, z'
loop_
 _atom_site_type_symbol
 _atom_site_label
 _atom_site_symmetry_multiplicity
 _atom_site_fract_x
 _atom_site_fract_y
 _atom_site_fract_z
 _atom_site_occupancy
  Li  Li0  1  0.039851  0.949213  0.861597  1
  Li  Li1  1  0.260460  0.721285  0.507014  1
  Li  Li2  1  0.528744  0.989537  0.507038  1
  Li  Li3  1  0.755039  0.743769  0.995458  1
  Li  Li4  1  0.506236  0.494966  0.995467  1
  Li  Li5  1  0.300756  0.210146  0.861614  1
  Li  Li6  1  0.165665  0.084322  0.075784  1
  Li  Li7  1  0.724707  0.273215  0.461366  1
  Li  Li8  1  0.976795  0.525305  0.461371  1
  Li  Li9  1  0.881370  0.368649  0.674302  1
  V  V10  1  0.367876  0.882120  0.227859  1
  V  V11  1  0.861573  0.894877  0.267113  1
  V  V12  1  0.355133  0.388417  0.267123  1
  V  V13  1  0.851088  0.398922  0.212027  1
  V  V14  1  0.143112  0.604542  0.776975  1
  V  V15  1  0.645420  0.106913  0.776987  1
  Cu  Cu16  1  0.199248  0.050758  0.645780  1
  Cu  Cu17  1  0.619076  0.630936  0.717292  1
  P  P18  1  0.083067  0.684266  0.088649  1
  P  P19  1  0.427734  0.822268  0.916811  1
  P  P20  1  0.574271  0.675736  0.403719  1
  P  P21  1  0.064107  0.185885  0.395048  1
  P  P22  1  0.431367  0.329546  0.592309  1
  P  P23  1  0.920458  0.818639  0.592323  1
  P  P24  1  0.565727  0.166933  0.088655  1
  P  P25  1  0.919049  0.330938  0.914741  1
  O  O26  1  0.268314  0.981675  0.915967  1
  O  O27  1  0.081955  0.858420  0.670999  1
  O  O28  1  0.113078  0.857016  0.156502  1
  O  O29  1  0.026241  0.731525  0.949887  1
  O  O30  1  0.486849  0.763153  0.052757  1
  O  O31  1  0.383642  0.659794  0.848612  1
  O  O32  1  0.078991  0.369976  0.838544  1
  O  O33  1  0.590196  0.866379  0.848615  1
  O  O34  1  0.240417  0.531026  0.100258  1
  O  O35  1  0.611733  0.843816  0.337164  1
  O  O36  1  0.406192  0.638265  0.337166  1
  O  O37  1  0.098513  0.354445  0.326102  1
  O  O38  1  0.279254  0.490090  0.603948  1
  O  O39  1  0.759924  0.970738  0.603983  1
  O  O40  1  0.518865  0.731146  0.539730  1
  O  O41  1  0.002622  0.247364  0.530216  1
  O  O42  1  0.982356  0.781207  0.453494  1
  O  O43  1  0.468818  0.267634  0.453487  1
  O  O44  1  0.220735  0.029256  0.390484  1
  O  O45  1  0.732292  0.517717  0.392191  1
  O  O46  1  0.761638  0.488354  0.914380  1
  O  O47  1  0.610634  0.350528  0.649900  1
  O  O48  1  0.391567  0.168066  0.670988  1
  O  O49  1  0.899495  0.639351  0.649897  1
  O  O50  1  0.599521  0.336792  0.157405  1
  O  O51  1  0.392981  0.136918  0.156511  1
  O  O52  1  0.913207  0.650480  0.157395  1
  O  O53  1  0.518438  0.223782  0.949899  1
  O  O54  1  0.977749  0.272277  0.049681  1
  O  O55  1  0.879998  0.170975  0.838580  1
  O  O56  1  0.718964  0.009591  0.100249  1
  O  O57  1  0.895553  0.151490  0.326094  1
