# generated using pymatgen
data_Ti17(NO4)6
_symmetry_space_group_name_H-M   'P 1'
_cell_length_a   10.39377551
_cell_length_b   11.47144552
_cell_length_c   10.74188777
_cell_angle_alpha   69.13894606
_cell_angle_beta   82.45218112
_cell_angle_gamma   68.41770009
_symmetry_Int_Tables_number   1
_chemical_formula_structural   Ti17(NO4)6
_chemical_formula_sum   'Ti34 N12 O48'
_cell_volume   1112.90543173
_cell_formula_units_Z   2
loop_
 _symmetry_equiv_pos_site_id
 _symmetry_equiv_pos_as_xyz
  1  'x, y, z'
loop_
 _atom_site_type_symbol
 _atom_site_label
 _atom_site_symmetry_multiplicity
 _atom_site_fract_x
 _atom_site_fract_y
 _atom_site_fract_z
 _atom_site_occupancy
  Ti  Ti0  1  0.139070  0.096583  0.069949  1
  Ti  Ti1  1  0.640383  0.094435  0.074835  1
  Ti  Ti2  1  0.363206  0.021638  0.570870  1
  Ti  Ti3  1  0.302565  0.148726  0.250029  1
  Ti  Ti4  1  0.855919  0.017625  0.577755  1
  Ti  Ti5  1  0.144081  0.315708  0.422245  1
  Ti  Ti6  1  0.140873  0.432433  0.076148  1
  Ti  Ti7  1  0.198915  0.184357  0.748526  1
  Ti  Ti8  1  0.801085  0.148976  0.251474  1
  Ti  Ti9  1  0.362302  0.360423  0.557547  1
  Ti  Ti10  1  0.636619  0.431473  0.070674  1
  Ti  Ti11  1  0.359617  0.238898  0.925165  1
  Ti  Ti12  1  0.636794  0.311695  0.429130  1
  Ti  Ti13  1  0.697435  0.184608  0.749971  1
  Ti  Ti14  1  0.141027  0.756312  0.077251  1
  Ti  Ti15  1  0.195942  0.518396  0.749947  1
  Ti  Ti16  1  0.864170  0.355269  0.568601  1
  Ti  Ti17  1  0.140756  0.640615  0.423359  1
  Ti  Ti18  1  0.860930  0.236750  0.930051  1
  Ti  Ti19  1  0.803050  0.483462  0.248087  1
  Ti  Ti20  1  0.359496  0.688602  0.574651  1
  Ti  Ti21  1  0.640504  0.644732  0.425349  1
  Ti  Ti22  1  0.362296  0.565280  0.942421  1
  Ti  Ti23  1  0.637704  0.768054  0.057579  1
  Ti  Ti24  1  0.697589  0.517793  0.749683  1
  Ti  Ti25  1  0.302411  0.815540  0.250317  1
  Ti  Ti26  1  0.135830  0.978065  0.431399  1
  Ti  Ti27  1  0.196950  0.849872  0.751913  1
  Ti  Ti28  1  0.804058  0.814938  0.250053  1
  Ti  Ti29  1  0.858973  0.577021  0.922749  1
  Ti  Ti30  1  0.859244  0.692718  0.576641  1
  Ti  Ti31  1  0.363381  0.901860  0.929326  1
  Ti  Ti32  1  0.637698  0.972910  0.442453  1
  Ti  Ti33  1  0.859127  0.900900  0.923852  1
  N  N34  1  0.227224  0.007662  0.249692  1
  N  N35  1  0.730724  0.005665  0.250587  1
  N  N36  1  0.221315  0.331412  0.249842  1
  N  N37  1  0.732952  0.339044  0.249907  1
  N  N38  1  0.269276  0.327669  0.749413  1
  N  N39  1  0.772776  0.325672  0.750308  1
  N  N40  1  0.221036  0.687826  0.250234  1
  N  N41  1  0.731074  0.673836  0.249268  1
  N  N42  1  0.268926  0.659497  0.750732  1
  N  N43  1  0.778964  0.645507  0.749766  1
  N  N44  1  0.267048  0.994289  0.750093  1
  N  N45  1  0.778685  0.001921  0.750158  1
  O  O46  1  0.189917  0.247445  0.063212  1
  O  O47  1  0.452329  0.143022  0.118145  1
  O  O48  1  0.187266  0.124403  0.434188  1
  O  O49  1  0.450944  0.057298  0.377347  1
  O  O50  1  0.310724  0.085357  0.934394  1
  O  O51  1  0.689875  0.124002  0.437465  1
  O  O52  1  0.048140  0.189864  0.882188  1
  O  O53  1  0.310125  0.209332  0.562535  1
  O  O54  1  0.951860  0.143469  0.117813  1
  O  O55  1  0.047191  0.275230  0.621612  1
  O  O56  1  0.689276  0.247976  0.065606  1
  O  O57  1  0.952809  0.058103  0.378388  1
  O  O58  1  0.810083  0.085888  0.936788  1
  O  O59  1  0.176932  0.458038  0.449154  1
  O  O60  1  0.547671  0.190311  0.881855  1
  O  O61  1  0.549056  0.276036  0.622653  1
  O  O62  1  0.176522  0.590571  0.051209  1
  O  O63  1  0.456658  0.478133  0.109068  1
  O  O64  1  0.456684  0.384103  0.391015  1
  O  O65  1  0.812734  0.208930  0.565812  1
  O  O66  1  0.311199  0.542133  0.563001  1
  O  O67  1  0.047850  0.614127  0.619662  1
  O  O68  1  0.311137  0.417150  0.937079  1
  O  O69  1  0.689596  0.582999  0.062605  1
  O  O70  1  0.951736  0.389355  0.383073  1
  O  O71  1  0.047905  0.521964  0.880775  1
  O  O72  1  0.688936  0.459462  0.434124  1
  O  O73  1  0.952642  0.473902  0.120805  1
  O  O74  1  0.549074  0.524814  0.877458  1
  O  O75  1  0.452364  0.721864  0.381912  1
  O  O76  1  0.450926  0.808520  0.122542  1
  O  O77  1  0.547636  0.611469  0.618088  1
  O  O78  1  0.812851  0.415923  0.934160  1
  O  O79  1  0.810336  0.540433  0.563519  1
  O  O80  1  0.189664  0.792900  0.436481  1
  O  O81  1  0.187149  0.917411  0.065840  1
  O  O82  1  0.048264  0.943978  0.616927  1
  O  O83  1  0.311064  0.873872  0.565876  1
  O  O84  1  0.310404  0.750334  0.937395  1
  O  O85  1  0.688863  0.916183  0.062921  1
  O  O86  1  0.952150  0.719207  0.380338  1
  O  O87  1  0.047358  0.859432  0.879195  1
  O  O88  1  0.952095  0.811369  0.119225  1
  O  O89  1  0.688801  0.791200  0.436999  1
  O  O90  1  0.543316  0.949230  0.608985  1
  O  O91  1  0.543342  0.855201  0.890932  1
  O  O92  1  0.823068  0.875295  0.550846  1
  O  O93  1  0.823478  0.742763  0.948791  1
