# generated using pymatgen
data_Li2Cu2P4O13
_symmetry_space_group_name_H-M   'P 1'
_cell_length_a   11.77684381
_cell_length_b   8.46161041
_cell_length_c   4.72081040
_cell_angle_alpha   90.00000000
_cell_angle_beta   95.76527737
_cell_angle_gamma   90.00000000
_symmetry_Int_Tables_number   1
_chemical_formula_structural   Li2Cu2P4O13
_chemical_formula_sum   'Li4 Cu4 P8 O26'
_cell_volume   468.05421747
_cell_formula_units_Z   2
loop_
 _symmetry_equiv_pos_site_id
 _symmetry_equiv_pos_as_xyz
  1  'x, y, z'
loop_
 _atom_site_type_symbol
 _atom_site_label
 _atom_site_symmetry_multiplicity
 _atom_site_fract_x
 _atom_site_fract_y
 _atom_site_fract_z
 _atom_site_occupancy
  Li  Li0  1  0.383729  0.062007  0.011036  1
  Li  Li1  1  0.383729  0.437993  0.011036  1
  Li  Li2  1  0.616271  0.562007  0.988964  1
  Li  Li3  1  0.616271  0.937993  0.988964  1
  Cu  Cu4  1  0.127439  0.475796  0.017280  1
  Cu  Cu5  1  0.127439  0.024204  0.017280  1
  Cu  Cu6  1  0.872561  0.975796  0.982720  1
  Cu  Cu7  1  0.872561  0.524204  0.982720  1
  P  P8  1  0.011666  0.750000  0.584298  1
  P  P9  1  0.290538  0.250000  0.452581  1
  P  P10  1  0.254120  0.750000  0.708640  1
  P  P11  1  0.473846  0.750000  0.372678  1
  P  P12  1  0.526154  0.250000  0.627322  1
  P  P13  1  0.745880  0.250000  0.291360  1
  P  P14  1  0.709462  0.750000  0.547419  1
  P  P15  1  0.988334  0.250000  0.415702  1
  O  O16  1  0.005950  0.598201  0.774683  1
  O  O17  1  0.005950  0.901799  0.774683  1
  O  O18  1  0.067715  0.250000  0.684462  1
  O  O19  1  0.141011  0.750000  0.482146  1
  O  O20  1  0.253897  0.595658  0.874013  1
  O  O21  1  0.253897  0.904342  0.874013  1
  O  O22  1  0.241735  0.402735  0.312717  1
  O  O23  1  0.241735  0.097265  0.312717  1
  O  O24  1  0.305313  0.250000  0.774642  1
  O  O25  1  0.356781  0.750000  0.528452  1
  O  O26  1  0.426858  0.250000  0.359138  1
  O  O27  1  0.521841  0.096881  0.785258  1
  O  O28  1  0.521841  0.403119  0.785258  1
  O  O29  1  0.478159  0.903119  0.214742  1
  O  O30  1  0.478159  0.596881  0.214742  1
  O  O31  1  0.573142  0.750000  0.640862  1
  O  O32  1  0.643219  0.250000  0.471548  1
  O  O33  1  0.694687  0.750000  0.225358  1
  O  O34  1  0.758265  0.597265  0.687283  1
  O  O35  1  0.758265  0.902735  0.687283  1
  O  O36  1  0.746103  0.095658  0.125987  1
  O  O37  1  0.746103  0.404342  0.125987  1
  O  O38  1  0.858989  0.250000  0.517854  1
  O  O39  1  0.932285  0.750000  0.315538  1
  O  O40  1  0.994050  0.098201  0.225317  1
  O  O41  1  0.994050  0.401799  0.225317  1
