# generated using pymatgen
data_Sr2CaI6
_symmetry_space_group_name_H-M   'P 1'
_cell_length_a   8.06371018
_cell_length_b   8.03297539
_cell_length_c   12.69599671
_cell_angle_alpha   90.00000000
_cell_angle_beta   108.51596999
_cell_angle_gamma   90.00000000
_symmetry_Int_Tables_number   1
_chemical_formula_structural   Sr2CaI6
_chemical_formula_sum   'Sr4 Ca2 I12'
_cell_volume   779.81971414
_cell_formula_units_Z   2
loop_
 _symmetry_equiv_pos_site_id
 _symmetry_equiv_pos_as_xyz
  1  'x, y, z'
loop_
 _atom_site_type_symbol
 _atom_site_label
 _atom_site_symmetry_multiplicity
 _atom_site_fract_x
 _atom_site_fract_y
 _atom_site_fract_z
 _atom_site_occupancy
  Sr  Sr0  1  0.333214  0.500000  0.666428  1
  Sr  Sr1  1  0.166786  0.000000  0.333572  1
  Sr  Sr2  1  0.666786  0.500000  0.333572  1
  Sr  Sr3  1  0.833214  0.000000  0.666428  1
  Ca  Ca4  1  0.000000  0.500000  0.000000  1
  Ca  Ca5  1  0.500000  0.000000  0.000000  1
  I  I6  1  0.116741  0.294293  0.828572  1
  I  I7  1  0.981280  0.750000  0.500000  1
  I  I8  1  0.211831  0.794293  0.828572  1
  I  I9  1  0.616741  0.205707  0.828572  1
  I  I10  1  0.288169  0.294293  0.171428  1
  I  I11  1  0.518720  0.250000  0.500000  1
  I  I12  1  0.481280  0.750000  0.500000  1
  I  I13  1  0.383259  0.794293  0.171428  1
  I  I14  1  0.711831  0.705707  0.828572  1
  I  I15  1  0.788169  0.205707  0.171428  1
  I  I16  1  0.018720  0.250000  0.500000  1
  I  I17  1  0.883259  0.705707  0.171428  1
