# generated using pymatgen
data_Li3Mn3(PO4)4
_symmetry_space_group_name_H-M   'P 1'
_cell_length_a   9.63087817
_cell_length_b   11.08334085
_cell_length_c   6.00365758
_cell_angle_alpha   90.00000000
_cell_angle_beta   90.00000000
_cell_angle_gamma   65.03253214
_symmetry_Int_Tables_number   1
_chemical_formula_structural   Li3Mn3(PO4)4
_chemical_formula_sum   'Li6 Mn6 P8 O32'
_cell_volume   580.95581817
_cell_formula_units_Z   2
loop_
 _symmetry_equiv_pos_site_id
 _symmetry_equiv_pos_as_xyz
  1  'x, y, z'
loop_
 _atom_site_type_symbol
 _atom_site_label
 _atom_site_symmetry_multiplicity
 _atom_site_fract_x
 _atom_site_fract_y
 _atom_site_fract_z
 _atom_site_occupancy
  Li  Li0  1  0.998684  0.486602  0.026989  1
  Li  Li1  1  0.348183  0.272541  0.257126  1
  Li  Li2  1  0.487373  0.015897  0.010016  1
  Li  Li3  1  0.498684  0.486602  0.473011  1
  Li  Li4  1  0.848183  0.272541  0.242874  1
  Li  Li5  1  0.987373  0.015897  0.489984  1
  Mn  Mn6  1  0.128558  0.226491  0.757050  1
  Mn  Mn7  1  0.168609  0.716399  0.751945  1
  Mn  Mn8  1  0.628558  0.226491  0.742950  1
  Mn  Mn9  1  0.379462  0.786311  0.247293  1
  Mn  Mn10  1  0.668609  0.716399  0.748055  1
  Mn  Mn11  1  0.879462  0.786311  0.252707  1
  P  P12  1  0.169652  0.094498  0.237889  1
  P  P13  1  0.253014  0.404373  0.746935  1
  P  P14  1  0.237620  0.597559  0.246007  1
  P  P15  1  0.669652  0.094498  0.262111  1
  P  P16  1  0.341706  0.902417  0.742793  1
  P  P17  1  0.753014  0.404373  0.753065  1
  P  P18  1  0.737620  0.597559  0.253993  1
  P  P19  1  0.841706  0.902417  0.757207  1
  O  O20  1  0.066103  0.164734  0.030938  1
  O  O21  1  0.066973  0.157418  0.445206  1
  O  O22  1  0.317345  0.047540  0.751521  1
  O  O23  1  0.323734  0.099546  0.232731  1
  O  O24  1  0.068217  0.617653  0.240223  1
  O  O25  1  0.211850  0.342134  0.956333  1
  O  O26  1  0.212222  0.327146  0.558117  1
  O  O27  1  0.137573  0.555534  0.749614  1
  O  O28  1  0.350993  0.454011  0.255185  1
  O  O29  1  0.270250  0.677144  0.049744  1
  O  O30  1  0.272429  0.671421  0.451349  1
  O  O31  1  0.416485  0.392802  0.733311  1
  O  O32  1  0.190230  0.885478  0.741398  1
  O  O33  1  0.190611  0.943915  0.244262  1
  O  O34  1  0.566973  0.157418  0.054794  1
  O  O35  1  0.566103  0.164734  0.469062  1
  O  O36  1  0.817345  0.047540  0.748479  1
  O  O37  1  0.446440  0.827017  0.543805  1
  O  O38  1  0.448378  0.830974  0.947093  1
  O  O39  1  0.823734  0.099546  0.267269  1
  O  O40  1  0.568217  0.617653  0.259777  1
  O  O41  1  0.711850  0.342134  0.543667  1
  O  O42  1  0.712222  0.327146  0.941883  1
  O  O43  1  0.637573  0.555534  0.750386  1
  O  O44  1  0.850993  0.454011  0.244815  1
  O  O45  1  0.772429  0.671421  0.048651  1
  O  O46  1  0.770250  0.677144  0.450256  1
  O  O47  1  0.916485  0.392802  0.766689  1
  O  O48  1  0.690230  0.885478  0.758602  1
  O  O49  1  0.690611  0.943915  0.255738  1
  O  O50  1  0.948378  0.830974  0.552907  1
  O  O51  1  0.946440  0.827017  0.956195  1
