# generated using pymatgen
data_Li2CrSiO4
_symmetry_space_group_name_H-M   'P 1'
_cell_length_a   6.57922852
_cell_length_b   5.29319068
_cell_length_c   4.96551942
_cell_angle_alpha   89.97508262
_cell_angle_beta   89.99987815
_cell_angle_gamma   90.00032273
_symmetry_Int_Tables_number   1
_chemical_formula_structural   Li2CrSiO4
_chemical_formula_sum   'Li4 Cr2 Si2 O8'
_cell_volume   172.92474879
_cell_formula_units_Z   2
loop_
 _symmetry_equiv_pos_site_id
 _symmetry_equiv_pos_as_xyz
  1  'x, y, z'
loop_
 _atom_site_type_symbol
 _atom_site_label
 _atom_site_symmetry_multiplicity
 _atom_site_fract_x
 _atom_site_fract_y
 _atom_site_fract_z
 _atom_site_occupancy
  Li  Li0  1  0.248508  0.673015  0.007926  1
  Li  Li1  1  0.251626  0.327071  0.507916  1
  Li  Li2  1  0.748374  0.327070  0.507916  1
  Li  Li3  1  0.751493  0.673014  0.007925  1
  Cr  Cr4  1  0.999992  0.199385  0.994427  1
  Cr  Cr5  1  0.500004  0.800049  0.494383  1
  Si  Si6  1  -0.000002  0.834612  0.519837  1
  Si  Si7  1  0.499998  0.165444  0.019964  1
  O  O8  1  0.999999  0.136387  0.427361  1
  O  O9  1  -0.000000  0.817055  0.851248  1
  O  O10  1  0.207532  0.692468  0.409604  1
  O  O11  1  0.292407  0.307624  0.909581  1
  O  O12  1  0.500002  0.182914  0.351301  1
  O  O13  1  0.500003  0.863788  0.927434  1
  O  O14  1  0.707591  0.307634  0.909577  1
  O  O15  1  0.792471  0.692468  0.409597  1
