# generated using pymatgen
data_Na5NiHO4
_symmetry_space_group_name_H-M   'P 1'
_cell_length_a   9.85845293
_cell_length_b   10.16765688
_cell_length_c   11.82671341
_cell_angle_alpha   90.00000000
_cell_angle_beta   90.00000000
_cell_angle_gamma   90.00000000
_symmetry_Int_Tables_number   1
_chemical_formula_structural   Na5NiHO4
_chemical_formula_sum   'Na40 Ni8 H8 O32'
_cell_volume   1185.47860964
_cell_formula_units_Z   8
loop_
 _symmetry_equiv_pos_site_id
 _symmetry_equiv_pos_as_xyz
  1  'x, y, z'
loop_
 _atom_site_type_symbol
 _atom_site_label
 _atom_site_symmetry_multiplicity
 _atom_site_fract_x
 _atom_site_fract_y
 _atom_site_fract_z
 _atom_site_occupancy
  Na  Na0  1  0.984211  0.592276  0.212996  1
  Na  Na1  1  0.984211  0.907724  0.212996  1
  Na  Na2  1  0.071630  0.067445  0.408901  1
  Na  Na3  1  0.071630  0.432555  0.408901  1
  Na  Na4  1  0.080082  0.750000  0.445440  1
  Na  Na5  1  0.114916  0.250000  0.982566  1
  Na  Na6  1  0.135512  0.565638  0.991486  1
  Na  Na7  1  0.135512  0.934362  0.991486  1
  Na  Na8  1  0.219371  0.582811  0.680421  1
  Na  Na9  1  0.219371  0.917189  0.680421  1
  Na  Na10  1  0.280629  0.082811  0.180421  1
  Na  Na11  1  0.280629  0.417189  0.180421  1
  Na  Na12  1  0.364488  0.065638  0.491486  1
  Na  Na13  1  0.364488  0.434362  0.491486  1
  Na  Na14  1  0.385084  0.750000  0.482566  1
  Na  Na15  1  0.419918  0.250000  0.945440  1
  Na  Na16  1  0.428370  0.567445  0.908901  1
  Na  Na17  1  0.428370  0.932555  0.908901  1
  Na  Na18  1  0.515789  0.092276  0.712996  1
  Na  Na19  1  0.515789  0.407724  0.712996  1
  Na  Na20  1  0.484211  0.592276  0.287004  1
  Na  Na21  1  0.484211  0.907724  0.287004  1
  Na  Na22  1  0.571630  0.067445  0.091099  1
  Na  Na23  1  0.571630  0.432555  0.091099  1
  Na  Na24  1  0.580082  0.750000  0.054560  1
  Na  Na25  1  0.614916  0.250000  0.517434  1
  Na  Na26  1  0.635512  0.565638  0.508514  1
  Na  Na27  1  0.635512  0.934362  0.508514  1
  Na  Na28  1  0.719371  0.582811  0.819579  1
  Na  Na29  1  0.719371  0.917189  0.819579  1
  Na  Na30  1  0.780629  0.082811  0.319579  1
  Na  Na31  1  0.780629  0.417189  0.319579  1
  Na  Na32  1  0.864488  0.065638  0.008514  1
  Na  Na33  1  0.864488  0.434362  0.008514  1
  Na  Na34  1  0.885084  0.750000  0.017434  1
  Na  Na35  1  0.919918  0.250000  0.554560  1
  Na  Na36  1  0.928370  0.932555  0.591099  1
  Na  Na37  1  0.928370  0.567445  0.591099  1
  Na  Na38  1  0.015789  0.092276  0.787004  1
  Na  Na39  1  0.015789  0.407724  0.787004  1
  Ni  Ni40  1  0.010084  0.250000  0.206167  1
  Ni  Ni41  1  0.205024  0.250000  0.618468  1
  Ni  Ni42  1  0.294976  0.750000  0.118468  1
  Ni  Ni43  1  0.489916  0.750000  0.706167  1
  Ni  Ni44  1  0.510084  0.250000  0.293833  1
  Ni  Ni45  1  0.705024  0.250000  0.881532  1
  Ni  Ni46  1  0.794976  0.750000  0.381532  1
  Ni  Ni47  1  0.989916  0.750000  0.793833  1
  H  H48  1  0.234997  0.630397  0.303383  1
  H  H49  1  0.234997  0.869603  0.303383  1
  H  H50  1  0.265003  0.130397  0.803383  1
  H  H51  1  0.265003  0.369603  0.803383  1
  H  H52  1  0.734997  0.630397  0.196617  1
  H  H53  1  0.734997  0.869603  0.196617  1
  H  H54  1  0.765003  0.130397  0.696617  1
  H  H55  1  0.765003  0.369603  0.696617  1
  O  O56  1  0.061944  0.750000  0.647677  1
  O  O57  1  0.055714  0.402849  0.128180  1
  O  O58  1  0.055714  0.097151  0.128180  1
  O  O59  1  0.103492  0.403935  0.603107  1
  O  O60  1  0.103492  0.096065  0.603107  1
  O  O61  1  0.105670  0.750000  0.118311  1
  O  O62  1  0.249608  0.083460  0.874220  1
  O  O63  1  0.249608  0.416540  0.874220  1
  O  O64  1  0.250392  0.583460  0.374220  1
  O  O65  1  0.250392  0.916540  0.374220  1
  O  O66  1  0.394330  0.250000  0.618311  1
  O  O67  1  0.396508  0.596065  0.103107  1
  O  O68  1  0.396508  0.903935  0.103107  1
  O  O69  1  0.444286  0.597151  0.628180  1
  O  O70  1  0.444286  0.902849  0.628180  1
  O  O71  1  0.438056  0.250000  0.147677  1
  O  O72  1  0.561944  0.750000  0.852323  1
  O  O73  1  0.555714  0.097151  0.371820  1
  O  O74  1  0.555714  0.402849  0.371820  1
  O  O75  1  0.603492  0.096065  0.896893  1
  O  O76  1  0.603492  0.403935  0.896893  1
  O  O77  1  0.605670  0.750000  0.381689  1
  O  O78  1  0.749608  0.083460  0.625780  1
  O  O79  1  0.749608  0.416540  0.625780  1
  O  O80  1  0.750392  0.583460  0.125780  1
  O  O81  1  0.750392  0.916540  0.125780  1
  O  O82  1  0.894330  0.250000  0.881689  1
  O  O83  1  0.896508  0.903935  0.396893  1
  O  O84  1  0.896508  0.596065  0.396893  1
  O  O85  1  0.944286  0.902849  0.871820  1
  O  O86  1  0.944286  0.597151  0.871820  1
  O  O87  1  0.938056  0.250000  0.352323  1
