# generated using pymatgen
data_Li2Cr(PO3)5
_symmetry_space_group_name_H-M   'P 1'
_cell_length_a   12.47040483
_cell_length_b   9.59063399
_cell_length_c   5.26929503
_cell_angle_alpha   90.00000000
_cell_angle_beta   94.89733297
_cell_angle_gamma   90.00000000
_symmetry_Int_Tables_number   1
_chemical_formula_structural   Li2Cr(PO3)5
_chemical_formula_sum   'Li4 Cr2 P10 O30'
_cell_volume   627.90218247
_cell_formula_units_Z   2
loop_
 _symmetry_equiv_pos_site_id
 _symmetry_equiv_pos_as_xyz
  1  'x, y, z'
loop_
 _atom_site_type_symbol
 _atom_site_label
 _atom_site_symmetry_multiplicity
 _atom_site_fract_x
 _atom_site_fract_y
 _atom_site_fract_z
 _atom_site_occupancy
  Li  Li0  1  0.936898  0.394417  0.872402  1
  Li  Li1  1  0.068295  0.601328  0.123099  1
  Li  Li2  1  0.436898  0.605583  0.372402  1
  Li  Li3  1  0.568295  0.398672  0.623099  1
  Cr  Cr4  1  0.996272  0.002642  0.005922  1
  Cr  Cr5  1  0.496272  0.997358  0.505922  1
  P  P6  1  0.141525  0.479865  0.615450  1
  P  P7  1  0.581920  0.818417  0.004001  1
  P  P8  1  0.412156  0.177210  0.006797  1
  P  P9  1  0.361769  0.477849  0.878656  1
  P  P10  1  0.246359  0.016680  0.259819  1
  P  P11  1  0.641525  0.520135  0.115450  1
  P  P12  1  0.912156  0.822790  0.506797  1
  P  P13  1  0.861769  0.522151  0.378656  1
  P  P14  1  0.746359  0.983320  0.759819  1
  P  P15  1  0.081920  0.181583  0.504001  1
  O  O16  1  0.067717  0.499299  0.821963  1
  O  O17  1  0.937811  0.854140  0.237736  1
  O  O18  1  0.552118  0.842670  0.272794  1
  O  O19  1  0.700037  0.883485  0.972794  1
  O  O20  1  0.398554  0.338957  0.044058  1
  O  O21  1  0.347408  0.592025  0.062430  1
  O  O22  1  0.652043  0.059201  0.624754  1
  O  O23  1  0.847408  0.407975  0.562430  1
  O  O24  1  0.898554  0.661043  0.544058  1
  O  O25  1  0.251598  0.417697  0.745284  1
  O  O26  1  0.936162  0.504266  0.172993  1
  O  O27  1  0.751598  0.582303  0.245284  1
  O  O28  1  0.839822  0.062611  0.890757  1
  O  O29  1  0.052118  0.157330  0.772794  1
  O  O30  1  0.200037  0.116515  0.472794  1
  O  O31  1  0.152043  0.940799  0.124754  1
  O  O32  1  0.157017  0.592978  0.430904  1
  O  O33  1  0.436162  0.495734  0.672993  1
  O  O34  1  0.492203  0.129946  0.220264  1
  O  O35  1  0.657017  0.407022  0.930904  1
  O  O36  1  0.292803  0.120786  0.053422  1
  O  O37  1  0.992203  0.870054  0.720264  1
  O  O38  1  0.601899  0.658828  0.953196  1
  O  O39  1  0.101899  0.341172  0.453196  1
  O  O40  1  0.567717  0.500701  0.321963  1
  O  O41  1  0.437811  0.145860  0.737736  1
  O  O42  1  0.792803  0.879214  0.553422  1
  O  O43  1  0.502013  0.864435  0.789503  1
  O  O44  1  0.339822  0.937389  0.390757  1
  O  O45  1  0.002013  0.135565  0.289503  1
