# generated using pymatgen
data_Ti3Cu2Sb(PO4)6
_symmetry_space_group_name_H-M   'P 1'
_cell_length_a   8.72778703
_cell_length_b   8.72778720
_cell_length_c   8.72778656
_cell_angle_alpha   59.95085242
_cell_angle_beta   59.95084773
_cell_angle_gamma   59.95084625
_symmetry_Int_Tables_number   1
_chemical_formula_structural   Ti3Cu2Sb(PO4)6
_chemical_formula_sum   'Ti3 Cu2 Sb1 P6 O24'
_cell_volume   469.58370622
_cell_formula_units_Z   1
loop_
 _symmetry_equiv_pos_site_id
 _symmetry_equiv_pos_as_xyz
  1  'x, y, z'
loop_
 _atom_site_type_symbol
 _atom_site_label
 _atom_site_symmetry_multiplicity
 _atom_site_fract_x
 _atom_site_fract_y
 _atom_site_fract_z
 _atom_site_occupancy
  Ti  Ti0  1  0.142050  0.142050  0.142050  1
  Ti  Ti1  1  0.356754  0.356754  0.356754  1
  Ti  Ti2  1  0.641669  0.641669  0.641669  1
  Cu  Cu3  1  0.005944  0.005944  0.005944  1
  Cu  Cu4  1  0.499857  0.499857  0.499857  1
  Sb  Sb5  1  0.857228  0.857228  0.857228  1
  P  P6  1  0.043378  0.747878  0.453168  1
  P  P7  1  0.453168  0.043378  0.747878  1
  P  P8  1  0.254367  0.535647  0.961278  1
  P  P9  1  0.535647  0.961278  0.254367  1
  P  P10  1  0.961278  0.254367  0.535647  1
  P  P11  1  0.747878  0.453168  0.043378  1
  O  O12  1  0.122494  0.311903  0.490201  1
  O  O13  1  0.311903  0.490201  0.122494  1
  O  O14  1  0.060148  0.914960  0.265142  1
  O  O15  1  0.490201  0.122494  0.311903  1
  O  O16  1  0.024248  0.800475  0.606258  1
  O  O17  1  0.229921  0.581694  0.430918  1
  O  O18  1  0.265142  0.060148  0.914960  1
  O  O19  1  0.430918  0.229921  0.581694  1
  O  O20  1  0.195557  0.375923  0.000377  1
  O  O21  1  0.581694  0.430918  0.229921  1
  O  O22  1  0.092511  0.727989  0.950368  1
  O  O23  1  0.375923  0.000377  0.195557  1
  O  O24  1  0.606258  0.024248  0.800475  1
  O  O25  1  0.914960  0.265142  0.060148  1
  O  O26  1  0.419196  0.554799  0.771795  1
  O  O27  1  0.800475  0.606258  0.024248  1
  O  O28  1  0.554799  0.771795  0.419196  1
  O  O29  1  0.727989  0.950368  0.092511  1
  O  O30  1  0.771795  0.419196  0.554799  1
  O  O31  1  0.000377  0.195557  0.375923  1
  O  O32  1  0.501935  0.874418  0.697550  1
  O  O33  1  0.950368  0.092511  0.727989  1
  O  O34  1  0.697550  0.501935  0.874418  1
  O  O35  1  0.874418  0.697550  0.501935  1
