# generated using pymatgen
data_P2H10N2O7
_symmetry_space_group_name_H-M   'P 1'
_cell_length_a   9.35908713
_cell_length_b   11.48036300
_cell_length_c   8.23483351
_cell_angle_alpha   90.00000000
_cell_angle_beta   106.73622886
_cell_angle_gamma   90.00000000
_symmetry_Int_Tables_number   1
_chemical_formula_structural   P2H10N2O7
_chemical_formula_sum   'P8 H40 N8 O28'
_cell_volume   847.31810271
_cell_formula_units_Z   4
loop_
 _symmetry_equiv_pos_site_id
 _symmetry_equiv_pos_as_xyz
  1  'x, y, z'
loop_
 _atom_site_type_symbol
 _atom_site_label
 _atom_site_symmetry_multiplicity
 _atom_site_fract_x
 _atom_site_fract_y
 _atom_site_fract_z
 _atom_site_occupancy
  P  P0  1  0.181646  0.483311  0.743811  1
  P  P1  1  0.318354  0.983311  0.256189  1
  P  P2  1  0.818354  0.516689  0.256189  1
  P  P3  1  0.681646  0.016689  0.743811  1
  P  P4  1  0.308690  0.506870  0.136066  1
  P  P5  1  0.191310  0.006870  0.863934  1
  P  P6  1  0.691310  0.493130  0.863934  1
  P  P7  1  0.808690  0.993130  0.136066  1
  H  H8  1  0.552665  0.818314  0.010846  1
  H  H9  1  0.947335  0.318314  0.989154  1
  H  H10  1  0.447335  0.181686  0.989154  1
  H  H11  1  0.052665  0.681686  0.010846  1
  H  H12  1  0.035853  0.788016  0.865009  1
  H  H13  1  0.464147  0.288016  0.134991  1
  H  H14  1  0.964147  0.211984  0.134991  1
  H  H15  1  0.535853  0.711984  0.865009  1
  H  H16  1  0.038762  0.194773  0.973368  1
  H  H17  1  0.461238  0.694773  0.026632  1
  H  H18  1  0.961238  0.805227  0.026632  1
  H  H19  1  0.538762  0.305227  0.973368  1
  H  H20  1  0.880471  0.705465  0.877047  1
  H  H21  1  0.619529  0.205465  0.122953  1
  H  H22  1  0.119529  0.294535  0.122953  1
  H  H23  1  0.380471  0.794535  0.877047  1
  H  H24  1  0.728897  0.373161  0.474897  1
  H  H25  1  0.771103  0.873161  0.525103  1
  H  H26  1  0.271103  0.626839  0.525103  1
  H  H27  1  0.228897  0.126839  0.474897  1
  H  H28  1  0.985235  0.250908  0.601793  1
  H  H29  1  0.514765  0.750908  0.398207  1
  H  H30  1  0.014765  0.749092  0.398207  1
  H  H31  1  0.485235  0.249092  0.601793  1
  H  H32  1  0.632045  0.704295  0.576933  1
  H  H33  1  0.867955  0.204295  0.423067  1
  H  H34  1  0.367955  0.295705  0.423067  1
  H  H35  1  0.132045  0.795705  0.576933  1
  H  H36  1  0.774879  0.701443  0.321673  1
  H  H37  1  0.725121  0.201443  0.678327  1
  H  H38  1  0.225121  0.298557  0.678327  1
  H  H39  1  0.274879  0.798557  0.321673  1
  H  H40  1  0.316973  0.110360  0.724350  1
  H  H41  1  0.183027  0.610360  0.275650  1
  H  H42  1  0.683027  0.889640  0.275650  1
  H  H43  1  0.816973  0.389640  0.724350  1
  H  H44  1  0.587854  0.522453  0.300515  1
  H  H45  1  0.912146  0.022453  0.699485  1
  H  H46  1  0.412146  0.477547  0.699485  1
  H  H47  1  0.087854  0.977547  0.300515  1
  N  N48  1  0.481014  0.754894  0.941376  1
  N  N49  1  0.018986  0.254894  0.058624  1
  N  N50  1  0.518986  0.245106  0.058624  1
  N  N51  1  0.981014  0.745106  0.941376  1
  N  N52  1  0.594865  0.777937  0.505685  1
  N  N53  1  0.905135  0.277937  0.494315  1
  N  N54  1  0.405135  0.222063  0.494315  1
  N  N55  1  0.094865  0.722063  0.505685  1
  O  O56  1  0.286935  0.527808  0.938303  1
  O  O57  1  0.213065  0.027808  0.061697  1
  O  O58  1  0.713065  0.472192  0.061697  1
  O  O59  1  0.786935  0.972192  0.938303  1
  O  O60  1  0.221603  0.690712  0.442920  1
  O  O61  1  0.278397  0.190712  0.557080  1
  O  O62  1  0.778397  0.309288  0.557080  1
  O  O63  1  0.721603  0.809288  0.442920  1
  O  O64  1  0.304145  0.514555  0.645027  1
  O  O65  1  0.195855  0.014555  0.354973  1
  O  O66  1  0.695855  0.485445  0.354973  1
  O  O67  1  0.804145  0.985445  0.645027  1
  O  O68  1  0.207838  0.342837  0.775565  1
  O  O69  1  0.292162  0.842837  0.224435  1
  O  O70  1  0.792162  0.657163  0.224435  1
  O  O71  1  0.707838  0.157163  0.775565  1
  O  O72  1  0.163602  0.570260  0.161089  1
  O  O73  1  0.336398  0.070260  0.838911  1
  O  O74  1  0.836398  0.429740  0.838911  1
  O  O75  1  0.663602  0.929740  0.161089  1
  O  O76  1  0.446935  0.577256  0.226436  1
  O  O77  1  0.053065  0.077256  0.773564  1
  O  O78  1  0.553065  0.422744  0.773564  1
  O  O79  1  0.946935  0.922744  0.226436  1
  O  O80  1  0.309685  0.378709  0.180427  1
  O  O81  1  0.190315  0.878709  0.819573  1
  O  O82  1  0.690315  0.621291  0.819573  1
  O  O83  1  0.809685  0.121291  0.180427  1
