# generated using pymatgen
data_Na4V2P(CO4)4
_symmetry_space_group_name_H-M   'P 1'
_cell_length_a   10.03061873
_cell_length_b   9.84052011
_cell_length_c   10.03061843
_cell_angle_alpha   60.59920214
_cell_angle_beta   92.10756872
_cell_angle_gamma   60.59920262
_symmetry_Int_Tables_number   1
_chemical_formula_structural   Na4V2P(CO4)4
_chemical_formula_sum   'Na8 V4 P2 C8 O32'
_cell_volume   699.34440112
_cell_formula_units_Z   2
loop_
 _symmetry_equiv_pos_site_id
 _symmetry_equiv_pos_as_xyz
  1  'x, y, z'
loop_
 _atom_site_type_symbol
 _atom_site_label
 _atom_site_symmetry_multiplicity
 _atom_site_fract_x
 _atom_site_fract_y
 _atom_site_fract_z
 _atom_site_occupancy
  Na  Na0  1  0.084376  0.831248  0.834376  1
  Na  Na1  1  0.083243  0.250000  0.833243  1
  Na  Na2  1  0.333243  0.750000  0.583243  1
  Na  Na3  1  0.334376  0.331248  0.584376  1
  Na  Na4  1  0.665624  0.668752  0.415624  1
  Na  Na5  1  0.666757  0.250000  0.416757  1
  Na  Na6  1  0.916757  0.750000  0.166757  1
  Na  Na7  1  0.915624  0.168752  0.165624  1
  V  V8  1  0.000000  0.500000  0.000000  1
  V  V9  1  0.500000  0.000000  0.500000  1
  V  V10  1  0.500000  0.500000  0.000000  1
  V  V11  1  0.500000  0.000000  0.000000  1
  P  P12  1  0.125000  0.750000  0.375000  1
  P  P13  1  0.875000  0.250000  0.625000  1
  C  C14  1  0.361428  0.928073  0.778755  1
  C  C15  1  0.278755  0.428073  0.861428  1
  C  C16  1  0.710499  0.928073  0.793172  1
  C  C17  1  0.706828  0.571927  0.789501  1
  C  C18  1  0.293172  0.428073  0.210499  1
  C  C19  1  0.289501  0.071927  0.206828  1
  C  C20  1  0.721245  0.571927  0.138572  1
  C  C21  1  0.638572  0.071927  0.221245  1
  O  O22  1  0.357318  0.786953  0.887217  1
  O  O23  1  0.063405  0.881245  0.434866  1
  O  O24  1  0.364021  0.953807  0.639376  1
  O  O25  1  0.139376  0.453807  0.864021  1
  O  O26  1  0.682173  0.953807  0.906818  1
  O  O27  1  0.306428  0.545994  0.855258  1
  O  O28  1  0.055350  0.881245  0.183888  1
  O  O29  1  0.065134  0.618755  0.436595  1
  O  O30  1  0.401250  0.954006  0.352421  1
  O  O31  1  0.593182  0.546193  0.817827  1
  O  O32  1  0.387217  0.286953  0.857318  1
  O  O33  1  0.316112  0.618755  0.444650  1
  O  O34  1  0.855729  0.786953  0.825830  1
  O  O35  1  0.674170  0.713047  0.644271  1
  O  O36  1  0.355258  0.045994  0.806428  1
  O  O37  1  0.147579  0.545994  0.098750  1
  O  O38  1  0.852421  0.454006  0.901250  1
  O  O39  1  0.644742  0.954006  0.193572  1
  O  O40  1  0.325830  0.286953  0.355729  1
  O  O41  1  0.144271  0.213047  0.174170  1
  O  O42  1  0.683888  0.381245  0.555350  1
  O  O43  1  0.612783  0.713047  0.142682  1
  O  O44  1  0.406818  0.453807  0.182173  1
  O  O45  1  0.598750  0.045994  0.647579  1
  O  O46  1  0.934866  0.381245  0.563405  1
  O  O47  1  0.944650  0.118755  0.816112  1
  O  O48  1  0.693572  0.454006  0.144742  1
  O  O49  1  0.317827  0.046193  0.093182  1
  O  O50  1  0.860624  0.546193  0.135979  1
  O  O51  1  0.635979  0.046193  0.360624  1
  O  O52  1  0.936595  0.118755  0.565134  1
  O  O53  1  0.642682  0.213047  0.112783  1
