# generated using pymatgen
data_NiH12(NO6)2
_symmetry_space_group_name_H-M   'P 1'
_cell_length_a   7.73850310
_cell_length_b   12.30555481
_cell_length_c   5.82074216
_cell_angle_alpha   100.39659754
_cell_angle_beta   102.85482467
_cell_angle_gamma   107.72228396
_symmetry_Int_Tables_number   1
_chemical_formula_structural   NiH12(NO6)2
_chemical_formula_sum   'Ni2 H24 N4 O24'
_cell_volume   496.02896478
_cell_formula_units_Z   2
loop_
 _symmetry_equiv_pos_site_id
 _symmetry_equiv_pos_as_xyz
  1  'x, y, z'
loop_
 _atom_site_type_symbol
 _atom_site_label
 _atom_site_symmetry_multiplicity
 _atom_site_fract_x
 _atom_site_fract_y
 _atom_site_fract_z
 _atom_site_occupancy
  Ni  Ni0  1  0.908539  0.766828  0.950571  1
  Ni  Ni1  1  0.091461  0.233172  0.049429  1
  H  H2  1  0.102496  0.629074  0.836010  1
  H  H3  1  0.897504  0.370926  0.163990  1
  H  H4  1  0.886311  0.559914  0.711875  1
  H  H5  1  0.113689  0.440086  0.288125  1
  H  H6  1  0.010748  0.851137  0.615434  1
  H  H7  1  0.989252  0.148863  0.384566  1
  H  H8  1  0.802500  0.854281  0.572237  1
  H  H9  1  0.197500  0.145719  0.427763  1
  H  H10  1  0.704498  0.887466  0.062875  1
  H  H11  1  0.295502  0.112534  0.937125  1
  H  H12  1  0.922063  0.968108  0.190133  1
  H  H13  1  0.077937  0.031892  0.809867  1
  H  H14  1  0.051697  0.704760  0.349064  1
  H  H15  1  0.948303  0.295240  0.650936  1
  H  H16  1  0.851395  0.608345  0.212366  1
  H  H17  1  0.148605  0.391655  0.787634  1
  H  H18  1  0.587312  0.645535  0.592935  1
  H  H19  1  0.412688  0.354465  0.407065  1
  H  H20  1  0.530163  0.641211  0.842008  1
  H  H21  1  0.469837  0.358789  0.157992  1
  H  H22  1  0.281656  0.865617  0.019438  1
  H  H23  1  0.718344  0.134383  0.980562  1
  H  H24  1  0.234001  0.882131  0.277704  1
  H  H25  1  0.765999  0.117869  0.722296  1
  N  N26  1  0.583262  0.130534  0.333369  1
  N  N27  1  0.416738  0.869466  0.666631  1
  N  N28  1  0.630240  0.393467  0.814940  1
  N  N29  1  0.369760  0.606533  0.185060  1
  O  O30  1  0.986114  0.638089  0.743022  1
  O  O31  1  0.013886  0.361911  0.256978  1
  O  O32  1  0.921472  0.869961  0.697836  1
  O  O33  1  0.078528  0.130039  0.302164  1
  O  O34  1  0.828009  0.887789  0.156932  1
  O  O35  1  0.171991  0.112211  0.843068  1
  O  O36  1  0.924844  0.692374  0.247185  1
  O  O37  1  0.075156  0.307626  0.752815  1
  O  O38  1  0.636643  0.652840  0.770963  1
  O  O39  1  0.363357  0.347160  0.229037  1
  O  O40  1  0.184654  0.874621  0.100580  1
  O  O41  1  0.815346  0.125379  0.899420  1
  O  O42  1  0.541220  0.135431  0.111926  1
  O  O43  1  0.458780  0.864569  0.888074  1
  O  O44  1  0.469014  0.125408  0.454530  1
  O  O45  1  0.530986  0.874592  0.545470  1
  O  O46  1  0.749655  0.130967  0.431942  1
  O  O47  1  0.250345  0.869033  0.568058  1
  O  O48  1  0.456294  0.367855  0.713707  1
  O  O49  1  0.543706  0.632145  0.286293  1
  O  O50  1  0.748443  0.409807  0.694003  1
  O  O51  1  0.251557  0.590193  0.305997  1
  O  O52  1  0.686583  0.402703  0.044798  1
  O  O53  1  0.313417  0.597297  0.955202  1
