# generated using pymatgen
data_Na10Mn2O9
_symmetry_space_group_name_H-M   'P 1'
_cell_length_a   6.24213067
_cell_length_b   6.55809481
_cell_length_c   9.48161841
_cell_angle_alpha   89.89848702
_cell_angle_beta   88.46063589
_cell_angle_gamma   61.29283441
_symmetry_Int_Tables_number   1
_chemical_formula_structural   Na10Mn2O9
_chemical_formula_sum   'Na10 Mn2 O9'
_cell_volume   340.28552644
_cell_formula_units_Z   1
loop_
 _symmetry_equiv_pos_site_id
 _symmetry_equiv_pos_as_xyz
  1  'x, y, z'
loop_
 _atom_site_type_symbol
 _atom_site_label
 _atom_site_symmetry_multiplicity
 _atom_site_fract_x
 _atom_site_fract_y
 _atom_site_fract_z
 _atom_site_occupancy
  Na  Na0  1  0.072243  0.934621  0.199419  1
  Na  Na1  1  0.998784  0.037665  0.733295  1
  Na  Na2  1  0.065605  0.282641  0.419555  1
  Na  Na3  1  0.321026  0.646556  0.442700  1
  Na  Na4  1  0.629537  0.089247  0.424228  1
  Na  Na5  1  0.318819  0.699153  0.917259  1
  Na  Na6  1  0.618106  0.305347  0.087319  1
  Na  Na7  1  0.006850  0.344109  0.954307  1
  Na  Na8  1  0.677639  0.934367  0.922678  1
  Na  Na9  1  0.852380  0.695316  0.605846  1
  Mn  Mn10  1  0.349715  0.332059  0.722951  1
  Mn  Mn11  1  0.675681  0.674827  0.253042  1
  O  O12  1  0.973816  0.020424  0.979311  1
  O  O13  1  0.082734  0.322243  0.663527  1
  O  O14  1  0.371691  0.319792  0.912418  1
  O  O15  1  0.257961  0.632690  0.672639  1
  O  O16  1  0.631553  0.071335  0.670588  1
  O  O17  1  0.402608  0.922496  0.330065  1
  O  O18  1  0.692511  0.392464  0.311331  1
  O  O19  1  0.656660  0.643326  0.065764  1
  O  O20  1  0.916014  0.709717  0.346927  1
