# generated using pymatgen
data_Li2Cr3(CO3)6
_symmetry_space_group_name_H-M   'P 1'
_cell_length_a   4.72407875
_cell_length_b   6.03546113
_cell_length_c   12.15376005
_cell_angle_alpha   101.03170189
_cell_angle_beta   89.93228462
_cell_angle_gamma   113.10457718
_symmetry_Int_Tables_number   1
_chemical_formula_structural   Li2Cr3(CO3)6
_chemical_formula_sum   'Li2 Cr3 C6 O18'
_cell_volume   311.79318879
_cell_formula_units_Z   1
loop_
 _symmetry_equiv_pos_site_id
 _symmetry_equiv_pos_as_xyz
  1  'x, y, z'
loop_
 _atom_site_type_symbol
 _atom_site_label
 _atom_site_symmetry_multiplicity
 _atom_site_fract_x
 _atom_site_fract_y
 _atom_site_fract_z
 _atom_site_occupancy
  Li  Li0  1  0.407703  0.817660  0.397898  1
  Li  Li1  1  0.258964  0.515674  0.935436  1
  Cr  Cr2  1  0.670098  0.337562  0.331236  1
  Cr  Cr3  1  0.333333  0.666667  0.666667  1
  Cr  Cr4  1  0.996569  0.995771  0.002097  1
  C  C5  1  0.869656  0.742609  0.531334  1
  C  C6  1  0.539187  0.084105  0.866033  1
  C  C7  1  0.797011  0.590724  0.801999  1
  C  C8  1  0.210061  0.410936  0.198264  1
  C  C9  1  0.456605  0.922398  0.135069  1
  C  C10  1  0.127479  0.249228  0.467300  1
  O  O11  1  0.822148  0.108628  0.881495  1
  O  O12  1  0.844519  0.224705  0.451838  1
  O  O13  1  0.908912  0.508399  0.715798  1
  O  O14  1  0.958038  0.676106  0.899623  1
  O  O15  1  0.708628  0.657227  0.433710  1
  O  O16  1  0.388916  0.982101  0.769938  1
  O  O17  1  0.757755  0.824934  0.617535  1
  O  O18  1  0.414384  0.177325  0.947049  1
  O  O19  1  0.485725  0.421052  0.207944  1
  O  O20  1  0.516761  0.579588  0.796205  1
  O  O21  1  0.566579  0.827894  0.048518  1
  O  O22  1  0.252282  0.156008  0.386284  1
  O  O23  1  0.616353  0.012123  0.231172  1
  O  O24  1  0.277751  0.351232  0.563396  1
  O  O25  1  0.050314  0.321210  0.102162  1
  O  O26  1  0.100088  0.505439  0.284815  1
  O  O27  1  0.149905  0.753745  0.537129  1
  O  O28  1  0.180942  0.912281  0.125389  1
