# generated using pymatgen
data_Ti5Nb(PO4)6
_symmetry_space_group_name_H-M   'P 1'
_cell_length_a   8.43920025
_cell_length_b   8.43920024
_cell_length_c   8.43920090
_cell_angle_alpha   63.42341288
_cell_angle_beta   63.42341093
_cell_angle_gamma   63.42341326
_symmetry_Int_Tables_number   1
_chemical_formula_structural   Ti5Nb(PO4)6
_chemical_formula_sum   'Ti5 Nb1 P6 O24'
_cell_volume   457.19344691
_cell_formula_units_Z   1
loop_
 _symmetry_equiv_pos_site_id
 _symmetry_equiv_pos_as_xyz
  1  'x, y, z'
loop_
 _atom_site_type_symbol
 _atom_site_label
 _atom_site_symmetry_multiplicity
 _atom_site_fract_x
 _atom_site_fract_y
 _atom_site_fract_z
 _atom_site_occupancy
  Ti  Ti0  1  0.993684  0.993684  0.993684  1
  Ti  Ti1  1  0.498140  0.498140  0.498140  1
  Ti  Ti2  1  0.140593  0.140593  0.140593  1
  Ti  Ti3  1  0.361773  0.361773  0.361773  1
  Ti  Ti4  1  0.640913  0.640913  0.640913  1
  Nb  Nb5  1  0.863393  0.863393  0.863393  1
  P  P6  1  0.042710  0.752593  0.453371  1
  P  P7  1  0.453371  0.042710  0.752593  1
  P  P8  1  0.259553  0.533086  0.958138  1
  P  P9  1  0.533086  0.958138  0.259553  1
  P  P10  1  0.958138  0.259553  0.533086  1
  P  P11  1  0.752593  0.453371  0.042710  1
  O  O12  1  0.112937  0.329954  0.494721  1
  O  O13  1  0.329954  0.494721  0.112937  1
  O  O14  1  0.056687  0.902613  0.256250  1
  O  O15  1  0.494721  0.112937  0.329954  1
  O  O16  1  0.007916  0.824888  0.606862  1
  O  O17  1  0.239704  0.599735  0.440159  1
  O  O18  1  0.256250  0.056687  0.902613  1
  O  O19  1  0.440159  0.239704  0.599735  1
  O  O20  1  0.182010  0.383490  0.995882  1
  O  O21  1  0.599735  0.440159  0.239704  1
  O  O22  1  0.107979  0.731386  0.943311  1
  O  O23  1  0.383490  0.995882  0.182010  1
  O  O24  1  0.606862  0.007916  0.824888  1
  O  O25  1  0.902613  0.256250  0.056687  1
  O  O26  1  0.408739  0.550661  0.760089  1
  O  O27  1  0.824888  0.606862  0.007916  1
  O  O28  1  0.550661  0.760089  0.408739  1
  O  O29  1  0.731386  0.943311  0.107979  1
  O  O30  1  0.760089  0.408739  0.550661  1
  O  O31  1  0.995882  0.182010  0.383490  1
  O  O32  1  0.500163  0.885261  0.680654  1
  O  O33  1  0.943311  0.107979  0.731386  1
  O  O34  1  0.680654  0.500163  0.885261  1
  O  O35  1  0.885261  0.680654  0.500163  1
