# generated using pymatgen
data_LiMn2(BO3)2
_symmetry_space_group_name_H-M   'P 1'
_cell_length_a   5.30364699
_cell_length_b   13.72190029
_cell_length_c   11.43960071
_cell_angle_alpha   66.87386771
_cell_angle_beta   78.29554967
_cell_angle_gamma   91.42482938
_symmetry_Int_Tables_number   1
_chemical_formula_structural   LiMn2(BO3)2
_chemical_formula_sum   'Li6 Mn12 B12 O36'
_cell_volume   744.64095895
_cell_formula_units_Z   6
loop_
 _symmetry_equiv_pos_site_id
 _symmetry_equiv_pos_as_xyz
  1  'x, y, z'
loop_
 _atom_site_type_symbol
 _atom_site_label
 _atom_site_symmetry_multiplicity
 _atom_site_fract_x
 _atom_site_fract_y
 _atom_site_fract_z
 _atom_site_occupancy
  Li  Li0  1  0.741462  0.105977  0.234618  1
  Li  Li1  1  0.401774  0.435778  0.899190  1
  Li  Li2  1  0.584267  0.288177  0.546523  1
  Li  Li3  1  0.459778  0.698378  0.393054  1
  Li  Li4  1  0.280194  0.861003  0.729457  1
  Li  Li5  1  0.233589  0.623895  0.222201  1
  Mn  Mn6  1  0.675245  0.143674  0.974070  1
  Mn  Mn7  1  0.996889  0.171448  0.695290  1
  Mn  Mn8  1  0.397128  0.095386  0.523626  1
  Mn  Mn9  1  0.942872  0.568193  0.798733  1
  Mn  Mn10  1  0.344989  0.483545  0.637763  1
  Mn  Mn11  1  0.733152  0.761144  0.861987  1
  Mn  Mn12  1  0.285567  0.239497  0.131163  1
  Mn  Mn13  1  0.671819  0.515122  0.354461  1
  Mn  Mn14  1  0.070739  0.434664  0.185634  1
  Mn  Mn15  1  0.604670  0.890930  0.478612  1
  Mn  Mn16  1  0.015498  0.822494  0.302213  1
  Mn  Mn17  1  0.329324  0.852676  0.016072  1
  B  B18  1  0.433509  0.072259  0.790351  1
  B  B19  1  0.232921  0.258369  0.867264  1
  B  B20  1  0.157242  0.019093  0.358092  1
  B  B21  1  0.512443  0.321949  0.299199  1
  B  B22  1  0.904967  0.599378  0.526717  1
  B  B23  1  0.185979  0.662396  0.967316  1
  B  B24  1  0.827193  0.345369  0.023458  1
  B  B25  1  0.104133  0.402716  0.475885  1
  B  B26  1  0.472255  0.670744  0.704069  1
  B  B27  1  0.839437  0.984694  0.642858  1
  B  B28  1  0.758071  0.736525  0.137567  1
  B  B29  1  0.564809  0.923274  0.200230  1
  O  O30  1  0.657569  0.104162  0.815853  1
  O  O31  1  0.028428  0.217146  0.835117  1
  O  O32  1  0.979937  0.087570  0.588830  1
  O  O33  1  0.292484  0.194890  0.986996  1
  O  O34  1  0.379254  0.145603  0.669273  1
  O  O35  1  0.733147  0.427915  0.939580  1
  O  O36  1  0.393141  0.029039  0.399019  1
  O  O37  1  0.935860  0.315414  0.555818  1
  O  O38  1  0.703071  0.019312  0.138376  1
  O  O39  1  0.370820  0.354813  0.790632  1
  O  O40  1  0.990707  0.647770  0.908529  1
  O  O41  1  0.554618  0.239356  0.405846  1
  O  O42  1  0.961751  0.529062  0.643925  1
  O  O43  1  0.080560  0.106158  0.270866  1
  O  O44  1  0.685836  0.243062  0.090531  1
  O  O45  1  0.340556  0.564790  0.751460  1
  O  O46  1  0.346028  0.420029  0.508797  1
  O  O47  1  0.688778  0.674356  0.752649  1
  O  O48  1  0.307477  0.313056  0.242699  1
  O  O49  1  0.655715  0.583933  0.505686  1
  O  O50  1  0.664430  0.418509  0.250417  1
  O  O51  1  0.318719  0.768503  0.906503  1
  O  O52  1  0.936639  0.898715  0.716947  1
  O  O53  1  0.061579  0.478170  0.359859  1
  O  O54  1  0.384005  0.758405  0.628124  1
  O  O55  1  0.074175  0.359622  0.046344  1
  O  O56  1  0.577973  0.659968  0.236969  1
  O  O57  1  0.274676  0.983837  0.869539  1
  O  O58  1  0.085165  0.676588  0.433732  1
  O  O59  1  0.597640  0.973865  0.612079  1
  O  O60  1  0.247748  0.586525  0.070043  1
  O  O61  1  0.613494  0.846664  0.316117  1
  O  O62  1  0.692990  0.800143  0.021309  1
  O  O63  1  0.016654  0.919974  0.409050  1
  O  O64  1  0.007442  0.753081  0.153897  1
  O  O65  1  0.352129  0.894964  0.158337  1
