# generated using pymatgen
data_NaCa4Si8H16O28F
_symmetry_space_group_name_H-M   'P 1'
_cell_length_a   8.94976318
_cell_length_b   8.95426540
_cell_length_c   16.02831291
_cell_angle_alpha   90.00000000
_cell_angle_beta   90.00000000
_cell_angle_gamma   90.00000000
_symmetry_Int_Tables_number   1
_chemical_formula_structural   NaCa4Si8H16O28F
_chemical_formula_sum   'Na2 Ca8 Si16 H32 O56 F2'
_cell_volume   1284.48583218
_cell_formula_units_Z   2
loop_
 _symmetry_equiv_pos_site_id
 _symmetry_equiv_pos_as_xyz
  1  'x, y, z'
loop_
 _atom_site_type_symbol
 _atom_site_label
 _atom_site_symmetry_multiplicity
 _atom_site_fract_x
 _atom_site_fract_y
 _atom_site_fract_z
 _atom_site_occupancy
  Na  Na0  1  0.500000  0.500000  0.000000  1
  Na  Na1  1  0.000000  0.000000  0.500000  1
  Ca  Ca2  1  0.615469  0.252877  0.500000  1
  Ca  Ca3  1  0.384531  0.747123  0.500000  1
  Ca  Ca4  1  0.115469  0.247123  0.000000  1
  Ca  Ca5  1  0.884531  0.752877  0.000000  1
  Ca  Ca6  1  0.248765  0.381139  0.500000  1
  Ca  Ca7  1  0.751235  0.618861  0.500000  1
  Ca  Ca8  1  0.748765  0.118861  0.000000  1
  Ca  Ca9  1  0.251235  0.881139  0.000000  1
  Si  Si10  1  0.731694  0.415634  0.688292  1
  Si  Si11  1  0.268306  0.584366  0.688292  1
  Si  Si12  1  0.231694  0.084366  0.811708  1
  Si  Si13  1  0.768306  0.915634  0.811708  1
  Si  Si14  1  0.268306  0.584366  0.311708  1
  Si  Si15  1  0.731694  0.415634  0.311708  1
  Si  Si16  1  0.768306  0.915634  0.188292  1
  Si  Si17  1  0.231694  0.084366  0.188292  1
  Si  Si18  1  0.915870  0.229335  0.812012  1
  Si  Si19  1  0.084130  0.770665  0.812012  1
  Si  Si20  1  0.415870  0.270665  0.687988  1
  Si  Si21  1  0.584130  0.729335  0.687988  1
  Si  Si22  1  0.084130  0.770665  0.187988  1
  Si  Si23  1  0.915870  0.229335  0.187988  1
  Si  Si24  1  0.584130  0.729335  0.312012  1
  Si  Si25  1  0.415870  0.270665  0.312012  1
  H  H26  1  0.944531  0.308166  0.586183  1
  H  H27  1  0.055469  0.691834  0.586183  1
  H  H28  1  0.444531  0.191834  0.913817  1
  H  H29  1  0.555469  0.808166  0.913817  1
  H  H30  1  0.055469  0.691834  0.413817  1
  H  H31  1  0.944531  0.308166  0.413817  1
  H  H32  1  0.555469  0.808166  0.086183  1
  H  H33  1  0.444531  0.191834  0.086183  1
  H  H34  1  0.665765  0.943578  0.585538  1
  H  H35  1  0.334235  0.056422  0.585538  1
  H  H36  1  0.165765  0.556422  0.914462  1
  H  H37  1  0.834235  0.443578  0.914462  1
  H  H38  1  0.334235  0.056422  0.414462  1
  H  H39  1  0.665765  0.943578  0.414462  1
  H  H40  1  0.834235  0.443578  0.085538  1
  H  H41  1  0.165765  0.556422  0.085538  1
  H  H42  1  0.704689  0.073748  0.646398  1
  H  H43  1  0.295311  0.926252  0.646398  1
  H  H44  1  0.204689  0.426252  0.853602  1
  H  H45  1  0.795311  0.573748  0.853602  1
  H  H46  1  0.295311  0.926252  0.353602  1
  H  H47  1  0.704689  0.073748  0.353602  1
  H  H48  1  0.795311  0.573748  0.146398  1
  H  H49  1  0.204689  0.426252  0.146398  1
  H  H50  1  0.067083  0.235922  0.643814  1
  H  H51  1  0.932917  0.764078  0.643814  1
  H  H52  1  0.567083  0.264078  0.856186  1
  H  H53  1  0.432917  0.735922  0.856186  1
  H  H54  1  0.932917  0.764078  0.356186  1
  H  H55  1  0.067083  0.235922  0.356186  1
  H  H56  1  0.432917  0.735922  0.143814  1
  H  H57  1  0.567083  0.264078  0.143814  1
  O  O58  1  0.868460  0.367729  0.750780  1
  O  O59  1  0.131540  0.632271  0.750780  1
  O  O60  1  0.368460  0.132271  0.749220  1
  O  O61  1  0.631540  0.867729  0.749220  1
  O  O62  1  0.131540  0.632271  0.249220  1
  O  O63  1  0.868460  0.367729  0.249220  1
  O  O64  1  0.631540  0.867729  0.250780  1
  O  O65  1  0.368460  0.132271  0.250780  1
  O  O66  1  0.589644  0.307232  0.714427  1
  O  O67  1  0.410356  0.692768  0.714427  1
  O  O68  1  0.089644  0.192768  0.785573  1
  O  O69  1  0.910356  0.807232  0.785573  1
  O  O70  1  0.410356  0.692768  0.285573  1
  O  O71  1  0.589644  0.307232  0.285573  1
  O  O72  1  0.910356  0.807232  0.214427  1
  O  O73  1  0.089644  0.192768  0.214427  1
  O  O74  1  0.810469  0.087274  0.784541  1
  O  O75  1  0.189531  0.912726  0.784541  1
  O  O76  1  0.310469  0.412726  0.715459  1
  O  O77  1  0.689531  0.587274  0.715459  1
  O  O78  1  0.189531  0.912726  0.215459  1
  O  O79  1  0.810469  0.087274  0.215459  1
  O  O80  1  0.689531  0.587274  0.284541  1
  O  O81  1  0.310469  0.412726  0.284541  1
  O  O82  1  0.775396  0.400284  0.591128  1
  O  O83  1  0.224604  0.599716  0.591128  1
  O  O84  1  0.275396  0.099716  0.908872  1
  O  O85  1  0.724604  0.900284  0.908872  1
  O  O86  1  0.224604  0.599716  0.408872  1
  O  O87  1  0.775396  0.400284  0.408872  1
  O  O88  1  0.724604  0.900284  0.091128  1
  O  O89  1  0.275396  0.099716  0.091128  1
  O  O90  1  0.899720  0.269036  0.909755  1
  O  O91  1  0.100280  0.730964  0.909755  1
  O  O92  1  0.399720  0.230964  0.590245  1
  O  O93  1  0.600280  0.769036  0.590245  1
  O  O94  1  0.100280  0.730964  0.090245  1
  O  O95  1  0.899720  0.269036  0.090245  1
  O  O96  1  0.600280  0.769036  0.409755  1
  O  O97  1  0.399720  0.230964  0.409755  1
  O  O98  1  0.711456  0.046778  0.587207  1
  O  O99  1  0.288544  0.953222  0.587207  1
  O  O100  1  0.211456  0.453222  0.912793  1
  O  O101  1  0.788544  0.546778  0.912793  1
  O  O102  1  0.288544  0.953222  0.412793  1
  O  O103  1  0.711456  0.046778  0.412793  1
  O  O104  1  0.788544  0.546778  0.087207  1
  O  O105  1  0.211456  0.453222  0.087207  1
  O  O106  1  0.043118  0.253215  0.585007  1
  O  O107  1  0.956882  0.746785  0.585007  1
  O  O108  1  0.543118  0.246785  0.914993  1
  O  O109  1  0.456882  0.753215  0.914993  1
  O  O110  1  0.956882  0.746785  0.414993  1
  O  O111  1  0.043118  0.253215  0.414993  1
  O  O112  1  0.456882  0.753215  0.085007  1
  O  O113  1  0.543118  0.246785  0.085007  1
  F  F114  1  0.500000  0.500000  0.500000  1
  F  F115  1  0.000000  0.000000  0.000000  1
