# generated using pymatgen
data_AsH3C(SF2)3
_symmetry_space_group_name_H-M   'P 1'
_cell_length_a   8.21289345
_cell_length_b   11.82474979
_cell_length_c   15.19635518
_cell_angle_alpha   107.95864245
_cell_angle_beta   99.23478960
_cell_angle_gamma   104.06891237
_symmetry_Int_Tables_number   1
_chemical_formula_structural   AsH3C(SF2)3
_chemical_formula_sum   'As6 H18 C6 S18 F36'
_cell_volume   1316.71628332
_cell_formula_units_Z   6
loop_
 _symmetry_equiv_pos_site_id
 _symmetry_equiv_pos_as_xyz
  1  'x, y, z'
loop_
 _atom_site_type_symbol
 _atom_site_label
 _atom_site_symmetry_multiplicity
 _atom_site_fract_x
 _atom_site_fract_y
 _atom_site_fract_z
 _atom_site_occupancy
  As  As0  1  0.000000  0.500000  0.000000  1
  As  As1  1  0.352057  0.809717  0.690386  1
  As  As2  1  0.000000  0.000000  0.000000  1
  As  As3  1  0.340840  0.292397  0.647504  1
  As  As4  1  0.659160  0.707603  0.352496  1
  As  As5  1  0.647943  0.190283  0.309614  1
  H  H6  1  0.997879  0.530768  0.260175  1
  H  H7  1  0.141109  0.832675  0.169458  1
  H  H8  1  0.333194  0.788044  0.903873  1
  H  H9  1  0.352409  0.850761  0.432908  1
  H  H10  1  0.066226  0.068873  0.400527  1
  H  H11  1  0.259291  0.504448  0.499232  1
  H  H12  1  0.254866  0.281367  0.240024  1
  H  H13  1  0.375898  0.142708  0.834533  1
  H  H14  1  0.615624  0.563120  0.939299  1
  H  H15  1  0.384376  0.436880  0.060701  1
  H  H16  1  0.624102  0.857292  0.165467  1
  H  H17  1  0.745134  0.718633  0.759976  1
  H  H18  1  0.740709  0.495552  0.500769  1
  H  H19  1  0.933774  0.931127  0.599473  1
  H  H20  1  0.647591  0.149239  0.567092  1
  H  H21  1  0.666806  0.211956  0.096127  1
  H  H22  1  0.858891  0.167325  0.830542  1
  H  H23  1  0.002121  0.469232  0.739825  1
  C  C24  1  0.185258  0.917017  0.333411  1
  C  C25  1  0.163626  0.436327  0.333095  1
  C  C26  1  0.477722  0.264995  0.996603  1
  C  C27  1  0.522278  0.735005  0.003397  1
  C  C28  1  0.836374  0.563673  0.666905  1
  C  C29  1  0.814742  0.082983  0.666589  1
  S  S30  1  0.061882  0.548371  0.353197  1
  S  S31  1  0.259297  0.932123  0.449058  1
  S  S32  1  0.408124  0.836577  0.999674  1
  S  S33  1  0.230215  0.811706  0.243095  1
  S  S34  1  0.146209  0.344792  0.218812  1
  S  S35  1  0.061475  0.005231  0.308542  1
  S  S36  1  0.344015  0.244708  0.890902  1
  S  S37  1  0.274033  0.410180  0.425777  1
  S  S38  1  0.498392  0.610965  0.902666  1
  S  S39  1  0.501608  0.389035  0.097334  1
  S  S40  1  0.725967  0.589820  0.574223  1
  S  S41  1  0.655985  0.755292  0.109098  1
  S  S42  1  0.938525  0.994769  0.691458  1
  S  S43  1  0.853791  0.655208  0.781188  1
  S  S44  1  0.769785  0.188294  0.756905  1
  S  S45  1  0.591876  0.163423  0.000326  1
  S  S46  1  0.740703  0.067877  0.550942  1
  S  S47  1  0.938118  0.451629  0.646803  1
  F  F48  1  0.134115  0.945924  0.927064  1
  F  F49  1  0.063896  0.509997  0.895245  1
  F  F50  1  0.042968  0.355570  0.978515  1
  F  F51  1  0.144352  0.829520  0.666318  1
  F  F52  1  0.077106  0.933830  0.082316  1
  F  F53  1  0.281976  0.722442  0.762222  1
  F  F54  1  0.425187  0.949391  0.792945  1
  F  F55  1  0.275624  0.669121  0.587961  1
  F  F56  1  0.187166  0.312207  0.716631  1
  F  F57  1  0.423408  0.895724  0.619299  1
  F  F58  1  0.166273  0.204419  0.543198  1
  F  F59  1  0.218274  0.580434  0.068908  1
  F  F60  1  0.341085  0.432032  0.627183  1
  F  F61  1  0.558523  0.787288  0.713853  1
  F  F62  1  0.340870  0.152866  0.668383  1
  F  F63  1  0.171391  0.142121  0.063922  1
  F  F64  1  0.507240  0.728891  0.422674  1
  F  F65  1  0.514238  0.380573  0.751344  1
  F  F66  1  0.485762  0.619427  0.248656  1
  F  F67  1  0.492760  0.271109  0.577326  1
  F  F68  1  0.828609  0.857879  0.936078  1
  F  F69  1  0.659130  0.847134  0.331617  1
  F  F70  1  0.441477  0.212712  0.286147  1
  F  F71  1  0.658915  0.567968  0.372817  1
  F  F72  1  0.781726  0.419566  0.931092  1
  F  F73  1  0.833727  0.795581  0.456802  1
  F  F74  1  0.576592  0.104276  0.380701  1
  F  F75  1  0.812834  0.687793  0.283369  1
  F  F76  1  0.724376  0.330879  0.412039  1
  F  F77  1  0.574813  0.050609  0.207055  1
  F  F78  1  0.718024  0.277558  0.237778  1
  F  F79  1  0.922894  0.066170  0.917684  1
  F  F80  1  0.855648  0.170480  0.333682  1
  F  F81  1  0.957032  0.644430  0.021485  1
  F  F82  1  0.936104  0.490003  0.104755  1
  F  F83  1  0.865885  0.054076  0.072936  1
