# generated using pymatgen
data_LiMnBO3
_symmetry_space_group_name_H-M   'P 1'
_cell_length_a   6.95997658
_cell_length_b   7.19956305
_cell_length_c   5.80161427
_cell_angle_alpha   90.00000000
_cell_angle_beta   73.70991114
_cell_angle_gamma   90.00000000
_symmetry_Int_Tables_number   1
_chemical_formula_structural   LiMnBO3
_chemical_formula_sum   'Li4 Mn4 B4 O12'
_cell_volume   279.04090359
_cell_formula_units_Z   4
loop_
 _symmetry_equiv_pos_site_id
 _symmetry_equiv_pos_as_xyz
  1  'x, y, z'
loop_
 _atom_site_type_symbol
 _atom_site_label
 _atom_site_symmetry_multiplicity
 _atom_site_fract_x
 _atom_site_fract_y
 _atom_site_fract_z
 _atom_site_occupancy
  Li  Li0  1  0.095885  0.068612  0.776580  1
  Li  Li1  1  0.404115  0.568612  0.723420  1
  Li  Li2  1  0.595885  0.431388  0.276580  1
  Li  Li3  1  0.904115  0.931388  0.223420  1
  Mn  Mn4  1  0.249182  0.275416  0.134332  1
  Mn  Mn5  1  0.250818  0.775416  0.365668  1
  Mn  Mn6  1  0.749182  0.224584  0.634332  1
  Mn  Mn7  1  0.750818  0.724584  0.865668  1
  B  B8  1  0.185728  0.365909  0.589881  1
  B  B9  1  0.314272  0.865909  0.910119  1
  B  B10  1  0.685728  0.134091  0.089881  1
  B  B11  1  0.814272  0.634091  0.410119  1
  O  O12  1  0.193459  0.984810  0.082143  1
  O  O13  1  0.069662  0.238336  0.506283  1
  O  O14  1  0.306541  0.484810  0.417857  1
  O  O15  1  0.195717  0.364784  0.821839  1
  O  O16  1  0.304283  0.864784  0.678161  1
  O  O17  1  0.569662  0.261664  0.006283  1
  O  O18  1  0.430338  0.738336  0.993717  1
  O  O19  1  0.695717  0.135216  0.321839  1
  O  O20  1  0.804283  0.635216  0.178161  1
  O  O21  1  0.693459  0.515190  0.582143  1
  O  O22  1  0.930338  0.761664  0.493717  1
  O  O23  1  0.806541  0.015190  0.917857  1
