# generated using pymatgen
data_Li6CrNiP2(CO7)2
_symmetry_space_group_name_H-M   'P 1'
_cell_length_a   8.51508704
_cell_length_b   4.99610730
_cell_length_c   6.44399233
_cell_angle_alpha   90.00000000
_cell_angle_beta   90.00000000
_cell_angle_gamma   85.39630557
_symmetry_Int_Tables_number   1
_chemical_formula_structural   Li6CrNiP2(CO7)2
_chemical_formula_sum   'Li6 Cr1 Ni1 P2 C2 O14'
_cell_volume   273.25771732
_cell_formula_units_Z   1
loop_
 _symmetry_equiv_pos_site_id
 _symmetry_equiv_pos_as_xyz
  1  'x, y, z'
loop_
 _atom_site_type_symbol
 _atom_site_label
 _atom_site_symmetry_multiplicity
 _atom_site_fract_x
 _atom_site_fract_y
 _atom_site_fract_z
 _atom_site_occupancy
  Li  Li0  1  0.097711  0.766024  0.250000  1
  Li  Li1  1  0.274872  0.252746  0.021182  1
  Li  Li2  1  0.274872  0.252746  0.478818  1
  Li  Li3  1  0.725951  0.750262  0.520805  1
  Li  Li4  1  0.725951  0.750262  0.979195  1
  Li  Li5  1  0.897851  0.234410  0.750000  1
  Cr  Cr6  1  0.335446  0.788195  0.750000  1
  Ni  Ni7  1  0.667549  0.206997  0.250000  1
  P  P8  1  0.416342  0.719599  0.250000  1
  P  P9  1  0.589915  0.278906  0.750000  1
  C  C10  1  0.032269  0.704829  0.750000  1
  C  C11  1  0.961458  0.297632  0.250000  1
  O  O12  1  0.062152  0.953426  0.750000  1
  O  O13  1  0.106879  0.361266  0.250000  1
  O  O14  1  0.150254  0.519537  0.750000  1
  O  O15  1  0.311314  0.824693  0.063971  1
  O  O16  1  0.311314  0.824693  0.436029  1
  O  O17  1  0.420850  0.183227  0.750000  1
  O  O18  1  0.436705  0.406308  0.250000  1
  O  O19  1  0.578962  0.590759  0.750000  1
  O  O20  1  0.581169  0.825810  0.250000  1
  O  O21  1  0.689252  0.169106  0.938602  1
  O  O22  1  0.689252  0.169106  0.561398  1
  O  O23  1  0.845762  0.485239  0.250000  1
  O  O24  1  0.889356  0.634001  0.750000  1
  O  O25  1  0.926592  0.050222  0.250000  1
