# generated using pymatgen
data_SrTaNO2
_symmetry_space_group_name_H-M   'P 1'
_cell_length_a   5.74288606
_cell_length_b   8.18981046
_cell_length_c   5.73112144
_cell_angle_alpha   89.98304448
_cell_angle_beta   89.90627815
_cell_angle_gamma   90.05389848
_symmetry_Int_Tables_number   1
_chemical_formula_structural   SrTaNO2
_chemical_formula_sum   'Sr4 Ta4 N4 O8'
_cell_volume   269.55219297
_cell_formula_units_Z   4
loop_
 _symmetry_equiv_pos_site_id
 _symmetry_equiv_pos_as_xyz
  1  'x, y, z'
loop_
 _atom_site_type_symbol
 _atom_site_label
 _atom_site_symmetry_multiplicity
 _atom_site_fract_x
 _atom_site_fract_y
 _atom_site_fract_z
 _atom_site_occupancy
  Sr  Sr0  1  0.996715  0.751223  0.003920  1
  Sr  Sr1  1  0.491722  0.751453  0.513816  1
  Sr  Sr2  1  0.494374  0.275026  0.488991  1
  Sr  Sr3  1  0.997035  0.274395  0.978831  1
  Ta  Ta4  1  0.996147  0.001891  0.497156  1
  Ta  Ta5  1  0.982540  0.514723  0.494789  1
  Ta  Ta6  1  0.494846  0.026306  0.999533  1
  Ta  Ta7  1  0.511632  0.508159  0.997016  1
  N  N8  1  0.460802  0.262274  0.002816  1
  N  N9  1  0.731232  0.498149  0.732267  1
  N  N10  1  0.770652  0.496770  0.231614  1
  N  N11  1  0.968682  0.769654  0.496484  1
  O  O12  1  0.051301  0.264002  0.510483  1
  O  O13  1  0.227576  0.537989  0.779005  1
  O  O14  1  0.223013  0.995595  0.779559  1
  O  O15  1  0.282446  0.996263  0.279819  1
  O  O16  1  0.276684  0.536664  0.278686  1
  O  O17  1  0.537402  0.770831  0.993715  1
  O  O18  1  0.723800  0.038130  0.720948  1
  O  O19  1  0.781398  0.038501  0.220551  1
