# generated using pymatgen
data_Li4Cu3WO8
_symmetry_space_group_name_H-M   'P 1'
_cell_length_a   10.65455309
_cell_length_b   9.98608611
_cell_length_c   14.52999180
_cell_angle_alpha   20.15694373
_cell_angle_beta   20.13293204
_cell_angle_gamma   34.80794181
_symmetry_Int_Tables_number   1
_chemical_formula_structural   Li4Cu3WO8
_chemical_formula_sum   'Li4 Cu3 W1 O8'
_cell_volume   157.87920959
_cell_formula_units_Z   1
loop_
 _symmetry_equiv_pos_site_id
 _symmetry_equiv_pos_as_xyz
  1  'x, y, z'
loop_
 _atom_site_type_symbol
 _atom_site_label
 _atom_site_symmetry_multiplicity
 _atom_site_fract_x
 _atom_site_fract_y
 _atom_site_fract_z
 _atom_site_occupancy
  Li  Li0  1  0.999993  0.000002  0.499999  1
  Li  Li1  1  0.000005  0.500005  0.499998  1
  Li  Li2  1  0.499985  0.999989  0.500018  1
  Li  Li3  1  0.500007  0.499987  0.500006  1
  Cu  Cu4  1  -0.000032  0.499998  0.000023  1
  Cu  Cu5  1  0.500011  -0.000010  0.999982  1
  Cu  Cu6  1  0.500007  0.500016  -0.000014  1
  W  W7  1  0.999979  -0.000016  0.000029  1
  O  O8  1  0.014949  0.987769  0.269255  1
  O  O9  1  0.000170  0.567933  0.194836  1
  O  O10  1  0.540952  0.988651  0.244994  1
  O  O11  1  0.985076  0.012224  0.730732  1
  O  O12  1  0.415621  0.467285  0.329594  1
  O  O13  1  0.999812  0.432074  0.805176  1
  O  O14  1  0.459065  0.011382  0.754974  1
  O  O15  1  0.584399  0.532712  0.670399  1
