# generated using pymatgen
data_MnP2O7
_symmetry_space_group_name_H-M   'P 1'
_cell_length_a   7.79216891
_cell_length_b   15.77313513
_cell_length_c   7.87178745
_cell_angle_alpha   90.00075721
_cell_angle_beta   90.00029007
_cell_angle_gamma   90.00031915
_symmetry_Int_Tables_number   1
_chemical_formula_structural   MnP2O7
_chemical_formula_sum   'Mn8 P16 O56'
_cell_volume   967.49725402
_cell_formula_units_Z   8
loop_
 _symmetry_equiv_pos_site_id
 _symmetry_equiv_pos_as_xyz
  1  'x, y, z'
loop_
 _atom_site_type_symbol
 _atom_site_label
 _atom_site_symmetry_multiplicity
 _atom_site_fract_x
 _atom_site_fract_y
 _atom_site_fract_z
 _atom_site_occupancy
  Mn  Mn0  1  0.014927  0.372260  0.756219  1
  Mn  Mn1  1  0.021806  0.121935  0.257514  1
  Mn  Mn2  1  0.478194  0.621926  0.757524  1
  Mn  Mn3  1  0.485054  0.872276  0.256289  1
  Mn  Mn4  1  0.514841  0.127657  0.756312  1
  Mn  Mn5  1  0.521687  0.378120  0.257472  1
  Mn  Mn6  1  0.978225  0.878055  0.757516  1
  Mn  Mn7  1  0.985124  0.627754  0.256292  1
  P  P8  1  0.097891  0.935181  0.134759  1
  P  P9  1  0.096007  0.689061  0.873591  1
  P  P10  1  0.113167  0.173549  0.872530  1
  P  P11  1  0.126870  0.427107  0.156063  1
  P  P12  1  0.373116  0.927121  0.656109  1
  P  P13  1  0.386811  0.673584  0.372548  1
  P  P14  1  0.404010  0.189063  0.373609  1
  P  P15  1  0.402106  0.435163  0.634767  1
  P  P16  1  0.597917  0.564850  0.134782  1
  P  P17  1  0.595981  0.810941  0.873558  1
  P  P18  1  0.613176  0.326415  0.872546  1
  P  P19  1  0.626875  0.072881  0.156155  1
  P  P20  1  0.873132  0.572885  0.656119  1
  P  P21  1  0.886813  0.826444  0.372525  1
  P  P22  1  0.904016  0.310937  0.373528  1
  P  P23  1  0.902085  0.064820  0.634766  1
  O  O24  1  0.024704  0.183623  0.045338  1
  O  O25  1  0.022441  0.505123  0.201331  1
  O  O26  1  0.017716  0.070944  0.478384  1
  O  O27  1  0.060622  0.349136  0.269722  1
  O  O28  1  0.020936  0.093519  0.788783  1
  O  O29  1  0.077917  0.251278  0.762507  1
  O  O30  1  0.072882  0.784521  0.878113  1
  O  O31  1  0.145527  0.027759  0.168705  1
  O  O32  1  0.105703  0.650584  0.051076  1
  O  O33  1  0.123770  0.398940  0.970200  1
  O  O34  1  0.185548  0.936837  0.708801  1
  O  O35  1  0.196358  0.649701  0.387314  1
  O  O36  1  0.261828  0.881999  0.129436  1
  O  O37  1  0.241102  0.168834  0.279757  1
  O  O38  1  0.258897  0.668793  0.779768  1
  O  O39  1  0.238176  0.381987  0.629420  1
  O  O40  1  0.303619  0.149663  0.887325  1
  O  O41  1  0.314447  0.436841  0.208792  1
  O  O42  1  0.376274  0.898997  0.470226  1
  O  O43  1  0.394295  0.150557  0.551086  1
  O  O44  1  0.354500  0.527737  0.668754  1
  O  O45  1  0.427217  0.284512  0.378172  1
  O  O46  1  0.422055  0.751335  0.262573  1
  O  O47  1  0.479011  0.593562  0.288758  1
  O  O48  1  0.439418  0.849136  0.769711  1
  O  O49  1  0.482308  0.570933  0.978366  1
  O  O50  1  0.477563  0.005128  0.701477  1
  O  O51  1  0.475283  0.683636  0.545348  1
  O  O52  1  0.524719  0.316400  0.045373  1
  O  O53  1  0.522420  0.994876  0.201468  1
  O  O54  1  0.517729  0.429102  0.478385  1
  O  O55  1  0.560567  0.150858  0.269782  1
  O  O56  1  0.520958  0.406432  0.788716  1
  O  O57  1  0.577867  0.248639  0.762651  1
  O  O58  1  0.572833  0.715477  0.878105  1
  O  O59  1  0.645533  0.472277  0.168747  1
  O  O60  1  0.605687  0.849451  0.051032  1
  O  O61  1  0.623729  0.101002  0.970253  1
  O  O62  1  0.685555  0.563161  0.708830  1
  O  O63  1  0.696347  0.850307  0.387230  1
  O  O64  1  0.761843  0.618037  0.129500  1
  O  O65  1  0.741160  0.331202  0.279697  1
  O  O66  1  0.758866  0.831184  0.779723  1
  O  O67  1  0.738133  0.117992  0.629495  1
  O  O68  1  0.803676  0.350275  0.887238  1
  O  O69  1  0.814464  0.063167  0.208852  1
  O  O70  1  0.876255  0.601055  0.470248  1
  O  O71  1  0.894302  0.349430  0.551035  1
  O  O72  1  0.854486  0.972241  0.668672  1
  O  O73  1  0.927168  0.215467  0.378081  1
  O  O74  1  0.922125  0.748689  0.262577  1
  O  O75  1  0.979043  0.906472  0.288752  1
  O  O76  1  0.939439  0.650867  0.769782  1
  O  O77  1  0.982261  0.929085  0.978377  1
  O  O78  1  0.977605  0.494872  0.701372  1
  O  O79  1  0.975278  0.816387  0.545325  1
