# generated using pymatgen
data_Nb5N6
_symmetry_space_group_name_H-M   'P 1'
_cell_length_a   5.26057050
_cell_length_b   5.26057050
_cell_length_c   10.47460612
_cell_angle_alpha   90.00000000
_cell_angle_beta   90.00000000
_cell_angle_gamma   120.00000001
_symmetry_Int_Tables_number   1
_chemical_formula_structural   Nb5N6
_chemical_formula_sum   'Nb10 N12'
_cell_volume   251.03485362
_cell_formula_units_Z   2
loop_
 _symmetry_equiv_pos_site_id
 _symmetry_equiv_pos_as_xyz
  1  'x, y, z'
loop_
 _atom_site_type_symbol
 _atom_site_label
 _atom_site_symmetry_multiplicity
 _atom_site_fract_x
 _atom_site_fract_y
 _atom_site_fract_z
 _atom_site_occupancy
  N  N0  1  0.339343  0.339343  0.377476  1
  N  N1  1  0.660657  0.000000  0.377476  1
  N  N2  1  0.000000  0.660657  0.377476  1
  N  N3  1  0.000000  0.339343  0.877475  1
  N  N4  1  0.660657  0.000000  0.122524  1
  N  N5  1  0.660657  0.660657  0.877475  1
  N  N6  1  0.339343  0.000000  0.877475  1
  N  N7  1  0.660657  0.660657  0.622525  1
  N  N8  1  0.000000  0.339343  0.622525  1
  N  N9  1  0.000000  0.660657  0.122524  1
  N  N10  1  0.339343  0.000000  0.622525  1
  N  N11  1  0.339343  0.339343  0.122524  1
  Nb  Nb12  1  0.333333  0.666667  0.500000  1
  Nb  Nb13  1  0.666667  0.333333  0.000000  1
  Nb  Nb14  1  0.666667  0.333333  0.500000  1
  Nb  Nb15  1  0.333333  0.666667  0.000000  1
  Nb  Nb16  1  0.674978  0.000000  0.750000  1
  Nb  Nb17  1  0.674978  0.674978  0.250000  1
  Nb  Nb18  1  0.000000  0.325022  0.250000  1
  Nb  Nb19  1  0.000000  0.674978  0.750000  1
  Nb  Nb20  1  0.325022  0.325022  0.750000  1
  Nb  Nb21  1  0.325022  0.000000  0.250000  1
