# generated using pymatgen
data_LiV2(PO3)5
_symmetry_space_group_name_H-M   'P 1'
_cell_length_a   12.74477707
_cell_length_b   8.89918559
_cell_length_c   5.36153202
_cell_angle_alpha   90.00000000
_cell_angle_beta   92.36883929
_cell_angle_gamma   90.00000000
_symmetry_Int_Tables_number   1
_chemical_formula_structural   LiV2(PO3)5
_chemical_formula_sum   'Li2 V4 P10 O30'
_cell_volume   607.57532748
_cell_formula_units_Z   2
loop_
 _symmetry_equiv_pos_site_id
 _symmetry_equiv_pos_as_xyz
  1  'x, y, z'
loop_
 _atom_site_type_symbol
 _atom_site_label
 _atom_site_symmetry_multiplicity
 _atom_site_fract_x
 _atom_site_fract_y
 _atom_site_fract_z
 _atom_site_occupancy
  Li  Li0  1  0.456641  0.006275  0.569043  1
  Li  Li1  1  0.956641  0.993725  0.069043  1
  V  V2  1  0.057879  0.695170  0.125255  1
  V  V3  1  0.445486  0.695417  0.372339  1
  V  V4  1  0.557879  0.304830  0.625255  1
  V  V5  1  0.945486  0.304583  0.872339  1
  P  P6  1  0.086593  0.184723  0.406545  1
  P  P7  1  0.143477  0.488594  0.604565  1
  P  P8  1  0.250697  0.962434  0.253733  1
  P  P9  1  0.357633  0.487062  0.894820  1
  P  P10  1  0.413814  0.180282  0.088901  1
  P  P11  1  0.586593  0.815277  0.906545  1
  P  P12  1  0.643477  0.511406  0.104565  1
  P  P13  1  0.750697  0.037566  0.753733  1
  P  P14  1  0.857633  0.512938  0.394820  1
  P  P15  1  0.913814  0.819718  0.588901  1
  O  O16  1  0.033390  0.172470  0.151488  1
  O  O17  1  0.023038  0.157181  0.630601  1
  O  O18  1  0.059370  0.484758  0.797818  1
  O  O19  1  0.136782  0.350193  0.413840  1
  O  O20  1  0.174160  0.873674  0.096297  1
  O  O21  1  0.152479  0.626474  0.448899  1
  O  O22  1  0.189545  0.080002  0.429650  1
  O  O23  1  0.250564  0.446908  0.749236  1
  O  O24  1  0.311198  0.075903  0.066700  1
  O  O25  1  0.347859  0.622380  0.056290  1
  O  O26  1  0.333557  0.888593  0.422236  1
  O  O27  1  0.364972  0.345854  0.080014  1
  O  O28  1  0.441977  0.484296  0.702404  1
  O  O29  1  0.473932  0.151189  0.857127  1
  O  O30  1  0.469356  0.170497  0.341201  1
  O  O31  1  0.533390  0.827530  0.651488  1
  O  O32  1  0.523038  0.842819  0.130601  1
  O  O33  1  0.559370  0.515242  0.297818  1
  O  O34  1  0.636782  0.649807  0.913840  1
  O  O35  1  0.674160  0.126326  0.596297  1
  O  O36  1  0.652479  0.373526  0.948899  1
  O  O37  1  0.689545  0.919998  0.929650  1
  O  O38  1  0.750564  0.553092  0.249236  1
  O  O39  1  0.811198  0.924097  0.566700  1
  O  O40  1  0.847859  0.377620  0.556290  1
  O  O41  1  0.833557  0.111407  0.922236  1
  O  O42  1  0.864972  0.654146  0.580014  1
  O  O43  1  0.941977  0.515704  0.202404  1
  O  O44  1  0.973932  0.848811  0.357127  1
  O  O45  1  0.969356  0.829503  0.841201  1
