# generated using pymatgen
data_Li2CoNi3O8
_symmetry_space_group_name_H-M   'P 1'
_cell_length_a   8.20923439
_cell_length_b   8.09635606
_cell_length_c   8.14900084
_cell_angle_alpha   90.04238552
_cell_angle_beta   90.05684441
_cell_angle_gamma   89.81740264
_symmetry_Int_Tables_number   1
_chemical_formula_structural   Li2CoNi3O8
_chemical_formula_sum   'Li8 Co4 Ni12 O32'
_cell_volume   541.61923667
_cell_formula_units_Z   4
loop_
 _symmetry_equiv_pos_site_id
 _symmetry_equiv_pos_as_xyz
  1  'x, y, z'
loop_
 _atom_site_type_symbol
 _atom_site_label
 _atom_site_symmetry_multiplicity
 _atom_site_fract_x
 _atom_site_fract_y
 _atom_site_fract_z
 _atom_site_occupancy
  Li  Li0  1  0.999281  0.000754  0.998074  1
  Li  Li1  1  0.250031  0.249033  0.252305  1
  Li  Li2  1  0.248073  0.748310  0.747841  1
  Li  Li3  1  0.499131  0.001077  0.498008  1
  Li  Li4  1  0.502527  0.499354  0.001357  1
  Li  Li5  1  0.750381  0.249272  0.753145  1
  Li  Li6  1  0.747817  0.750422  0.248869  1
  Li  Li7  1  0.002701  0.501609  0.500930  1
  Co  Co8  1  0.123727  0.874664  0.374623  1
  Co  Co9  1  0.374786  0.125010  0.875060  1
  Co  Co10  1  0.625013  0.625189  0.624419  1
  Co  Co11  1  0.877026  0.375096  0.126350  1
  Ni  Ni12  1  0.126132  0.123570  0.624549  1
  Ni  Ni13  1  0.125679  0.374702  0.877459  1
  Ni  Ni14  1  0.123422  0.624884  0.127133  1
  Ni  Ni15  1  0.377061  0.374931  0.626826  1
  Ni  Ni16  1  0.375442  0.626125  0.375663  1
  Ni  Ni17  1  0.372024  0.876424  0.123628  1
  Ni  Ni18  1  0.628260  0.376100  0.375809  1
  Ni  Ni19  1  0.625370  0.126048  0.123460  1
  Ni  Ni20  1  0.622583  0.874551  0.872399  1
  Ni  Ni21  1  0.876681  0.125000  0.373146  1
  Ni  Ni22  1  0.873751  0.873712  0.622867  1
  Ni  Ni23  1  0.872871  0.624011  0.875771  1
  O  O24  1  0.109065  0.109382  0.387120  1
  O  O25  1  0.116022  0.889505  0.608519  1
  O  O26  1  0.110225  0.609555  0.892107  1
  O  O27  1  0.140939  0.140538  0.862775  1
  O  O28  1  0.110107  0.390546  0.115935  1
  O  O29  1  0.142712  0.359530  0.637558  1
  O  O30  1  0.132983  0.640823  0.358728  1
  O  O31  1  0.136429  0.860090  0.139256  1
  O  O32  1  0.362431  0.138981  0.640786  1
  O  O33  1  0.367857  0.360005  0.859734  1
  O  O34  1  0.358312  0.640839  0.137759  1
  O  O35  1  0.391848  0.611218  0.612004  1
  O  O36  1  0.357541  0.861598  0.362119  1
  O  O37  1  0.391346  0.389592  0.391221  1
  O  O38  1  0.379761  0.109093  0.107943  1
  O  O39  1  0.388985  0.889746  0.885229  1
  O  O40  1  0.611512  0.390229  0.614154  1
  O  O41  1  0.618381  0.608631  0.390707  1
  O  O42  1  0.608224  0.889385  0.107861  1
  O  O43  1  0.643363  0.361454  0.137600  1
  O  O44  1  0.607257  0.109758  0.886020  1
  O  O45  1  0.643598  0.140957  0.362600  1
  O  O46  1  0.631430  0.859849  0.640412  1
  O  O47  1  0.637234  0.639893  0.859216  1
  O  O48  1  0.863905  0.360217  0.361127  1
  O  O49  1  0.870319  0.141103  0.141861  1
  O  O50  1  0.856433  0.859872  0.861762  1
  O  O51  1  0.890597  0.889716  0.385357  1
  O  O52  1  0.858157  0.639786  0.635033  1
  O  O53  1  0.888674  0.109201  0.608924  1
  O  O54  1  0.883907  0.389861  0.892838  1
  O  O55  1  0.890673  0.609339  0.116182  1
