# generated using pymatgen
data_NaCa2B9(H2O5)4
_symmetry_space_group_name_H-M   'P 1'
_cell_length_a   11.61137758
_cell_length_b   10.62917267
_cell_length_c   12.68710249
_cell_angle_alpha   90.00000000
_cell_angle_beta   90.00000000
_cell_angle_gamma   99.27191798
_symmetry_Int_Tables_number   1
_chemical_formula_structural   NaCa2B9(H2O5)4
_chemical_formula_sum   'Na4 Ca8 B36 H32 O80'
_cell_volume   1545.37585532
_cell_formula_units_Z   4
loop_
 _symmetry_equiv_pos_site_id
 _symmetry_equiv_pos_as_xyz
  1  'x, y, z'
loop_
 _atom_site_type_symbol
 _atom_site_label
 _atom_site_symmetry_multiplicity
 _atom_site_fract_x
 _atom_site_fract_y
 _atom_site_fract_z
 _atom_site_occupancy
  Na  Na0  1  0.499205  0.468016  0.351508  1
  Na  Na1  1  0.500795  0.031984  0.851508  1
  Na  Na2  1  0.500795  0.531984  0.648492  1
  Na  Na3  1  0.499205  0.968016  0.148492  1
  Ca  Ca4  1  0.131750  0.969229  0.371476  1
  Ca  Ca5  1  0.868250  0.530771  0.871476  1
  Ca  Ca6  1  0.868250  0.030771  0.628524  1
  Ca  Ca7  1  0.131750  0.469229  0.128524  1
  Ca  Ca8  1  0.654027  0.134779  0.398806  1
  Ca  Ca9  1  0.345973  0.365221  0.898806  1
  Ca  Ca10  1  0.345973  0.865221  0.601194  1
  Ca  Ca11  1  0.654027  0.634779  0.101194  1
  B  B12  1  0.936578  0.159732  0.413688  1
  B  B13  1  0.063422  0.340268  0.913688  1
  B  B14  1  0.063422  0.840268  0.586312  1
  B  B15  1  0.936578  0.659732  0.086312  1
  B  B16  1  0.570099  0.313055  0.068818  1
  B  B17  1  0.429901  0.186945  0.568818  1
  B  B18  1  0.429901  0.686945  0.931182  1
  B  B19  1  0.570099  0.813055  0.431182  1
  B  B20  1  0.888101  0.319645  0.281648  1
  B  B21  1  0.111899  0.180355  0.781648  1
  B  B22  1  0.111899  0.680355  0.718352  1
  B  B23  1  0.888101  0.819645  0.218352  1
  B  B24  1  0.946390  0.672538  0.478954  1
  B  B25  1  0.053610  0.827462  0.978954  1
  B  B26  1  0.053610  0.327462  0.521046  1
  B  B27  1  0.946390  0.172538  0.021046  1
  B  B28  1  0.500592  0.727994  0.261492  1
  B  B29  1  0.499408  0.772006  0.761492  1
  B  B30  1  0.499408  0.272006  0.738508  1
  B  B31  1  0.500592  0.227994  0.238508  1
  B  B32  1  0.390888  0.597303  0.119621  1
  B  B33  1  0.609112  0.902697  0.619621  1
  B  B34  1  0.609112  0.402697  0.880379  1
  B  B35  1  0.390888  0.097303  0.380379  1
  B  B36  1  0.907244  0.703039  0.669639  1
  B  B37  1  0.092756  0.796961  0.169639  1
  B  B38  1  0.092756  0.296961  0.330361  1
  B  B39  1  0.907244  0.203039  0.830361  1
  B  B40  1  0.311478  0.606146  0.770919  1
  B  B41  1  0.688522  0.893854  0.270919  1
  B  B42  1  0.688522  0.393854  0.229081  1
  B  B43  1  0.311478  0.106146  0.729081  1
  B  B44  1  0.294264  0.756647  0.210584  1
  B  B45  1  0.705736  0.743353  0.710584  1
  B  B46  1  0.705736  0.243353  0.789416  1
  B  B47  1  0.294264  0.256647  0.289416  1
  H  H48  1  0.143855  0.530136  0.885840  1
  H  H49  1  0.856145  0.969864  0.385840  1
  H  H50  1  0.856145  0.469864  0.114160  1
  H  H51  1  0.143855  0.030136  0.614160  1
  H  H52  1  0.768649  0.551816  0.310261  1
  H  H53  1  0.231351  0.948184  0.810261  1
  H  H54  1  0.231351  0.448184  0.689739  1
  H  H55  1  0.768649  0.051816  0.189739  1
  H  H56  1  0.732480  0.579791  0.542060  1
  H  H57  1  0.267520  0.920209  0.042060  1
  H  H58  1  0.267520  0.420209  0.457940  1
  H  H59  1  0.732480  0.079791  0.957940  1
  H  H60  1  0.629345  0.596281  0.861414  1
  H  H61  1  0.370655  0.903719  0.361414  1
  H  H62  1  0.370655  0.403719  0.138586  1
  H  H63  1  0.629345  0.096281  0.638586  1
  H  H64  1  0.973242  0.630150  0.328789  1
  H  H65  1  0.026758  0.869850  0.828789  1
  H  H66  1  0.026758  0.369850  0.671211  1
  H  H67  1  0.973242  0.130150  0.171211  1
  H  H68  1  0.215549  0.639627  0.470545  1
  H  H69  1  0.784451  0.860373  0.970545  1
  H  H70  1  0.784451  0.360373  0.529455  1
  H  H71  1  0.215549  0.139627  0.029455  1
  H  H72  1  0.353066  0.417627  0.551060  1
  H  H73  1  0.646934  0.082373  0.051060  1
  H  H74  1  0.646934  0.582373  0.448940  1
  H  H75  1  0.353066  0.917627  0.948940  1
  H  H76  1  0.348118  0.662466  0.438922  1
  H  H77  1  0.651882  0.837534  0.938922  1
  H  H78  1  0.651882  0.337534  0.561078  1
  H  H79  1  0.348118  0.162466  0.061078  1
  O  O80  1  0.608249  0.297982  0.285605  1
  O  O81  1  0.391751  0.202018  0.785605  1
  O  O82  1  0.391751  0.702018  0.714395  1
  O  O83  1  0.608249  0.797982  0.214395  1
  O  O84  1  0.401413  0.806164  0.252381  1
  O  O85  1  0.598587  0.693836  0.752381  1
  O  O86  1  0.598587  0.193836  0.747619  1
  O  O87  1  0.401413  0.306164  0.247619  1
  O  O88  1  0.811385  0.370521  0.219390  1
  O  O89  1  0.188615  0.129479  0.719390  1
  O  O90  1  0.188615  0.629479  0.780610  1
  O  O91  1  0.811385  0.870521  0.280610  1
  O  O92  1  0.456608  0.675405  0.035270  1
  O  O93  1  0.543392  0.824595  0.535270  1
  O  O94  1  0.543392  0.324595  0.964730  1
  O  O95  1  0.456608  0.175405  0.464730  1
  O  O96  1  0.282137  0.149712  0.352294  1
  O  O97  1  0.717863  0.350288  0.852294  1
  O  O98  1  0.717863  0.850288  0.647706  1
  O  O99  1  0.282137  0.649712  0.147706  1
  O  O100  1  0.645363  0.907309  0.380748  1
  O  O101  1  0.354637  0.592691  0.880748  1
  O  O102  1  0.354637  0.092691  0.619252  1
  O  O103  1  0.645363  0.407309  0.119252  1
  O  O104  1  0.469775  0.104773  0.290564  1
  O  O105  1  0.530225  0.395227  0.790564  1
  O  O106  1  0.530225  0.895227  0.709436  1
  O  O107  1  0.469775  0.604773  0.209436  1
  O  O108  1  0.514681  0.707610  0.376384  1
  O  O109  1  0.485319  0.792390  0.876384  1
  O  O110  1  0.485319  0.292390  0.623616  1
  O  O111  1  0.514681  0.207610  0.123616  1
  O  O112  1  0.350022  0.464474  0.085405  1
  O  O113  1  0.649978  0.035526  0.585405  1
  O  O114  1  0.649978  0.535526  0.914595  1
  O  O115  1  0.350022  0.964474  0.414595  1
  O  O116  1  0.042356  0.663120  0.149896  1
  O  O117  1  0.957644  0.836880  0.649896  1
  O  O118  1  0.957644  0.336880  0.850104  1
  O  O119  1  0.042356  0.163120  0.350104  1
  O  O120  1  0.035768  0.274539  0.018426  1
  O  O121  1  0.964232  0.225461  0.518426  1
  O  O122  1  0.964232  0.725461  0.981574  1
  O  O123  1  0.035768  0.774539  0.481574  1
  O  O124  1  0.199660  0.816085  0.233192  1
  O  O125  1  0.800340  0.683915  0.733192  1
  O  O126  1  0.800340  0.183915  0.766808  1
  O  O127  1  0.199660  0.316085  0.266808  1
  O  O128  1  0.882615  0.531022  0.056493  1
  O  O129  1  0.117385  0.968978  0.556493  1
  O  O130  1  0.117385  0.468978  0.943507  1
  O  O131  1  0.882615  0.031022  0.443507  1
  O  O132  1  0.007352  0.358903  0.266301  1
  O  O133  1  0.992648  0.141097  0.766301  1
  O  O134  1  0.992648  0.641096  0.733699  1
  O  O135  1  0.007352  0.858904  0.233699  1
  O  O136  1  0.692620  0.522594  0.277702  1
  O  O137  1  0.307380  0.977406  0.777702  1
  O  O138  1  0.307380  0.477406  0.722298  1
  O  O139  1  0.692620  0.022594  0.222298  1
  O  O140  1  0.850871  0.227289  0.356365  1
  O  O141  1  0.149129  0.272711  0.856365  1
  O  O142  1  0.149129  0.772711  0.643635  1
  O  O143  1  0.850871  0.727289  0.143635  1
  O  O144  1  0.880977  0.633137  0.566953  1
  O  O145  1  0.119023  0.866863  0.066953  1
  O  O146  1  0.119023  0.366863  0.433047  1
  O  O147  1  0.880977  0.133137  0.933047  1
  O  O148  1  0.285419  0.703682  0.468125  1
  O  O149  1  0.714581  0.796318  0.968125  1
  O  O150  1  0.714581  0.296318  0.531875  1
  O  O151  1  0.285419  0.203682  0.031875  1
  O  O152  1  0.918446  0.604063  0.386300  1
  O  O153  1  0.081554  0.895937  0.886300  1
  O  O154  1  0.081554  0.395937  0.613700  1
  O  O155  1  0.918446  0.104063  0.113700  1
  O  O156  1  0.649016  0.553942  0.521858  1
  O  O157  1  0.350984  0.946058  0.021858  1
  O  O158  1  0.350984  0.446058  0.478142  1
  O  O159  1  0.649016  0.053942  0.978142  1
