# generated using pymatgen
data_Mn3(OF2)2
_symmetry_space_group_name_H-M   'P 1'
_cell_length_a   7.83902753
_cell_length_b   5.78276811
_cell_length_c   5.78276811
_cell_angle_alpha   68.10776959
_cell_angle_beta   69.85371532
_cell_angle_gamma   69.85371532
_symmetry_Int_Tables_number   1
_chemical_formula_structural   Mn3(OF2)2
_chemical_formula_sum   'Mn6 O4 F8'
_cell_volume   221.22322355
_cell_formula_units_Z   2
loop_
 _symmetry_equiv_pos_site_id
 _symmetry_equiv_pos_as_xyz
  1  'x, y, z'
loop_
 _atom_site_type_symbol
 _atom_site_label
 _atom_site_symmetry_multiplicity
 _atom_site_fract_x
 _atom_site_fract_y
 _atom_site_fract_z
 _atom_site_occupancy
  Mn  Mn0  1  0.842339  0.644647  0.668936  1
  Mn  Mn1  1  0.670901  0.349425  0.310359  1
  Mn  Mn2  1  0.329099  0.689641  0.650575  1
  Mn  Mn3  1  0.157662  0.331064  0.355353  1
  Mn  Mn4  1  0.500000  0.984195  0.015805  1
  Mn  Mn5  1  0.000000  0.988232  0.011768  1
  O  O6  1  0.324007  0.986261  0.366465  1
  O  O7  1  0.675993  0.633535  0.013739  1
  O  O8  1  0.000000  0.291882  0.708118  1
  O  O9  1  0.000000  0.684531  0.315469  1
  F  F10  1  0.673422  0.033029  0.621319  1
  F  F11  1  0.326578  0.378681  0.966971  1
  F  F12  1  0.298851  0.897977  0.897599  1
  F  F13  1  0.621952  0.568413  0.559966  1
  F  F14  1  0.959970  0.227166  0.231113  1
  F  F15  1  0.701149  0.102401  0.102023  1
  F  F16  1  0.040030  0.768887  0.772834  1
  F  F17  1  0.378048  0.440034  0.431587  1
