# generated using pymatgen
data_LiNi5O5F
_symmetry_space_group_name_H-M   'P 1'
_cell_length_a   2.96783790
_cell_length_b   2.96783872
_cell_length_c   12.74738937
_cell_angle_alpha   90.00001650
_cell_angle_beta   89.99996734
_cell_angle_gamma   90.00000191
_symmetry_Int_Tables_number   1
_chemical_formula_structural   LiNi5O5F
_chemical_formula_sum   'Li1 Ni5 O5 F1'
_cell_volume   112.27982445
_cell_formula_units_Z   1
loop_
 _symmetry_equiv_pos_site_id
 _symmetry_equiv_pos_as_xyz
  1  'x, y, z'
loop_
 _atom_site_type_symbol
 _atom_site_label
 _atom_site_symmetry_multiplicity
 _atom_site_fract_x
 _atom_site_fract_y
 _atom_site_fract_z
 _atom_site_occupancy
  Li  Li0  1  0.500000  0.500000  0.833327  1
  Ni  Ni1  1  0.000000  0.000001  0.003127  1
  Ni  Ni2  1  0.500005  0.499998  0.166331  1
  Ni  Ni3  1  0.999995  -0.000004  0.333337  1
  Ni  Ni4  1  0.500001  0.500000  0.500342  1
  Ni  Ni5  1  0.000000  0.000002  0.663527  1
  O  O6  1  0.500000  0.500001  -0.000202  1
  O  O7  1  0.999999  0.000000  0.166896  1
  O  O8  1  0.499999  0.500001  0.333338  1
  O  O9  1  -0.000000  0.000001  0.499771  1
  O  O10  1  0.500000  0.500001  0.666866  1
  F  F11  1  1.000000  0.000001  0.833340  1
