# generated using pymatgen
data_Li10Cu(SiO5)2
_symmetry_space_group_name_H-M   'P 1'
_cell_length_a   6.13731909
_cell_length_b   15.42996305
_cell_length_c   5.19563680
_cell_angle_alpha   79.94601232
_cell_angle_beta   89.97456627
_cell_angle_gamma   78.49239431
_symmetry_Int_Tables_number   1
_chemical_formula_structural   Li10Cu(SiO5)2
_chemical_formula_sum   'Li20 Cu2 Si4 O20'
_cell_volume   474.42384792
_cell_formula_units_Z   2
loop_
 _symmetry_equiv_pos_site_id
 _symmetry_equiv_pos_as_xyz
  1  'x, y, z'
loop_
 _atom_site_type_symbol
 _atom_site_label
 _atom_site_symmetry_multiplicity
 _atom_site_fract_x
 _atom_site_fract_y
 _atom_site_fract_z
 _atom_site_occupancy
  Li  Li0  1  0.507764  0.981267  0.746646  1
  Li  Li1  1  0.362615  0.864471  0.233576  1
  Li  Li2  1  0.773009  0.864344  0.237009  1
  Li  Li3  1  0.134021  0.735770  0.485795  1
  Li  Li4  1  0.349024  0.736776  0.016570  1
  Li  Li5  1  0.915241  0.737462  0.016867  1
  Li  Li6  1  0.676537  0.651185  0.420924  1
  Li  Li7  1  0.438111  0.609846  0.786194  1
  Li  Li8  1  0.951464  0.610221  0.786906  1
  Li  Li9  1  0.728374  0.539675  0.138018  1
  Li  Li10  1  0.268119  0.459993  0.864681  1
  Li  Li11  1  0.561028  0.389440  0.212584  1
  Li  Li12  1  0.047098  0.389253  0.212684  1
  Li  Li13  1  0.321567  0.350111  0.579687  1
  Li  Li14  1  0.082626  0.262231  0.981829  1
  Li  Li15  1  0.649525  0.263099  0.978681  1
  Li  Li16  1  0.868598  0.262338  0.511203  1
  Li  Li17  1  0.636194  0.138999  0.753822  1
  Li  Li18  1  0.224814  0.135412  0.760969  1
  Li  Li19  1  0.489059  0.018930  0.247361  1
  Cu  Cu20  1  0.035656  0.927502  0.951922  1
  Cu  Cu21  1  0.957229  0.073290  0.045602  1
  Si  Si22  1  0.600504  0.800235  0.687265  1
  Si  Si23  1  0.217425  0.562360  0.306583  1
  Si  Si24  1  0.780788  0.436951  0.692710  1
  Si  Si25  1  0.399632  0.199387  0.308661  1
  O  O26  1  0.548356  0.898937  0.490691  1
  O  O27  1  0.095010  0.811714  0.135793  1
  O  O28  1  0.594957  0.811307  -0.000362  1
  O  O29  1  0.415947  0.741107  0.631938  1
  O  O30  1  0.845468  0.742128  0.631995  1
  O  O31  1  0.416088  0.612783  0.166870  1
  O  O32  1  0.967132  0.613447  0.168988  1
  O  O33  1  0.213211  0.572703  0.617087  1
  O  O34  1  0.729313  0.543261  0.736103  1
  O  O35  1  0.270049  0.456477  0.263190  1
  O  O36  1  0.786180  0.426309  0.383277  1
  O  O37  1  0.030852  0.386276  0.832325  1
  O  O38  1  0.581033  0.387302  0.831086  1
  O  O39  1  0.155233  0.257491  0.366858  1
  O  O40  1  0.586659  0.257364  0.366981  1
  O  O41  1  0.404678  0.189453  0.995376  1
  O  O42  1  0.904051  0.188762  0.861019  1
  O  O43  1  0.450759  0.100351  0.504722  1
  O  O44  1  0.244600  0.001227  0.996520  1
  O  O45  1  0.749289  0.999253  0.002543  1
