# generated using pymatgen
data_Ba5La2Cl16
_symmetry_space_group_name_H-M   'P 1'
_cell_length_a   9.56317258
_cell_length_b   9.56317258
_cell_length_c   19.33272002
_cell_angle_alpha   90.00000000
_cell_angle_beta   90.00000000
_cell_angle_gamma   64.53257722
_symmetry_Int_Tables_number   1
_chemical_formula_structural   Ba5La2Cl16
_chemical_formula_sum   'Ba10 La4 Cl32'
_cell_volume   1596.25727692
_cell_formula_units_Z   2
loop_
 _symmetry_equiv_pos_site_id
 _symmetry_equiv_pos_as_xyz
  1  'x, y, z'
loop_
 _atom_site_type_symbol
 _atom_site_label
 _atom_site_symmetry_multiplicity
 _atom_site_fract_x
 _atom_site_fract_y
 _atom_site_fract_z
 _atom_site_occupancy
  Ba  Ba0  1  0.250000  0.750000  0.383407  1
  Ba  Ba1  1  0.250000  0.750000  0.883407  1
  Ba  Ba2  1  0.250000  0.250000  0.473549  1
  Ba  Ba3  1  0.250000  0.250000  0.026451  1
  Ba  Ba4  1  0.750000  0.750000  0.526451  1
  Ba  Ba5  1  0.750000  0.750000  0.250000  1
  Ba  Ba6  1  0.250000  0.250000  0.750000  1
  Ba  Ba7  1  0.750000  0.750000  0.973549  1
  Ba  Ba8  1  0.750000  0.250000  0.116593  1
  Ba  Ba9  1  0.750000  0.250000  0.616593  1
  La  La10  1  0.250000  0.750000  0.132083  1
  La  La11  1  0.250000  0.750000  0.632083  1
  La  La12  1  0.750000  0.250000  0.367917  1
  La  La13  1  0.750000  0.250000  0.867917  1
  Cl  Cl14  1  0.051078  0.778394  0.024294  1
  Cl  Cl15  1  0.221607  0.948922  0.524294  1
  Cl  Cl16  1  0.268887  0.922356  0.742583  1
  Cl  Cl17  1  0.077644  0.731113  0.242583  1
  Cl  Cl18  1  0.024154  0.372276  0.599486  1
  Cl  Cl19  1  0.127724  0.475846  0.900514  1
  Cl  Cl20  1  0.627724  0.975846  0.099486  1
  Cl  Cl21  1  0.524154  0.872276  0.400514  1
  Cl  Cl22  1  0.422356  0.768887  0.242583  1
  Cl  Cl23  1  0.231113  0.577644  0.742583  1
  Cl  Cl24  1  0.448922  0.721606  0.024294  1
  Cl  Cl25  1  0.278394  0.551078  0.524294  1
  Cl  Cl26  1  0.075883  0.120858  0.364963  1
  Cl  Cl27  1  0.575883  0.620858  0.635037  1
  Cl  Cl28  1  0.379142  0.424117  0.135037  1
  Cl  Cl29  1  0.879142  0.924117  0.864963  1
  Cl  Cl30  1  0.120858  0.075883  0.135037  1
  Cl  Cl31  1  0.424117  0.379142  0.364963  1
  Cl  Cl32  1  0.924117  0.879142  0.635037  1
  Cl  Cl33  1  0.620858  0.575883  0.864963  1
  Cl  Cl34  1  0.551078  0.278394  0.975706  1
  Cl  Cl35  1  0.721606  0.448922  0.475706  1
  Cl  Cl36  1  0.577644  0.231113  0.757417  1
  Cl  Cl37  1  0.768887  0.422356  0.257417  1
  Cl  Cl38  1  0.372276  0.024154  0.900514  1
  Cl  Cl39  1  0.475846  0.127724  0.599486  1
  Cl  Cl40  1  0.975846  0.627724  0.400514  1
  Cl  Cl41  1  0.872276  0.524154  0.099486  1
  Cl  Cl42  1  0.922356  0.268887  0.757417  1
  Cl  Cl43  1  0.731113  0.077644  0.257417  1
  Cl  Cl44  1  0.778394  0.051078  0.475706  1
  Cl  Cl45  1  0.948922  0.221607  0.975706  1
