# generated using pymatgen
data_LiV4O5F7
_symmetry_space_group_name_H-M   'P 1'
_cell_length_a   5.16063044
_cell_length_b   5.41227605
_cell_length_c   7.51796388
_cell_angle_alpha   87.00638005
_cell_angle_beta   89.97015345
_cell_angle_gamma   93.16213260
_symmetry_Int_Tables_number   1
_chemical_formula_structural   LiV4O5F7
_chemical_formula_sum   'Li1 V4 O5 F7'
_cell_volume   209.37537459
_cell_formula_units_Z   1
loop_
 _symmetry_equiv_pos_site_id
 _symmetry_equiv_pos_as_xyz
  1  'x, y, z'
loop_
 _atom_site_type_symbol
 _atom_site_label
 _atom_site_symmetry_multiplicity
 _atom_site_fract_x
 _atom_site_fract_y
 _atom_site_fract_z
 _atom_site_occupancy
  Li  Li0  1  0.484513  0.926131  0.191395  1
  V  V1  1  0.014583  0.029786  0.494074  1
  V  V2  1  0.502237  0.479738  0.021839  1
  V  V3  1  0.529862  0.518103  0.503114  1
  V  V4  1  0.991837  0.994012  0.988826  1
  O  O5  1  0.208264  0.290662  0.462124  1
  O  O6  1  0.284827  0.181227  0.047203  1
  O  O7  1  0.578597  0.496425  0.246595  1
  O  O8  1  0.714216  0.791697  0.970072  1
  O  O9  1  0.788784  0.717075  0.536707  1
  F  F10  1  0.110599  0.976401  0.742401  1
  F  F11  1  0.205856  0.696834  0.058119  1
  F  F12  1  0.300984  0.807209  0.426793  1
  F  F13  1  0.409727  0.502320  0.753969  1
  F  F14  1  0.703954  0.206695  0.556269  1
  F  F15  1  0.796978  0.296210  0.942373  1
  F  F16  1  0.865749  0.015774  0.250843  1
