# generated using pymatgen
data_Li4Cr3FeO8
_symmetry_space_group_name_H-M   'P 1'
_cell_length_a   5.88019900
_cell_length_b   5.88262803
_cell_length_c   5.89317032
_cell_angle_alpha   119.86124134
_cell_angle_beta   89.96403904
_cell_angle_gamma   120.04324790
_symmetry_Int_Tables_number   1
_chemical_formula_structural   Li4Cr3FeO8
_chemical_formula_sum   'Li4 Cr3 Fe1 O8'
_cell_volume   144.39673231
_cell_formula_units_Z   1
loop_
 _symmetry_equiv_pos_site_id
 _symmetry_equiv_pos_as_xyz
  1  'x, y, z'
loop_
 _atom_site_type_symbol
 _atom_site_label
 _atom_site_symmetry_multiplicity
 _atom_site_fract_x
 _atom_site_fract_y
 _atom_site_fract_z
 _atom_site_occupancy
  Li  Li0  1  0.000001  0.500006  0.499991  1
  Li  Li1  1  0.500022  0.500028  0.500004  1
  Li  Li2  1  0.000039  0.000028  0.500000  1
  Li  Li3  1  0.500005  0.999998  0.500001  1
  Cr  Cr4  1  -0.000003  0.499988  0.999990  1
  Cr  Cr5  1  0.500000  0.500003  0.000001  1
  Cr  Cr6  1  0.500000  0.000002  0.000004  1
  Fe  Fe7  1  0.000003  0.000004  0.999999  1
  O  O8  1  0.258155  0.516180  0.773750  1
  O  O9  1  0.239410  0.984487  0.224457  1
  O  O10  1  0.760727  0.521263  0.775720  1
  O  O11  1  0.255076  0.015549  0.775643  1
  O  O12  1  0.744929  0.984460  0.224357  1
  O  O13  1  0.239278  0.478743  0.224276  1
  O  O14  1  0.760586  0.015512  0.775541  1
  O  O15  1  0.741853  0.483824  0.226249  1
