# generated using pymatgen
data_NaCr2O4
_symmetry_space_group_name_H-M   'P 1'
_cell_length_a   9.06493352
_cell_length_b   10.61801205
_cell_length_c   2.97350116
_cell_angle_alpha   90.00015007
_cell_angle_beta   89.99993890
_cell_angle_gamma   90.00269599
_symmetry_Int_Tables_number   1
_chemical_formula_structural   NaCr2O4
_chemical_formula_sum   'Na4 Cr8 O16'
_cell_volume   286.20416484
_cell_formula_units_Z   4
loop_
 _symmetry_equiv_pos_site_id
 _symmetry_equiv_pos_as_xyz
  1  'x, y, z'
loop_
 _atom_site_type_symbol
 _atom_site_label
 _atom_site_symmetry_multiplicity
 _atom_site_fract_x
 _atom_site_fract_y
 _atom_site_fract_z
 _atom_site_occupancy
  Na  Na0  1  0.243165  0.347215  0.750001  1
  Na  Na1  1  0.256833  0.847201  0.249998  1
  Na  Na2  1  0.743181  0.152792  0.750004  1
  Na  Na3  1  0.756823  0.652794  0.249996  1
  Cr  Cr4  1  0.064117  0.112700  0.750012  1
  Cr  Cr5  1  0.080576  0.604929  0.750006  1
  Cr  Cr6  1  0.419392  0.104943  0.250003  1
  Cr  Cr7  1  0.435875  0.612691  0.249996  1
  Cr  Cr8  1  0.564131  0.387291  0.750003  1
  Cr  Cr9  1  0.580612  0.895075  0.749997  1
  Cr  Cr10  1  0.919401  0.395071  0.249997  1
  Cr  Cr11  1  0.935881  0.887303  0.250002  1
  O  O12  1  0.021255  0.715481  0.249991  1
  O  O13  1  0.075525  0.927531  0.750001  1
  O  O14  1  0.112750  0.482356  0.250001  1
  O  O15  1  0.205914  0.148742  0.250001  1
  O  O16  1  0.294099  0.648748  0.749996  1
  O  O17  1  0.387257  0.982365  0.750005  1
  O  O18  1  0.424482  0.427519  0.250001  1
  O  O19  1  0.478744  0.215460  0.750000  1
  O  O20  1  0.521260  0.784522  0.250000  1
  O  O21  1  0.575521  0.572473  0.749998  1
  O  O22  1  0.612750  0.017642  0.249997  1
  O  O23  1  0.705912  0.351253  0.250000  1
  O  O24  1  0.794100  0.851255  0.750000  1
  O  O25  1  0.887232  0.517637  0.749999  1
  O  O26  1  0.924475  0.072473  0.250002  1
  O  O27  1  0.978738  0.284536  0.749994  1
