# generated using pymatgen
data_Li2Cr(Si2O5)3
_symmetry_space_group_name_H-M   'P 1'
_cell_length_a   7.33864610
_cell_length_b   7.33551025
_cell_length_c   6.70326685
_cell_angle_alpha   110.97286063
_cell_angle_beta   114.08522949
_cell_angle_gamma   97.51306862
_symmetry_Int_Tables_number   1
_chemical_formula_structural   Li2Cr(Si2O5)3
_chemical_formula_sum   'Li2 Cr1 Si6 O15'
_cell_volume   290.94272331
_cell_formula_units_Z   1
loop_
 _symmetry_equiv_pos_site_id
 _symmetry_equiv_pos_as_xyz
  1  'x, y, z'
loop_
 _atom_site_type_symbol
 _atom_site_label
 _atom_site_symmetry_multiplicity
 _atom_site_fract_x
 _atom_site_fract_y
 _atom_site_fract_z
 _atom_site_occupancy
  Li  Li0  1  0.190662  0.170761  0.703759  1
  Li  Li1  1  0.809338  0.829239  0.296241  1
  Cr  Cr2  1  0.000000  0.000000  0.000000  1
  Si  Si3  1  0.171741  0.607002  0.869033  1
  Si  Si4  1  0.202491  0.786574  0.353350  1
  Si  Si5  1  0.513341  0.695982  0.723679  1
  Si  Si6  1  0.486659  0.304018  0.276321  1
  Si  Si7  1  0.797509  0.213426  0.646650  1
  Si  Si8  1  0.828259  0.392998  0.130967  1
  O  O9  1  0.052666  0.769182  0.823537  1
  O  O10  1  0.986095  0.634589  0.310106  1
  O  O11  1  0.145326  0.989281  0.338735  1
  O  O12  1  0.373392  0.605684  0.825358  1
  O  O13  1  0.399081  0.848731  0.623412  1
  O  O14  1  0.264559  0.651101  0.154326  1
  O  O15  1  0.250578  0.175810  0.045808  1
  O  O16  1  0.500000  0.500000  0.500000  1
  O  O17  1  0.749422  0.824190  0.954192  1
  O  O18  1  0.735441  0.348899  0.845674  1
  O  O19  1  0.600920  0.151269  0.376587  1
  O  O20  1  0.626608  0.394316  0.174642  1
  O  O21  1  0.854674  0.010719  0.661265  1
  O  O22  1  0.013905  0.365411  0.689894  1
  O  O23  1  0.947334  0.230818  0.176463  1
