# generated using pymatgen
data_Na4Sn4H10O11
_symmetry_space_group_name_H-M   'P 1'
_cell_length_a   14.83406115
_cell_length_b   8.75832576
_cell_length_c   12.81091620
_cell_angle_alpha   90.00000000
_cell_angle_beta   102.37904199
_cell_angle_gamma   90.00000000
_symmetry_Int_Tables_number   1
_chemical_formula_structural   Na4Sn4H10O11
_chemical_formula_sum   'Na16 Sn16 H40 O44'
_cell_volume   1625.71760098
_cell_formula_units_Z   4
loop_
 _symmetry_equiv_pos_site_id
 _symmetry_equiv_pos_as_xyz
  1  'x, y, z'
loop_
 _atom_site_type_symbol
 _atom_site_label
 _atom_site_symmetry_multiplicity
 _atom_site_fract_x
 _atom_site_fract_y
 _atom_site_fract_z
 _atom_site_occupancy
  Na  Na0  1  0.008942  0.146323  0.595423  1
  Na  Na1  1  0.058370  0.400695  0.402640  1
  Na  Na2  1  0.158554  0.688336  0.241959  1
  Na  Na3  1  0.209721  0.090896  0.426808  1
  Na  Na4  1  0.290279  0.590896  0.073192  1
  Na  Na5  1  0.491058  0.646323  0.904577  1
  Na  Na6  1  0.341446  0.188336  0.258041  1
  Na  Na7  1  0.558370  0.099305  0.902640  1
  Na  Na8  1  0.441630  0.900695  0.097360  1
  Na  Na9  1  0.658554  0.811664  0.741959  1
  Na  Na10  1  0.508942  0.353677  0.095423  1
  Na  Na11  1  0.709721  0.409104  0.926808  1
  Na  Na12  1  0.790279  0.909104  0.573192  1
  Na  Na13  1  0.841446  0.311664  0.758041  1
  Na  Na14  1  0.941630  0.599305  0.597360  1
  Na  Na15  1  0.991058  0.853677  0.404577  1
  Sn  Sn16  1  0.070275  0.401863  0.794764  1
  Sn  Sn17  1  0.181569  0.924435  0.966241  1
  Sn  Sn18  1  0.155348  0.821563  0.640962  1
  Sn  Sn19  1  0.086122  0.312175  0.130430  1
  Sn  Sn20  1  0.344652  0.321563  0.859038  1
  Sn  Sn21  1  0.318431  0.424435  0.533759  1
  Sn  Sn22  1  0.429725  0.901863  0.705236  1
  Sn  Sn23  1  0.413878  0.812175  0.369570  1
  Sn  Sn24  1  0.586122  0.187825  0.630430  1
  Sn  Sn25  1  0.570275  0.098137  0.294764  1
  Sn  Sn26  1  0.681569  0.575565  0.466241  1
  Sn  Sn27  1  0.655348  0.678437  0.140962  1
  Sn  Sn28  1  0.913878  0.687825  0.869570  1
  Sn  Sn29  1  0.844652  0.178437  0.359038  1
  Sn  Sn30  1  0.818431  0.075565  0.033759  1
  Sn  Sn31  1  0.929725  0.598137  0.205236  1
  H  H32  1  0.020696  0.135767  0.340951  1
  H  H33  1  0.111316  0.404900  0.600875  1
  H  H34  1  0.978340  0.877114  0.174106  1
  H  H35  1  0.187252  0.234330  0.571917  1
  H  H36  1  0.234900  0.080965  0.686185  1
  H  H37  1  0.091482  0.705174  0.033210  1
  H  H38  1  0.112326  0.053534  0.229798  1
  H  H39  1  0.265100  0.580965  0.813815  1
  H  H40  1  0.180331  0.709249  0.459463  1
  H  H41  1  0.312748  0.734330  0.928083  1
  H  H42  1  0.245686  0.853470  0.383113  1
  H  H43  1  0.254764  0.977613  0.162473  1
  H  H44  1  0.388684  0.904900  0.899125  1
  H  H45  1  0.245236  0.477613  0.337527  1
  H  H46  1  0.254314  0.353470  0.116887  1
  H  H47  1  0.319669  0.209249  0.040537  1
  H  H48  1  0.387674  0.553534  0.270202  1
  H  H49  1  0.408518  0.205174  0.466790  1
  H  H50  1  0.520696  0.364233  0.840951  1
  H  H51  1  0.478340  0.622886  0.674106  1
  H  H52  1  0.521660  0.377114  0.325894  1
  H  H53  1  0.479304  0.635767  0.159049  1
  H  H54  1  0.591482  0.794826  0.533210  1
  H  H55  1  0.612326  0.446466  0.729798  1
  H  H56  1  0.680331  0.790751  0.959463  1
  H  H57  1  0.745686  0.646530  0.883113  1
  H  H58  1  0.754764  0.522387  0.662473  1
  H  H59  1  0.611316  0.095100  0.100875  1
  H  H60  1  0.745236  0.022387  0.837527  1
  H  H61  1  0.754314  0.146530  0.616887  1
  H  H62  1  0.687252  0.265670  0.071917  1
  H  H63  1  0.819669  0.290751  0.540537  1
  H  H64  1  0.734900  0.419035  0.186185  1
  H  H65  1  0.887674  0.946466  0.770202  1
  H  H66  1  0.908518  0.294826  0.966790  1
  H  H67  1  0.765100  0.919035  0.313815  1
  H  H68  1  0.812748  0.765670  0.428083  1
  H  H69  1  0.021660  0.122886  0.825894  1
  H  H70  1  0.888684  0.595100  0.399125  1
  H  H71  1  0.979304  0.864233  0.659049  1
  O  O72  1  0.991306  0.195009  0.771547  1
  O  O73  1  0.011221  0.861821  0.597568  1
  O  O74  1  0.052895  0.416062  0.625821  1
  O  O75  1  0.052767  0.478938  0.228391  1
  O  O76  1  0.179744  0.061289  0.631213  1
  O  O77  1  0.104531  0.153058  0.261450  1
  O  O78  1  0.155972  0.808900  0.475198  1
  O  O79  1  0.187457  0.325398  0.525172  1
  O  O80  1  0.312543  0.825399  0.974828  1
  O  O81  1  0.155482  0.736618  0.059680  1
  O  O82  1  0.320256  0.561289  0.868787  1
  O  O83  1  0.254323  0.550129  0.397441  1
  O  O84  1  0.223793  0.398552  0.170677  1
  O  O85  1  0.276207  0.898552  0.329323  1
  O  O86  1  0.245677  0.050129  0.102559  1
  O  O87  1  0.344518  0.236618  0.440320  1
  O  O88  1  0.447105  0.916062  0.874179  1
  O  O89  1  0.488779  0.361821  0.902432  1
  O  O90  1  0.508694  0.695009  0.728453  1
  O  O91  1  0.344028  0.308900  0.024802  1
  O  O92  1  0.395469  0.653058  0.238550  1
  O  O93  1  0.552767  0.021062  0.728391  1
  O  O94  1  0.447233  0.978938  0.271609  1
  O  O95  1  0.604531  0.346942  0.761450  1
  O  O96  1  0.655972  0.691100  0.975198  1
  O  O97  1  0.491306  0.304991  0.271547  1
  O  O98  1  0.511221  0.638179  0.097568  1
  O  O99  1  0.552895  0.083938  0.125821  1
  O  O100  1  0.655482  0.763382  0.559680  1
  O  O101  1  0.754323  0.949871  0.897441  1
  O  O102  1  0.723793  0.101448  0.670677  1
  O  O103  1  0.776207  0.601448  0.829323  1
  O  O104  1  0.745677  0.449871  0.602559  1
  O  O105  1  0.679744  0.438711  0.131213  1
  O  O106  1  0.844518  0.263382  0.940320  1
  O  O107  1  0.687457  0.174601  0.025172  1
  O  O108  1  0.812543  0.674601  0.474828  1
  O  O109  1  0.844028  0.191100  0.524802  1
  O  O110  1  0.895469  0.846942  0.738550  1
  O  O111  1  0.820256  0.938711  0.368787  1
  O  O112  1  0.947233  0.521062  0.771609  1
  O  O113  1  0.947105  0.583938  0.374179  1
  O  O114  1  0.988779  0.138179  0.402432  1
  O  O115  1  0.008694  0.804991  0.228453  1
