# generated using pymatgen
data_NaCu(PO3)3
_symmetry_space_group_name_H-M   'P 1'
_cell_length_a   9.78764965
_cell_length_b   9.71176285
_cell_length_c   9.72647822
_cell_angle_alpha   111.87050506
_cell_angle_beta   106.83430058
_cell_angle_gamma   105.57775424
_symmetry_Int_Tables_number   1
_chemical_formula_structural   NaCu(PO3)3
_chemical_formula_sum   'Na4 Cu4 P12 O36'
_cell_volume   743.85297057
_cell_formula_units_Z   4
loop_
 _symmetry_equiv_pos_site_id
 _symmetry_equiv_pos_as_xyz
  1  'x, y, z'
loop_
 _atom_site_type_symbol
 _atom_site_label
 _atom_site_symmetry_multiplicity
 _atom_site_fract_x
 _atom_site_fract_y
 _atom_site_fract_z
 _atom_site_occupancy
  Na  Na0  1  0.506314  0.933623  0.344250  1
  Na  Na1  1  0.314595  0.171708  0.379984  1
  Na  Na2  1  0.685405  0.828292  0.620016  1
  Na  Na3  1  0.493686  0.066377  0.655750  1
  Cu  Cu4  1  0.275916  0.232048  0.745979  1
  Cu  Cu5  1  0.212783  0.294095  0.102463  1
  Cu  Cu6  1  0.787217  0.705905  0.897537  1
  Cu  Cu7  1  0.724084  0.767952  0.254021  1
  P  P8  1  0.081209  0.916452  0.816444  1
  P  P9  1  0.098302  0.851080  0.489681  1
  P  P10  1  0.351889  0.601005  0.983945  1
  P  P11  1  0.153550  0.782005  0.040019  1
  P  P12  1  0.290008  0.656736  0.424725  1
  P  P13  1  0.409247  0.568153  0.689177  1
  P  P14  1  0.590753  0.431847  0.310823  1
  P  P15  1  0.709992  0.343264  0.575275  1
  P  P16  1  0.846450  0.217995  0.959981  1
  P  P17  1  0.648111  0.398995  0.016055  1
  P  P18  1  0.901698  0.148920  0.510319  1
  P  P19  1  0.918791  0.083548  0.183556  1
  O  O20  1  0.010539  0.277366  0.973328  1
  O  O21  1  0.080708  0.825765  0.638153  1
  O  O22  1  0.160993  0.821200  0.893941  1
  O  O23  1  0.198147  0.625701  0.988805  1
  O  O24  1  0.139401  0.701913  0.401029  1
  O  O25  1  0.054047  0.179107  0.633931  1
  O  O26  1  0.193880  0.096130  0.904308  1
  O  O27  1  0.317556  0.425326  0.941571  1
  O  O28  1  0.362225  0.636659  0.838966  1
  O  O29  1  0.295447  0.609085  0.568297  1
  O  O30  1  0.280599  0.918586  0.201940  1
  O  O31  1  0.084090  0.130751  0.201178  1
  O  O32  1  0.247686  0.511322  0.267101  1
  O  O33  1  0.435271  0.807122  0.488557  1
  O  O34  1  0.356933  0.387159  0.617413  1
  O  O35  1  0.236776  0.015338  0.560561  1
  O  O36  1  0.579522  0.678844  0.745699  1
  O  O37  1  0.502944  0.271290  0.858049  1
  O  O38  1  0.497056  0.728710  0.141951  1
  O  O39  1  0.420478  0.321156  0.254301  1
  O  O40  1  0.763224  0.984662  0.439439  1
  O  O41  1  0.643067  0.612841  0.382587  1
  O  O42  1  0.564729  0.192878  0.511443  1
  O  O43  1  0.752314  0.488678  0.732899  1
  O  O44  1  0.915910  0.869249  0.798822  1
  O  O45  1  0.719401  0.081414  0.798060  1
  O  O46  1  0.704553  0.390915  0.431703  1
  O  O47  1  0.637775  0.363341  0.161034  1
  O  O48  1  0.682444  0.574674  0.058429  1
  O  O49  1  0.806120  0.903870  0.095692  1
  O  O50  1  0.945953  0.820893  0.366069  1
  O  O51  1  0.860599  0.298087  0.598971  1
  O  O52  1  0.801853  0.374299  0.011195  1
  O  O53  1  0.839007  0.178800  0.106059  1
  O  O54  1  0.919292  0.174235  0.361847  1
  O  O55  1  0.989461  0.722634  0.026672  1
