# generated using pymatgen
data_MnOF
_symmetry_space_group_name_H-M   'P 1'
_cell_length_a   4.82005460
_cell_length_b   14.32606353
_cell_length_c   3.06228455
_cell_angle_alpha   90.00000000
_cell_angle_beta   90.00000000
_cell_angle_gamma   96.51111859
_symmetry_Int_Tables_number   1
_chemical_formula_structural   MnOF
_chemical_formula_sum   'Mn6 O6 F6'
_cell_volume   210.09419088
_cell_formula_units_Z   6
loop_
 _symmetry_equiv_pos_site_id
 _symmetry_equiv_pos_as_xyz
  1  'x, y, z'
loop_
 _atom_site_type_symbol
 _atom_site_label
 _atom_site_symmetry_multiplicity
 _atom_site_fract_x
 _atom_site_fract_y
 _atom_site_fract_z
 _atom_site_occupancy
  Mn  Mn0  1  0.054878  0.998343  0.000000  1
  Mn  Mn1  1  0.008157  0.333509  0.000000  1
  Mn  Mn2  1  0.969082  0.666636  0.000000  1
  Mn  Mn3  1  0.528477  0.168381  0.500000  1
  Mn  Mn4  1  0.490604  0.498973  0.500000  1
  Mn  Mn5  1  0.451467  0.831762  0.500000  1
  O  O6  1  0.201650  0.935941  0.500000  1
  O  O7  1  0.338931  0.102366  0.000000  1
  O  O8  1  0.266024  0.768079  0.000000  1
  O  O9  1  0.301196  0.434166  0.000000  1
  O  O10  1  0.716587  0.233091  0.000000  1
  O  O11  1  0.676081  0.566380  0.000000  1
  F  F12  1  0.199268  0.270113  0.500000  1
  F  F13  1  0.164146  0.606305  0.500000  1
  F  F14  1  0.693462  0.898290  0.000000  1
  F  F15  1  0.850198  0.056473  0.500000  1
  F  F16  1  0.816162  0.396484  0.500000  1
  F  F17  1  0.773631  0.734707  0.500000  1
