# generated using pymatgen
data_CrFe3Sb2(PO4)6
_symmetry_space_group_name_H-M   'P 1'
_cell_length_a   8.84389737
_cell_length_b   8.84389752
_cell_length_c   8.84389731
_cell_angle_alpha   58.71554724
_cell_angle_beta   58.71554668
_cell_angle_gamma   58.71554072
_symmetry_Int_Tables_number   1
_chemical_formula_structural   CrFe3Sb2(PO4)6
_chemical_formula_sum   'Cr1 Fe3 Sb2 P6 O24'
_cell_volume   474.76643542
_cell_formula_units_Z   1
loop_
 _symmetry_equiv_pos_site_id
 _symmetry_equiv_pos_as_xyz
  1  'x, y, z'
loop_
 _atom_site_type_symbol
 _atom_site_label
 _atom_site_symmetry_multiplicity
 _atom_site_fract_x
 _atom_site_fract_y
 _atom_site_fract_z
 _atom_site_occupancy
  Cr  Cr0  1  0.854462  0.854462  0.854462  1
  Fe  Fe1  1  0.149380  0.149380  0.149380  1
  Fe  Fe2  1  0.350677  0.350677  0.350677  1
  Fe  Fe3  1  0.649009  0.649009  0.649009  1
  Sb  Sb4  1  0.002940  0.002940  0.002940  1
  Sb  Sb5  1  0.499564  0.499564  0.499564  1
  P  P6  1  0.039456  0.749680  0.462048  1
  P  P7  1  0.462048  0.039456  0.749680  1
  P  P8  1  0.749680  0.462048  0.039456  1
  P  P9  1  0.249322  0.540611  0.958522  1
  P  P10  1  0.540611  0.958522  0.249322  1
  P  P11  1  0.958522  0.249322  0.540611  1
  O  O12  1  0.116068  0.300448  0.508757  1
  O  O13  1  0.300448  0.508757  0.116068  1
  O  O14  1  0.059472  0.917308  0.266842  1
  O  O15  1  0.508757  0.116068  0.300448  1
  O  O16  1  0.008249  0.800876  0.617681  1
  O  O17  1  0.233224  0.582972  0.439235  1
  O  O18  1  0.266842  0.059472  0.917308  1
  O  O19  1  0.439235  0.233224  0.582972  1
  O  O20  1  0.197954  0.382775  0.992235  1
  O  O21  1  0.582972  0.439235  0.233224  1
  O  O22  1  0.081720  0.732310  0.938957  1
  O  O23  1  0.382775  0.992235  0.197954  1
  O  O24  1  0.617681  0.008249  0.800876  1
  O  O25  1  0.917308  0.266842  0.059472  1
  O  O26  1  0.417219  0.560008  0.766473  1
  O  O27  1  0.800876  0.617681  0.008249  1
  O  O28  1  0.560008  0.766473  0.417219  1
  O  O29  1  0.732310  0.938957  0.081720  1
  O  O30  1  0.766473  0.417219  0.560008  1
  O  O31  1  0.992235  0.197954  0.382775  1
  O  O32  1  0.492490  0.883561  0.697497  1
  O  O33  1  0.938957  0.081720  0.732310  1
  O  O34  1  0.697497  0.492490  0.883561  1
  O  O35  1  0.883561  0.697497  0.492490  1
