# generated using pymatgen
data_Li4V3P8O29
_symmetry_space_group_name_H-M   'P 1'
_cell_length_a   9.73697953
_cell_length_b   9.76840047
_cell_length_c   14.18497939
_cell_angle_alpha   90.50991933
_cell_angle_beta   90.16777787
_cell_angle_gamma   60.36021380
_symmetry_Int_Tables_number   1
_chemical_formula_structural   Li4V3P8O29
_chemical_formula_sum   'Li8 V6 P16 O58'
_cell_volume   1172.61162615
_cell_formula_units_Z   2
loop_
 _symmetry_equiv_pos_site_id
 _symmetry_equiv_pos_as_xyz
  1  'x, y, z'
loop_
 _atom_site_type_symbol
 _atom_site_label
 _atom_site_symmetry_multiplicity
 _atom_site_fract_x
 _atom_site_fract_y
 _atom_site_fract_z
 _atom_site_occupancy
  Li  Li0  1  0.771260  0.915041  0.559289  1
  Li  Li1  1  0.916482  0.312040  0.558821  1
  Li  Li2  1  0.765471  0.333610  0.061108  1
  Li  Li3  1  0.330718  0.903620  0.059230  1
  Li  Li4  1  0.315384  0.777752  0.552725  1
  Li  Li5  1  0.230598  0.666498  0.945553  1
  Li  Li6  1  0.090405  0.680904  0.434663  1
  Li  Li7  1  0.960392  0.012589  0.002353  1
  V  V8  1  0.570497  0.430521  0.253524  1
  V  V9  1  0.435242  0.565311  0.749082  1
  V  V10  1  0.567515  0.000709  0.752884  1
  V  V11  1  0.435464  0.001012  0.249025  1
  V  V12  1  0.993712  0.568545  0.243370  1
  V  V13  1  0.006277  0.430687  0.754363  1
  P  P14  1  0.916729  0.777397  0.837937  1
  P  P15  1  0.771015  0.912997  0.342441  1
  P  P16  1  0.915960  0.318188  0.343886  1
  P  P17  1  0.660826  0.666957  0.129611  1
  P  P18  1  0.671913  0.663116  0.631663  1
  P  P19  1  0.772014  0.315704  0.843394  1
  P  P20  1  0.685396  0.227929  0.660896  1
  P  P21  1  0.313382  0.912679  0.845395  1
  P  P22  1  0.696190  0.083521  0.159668  1
  P  P23  1  0.319796  0.772726  0.339083  1
  P  P24  1  0.230685  0.681004  0.159552  1
  P  P25  1  0.331317  0.336658  0.367910  1
  P  P26  1  0.335273  0.337820  0.869353  1
  P  P27  1  0.089221  0.679535  0.654752  1
  P  P28  1  0.228954  0.083935  0.663804  1
  P  P29  1  0.083854  0.220269  0.160605  1
  O  O30  1  0.004299  0.753037  0.564453  1
  O  O31  1  0.918290  0.747218  0.335551  1
  O  O32  1  0.798877  0.003213  0.077368  1
  O  O33  1  0.744928  0.912886  0.833480  1
  O  O34  1  0.919078  0.617122  0.827912  1
  O  O35  1  0.802659  0.676452  0.171427  1
  O  O36  1  0.906030  0.477716  0.321070  1
  O  O37  1  0.991759  0.200853  0.082446  1
  O  O38  1  0.913990  0.345070  0.830385  1
  O  O39  1  0.672684  0.813263  0.668358  1
  O  O40  1  0.619367  0.901936  0.317810  1
  O  O41  1  0.821408  0.515468  0.673603  1
  O  O42  1  0.648405  0.662464  0.025154  1
  O  O43  1  0.662414  0.653921  0.527277  1
  O  O44  1  0.670692  0.512040  0.172231  1
  O  O45  1  0.470858  0.908342  0.830449  1
  O  O46  1  0.505023  0.814698  0.170723  1
  O  O47  1  0.745638  0.341825  0.330980  1
  O  O48  1  0.786422  0.203059  0.757468  1
  O  O49  1  0.769323  0.243297  0.579099  1
  O  O50  1  0.781670  0.238828  0.935365  1
  O  O51  1  0.615839  0.473179  0.827302  1
  O  O52  1  0.520874  0.663685  0.677552  1
  O  O53  1  0.657826  0.259348  0.163689  1
  O  O54  1  0.480129  0.620343  0.322237  1
  O  O55  1  0.342413  0.917795  0.334738  1
  O  O56  1  0.789004  0.010555  0.257386  1
  O  O57  1  0.755884  0.991375  0.434803  1
  O  O58  1  0.231751  0.991093  0.580080  1
  O  O59  1  0.663921  0.081756  0.659833  1
  O  O60  1  0.521973  0.379561  0.679972  1
  O  O61  1  0.336491  0.741727  0.831828  1
  O  O62  1  0.479495  0.340187  0.322066  1
  O  O63  1  0.386126  0.526163  0.173470  1
  O  O64  1  0.228235  0.767406  0.071766  1
  O  O65  1  0.241651  0.761865  0.427677  1
  O  O66  1  0.208514  0.791502  0.250540  1
  O  O67  1  0.257425  0.660998  0.656869  1
  O  O68  1  0.481931  0.194203  0.828616  1
  O  O69  1  0.539895  0.077091  0.168351  1
  O  O70  1  0.324218  0.493282  0.824585  1
  O  O71  1  0.318931  0.361872  0.972866  1
  O  O72  1  0.343407  0.326677  0.471773  1
  O  O73  1  0.183011  0.485034  0.330516  1
  O  O74  1  0.383149  0.090316  0.679750  1
  O  O75  1  0.340173  0.185886  0.317516  1
  O  O76  1  0.088561  0.653007  0.164471  1
  O  O77  1  0.995283  0.795181  0.740953  1
  O  O78  1  0.006831  0.790287  0.919271  1
  O  O79  1  0.097985  0.520774  0.676046  1
  O  O80  1  0.186497  0.333289  0.823955  1
  O  O81  1  0.082851  0.377202  0.166977  1
  O  O82  1  0.258225  0.079649  0.160548  1
  O  O83  1  0.231018  0.977006  0.936713  1
  O  O84  1  0.200013  0.010422  0.759028  1
  O  O85  1  0.085117  0.255094  0.663516  1
  O  O86  1  0.987684  0.251501  0.435763  1
  O  O87  1  0.014640  0.198762  0.260112  1
