# generated using pymatgen
data_Ti3CrSb2(PO4)6
_symmetry_space_group_name_H-M   'P 1'
_cell_length_a   8.85086017
_cell_length_b   8.85086001
_cell_length_c   8.85085971
_cell_angle_alpha   58.48335197
_cell_angle_beta   58.48334928
_cell_angle_gamma   58.48334981
_symmetry_Int_Tables_number   1
_chemical_formula_structural   Ti3CrSb2(PO4)6
_chemical_formula_sum   'Ti3 Cr1 Sb2 P6 O24'
_cell_volume   473.26529694
_cell_formula_units_Z   1
loop_
 _symmetry_equiv_pos_site_id
 _symmetry_equiv_pos_as_xyz
  1  'x, y, z'
loop_
 _atom_site_type_symbol
 _atom_site_label
 _atom_site_symmetry_multiplicity
 _atom_site_fract_x
 _atom_site_fract_y
 _atom_site_fract_z
 _atom_site_occupancy
  Ti  Ti0  1  0.147600  0.147600  0.147600  1
  Ti  Ti1  1  0.351569  0.351569  0.351569  1
  Ti  Ti2  1  0.647477  0.647477  0.647477  1
  Cr  Cr3  1  0.853366  0.853366  0.853366  1
  Sb  Sb4  1  -0.000822  -0.000822  -0.000822  1
  Sb  Sb5  1  0.497909  0.497909  0.497909  1
  P  P6  1  0.040789  0.749969  0.461396  1
  P  P7  1  0.461396  0.040789  0.749969  1
  P  P8  1  0.249883  0.541199  0.958922  1
  P  P9  1  0.541199  0.958922  0.249883  1
  P  P10  1  0.958922  0.249883  0.541199  1
  P  P11  1  0.749969  0.461396  0.040789  1
  O  O12  1  0.117507  0.302856  0.504129  1
  O  O13  1  0.302856  0.504129  0.117507  1
  O  O14  1  0.062541  0.916760  0.266925  1
  O  O15  1  0.504129  0.117507  0.302856  1
  O  O16  1  0.011711  0.799572  0.615034  1
  O  O17  1  0.232924  0.580618  0.435711  1
  O  O18  1  0.266925  0.062541  0.916760  1
  O  O19  1  0.435711  0.232924  0.580618  1
  O  O20  1  0.197458  0.382992  0.994764  1
  O  O21  1  0.580618  0.435711  0.232924  1
  O  O22  1  0.082827  0.733264  0.940160  1
  O  O23  1  0.382992  0.994764  0.197458  1
  O  O24  1  0.615034  0.011711  0.799572  1
  O  O25  1  0.916760  0.266925  0.062541  1
  O  O26  1  0.418190  0.562001  0.768709  1
  O  O27  1  0.799572  0.615034  0.011711  1
  O  O28  1  0.562001  0.768709  0.418190  1
  O  O29  1  0.733264  0.940160  0.082827  1
  O  O30  1  0.768709  0.418190  0.562001  1
  O  O31  1  0.994764  0.197458  0.382992  1
  O  O32  1  0.493559  0.882979  0.697547  1
  O  O33  1  0.940160  0.082827  0.733264  1
  O  O34  1  0.697547  0.493559  0.882979  1
  O  O35  1  0.882979  0.697547  0.493559  1
