# generated using pymatgen
data_BaH6C4O7
_symmetry_space_group_name_H-M   'P 1'
_cell_length_a   6.63192442
_cell_length_b   8.64560450
_cell_length_c   8.83226645
_cell_angle_alpha   61.34273229
_cell_angle_beta   63.87848137
_cell_angle_gamma   70.54773610
_symmetry_Int_Tables_number   1
_chemical_formula_structural   BaH6C4O7
_chemical_formula_sum   'Ba2 H12 C8 O14'
_cell_volume   394.19084783
_cell_formula_units_Z   2
loop_
 _symmetry_equiv_pos_site_id
 _symmetry_equiv_pos_as_xyz
  1  'x, y, z'
loop_
 _atom_site_type_symbol
 _atom_site_label
 _atom_site_symmetry_multiplicity
 _atom_site_fract_x
 _atom_site_fract_y
 _atom_site_fract_z
 _atom_site_occupancy
  Ba  Ba0  1  0.852837  0.814667  0.926957  1
  Ba  Ba1  1  0.147163  0.185333  0.073043  1
  H  H2  1  0.741047  0.481470  0.907332  1
  H  H3  1  0.258953  0.518530  0.092668  1
  H  H4  1  0.378340  0.553144  0.882159  1
  H  H5  1  0.621660  0.446856  0.117841  1
  H  H6  1  0.654355  0.795087  0.646915  1
  H  H7  1  0.345645  0.204912  0.353085  1
  H  H8  1  0.713301  0.991943  0.564207  1
  H  H9  1  0.286699  0.008057  0.435793  1
  H  H10  1  0.339620  0.980448  0.756170  1
  H  H11  1  0.660380  0.019552  0.243830  1
  H  H12  1  0.166398  0.159712  0.733092  1
  H  H13  1  0.833602  0.840288  0.266908  1
  C  C14  1  0.784707  0.300641  0.489545  1
  C  C15  1  0.215293  0.699359  0.510455  1
  C  C16  1  0.790659  0.491576  0.430992  1
  C  C17  1  0.209341  0.508424  0.569008  1
  C  C18  1  0.697927  0.469165  0.623418  1
  C  C19  1  0.302073  0.530835  0.376582  1
  C  C20  1  0.684663  0.281713  0.683806  1
  C  C21  1  0.315337  0.718287  0.316194  1
  O  O22  1  0.231605  0.533064  0.984997  1
  O  O23  1  0.768395  0.466936  0.015003  1
  O  O24  1  0.633809  0.897408  0.676693  1
  O  O25  1  0.366191  0.102592  0.323307  1
  O  O26  1  0.174801  0.029086  0.794295  1
  O  O27  1  0.825199  0.970914  0.205705  1
  O  O28  1  0.162129  0.801483  0.591055  1
  O  O29  1  0.837871  0.198517  0.408945  1
  O  O30  1  0.845178  0.622009  0.279780  1
  O  O31  1  0.154822  0.377991  0.720220  1
  O  O32  1  0.645142  0.571189  0.706108  1
  O  O33  1  0.354858  0.428811  0.293892  1
  O  O34  1  0.611894  0.158580  0.838364  1
  O  O35  1  0.388106  0.841420  0.161636  1
