# generated using pymatgen
data_K2NdPCO7
_symmetry_space_group_name_H-M   'P 1'
_cell_length_a   10.10280086
_cell_length_b   7.33579480
_cell_length_c   5.78147135
_cell_angle_alpha   90.00000000
_cell_angle_beta   93.14045742
_cell_angle_gamma   90.00000000
_symmetry_Int_Tables_number   1
_chemical_formula_structural   K2NdPCO7
_chemical_formula_sum   'K4 Nd2 P2 C2 O14'
_cell_volume   427.83336151
_cell_formula_units_Z   2
loop_
 _symmetry_equiv_pos_site_id
 _symmetry_equiv_pos_as_xyz
  1  'x, y, z'
loop_
 _atom_site_type_symbol
 _atom_site_label
 _atom_site_symmetry_multiplicity
 _atom_site_fract_x
 _atom_site_fract_y
 _atom_site_fract_z
 _atom_site_occupancy
  K  K0  1  0.213633  0.012645  0.244282  1
  K  K1  1  0.213633  0.487355  0.244282  1
  K  K2  1  0.786367  0.512645  0.755718  1
  K  K3  1  0.786367  0.987355  0.755718  1
  Nd  Nd4  1  0.377388  0.750000  0.782494  1
  Nd  Nd5  1  0.622612  0.250000  0.217506  1
  P  P6  1  0.426654  0.250000  0.708694  1
  P  P7  1  0.573346  0.750000  0.291306  1
  C  C8  1  0.093529  0.750000  0.731826  1
  C  C9  1  0.906471  0.250000  0.268174  1
  O  O10  1  0.031073  0.250000  0.303946  1
  O  O11  1  0.153707  0.750000  0.939043  1
  O  O12  1  0.174393  0.750000  0.557719  1
  O  O13  1  0.356137  0.075064  0.789435  1
  O  O14  1  0.356137  0.424936  0.789435  1
  O  O15  1  0.426877  0.750000  0.183619  1
  O  O16  1  0.431396  0.250000  0.438406  1
  O  O17  1  0.568604  0.750000  0.561594  1
  O  O18  1  0.573123  0.250000  0.816381  1
  O  O19  1  0.643863  0.575064  0.210565  1
  O  O20  1  0.643863  0.924936  0.210565  1
  O  O21  1  0.825607  0.250000  0.442281  1
  O  O22  1  0.846293  0.250000  0.060957  1
  O  O23  1  0.968927  0.750000  0.696054  1
