# generated using pymatgen
data_LiCuPO4
_symmetry_space_group_name_H-M   'P 1'
_cell_length_a   5.79886931
_cell_length_b   10.30477026
_cell_length_c   9.95879281
_cell_angle_alpha   90.00000000
_cell_angle_beta   91.76659498
_cell_angle_gamma   90.00000000
_symmetry_Int_Tables_number   1
_chemical_formula_structural   LiCuPO4
_chemical_formula_sum   'Li8 Cu8 P8 O32'
_cell_volume   594.81493442
_cell_formula_units_Z   8
loop_
 _symmetry_equiv_pos_site_id
 _symmetry_equiv_pos_as_xyz
  1  'x, y, z'
loop_
 _atom_site_type_symbol
 _atom_site_label
 _atom_site_symmetry_multiplicity
 _atom_site_fract_x
 _atom_site_fract_y
 _atom_site_fract_z
 _atom_site_occupancy
  Li  Li0  1  0.131196  0.143724  0.887867  1
  Li  Li1  1  0.131196  0.356276  0.387867  1
  Li  Li2  1  0.387610  0.661464  0.638923  1
  Li  Li3  1  0.387610  0.838536  0.138923  1
  Li  Li4  1  0.612390  0.161464  0.861077  1
  Li  Li5  1  0.612390  0.338536  0.361077  1
  Li  Li6  1  0.868804  0.643724  0.612133  1
  Li  Li7  1  0.868804  0.856276  0.112133  1
  Cu  Cu8  1  0.122448  0.907687  0.728821  1
  Cu  Cu9  1  0.122448  0.592313  0.228821  1
  Cu  Cu10  1  0.344587  0.376767  0.985434  1
  Cu  Cu11  1  0.344587  0.123233  0.485434  1
  Cu  Cu12  1  0.655413  0.876767  0.514566  1
  Cu  Cu13  1  0.655413  0.623233  0.014566  1
  Cu  Cu14  1  0.877552  0.407687  0.771179  1
  Cu  Cu15  1  0.877552  0.092313  0.271179  1
  P  P16  1  0.125906  0.645197  0.909578  1
  P  P17  1  0.125906  0.854803  0.409578  1
  P  P18  1  0.373930  0.388833  0.665408  1
  P  P19  1  0.373930  0.111167  0.165408  1
  P  P20  1  0.626070  0.888833  0.834592  1
  P  P21  1  0.626070  0.611167  0.334592  1
  P  P22  1  0.874094  0.145197  0.590422  1
  P  P23  1  0.874094  0.354803  0.090422  1
  O  O24  1  0.092858  0.782020  0.543411  1
  O  O25  1  0.102283  0.066944  0.624361  1
  O  O26  1  0.092858  0.717980  0.043411  1
  O  O27  1  0.102283  0.433056  0.124361  1
  O  O28  1  0.170379  0.734532  0.789686  1
  O  O29  1  0.149928  0.472199  0.651012  1
  O  O30  1  0.170379  0.765468  0.289686  1
  O  O31  1  0.149928  0.027801  0.151012  1
  O  O32  1  0.337518  0.552944  0.920602  1
  O  O33  1  0.369259  0.299989  0.793476  1
  O  O34  1  0.337518  0.947056  0.420602  1
  O  O35  1  0.388889  0.303446  0.534956  1
  O  O36  1  0.415004  0.982370  0.829982  1
  O  O37  1  0.369259  0.200011  0.293476  1
  O  O38  1  0.388889  0.196554  0.034956  1
  O  O39  1  0.415004  0.517630  0.329982  1
  O  O40  1  0.584996  0.482370  0.670018  1
  O  O41  1  0.611111  0.803446  0.965044  1
  O  O42  1  0.630741  0.799989  0.706524  1
  O  O43  1  0.584996  0.017630  0.170018  1
  O  O44  1  0.611111  0.696554  0.465044  1
  O  O45  1  0.662482  0.052944  0.579398  1
  O  O46  1  0.630741  0.700011  0.206524  1
  O  O47  1  0.662482  0.447056  0.079398  1
  O  O48  1  0.850072  0.972199  0.848988  1
  O  O49  1  0.829621  0.234532  0.710314  1
  O  O50  1  0.850072  0.527801  0.348988  1
  O  O51  1  0.829621  0.265468  0.210314  1
  O  O52  1  0.897717  0.566944  0.875639  1
  O  O53  1  0.907143  0.282020  0.956589  1
  O  O54  1  0.897717  0.933056  0.375639  1
  O  O55  1  0.907143  0.217980  0.456589  1
