# generated using pymatgen
data_Li2MnVP2(O4F)2
_symmetry_space_group_name_H-M   'P 1'
_cell_length_a   10.43011237
_cell_length_b   5.35221710
_cell_length_c   7.47906718
_cell_angle_alpha   108.95135389
_cell_angle_beta   105.73505446
_cell_angle_gamma   97.53264976
_symmetry_Int_Tables_number   1
_chemical_formula_structural   Li2MnVP2(O4F)2
_chemical_formula_sum   'Li4 Mn2 V2 P4 O16 F4'
_cell_volume   368.90488268
_cell_formula_units_Z   2
loop_
 _symmetry_equiv_pos_site_id
 _symmetry_equiv_pos_as_xyz
  1  'x, y, z'
loop_
 _atom_site_type_symbol
 _atom_site_label
 _atom_site_symmetry_multiplicity
 _atom_site_fract_x
 _atom_site_fract_y
 _atom_site_fract_z
 _atom_site_occupancy
  Li  Li0  1  0.041080  0.429541  0.813216  1
  Li  Li1  1  0.539866  0.427890  0.810567  1
  Li  Li2  1  0.459932  0.573723  0.187571  1
  Li  Li3  1  0.958035  0.569788  0.188232  1
  Mn  Mn4  1  0.498884  0.001084  0.999348  1
  Mn  Mn5  1  0.748577  0.499847  0.500259  1
  V  V6  1  0.002075  0.000519  0.002609  1
  V  V7  1  0.250405  0.497687  0.498381  1
  P  P8  1  0.221361  0.118549  0.761522  1
  P  P9  1  0.279202  0.878054  0.235406  1
  P  P10  1  0.722456  0.119422  0.762815  1
  P  P11  1  0.777629  0.882277  0.240312  1
  O  O12  1  0.142526  0.161504  0.913622  1
  O  O13  1  0.182099  0.825543  0.612911  1
  O  O14  1  0.177464  0.315620  0.656759  1
  O  O15  1  0.120925  0.780153  0.115002  1
  O  O16  1  0.379830  0.217682  0.882545  1
  O  O17  1  0.323303  0.682299  0.340273  1
  O  O18  1  0.318062  0.171420  0.383218  1
  O  O19  1  0.357350  0.834236  0.081126  1
  O  O20  1  0.639855  0.160114  0.911684  1
  O  O21  1  0.683562  0.825629  0.614028  1
  O  O22  1  0.679600  0.321244  0.660962  1
  O  O23  1  0.619670  0.782876  0.114733  1
  O  O24  1  0.879798  0.218376  0.888496  1
  O  O25  1  0.821778  0.681566  0.342999  1
  O  O26  1  0.816476  0.177280  0.388653  1
  O  O27  1  0.859671  0.844195  0.092317  1
  F  F28  1  0.068372  0.337271  0.263615  1
  F  F29  1  0.430462  0.649918  0.725023  1
  F  F30  1  0.560116  0.342363  0.264664  1
  F  F31  1  0.939582  0.672330  0.747132  1
