# generated using pymatgen
data_Na2Ti2O5
_symmetry_space_group_name_H-M   'P 1'
_cell_length_a   12.53106239
_cell_length_b   5.50765956
_cell_length_c   8.90427042
_cell_angle_alpha   90.00000000
_cell_angle_beta   104.18361322
_cell_angle_gamma   90.00000000
_symmetry_Int_Tables_number   1
_chemical_formula_structural   Na2Ti2O5
_chemical_formula_sum   'Na8 Ti8 O20'
_cell_volume   595.81037838
_cell_formula_units_Z   4
loop_
 _symmetry_equiv_pos_site_id
 _symmetry_equiv_pos_as_xyz
  1  'x, y, z'
loop_
 _atom_site_type_symbol
 _atom_site_label
 _atom_site_symmetry_multiplicity
 _atom_site_fract_x
 _atom_site_fract_y
 _atom_site_fract_z
 _atom_site_occupancy
  Na  Na0  1  0.028969  0.696172  0.855793  1
  Na  Na1  1  0.055897  0.274356  0.619975  1
  Na  Na2  1  0.444103  0.774356  0.380025  1
  Na  Na3  1  0.528969  0.803828  0.855793  1
  Na  Na4  1  0.471031  0.196172  0.144207  1
  Na  Na5  1  0.555897  0.225644  0.619975  1
  Na  Na6  1  0.944103  0.725644  0.380025  1
  Na  Na7  1  0.971031  0.303828  0.144207  1
  Ti  Ti8  1  0.228498  0.804021  0.598073  1
  Ti  Ti9  1  0.320548  0.673088  0.976915  1
  Ti  Ti10  1  0.179452  0.173088  0.023085  1
  Ti  Ti11  1  0.271502  0.304021  0.401927  1
  Ti  Ti12  1  0.728498  0.695979  0.598073  1
  Ti  Ti13  1  0.820548  0.826912  0.976915  1
  Ti  Ti14  1  0.679452  0.326912  0.023085  1
  Ti  Ti15  1  0.771502  0.195979  0.401927  1
  O  O16  1  0.060366  0.264907  0.889258  1
  O  O17  1  0.096272  0.712366  0.610121  1
  O  O18  1  0.301808  0.339341  0.995693  1
  O  O19  1  0.222937  0.136316  0.554433  1
  O  O20  1  0.164112  0.249091  0.220668  1
  O  O21  1  0.335888  0.749091  0.779332  1
  O  O22  1  0.277063  0.636316  0.445567  1
  O  O23  1  0.198192  0.839341  0.004307  1
  O  O24  1  0.403728  0.212366  0.389879  1
  O  O25  1  0.560365  0.235093  0.889258  1
  O  O26  1  0.439634  0.764907  0.110742  1
  O  O27  1  0.596272  0.787634  0.610121  1
  O  O28  1  0.801808  0.160659  0.995693  1
  O  O29  1  0.722937  0.363684  0.554433  1
  O  O30  1  0.664112  0.250909  0.220668  1
  O  O31  1  0.835888  0.750909  0.779332  1
  O  O32  1  0.777063  0.863684  0.445567  1
  O  O33  1  0.698192  0.660659  0.004307  1
  O  O34  1  0.903728  0.287634  0.389879  1
  O  O35  1  0.939635  0.735093  0.110742  1
