# generated using pymatgen
data_NaLi5Ti3Cr3(PO4)9
_symmetry_space_group_name_H-M   'P 1'
_cell_length_a   8.91388680
_cell_length_b   8.92492505
_cell_length_c   26.76424746
_cell_angle_alpha   56.57991683
_cell_angle_beta   56.56435986
_cell_angle_gamma   56.65051344
_symmetry_Int_Tables_number   1
_chemical_formula_structural   NaLi5Ti3Cr3(PO4)9
_chemical_formula_sum   'Na2 Li10 Ti6 Cr6 P18 O72'
_cell_volume   1387.28036755
_cell_formula_units_Z   2
loop_
 _symmetry_equiv_pos_site_id
 _symmetry_equiv_pos_as_xyz
  1  'x, y, z'
loop_
 _atom_site_type_symbol
 _atom_site_label
 _atom_site_symmetry_multiplicity
 _atom_site_fract_x
 _atom_site_fract_y
 _atom_site_fract_z
 _atom_site_occupancy
  Na  Na0  1  0.497694  0.498337  0.501314  1
  Na  Na1  1  0.498475  0.504655  0.833656  1
  Li  Li2  1  0.250608  0.926660  0.225172  1
  Li  Li3  1  0.675623  0.250779  0.308252  1
  Li  Li4  1  0.927421  0.674702  0.083140  1
  Li  Li5  1  0.255862  0.925852  0.560703  1
  Li  Li6  1  0.678005  0.260676  0.638947  1
  Li  Li7  1  0.923493  0.679326  0.419082  1
  Li  Li8  1  0.745351  0.080213  0.776246  1
  Li  Li9  1  0.255581  0.922641  0.893342  1
  Li  Li10  1  0.680239  0.257192  0.975128  1
  Li  Li11  1  0.922715  0.672970  0.752181  1
  Ti  Ti12  1  0.138085  0.141181  0.046377  1
  Ti  Ti13  1  0.358862  0.357375  0.118535  1
  Ti  Ti14  1  0.140887  0.138769  0.379468  1
  Ti  Ti15  1  0.354241  0.351947  0.452862  1
  Ti  Ti16  1  0.647122  0.649570  0.215600  1
  Ti  Ti17  1  0.344036  0.362773  0.784360  1
  Cr  Cr18  1  0.142691  0.144410  0.712991  1
  Cr  Cr19  1  0.856391  0.855593  0.285186  1
  Cr  Cr20  1  0.649033  0.651389  0.549778  1
  Cr  Cr21  1  0.854653  0.854567  0.618801  1
  Cr  Cr22  1  0.648763  0.648890  0.883725  1
  Cr  Cr23  1  0.856115  0.855716  0.952257  1
  P  P24  1  0.036394  0.752635  0.154477  1
  P  P25  1  0.464611  0.035532  0.250658  1
  P  P26  1  0.753553  0.464081  0.010907  1
  P  P27  1  0.246312  0.533194  0.322851  1
  P  P28  1  0.532414  0.969540  0.081993  1
  P  P29  1  0.035518  0.752275  0.487658  1
  P  P30  1  0.969488  0.246572  0.177493  1
  P  P31  1  0.457511  0.036067  0.585825  1
  P  P32  1  0.752583  0.463375  0.345602  1
  P  P33  1  0.248322  0.533942  0.653596  1
  P  P34  1  0.532915  0.965661  0.416144  1
  P  P35  1  0.035181  0.758706  0.820044  1
  P  P36  1  0.964768  0.248383  0.510822  1
  P  P37  1  0.463657  0.034839  0.917349  1
  P  P38  1  0.752016  0.460448  0.678913  1
  P  P39  1  0.248886  0.531781  0.989024  1
  P  P40  1  0.535162  0.962362  0.749766  1
  P  P41  1  0.963803  0.248323  0.844194  1
  O  O42  1  0.167606  0.212361  0.172783  1
  O  O43  1  0.217309  0.517579  0.054676  1
  O  O44  1  0.104140  0.897966  0.087797  1
  O  O45  1  0.519336  0.166769  0.070771  1
  O  O46  1  0.186142  0.547353  0.156841  1
  O  O47  1  0.006653  0.796992  0.206553  1
  O  O48  1  0.264665  0.104141  0.298892  1
  O  O49  1  0.472354  0.186070  0.182224  1
  O  O50  1  0.547769  0.470306  0.062081  1
  O  O51  1  0.198100  0.377491  0.332451  1
  O  O52  1  0.115638  0.738549  0.294263  1
  O  O53  1  0.376622  0.997248  0.066137  1
  O  O54  1  0.620456  0.004668  0.265922  1
  O  O55  1  0.897354  0.264876  0.035716  1
  O  O56  1  0.162136  0.219400  0.505988  1
  O  O57  1  0.795868  0.621570  0.001323  1
  O  O58  1  0.214328  0.518563  0.388813  1
  O  O59  1  0.458976  0.511147  0.275830  1
  O  O60  1  0.510678  0.828492  0.153067  1
  O  O61  1  0.738165  0.881846  0.038762  1
  O  O62  1  0.107915  0.898072  0.421422  1
  O  O63  1  0.517924  0.163255  0.406131  1
  O  O64  1  0.197013  0.549498  0.489543  1
  O  O65  1  0.996615  0.199378  0.125597  1
  O  O66  1  0.006155  0.793662  0.540613  1
  O  O67  1  0.828643  0.458791  0.170716  1
  O  O68  1  0.479616  0.847594  0.252909  1
  O  O69  1  0.883116  0.115103  0.245970  1
  O  O70  1  0.258105  0.112593  0.630995  1
  O  O71  1  0.468611  0.194393  0.516170  1
  O  O72  1  0.549586  0.469476  0.398527  1
  O  O73  1  0.753683  0.480060  0.283943  1
  O  O74  1  0.193019  0.386691  0.662800  1
  O  O75  1  0.847345  0.758260  0.160336  1
  O  O76  1  0.115656  0.741636  0.627642  1
  O  O77  1  0.379703  0.997880  0.397886  1
  O  O78  1  0.619115  0.006899  0.598715  1
  O  O79  1  0.898684  0.264029  0.367750  1
  O  O80  1  0.164311  0.219805  0.837932  1
  O  O81  1  0.797511  0.619388  0.335894  1
  O  O82  1  0.222935  0.513683  0.720304  1
  O  O83  1  0.459861  0.507069  0.605945  1
  O  O84  1  0.504566  0.820694  0.486241  1
  O  O85  1  0.739010  0.883098  0.371804  1
  O  O86  1  0.103889  0.898685  0.753556  1
  O  O87  1  0.533668  0.152537  0.742153  1
  O  O88  1  0.187190  0.550023  0.823852  1
  O  O89  1  0.997909  0.194281  0.459464  1
  O  O90  1  0.008472  0.797058  0.873212  1
  O  O91  1  0.819408  0.458394  0.501763  1
  O  O92  1  0.469025  0.854497  0.586523  1
  O  O93  1  0.881794  0.115499  0.579500  1
  O  O94  1  0.263975  0.115091  0.963466  1
  O  O95  1  0.485220  0.188100  0.846761  1
  O  O96  1  0.544373  0.469319  0.732161  1
  O  O97  1  0.758754  0.469608  0.618249  1
  O  O98  1  0.195021  0.379004  0.998996  1
  O  O99  1  0.855955  0.758454  0.489325  1
  O  O100  1  0.116398  0.737736  0.960992  1
  O  O101  1  0.383639  0.999630  0.731144  1
  O  O102  1  0.621618  0.004511  0.931955  1
  O  O103  1  0.883608  0.256598  0.706707  1
  O  O104  1  0.796548  0.616124  0.669836  1
  O  O105  1  0.459651  0.504018  0.940222  1
  O  O106  1  0.506505  0.815857  0.820171  1
  O  O107  1  0.742334  0.877959  0.705872  1
  O  O108  1  0.987688  0.195708  0.794884  1
  O  O109  1  0.822259  0.461057  0.835051  1
  O  O110  1  0.466981  0.854641  0.920250  1
  O  O111  1  0.882784  0.116992  0.913645  1
  O  O112  1  0.765588  0.469203  0.949811  1
  O  O113  1  0.844712  0.776123  0.822712  1
