# generated using pymatgen
data_Li6V3P8O29
_symmetry_space_group_name_H-M   'P 1'
_cell_length_a   9.76431029
_cell_length_b   9.77661579
_cell_length_c   13.94781663
_cell_angle_alpha   90.25449751
_cell_angle_beta   90.59325754
_cell_angle_gamma   60.14676372
_symmetry_Int_Tables_number   1
_chemical_formula_structural   Li6V3P8O29
_chemical_formula_sum   'Li12 V6 P16 O58'
_cell_volume   1154.73925269
_cell_formula_units_Z   2
loop_
 _symmetry_equiv_pos_site_id
 _symmetry_equiv_pos_as_xyz
  1  'x, y, z'
loop_
 _atom_site_type_symbol
 _atom_site_label
 _atom_site_symmetry_multiplicity
 _atom_site_fract_x
 _atom_site_fract_y
 _atom_site_fract_z
 _atom_site_occupancy
  Li  Li0  1  0.764240  0.902104  0.558506  1
  Li  Li1  1  0.687566  0.657604  0.889375  1
  Li  Li2  1  0.767726  0.324484  0.061263  1
  Li  Li3  1  0.325777  0.906201  0.063281  1
  Li  Li4  1  0.663651  0.238728  0.437898  1
  Li  Li5  1  0.330669  0.766373  0.561389  1
  Li  Li6  1  0.665222  0.100208  0.940682  1
  Li  Li7  1  0.235198  0.661987  0.942292  1
  Li  Li8  1  0.096808  0.668500  0.437298  1
  Li  Li9  1  0.235366  0.102279  0.440786  1
  Li  Li10  1  0.997506  0.998003  0.000493  1
  Li  Li11  1  0.985042  0.055422  0.509490  1
  V  V12  1  0.568204  0.433718  0.250986  1
  V  V13  1  0.433948  0.563791  0.746842  1
  V  V14  1  0.565030  0.000263  0.750145  1
  V  V15  1  0.431979  0.001824  0.249188  1
  V  V16  1  0.998826  0.564053  0.246527  1
  V  V17  1  0.002073  0.433467  0.751540  1
  P  P18  1  0.915462  0.781946  0.841196  1
  P  P19  1  0.774434  0.912668  0.339006  1
  P  P20  1  0.919359  0.305855  0.343299  1
  P  P21  1  0.663812  0.666226  0.128765  1
  P  P22  1  0.668271  0.668117  0.630139  1
  P  P23  1  0.776977  0.313954  0.841077  1
  P  P24  1  0.687552  0.225174  0.655500  1
  P  P25  1  0.317888  0.904572  0.845580  1
  P  P26  1  0.685977  0.088015  0.154738  1
  P  P27  1  0.316201  0.772683  0.343310  1
  P  P28  1  0.225427  0.684777  0.159616  1
  P  P29  1  0.334412  0.334094  0.369793  1
  P  P30  1  0.334191  0.335881  0.871518  1
  P  P31  1  0.082277  0.687257  0.653277  1
  P  P32  1  0.220829  0.085695  0.661916  1
  P  P33  1  0.080670  0.221510  0.155166  1
  O  O34  1  0.996939  0.774351  0.562679  1
  O  O35  1  0.918425  0.744712  0.340391  1
  O  O36  1  0.772828  0.015105  0.064085  1
  O  O37  1  0.743142  0.924912  0.841949  1
  O  O38  1  0.904168  0.629668  0.836951  1
  O  O39  1  0.804021  0.674867  0.175594  1
  O  O40  1  0.925357  0.459461  0.331409  1
  O  O41  1  0.995285  0.201376  0.071450  1
  O  O42  1  0.919051  0.338621  0.842766  1
  O  O43  1  0.676558  0.815749  0.670765  1
  O  O44  1  0.618400  0.910127  0.324675  1
  O  O45  1  0.809744  0.523336  0.681044  1
  O  O46  1  0.662283  0.662931  0.020830  1
  O  O47  1  0.669485  0.672377  0.523462  1
  O  O48  1  0.675441  0.509245  0.166633  1
  O  O49  1  0.481311  0.891567  0.830597  1
  O  O50  1  0.507327  0.810751  0.165967  1
  O  O51  1  0.746616  0.338780  0.342787  1
  O  O52  1  0.795453  0.206528  0.748003  1
  O  O53  1  0.774012  0.213537  0.564693  1
  O  O54  1  0.769728  0.227612  0.928880  1
  O  O55  1  0.626009  0.477742  0.827185  1
  O  O56  1  0.511416  0.677027  0.667597  1
  O  O57  1  0.660917  0.258434  0.162277  1
  O  O58  1  0.474278  0.619701  0.328676  1
  O  O59  1  0.337715  0.918996  0.343439  1
  O  O60  1  0.797063  0.997868  0.246954  1
  O  O61  1  0.771532  0.002072  0.428571  1
  O  O62  1  0.218525  -0.000116  0.571318  1
  O  O63  1  0.661032  0.081845  0.661000  1
  O  O64  1  0.531920  0.382311  0.666939  1
  O  O65  1  0.341771  0.735319  0.840182  1
  O  O66  1  0.491090  0.321111  0.329616  1
  O  O67  1  0.380587  0.529800  0.172065  1
  O  O68  1  0.219036  0.774625  0.070304  1
  O  O69  1  0.230770  0.770338  0.432538  1
  O  O70  1  0.205448  0.795789  0.251143  1
  O  O71  1  0.248976  0.669433  0.657183  1
  O  O72  1  0.485325  0.186638  0.833221  1
  O  O73  1  0.530324  0.088804  0.168114  1
  O  O74  1  0.328930  0.487404  0.827108  1
  O  O75  1  0.333750  0.345233  0.977979  1
  O  O76  1  0.338971  0.330063  0.477130  1
  O  O77  1  0.190470  0.489076  0.329924  1
  O  O78  1  0.380991  0.081284  0.675028  1
  O  O79  1  0.322359  0.188627  0.329538  1
  O  O80  1  0.083160  0.657273  0.164551  1
  O  O81  1  0.987174  0.801204  0.741599  1
  O  O82  1  0.011478  0.795801  0.920993  1
  O  O83  1  0.088214  0.529747  0.667276  1
  O  O84  1  0.187129  0.336821  0.824050  1
  O  O85  1  0.080891  0.377103  0.165642  1
  O  O86  1  0.253673  0.079768  0.160955  1
  O  O87  1  0.235215  0.982059  0.936157  1
  O  O88  1  0.207049  0.993494  0.753694  1
  O  O89  1  0.081999  0.252258  0.663771  1
  O  O90  1  0.008651  0.203778  0.427326  1
  O  O91  1  0.997555  0.201112  0.249415  1
