# generated using pymatgen
data_Na3B5H4O11
_symmetry_space_group_name_H-M   'P 1'
_cell_length_a   8.88094003
_cell_length_b   18.50689970
_cell_length_c   10.97757512
_cell_angle_alpha   90.00000000
_cell_angle_beta   90.00000000
_cell_angle_gamma   90.00000000
_symmetry_Int_Tables_number   1
_chemical_formula_structural   Na3B5H4O11
_chemical_formula_sum   'Na24 B40 H32 O88'
_cell_volume   1804.25960678
_cell_formula_units_Z   8
loop_
 _symmetry_equiv_pos_site_id
 _symmetry_equiv_pos_as_xyz
  1  'x, y, z'
loop_
 _atom_site_type_symbol
 _atom_site_label
 _atom_site_symmetry_multiplicity
 _atom_site_fract_x
 _atom_site_fract_y
 _atom_site_fract_z
 _atom_site_occupancy
  Na  Na0  1  0.933503  0.567894  0.092145  1
  Na  Na1  1  0.433503  0.932106  0.907855  1
  Na  Na2  1  0.066497  0.067894  0.407855  1
  Na  Na3  1  0.566497  0.432106  0.592145  1
  Na  Na4  1  0.066497  0.432106  0.907855  1
  Na  Na5  1  0.566497  0.067894  0.092145  1
  Na  Na6  1  0.933503  0.932106  0.592145  1
  Na  Na7  1  0.433503  0.567894  0.407855  1
  Na  Na8  1  0.918010  0.740549  0.074649  1
  Na  Na9  1  0.418010  0.759451  0.925351  1
  Na  Na10  1  0.081990  0.240549  0.425351  1
  Na  Na11  1  0.581990  0.259451  0.574649  1
  Na  Na12  1  0.081990  0.259451  0.925351  1
  Na  Na13  1  0.581990  0.240549  0.074649  1
  Na  Na14  1  0.918010  0.759451  0.574649  1
  Na  Na15  1  0.418010  0.740549  0.425351  1
  Na  Na16  1  0.622336  0.458278  0.096950  1
  Na  Na17  1  0.122336  0.041722  0.903050  1
  Na  Na18  1  0.377664  0.958278  0.403050  1
  Na  Na19  1  0.877664  0.541722  0.596950  1
  Na  Na20  1  0.377664  0.541722  0.903050  1
  Na  Na21  1  0.877664  0.958278  0.096950  1
  Na  Na22  1  0.622336  0.041722  0.596950  1
  Na  Na23  1  0.122336  0.458278  0.403050  1
  B  B24  1  0.677677  0.683332  0.218100  1
  B  B25  1  0.177677  0.816668  0.781900  1
  B  B26  1  0.322323  0.183332  0.281900  1
  B  B27  1  0.822323  0.316668  0.718100  1
  B  B28  1  0.322323  0.316668  0.781900  1
  B  B29  1  0.822323  0.183332  0.218100  1
  B  B30  1  0.677677  0.816668  0.718100  1
  B  B31  1  0.177677  0.683332  0.281900  1
  B  B32  1  0.415466  0.657189  0.152827  1
  B  B33  1  0.915466  0.842811  0.847173  1
  B  B34  1  0.584534  0.157189  0.347173  1
  B  B35  1  0.084534  0.342811  0.652827  1
  B  B36  1  0.584534  0.342811  0.847173  1
  B  B37  1  0.084534  0.157189  0.152827  1
  B  B38  1  0.415466  0.842811  0.652827  1
  B  B39  1  0.915466  0.657189  0.347173  1
  B  B40  1  0.627130  0.636561  0.000960  1
  B  B41  1  0.127130  0.863439  0.999040  1
  B  B42  1  0.372870  0.136561  0.499040  1
  B  B43  1  0.872870  0.363439  0.500960  1
  B  B44  1  0.372870  0.363439  0.999040  1
  B  B45  1  0.872870  0.136561  0.000960  1
  B  B46  1  0.627130  0.863439  0.500960  1
  B  B47  1  0.127130  0.636561  0.499040  1
  B  B48  1  0.711231  0.683840  0.796139  1
  B  B49  1  0.211231  0.816160  0.203861  1
  B  B50  1  0.288769  0.183840  0.703861  1
  B  B51  1  0.788769  0.316160  0.296139  1
  B  B52  1  0.288769  0.316160  0.203861  1
  B  B53  1  0.788769  0.183840  0.796139  1
  B  B54  1  0.711231  0.816160  0.296139  1
  B  B55  1  0.211231  0.683840  0.703861  1
  B  B56  1  0.747099  0.552907  0.841162  1
  B  B57  1  0.247099  0.947093  0.158838  1
  B  B58  1  0.252901  0.052907  0.658838  1
  B  B59  1  0.752901  0.447093  0.341162  1
  B  B60  1  0.252901  0.447093  0.158838  1
  B  B61  1  0.752901  0.052907  0.841162  1
  B  B62  1  0.747099  0.947093  0.341162  1
  B  B63  1  0.247099  0.552907  0.658838  1
  H  H64  1  0.723494  0.448755  0.788464  1
  H  H65  1  0.223494  0.051245  0.211536  1
  H  H66  1  0.276506  0.948755  0.711536  1
  H  H67  1  0.776506  0.551245  0.288464  1
  H  H68  1  0.276506  0.551245  0.211536  1
  H  H69  1  0.776506  0.948755  0.788464  1
  H  H70  1  0.723494  0.051245  0.288464  1
  H  H71  1  0.223494  0.448755  0.711536  1
  H  H72  1  0.976646  0.557840  0.848016  1
  H  H73  1  0.476646  0.942160  0.151984  1
  H  H74  1  0.023354  0.057840  0.651984  1
  H  H75  1  0.523354  0.442160  0.348016  1
  H  H76  1  0.023354  0.442160  0.151984  1
  H  H77  1  0.523354  0.057840  0.848016  1
  H  H78  1  0.976646  0.942160  0.348016  1
  H  H79  1  0.476646  0.557840  0.651984  1
  H  H80  1  0.154153  0.653738  0.046435  1
  H  H81  1  0.654153  0.846262  0.953565  1
  H  H82  1  0.845847  0.153738  0.453565  1
  H  H83  1  0.345847  0.346262  0.546435  1
  H  H84  1  0.845847  0.346262  0.953565  1
  H  H85  1  0.345847  0.153738  0.046435  1
  H  H86  1  0.154153  0.846262  0.546435  1
  H  H87  1  0.654153  0.653738  0.453565  1
  H  H88  1  0.124306  0.680723  0.913089  1
  H  H89  1  0.624306  0.819277  0.086911  1
  H  H90  1  0.875694  0.180723  0.586911  1
  H  H91  1  0.375694  0.319277  0.413089  1
  H  H92  1  0.875694  0.319277  0.086911  1
  H  H93  1  0.375694  0.180723  0.913089  1
  H  H94  1  0.124306  0.819277  0.413089  1
  H  H95  1  0.624306  0.680723  0.586911  1
  O  O96  1  0.761634  0.652560  0.325304  1
  O  O97  1  0.261634  0.847440  0.674696  1
  O  O98  1  0.238366  0.152560  0.174696  1
  O  O99  1  0.738366  0.347440  0.825304  1
  O  O100  1  0.238366  0.347440  0.674696  1
  O  O101  1  0.738366  0.152560  0.325304  1
  O  O102  1  0.761634  0.847440  0.825304  1
  O  O103  1  0.261634  0.652560  0.174696  1
  O  O104  1  0.514212  0.673394  0.245294  1
  O  O105  1  0.014212  0.826606  0.754706  1
  O  O106  1  0.485788  0.173394  0.254706  1
  O  O107  1  0.985788  0.326606  0.745294  1
  O  O108  1  0.485788  0.326606  0.754706  1
  O  O109  1  0.985788  0.173394  0.245294  1
  O  O110  1  0.514212  0.826606  0.745294  1
  O  O111  1  0.014212  0.673394  0.254706  1
  O  O112  1  0.712997  0.762740  0.207487  1
  O  O113  1  0.212997  0.737260  0.792513  1
  O  O114  1  0.287003  0.262740  0.292513  1
  O  O115  1  0.787003  0.237260  0.707487  1
  O  O116  1  0.287003  0.237260  0.792513  1
  O  O117  1  0.787003  0.262740  0.207487  1
  O  O118  1  0.712997  0.737260  0.707487  1
  O  O119  1  0.212997  0.762740  0.292513  1
  O  O120  1  0.723465  0.646945  0.107494  1
  O  O121  1  0.223465  0.853055  0.892506  1
  O  O122  1  0.276535  0.146945  0.392506  1
  O  O123  1  0.776535  0.353055  0.607494  1
  O  O124  1  0.276535  0.353055  0.892506  1
  O  O125  1  0.776535  0.146945  0.107494  1
  O  O126  1  0.723465  0.853055  0.607494  1
  O  O127  1  0.223465  0.646945  0.392506  1
  O  O128  1  0.461933  0.643751  0.035397  1
  O  O129  1  0.961933  0.856249  0.964603  1
  O  O130  1  0.538067  0.143751  0.464603  1
  O  O131  1  0.038067  0.356249  0.535397  1
  O  O132  1  0.538067  0.356249  0.964603  1
  O  O133  1  0.038067  0.143751  0.035397  1
  O  O134  1  0.461933  0.856249  0.535397  1
  O  O135  1  0.961933  0.643751  0.464603  1
  O  O136  1  0.654047  0.695867  0.910053  1
  O  O137  1  0.154047  0.804133  0.089947  1
  O  O138  1  0.345953  0.195867  0.589947  1
  O  O139  1  0.845953  0.304133  0.410053  1
  O  O140  1  0.345953  0.304133  0.089947  1
  O  O141  1  0.845953  0.195867  0.910053  1
  O  O142  1  0.654047  0.804133  0.410053  1
  O  O143  1  0.154047  0.695867  0.589947  1
  O  O144  1  0.645164  0.564843  0.944905  1
  O  O145  1  0.145164  0.935157  0.055095  1
  O  O146  1  0.354836  0.064843  0.555095  1
  O  O147  1  0.854836  0.435157  0.444905  1
  O  O148  1  0.354836  0.435157  0.055095  1
  O  O149  1  0.854836  0.064843  0.944905  1
  O  O150  1  0.645164  0.935157  0.444905  1
  O  O151  1  0.145164  0.564843  0.555095  1
  O  O152  1  0.766537  0.617327  0.761701  1
  O  O153  1  0.266537  0.882673  0.238299  1
  O  O154  1  0.233463  0.117327  0.738299  1
  O  O155  1  0.733463  0.382673  0.261701  1
  O  O156  1  0.233463  0.382673  0.238299  1
  O  O157  1  0.733463  0.117327  0.761701  1
  O  O158  1  0.766537  0.882673  0.261701  1
  O  O159  1  0.266537  0.617327  0.738299  1
  O  O160  1  0.688046  0.495685  0.758369  1
  O  O161  1  0.188046  0.004315  0.241631  1
  O  O162  1  0.311954  0.995685  0.741631  1
  O  O163  1  0.811954  0.504315  0.258369  1
  O  O164  1  0.311954  0.504315  0.241631  1
  O  O165  1  0.811954  0.995685  0.758369  1
  O  O166  1  0.688046  0.004315  0.258369  1
  O  O167  1  0.188046  0.495685  0.741631  1
  O  O168  1  0.897923  0.528808  0.886195  1
  O  O169  1  0.397923  0.971192  0.113805  1
  O  O170  1  0.102077  0.028808  0.613805  1
  O  O171  1  0.602077  0.471192  0.386195  1
  O  O172  1  0.102077  0.471192  0.113805  1
  O  O173  1  0.602077  0.028808  0.886195  1
  O  O174  1  0.897923  0.971192  0.386195  1
  O  O175  1  0.397923  0.528808  0.613805  1
  O  O176  1  0.077937  0.652781  0.979699  1
  O  O177  1  0.577937  0.847219  0.020301  1
  O  O178  1  0.922063  0.152781  0.520301  1
  O  O179  1  0.422063  0.347219  0.479699  1
  O  O180  1  0.922063  0.347219  0.020301  1
  O  O181  1  0.422063  0.152781  0.979699  1
  O  O182  1  0.077937  0.847219  0.479699  1
  O  O183  1  0.577937  0.652781  0.520301  1
