# generated using pymatgen
data_Sn2N2O
_symmetry_space_group_name_H-M   'P 1'
_cell_length_a   8.83230581
_cell_length_b   8.81891502
_cell_length_c   8.89527577
_cell_angle_alpha   109.64247763
_cell_angle_beta   109.59239913
_cell_angle_gamma   109.31908508
_symmetry_Int_Tables_number   1
_chemical_formula_structural   Sn2N2O
_chemical_formula_sum   'Sn16 N16 O8'
_cell_volume   532.43858191
_cell_formula_units_Z   8
loop_
 _symmetry_equiv_pos_site_id
 _symmetry_equiv_pos_as_xyz
  1  'x, y, z'
loop_
 _atom_site_type_symbol
 _atom_site_label
 _atom_site_symmetry_multiplicity
 _atom_site_fract_x
 _atom_site_fract_y
 _atom_site_fract_z
 _atom_site_occupancy
  Sn  Sn0  1  0.962232  0.249262  0.224090  1
  Sn  Sn1  1  0.506555  0.006315  0.996812  1
  Sn  Sn2  1  0.780637  0.026089  0.756980  1
  Sn  Sn3  1  0.710776  0.461396  0.240296  1
  Sn  Sn4  1  0.747275  0.280057  0.532915  1
  Sn  Sn5  1  0.750634  0.778197  0.030969  1
  Sn  Sn6  1  0.533791  0.748624  0.286010  1
  Sn  Sn7  1  0.003234  0.990501  0.504569  1
  Sn  Sn8  1  -0.000000  0.502125  0.990672  1
  Sn  Sn9  1  0.494102  0.497993  0.504762  1
  Sn  Sn10  1  0.465765  0.249400  0.715526  1
  Sn  Sn11  1  0.262933  0.722168  0.472487  1
  Sn  Sn12  1  0.248494  0.217022  0.953963  1
  Sn  Sn13  1  0.271929  0.526416  0.735400  1
  Sn  Sn14  1  0.224916  0.960655  0.255975  1
  Sn  Sn15  1  0.035969  0.752409  0.785758  1
  N  N16  1  0.735881  0.237504  0.278532  1
  N  N17  1  0.762431  0.723691  0.262688  1
  N  N18  1  0.464220  0.230056  0.455431  1
  N  N19  1  0.731953  0.254763  0.770604  1
  N  N20  1  0.218863  0.455393  0.451500  1
  N  N21  1  0.503273  0.237879  0.962592  1
  N  N22  1  0.272049  0.722557  0.222929  1
  N  N23  1  0.993879  0.959716  0.738318  1
  N  N24  1  0.539925  0.540641  0.775074  1
  N  N25  1  0.966152  0.741928  0.002229  1
  N  N26  1  0.545228  0.769777  0.541617  1
  N  N27  1  0.218430  0.269300  0.726845  1
  N  N28  1  0.027247  0.493878  0.753958  1
  N  N29  1  0.742607  0.998681  0.971064  1
  N  N30  1  0.273847  0.777631  0.736371  1
  N  N31  1  0.231864  0.955878  0.501593  1
  O  O32  1  0.764614  0.034235  0.481953  1
  O  O33  1  0.281192  0.013802  0.052917  1
  O  O34  1  0.953218  0.501910  0.219782  1
  O  O35  1  0.446237  0.451643  0.224465  1
  O  O36  1  0.057351  0.281601  0.018533  1
  O  O37  1  0.766755  0.554626  0.530795  1
  O  O38  1  0.495454  0.775822  0.047499  1
  O  O39  1  0.008091  0.048462  0.285526  1
