# generated using pymatgen
data_Al2FeO4
_symmetry_space_group_name_H-M   'P 1'
_cell_length_a   5.83802266
_cell_length_b   5.83802221
_cell_length_c   40.76520058
_cell_angle_alpha   60.14573825
_cell_angle_beta   60.14574148
_cell_angle_gamma   59.67477406
_symmetry_Int_Tables_number   1
_chemical_formula_structural   Al2FeO4
_chemical_formula_sum   'Al28 Fe14 O56'
_cell_volume   982.14545976
_cell_formula_units_Z   14
loop_
 _symmetry_equiv_pos_site_id
 _symmetry_equiv_pos_as_xyz
  1  'x, y, z'
loop_
 _atom_site_type_symbol
 _atom_site_label
 _atom_site_symmetry_multiplicity
 _atom_site_fract_x
 _atom_site_fract_y
 _atom_site_fract_z
 _atom_site_occupancy
  Al  Al0  1  0.136230  0.136230  0.014936  1
  Al  Al1  1  0.507862  0.507862  0.997458  1
  Al  Al2  1  0.499545  0.499545  0.071395  1
  Al  Al3  1  0.494924  0.998577  0.215269  1
  Al  Al4  1  0.491315  0.491315  0.145355  1
  Al  Al5  1  0.494086  0.494086  0.215274  1
  Al  Al6  1  0.500166  0.000115  0.357199  1
  Al  Al7  1  0.862923  0.862923  0.127869  1
  Al  Al8  1  0.497887  0.497887  0.286028  1
  Al  Al9  1  0.998577  0.494924  0.215269  1
  Al  Al10  1  0.499483  0.499483  0.357389  1
  Al  Al11  1  0.499588  0.999665  0.499929  1
  Al  Al12  1  0.499729  0.499729  0.428593  1
  Al  Al13  1  0.000115  0.500166  0.357199  1
  Al  Al14  1  0.498725  0.498725  0.500303  1
  Al  Al15  1  0.503586  0.002732  0.643037  1
  Al  Al16  1  0.501125  0.501125  0.571480  1
  Al  Al17  1  0.999665  0.499588  0.499929  1
  Al  Al18  1  0.504426  0.504426  0.642435  1
  Al  Al19  1  0.998754  0.498508  0.785563  1
  Al  Al20  1  0.498508  0.998754  0.785563  1
  Al  Al21  1  0.500412  0.500412  0.714257  1
  Al  Al22  1  0.002732  0.503586  0.643037  1
  Al  Al23  1  0.498325  0.498325  0.785772  1
  Al  Al24  1  0.504280  0.000692  0.927545  1
  Al  Al25  1  0.501288  0.501288  0.856806  1
  Al  Al26  1  0.505073  0.505073  0.927565  1
  Al  Al27  1  0.000692  0.504280  0.927545  1
  Fe  Fe28  1  0.126223  0.126223  0.159553  1
  Fe  Fe29  1  0.499516  0.999513  0.071411  1
  Fe  Fe30  1  0.119616  0.119616  0.305074  1
  Fe  Fe31  1  0.999513  0.499516  0.071411  1
  Fe  Fe32  1  0.123552  0.123552  0.446627  1
  Fe  Fe33  1  0.127815  0.127815  0.589250  1
  Fe  Fe34  1  0.874435  0.874435  0.267553  1
  Fe  Fe35  1  0.125100  0.125100  0.731717  1
  Fe  Fe36  1  0.874406  0.874406  0.411006  1
  Fe  Fe37  1  0.124801  0.124801  0.875223  1
  Fe  Fe38  1  0.875587  0.875587  0.553614  1
  Fe  Fe39  1  0.876624  0.876624  0.696561  1
  Fe  Fe40  1  0.878521  0.878521  0.837893  1
  Fe  Fe41  1  0.873001  0.873001  0.983259  1
  O  O42  1  0.277687  0.277687  0.028113  1
  O  O43  1  0.281254  0.281254  0.099902  1
  O  O44  1  0.280043  0.749323  0.032003  1
  O  O45  1  0.749323  0.280043  0.032003  1
  O  O46  1  0.258857  0.258857  0.182699  1
  O  O47  1  0.249783  0.718970  0.110824  1
  O  O48  1  0.718970  0.249783  0.110824  1
  O  O49  1  0.253571  0.699896  0.182970  1
  O  O50  1  0.261444  0.261444  0.244608  1
  O  O51  1  0.717766  0.717766  0.042919  1
  O  O52  1  0.699896  0.253571  0.182970  1
  O  O53  1  0.721430  0.721430  0.114700  1
  O  O54  1  0.266407  0.266407  0.323566  1
  O  O55  1  0.298726  0.734220  0.247304  1
  O  O56  1  0.734220  0.298726  0.247304  1
  O  O57  1  0.266370  0.701691  0.323691  1
  O  O58  1  0.740040  0.740040  0.182529  1
  O  O59  1  0.266193  0.266193  0.386163  1
  O  O60  1  0.701691  0.266370  0.323691  1
  O  O61  1  0.730571  0.730571  0.248072  1
  O  O62  1  0.266043  0.266043  0.466368  1
  O  O63  1  0.297308  0.737124  0.390337  1
  O  O64  1  0.737124  0.297308  0.390337  1
  O  O65  1  0.734127  0.734127  0.327859  1
  O  O66  1  0.265455  0.265455  0.528964  1
  O  O67  1  0.265676  0.702653  0.466502  1
  O  O68  1  0.733831  0.733831  0.390734  1
  O  O69  1  0.702653  0.265676  0.466502  1
  O  O70  1  0.267435  0.267435  0.609723  1
  O  O71  1  0.296912  0.733772  0.533627  1
  O  O72  1  0.733772  0.296912  0.533627  1
  O  O73  1  0.270914  0.270914  0.671760  1
  O  O74  1  0.268593  0.705983  0.609215  1
  O  O75  1  0.732011  0.732011  0.471083  1
  O  O76  1  0.705983  0.268593  0.609215  1
  O  O77  1  0.735316  0.735316  0.533180  1
  O  O78  1  0.265939  0.265939  0.751935  1
  O  O79  1  0.299422  0.739462  0.676059  1
  O  O80  1  0.739462  0.299422  0.676059  1
  O  O81  1  0.737880  0.737880  0.613908  1
  O  O82  1  0.264556  0.264556  0.814984  1
  O  O83  1  0.261316  0.701942  0.752637  1
  O  O84  1  0.701942  0.261316  0.752637  1
  O  O85  1  0.734185  0.734185  0.677073  1
  O  O86  1  0.268513  0.268513  0.894780  1
  O  O87  1  0.296802  0.732498  0.819271  1
  O  O88  1  0.259117  0.259117  0.960301  1
  O  O89  1  0.732498  0.296802  0.819271  1
  O  O90  1  0.730910  0.730910  0.756770  1
  O  O91  1  0.265099  0.700514  0.895537  1
  O  O92  1  0.700514  0.265099  0.895537  1
  O  O93  1  0.732838  0.732838  0.819074  1
  O  O94  1  0.299276  0.745575  0.959867  1
  O  O95  1  0.745575  0.299276  0.959867  1
  O  O96  1  0.737722  0.737722  0.898258  1
  O  O97  1  0.740307  0.740307  0.960135  1
