# generated using pymatgen
data_CoB12H28(NO15)2
_symmetry_space_group_name_H-M   'P 1'
_cell_length_a   11.14140832
_cell_length_b   7.91858945
_cell_length_c   7.56478248
_cell_angle_alpha   90.38458855
_cell_angle_beta   94.89258219
_cell_angle_gamma   107.92410825
_symmetry_Int_Tables_number   1
_chemical_formula_structural   CoB12H28(NO15)2
_chemical_formula_sum   'Co1 B12 H28 N2 O30'
_cell_volume   632.30878417
_cell_formula_units_Z   1
loop_
 _symmetry_equiv_pos_site_id
 _symmetry_equiv_pos_as_xyz
  1  'x, y, z'
loop_
 _atom_site_type_symbol
 _atom_site_label
 _atom_site_symmetry_multiplicity
 _atom_site_fract_x
 _atom_site_fract_y
 _atom_site_fract_z
 _atom_site_occupancy
  Co  Co0  1  0.000000  0.000000  0.000000  1
  B  B1  1  0.884059  0.298414  0.829196  1
  B  B2  1  0.115941  0.701586  0.170804  1
  B  B3  1  0.795663  0.987265  0.669519  1
  B  B4  1  0.204337  0.012735  0.330481  1
  B  B5  1  0.651773  0.108483  0.872046  1
  B  B6  1  0.348227  0.891517  0.127954  1
  B  B7  1  0.715323  0.435381  0.891641  1
  B  B8  1  0.284677  0.564619  0.108359  1
  B  B9  1  0.955009  0.237802  0.538964  1
  B  B10  1  0.044991  0.762198  0.461036  1
  B  B11  1  0.560613  0.856342  0.649712  1
  B  B12  1  0.439387  0.143658  0.350288  1
  H  H13  1  0.031922  0.349280  0.023604  1
  H  H14  1  0.968078  0.650720  0.976396  1
  H  H15  1  0.896962  0.816329  0.719780  1
  H  H16  1  0.103038  0.183671  0.280220  1
  H  H17  1  0.603327  0.038271  0.119933  1
  H  H18  1  0.396673  0.961729  0.880067  1
  H  H19  1  0.744596  0.697192  0.886983  1
  H  H20  1  0.255404  0.302808  0.113017  1
  H  H21  1  0.059388  0.422858  0.386843  1
  H  H22  1  0.940612  0.577142  0.613157  1
  H  H23  1  0.375078  0.705761  0.611669  1
  H  H24  1  0.624922  0.294239  0.388331  1
  H  H25  1  0.438246  0.482383  0.683316  1
  H  H26  1  0.561754  0.517617  0.316684  1
  H  H27  1  0.479629  0.316020  0.785865  1
  H  H28  1  0.520371  0.683980  0.214135  1
  H  H29  1  0.342966  0.354590  0.823770  1
  H  H30  1  0.657034  0.645410  0.176230  1
  H  H31  1  0.360227  0.269925  0.619645  1
  H  H32  1  0.639773  0.730075  0.380355  1
  H  H33  1  0.122560  0.032881  0.694977  1
  H  H34  1  0.877440  0.967119  0.305023  1
  H  H35  1  0.211129  0.028973  0.868286  1
  H  H36  1  0.788871  0.971027  0.131714  1
  H  H37  1  0.146149  0.537132  0.706693  1
  H  H38  1  0.853851  0.462868  0.293307  1
  H  H39  1  0.230377  0.720664  0.795378  1
  H  H40  1  0.769623  0.279336  0.204622  1
  N  N41  1  0.403803  0.354807  0.728202  1
  N  N42  1  0.596197  0.645193  0.271798  1
  O  O43  1  0.962325  0.246381  0.971959  1
  O  O44  1  0.037675  0.753619  0.028041  1
  O  O45  1  0.855505  0.884146  0.793186  1
  O  O46  1  0.144495  0.115854  0.206814  1
  O  O47  1  0.679705  0.059187  0.055310  1
  O  O48  1  0.320295  0.940813  0.944690  1
  O  O49  1  0.679835  0.585754  0.915684  1
  O  O50  1  0.320165  0.414246  0.084316  1
  O  O51  1  0.033149  0.293494  0.403540  1
  O  O52  1  0.966851  0.706506  0.596460  1
  O  O53  1  0.460503  0.715739  0.576979  1
  O  O54  1  0.539497  0.284261  0.423021  1
  O  O55  1  0.840912  0.446018  0.884134  1
  O  O56  1  0.159088  0.553982  0.115866  1
  O  O57  1  0.955706  0.357462  0.672215  1
  O  O58  1  0.044294  0.642538  0.327786  1
  O  O59  1  0.881593  0.064146  0.534083  1
  O  O60  1  0.118407  0.935854  0.465917  1
  O  O61  1  0.675676  0.873187  0.585305  1
  O  O62  1  0.324324  0.126813  0.414695  1
  O  O63  1  0.620973  0.275619  0.873538  1
  O  O64  1  0.379027  0.724381  0.126462  1
  O  O65  1  0.546383  0.971897  0.776365  1
  O  O66  1  0.453617  0.028103  0.223635  1
  O  O67  1  0.772323  0.135517  0.777034  1
  O  O68  1  0.227677  0.864483  0.222966  1
  O  O69  1  0.141600  0.077260  0.820077  1
  O  O70  1  0.858400  0.922740  0.179923  1
  O  O71  1  0.229611  0.625733  0.709457  1
  O  O72  1  0.770389  0.374267  0.290543  1
