# generated using pymatgen
data_Ti5Mn(PO4)6
_symmetry_space_group_name_H-M   'P 1'
_cell_length_a   8.48757393
_cell_length_b   8.48757433
_cell_length_c   8.48757443
_cell_angle_alpha   62.02662877
_cell_angle_beta   62.02662943
_cell_angle_gamma   62.02662743
_symmetry_Int_Tables_number   1
_chemical_formula_structural   Ti5Mn(PO4)6
_chemical_formula_sum   'Ti5 Mn1 P6 O24'
_cell_volume   451.94527110
_cell_formula_units_Z   1
loop_
 _symmetry_equiv_pos_site_id
 _symmetry_equiv_pos_as_xyz
  1  'x, y, z'
loop_
 _atom_site_type_symbol
 _atom_site_label
 _atom_site_symmetry_multiplicity
 _atom_site_fract_x
 _atom_site_fract_y
 _atom_site_fract_z
 _atom_site_occupancy
  Ti  Ti0  1  0.000075  0.000075  0.000075  1
  Ti  Ti1  1  0.500024  0.500024  0.500024  1
  Ti  Ti2  1  0.141682  0.141682  0.141682  1
  Ti  Ti3  1  0.355218  0.355218  0.355218  1
  Ti  Ti4  1  0.643183  0.643183  0.643183  1
  Mn  Mn5  1  0.852894  0.852894  0.852894  1
  P  P6  1  0.048293  0.749538  0.452663  1
  P  P7  1  0.452663  0.048293  0.749538  1
  P  P8  1  0.250776  0.544164  0.956586  1
  P  P9  1  0.544164  0.956586  0.250776  1
  P  P10  1  0.956586  0.250776  0.544164  1
  P  P11  1  0.749538  0.452663  0.048293  1
  O  O12  1  0.109976  0.333436  0.486955  1
  O  O13  1  0.333436  0.486955  0.109976  1
  O  O14  1  0.060766  0.902506  0.250919  1
  O  O15  1  0.486955  0.109976  0.333436  1
  O  O16  1  0.021565  0.820540  0.597708  1
  O  O17  1  0.247188  0.592090  0.429077  1
  O  O18  1  0.250919  0.060766  0.902506  1
  O  O19  1  0.429077  0.247188  0.592090  1
  O  O20  1  0.178283  0.388017  0.999929  1
  O  O21  1  0.592090  0.429077  0.247188  1
  O  O22  1  0.104400  0.742349  0.949436  1
  O  O23  1  0.388017  0.999929  0.178283  1
  O  O24  1  0.597708  0.021565  0.820540  1
  O  O25  1  0.902506  0.250919  0.060766  1
  O  O26  1  0.407139  0.556361  0.757647  1
  O  O27  1  0.820540  0.597708  0.021565  1
  O  O28  1  0.556361  0.757647  0.407139  1
  O  O29  1  0.742349  0.949436  0.104400  1
  O  O30  1  0.757647  0.407139  0.556361  1
  O  O31  1  0.999929  0.178283  0.388017  1
  O  O32  1  0.500935  0.885981  0.681701  1
  O  O33  1  0.949436  0.104400  0.742349  1
  O  O34  1  0.681701  0.500935  0.885981  1
  O  O35  1  0.885981  0.681701  0.500935  1
