# generated using pymatgen
data_Ba8In8O19
_symmetry_space_group_name_H-M   'P 1'
_cell_length_a   8.74219401
_cell_length_b   8.62677358
_cell_length_c   9.47813138
_cell_angle_alpha   89.08841155
_cell_angle_beta   117.46308877
_cell_angle_gamma   91.97696486
_symmetry_Int_Tables_number   1
_chemical_formula_structural   Ba8In8O19
_chemical_formula_sum   'Ba8 In8 O19'
_cell_volume   633.88057100
_cell_formula_units_Z   1
loop_
 _symmetry_equiv_pos_site_id
 _symmetry_equiv_pos_as_xyz
  1  'x, y, z'
loop_
 _atom_site_type_symbol
 _atom_site_label
 _atom_site_symmetry_multiplicity
 _atom_site_fract_x
 _atom_site_fract_y
 _atom_site_fract_z
 _atom_site_occupancy
  Ba  Ba0  1  0.869476  0.243475  0.208634  1
  Ba  Ba1  1  0.851155  0.760662  0.222983  1
  Ba  Ba2  1  0.632902  0.262986  0.780099  1
  Ba  Ba3  1  0.352803  0.262986  0.219901  1
  Ba  Ba4  1  0.654879  0.744436  0.779545  1
  Ba  Ba5  1  0.160842  0.243475  0.791366  1
  Ba  Ba6  1  0.375334  0.744436  0.220455  1
  Ba  Ba7  1  0.128172  0.760662  0.777017  1
  In  In8  1  0.500988  0.000106  0.001283  1
  In  In9  1  0.742541  0.085998  0.500000  1
  In  In10  1  0.801271  0.450087  0.500000  1
  In  In11  1  0.501749  0.501803  0.001904  1
  In  In12  1  0.999703  0.000106  0.998717  1
  In  In13  1  0.999845  0.501803  0.998096  1
  In  In14  1  0.233695  0.546858  0.500000  1
  In  In15  1  0.299499  0.983818  0.500000  1
  O  O16  1  0.509707  0.250337  0.014864  1
  O  O17  1  0.758417  0.504606  0.016372  1
  O  O18  1  0.994844  0.250337  0.985136  1
  O  O19  1  0.739519  0.005811  0.979287  1
  O  O20  1  0.260232  0.005811  0.020713  1
  O  O21  1  0.501388  0.124586  0.500000  1
  O  O22  1  0.316946  0.016977  0.723043  1
  O  O23  1  0.093903  0.016977  0.276957  1
  O  O24  1  0.603266  0.516892  0.275558  1
  O  O25  1  0.827707  0.516892  0.724442  1
  O  O26  1  0.884093  0.974680  0.720970  1
  O  O27  1  0.663123  0.974680  0.279030  1
  O  O28  1  0.154047  0.458396  0.274573  1
  O  O29  1  0.379474  0.458396  0.725427  1
  O  O30  1  0.372624  0.752972  0.500000  1
  O  O31  1  0.495832  0.751253  0.982943  1
  O  O32  1  0.012889  0.751253  0.017057  1
  O  O33  1  0.242046  0.504606  0.983628  1
  O  O34  1  0.001066  0.604109  0.500000  1
