# generated using pymatgen
data_NbV5(PO4)6
_symmetry_space_group_name_H-M   'P 1'
_cell_length_a   8.65528675
_cell_length_b   8.72435559
_cell_length_c   8.72435557
_cell_angle_alpha   59.99999888
_cell_angle_beta   59.73566912
_cell_angle_gamma   59.73567332
_symmetry_Int_Tables_number   1
_chemical_formula_structural   NbV5(PO4)6
_chemical_formula_sum   'Nb1 V5 P6 O24'
_cell_volume   463.96628428
_cell_formula_units_Z   1
loop_
 _symmetry_equiv_pos_site_id
 _symmetry_equiv_pos_as_xyz
  1  'x, y, z'
loop_
 _atom_site_type_symbol
 _atom_site_label
 _atom_site_symmetry_multiplicity
 _atom_site_fract_x
 _atom_site_fract_y
 _atom_site_fract_z
 _atom_site_occupancy
  Nb  Nb0  1  0.569436  0.143522  0.143522  1
  V  V1  1  0.004560  0.998480  0.998480  1
  V  V2  1  0.069993  0.643336  0.643336  1
  V  V3  1  0.503630  0.498790  0.498790  1
  V  V4  1  0.431259  0.856247  0.856247  1
  V  V5  1  0.928460  0.357180  0.357180  1
  P  P6  1  0.243941  0.252019  0.550146  1
  P  P7  1  0.243941  0.953895  0.252019  1
  P  P8  1  0.243941  0.550146  0.953895  1
  P  P9  1  0.750571  0.461046  0.043322  1
  P  P10  1  0.750571  0.043322  0.745061  1
  P  P11  1  0.750571  0.745061  0.461046  1
  O  O12  1  0.069453  0.110492  0.314629  1
  O  O13  1  0.069453  0.505425  0.110492  1
  O  O14  1  0.069453  0.314629  0.505425  1
  O  O15  1  0.230428  0.090357  0.740767  1
  O  O16  1  0.425599  0.182900  0.385924  1
  O  O17  1  0.276317  0.407686  0.555856  1
  O  O18  1  0.230428  0.938449  0.090357  1
  O  O19  1  0.276317  0.760141  0.407686  1
  O  O20  1  0.570485  0.610537  0.003357  1
  O  O21  1  0.276317  0.555856  0.760141  1
  O  O22  1  0.767461  0.260748  0.062950  1
  O  O23  1  0.570485  0.003357  0.815621  1
  O  O24  1  0.425599  0.005577  0.182900  1
  O  O25  1  0.230428  0.740767  0.938449  1
  O  O26  1  0.730263  0.439780  0.240003  1
  O  O27  1  0.425599  0.385924  0.005577  1
  O  O28  1  0.730263  0.240003  0.589952  1
  O  O29  1  0.767461  0.062950  0.908839  1
  O  O30  1  0.730263  0.589952  0.439780  1
  O  O31  1  0.570485  0.815621  0.610537  1
  O  O32  1  0.767461  0.908839  0.260748  1
  O  O33  1  0.933036  0.685488  0.492552  1
  O  O34  1  0.933036  0.492552  0.888925  1
  O  O35  1  0.933036  0.888925  0.685488  1
