# generated using pymatgen
data_LiMnPO4
_symmetry_space_group_name_H-M   'P 1'
_cell_length_a   4.88455383
_cell_length_b   5.39980423
_cell_length_c   6.50345009
_cell_angle_alpha   89.23001215
_cell_angle_beta   90.00000000
_cell_angle_gamma   63.10930333
_symmetry_Int_Tables_number   1
_chemical_formula_structural   LiMnPO4
_chemical_formula_sum   'Li2 Mn2 P2 O8'
_cell_volume   152.96760078
_cell_formula_units_Z   2
loop_
 _symmetry_equiv_pos_site_id
 _symmetry_equiv_pos_as_xyz
  1  'x, y, z'
loop_
 _atom_site_type_symbol
 _atom_site_label
 _atom_site_symmetry_multiplicity
 _atom_site_fract_x
 _atom_site_fract_y
 _atom_site_fract_z
 _atom_site_occupancy
  Li  Li0  1  0.683489  0.658387  0.751282  1
  Li  Li1  1  0.341876  0.341613  0.248718  1
  Mn  Mn2  1  0.984613  0.000000  0.500000  1
  Mn  Mn3  1  0.995319  0.000000  0.000000  1
  P  P4  1  0.691378  0.624457  0.248198  1
  P  P5  1  0.315835  0.375543  0.751802  1
  O  O6  1  0.200522  0.704157  0.748111  1
  O  O7  1  0.767262  0.735385  0.445411  1
  O  O8  1  0.771819  0.734042  0.050279  1
  O  O9  1  0.338546  0.709436  0.246317  1
  O  O10  1  0.047984  0.290564  0.753683  1
  O  O11  1  0.505861  0.265958  0.949721  1
  O  O12  1  0.502647  0.264615  0.554589  1
  O  O13  1  0.904679  0.295843  0.251889  1
