# generated using pymatgen
data_LiCaP3H8O13
_symmetry_space_group_name_H-M   'P 1'
_cell_length_a   7.85939518
_cell_length_b   10.23729273
_cell_length_c   7.31328466
_cell_angle_alpha   105.31729696
_cell_angle_beta   102.88618849
_cell_angle_gamma   84.97141454
_symmetry_Int_Tables_number   1
_chemical_formula_structural   LiCaP3H8O13
_chemical_formula_sum   'Li2 Ca2 P6 H16 O26'
_cell_volume   552.96559870
_cell_formula_units_Z   2
loop_
 _symmetry_equiv_pos_site_id
 _symmetry_equiv_pos_as_xyz
  1  'x, y, z'
loop_
 _atom_site_type_symbol
 _atom_site_label
 _atom_site_symmetry_multiplicity
 _atom_site_fract_x
 _atom_site_fract_y
 _atom_site_fract_z
 _atom_site_occupancy
  Li  Li0  1  0.500000  0.500000  0.000000  1
  Li  Li1  1  0.000000  0.000000  0.000000  1
  Ca  Ca2  1  0.807571  0.757650  0.175850  1
  Ca  Ca3  1  0.192429  0.242350  0.824150  1
  P  P4  1  0.202716  0.520187  0.243779  1
  P  P5  1  0.797284  0.479813  0.756221  1
  P  P6  1  0.459820  0.729013  0.406493  1
  P  P7  1  0.540180  0.270987  0.593507  1
  P  P8  1  0.803663  0.741466  0.671280  1
  P  P9  1  0.196337  0.258534  0.328720  1
  H  H10  1  0.621446  0.010081  0.350362  1
  H  H11  1  0.378554  0.989919  0.649638  1
  H  H12  1  0.653461  0.013544  0.146865  1
  H  H13  1  0.346539  0.986456  0.853135  1
  H  H14  1  0.973318  0.963429  0.640836  1
  H  H15  1  0.026682  0.036571  0.359164  1
  H  H16  1  0.867402  0.099505  0.693615  1
  H  H17  1  0.132598  0.900495  0.306385  1
  H  H18  1  0.695976  0.400508  0.307742  1
  H  H19  1  0.304024  0.599492  0.692258  1
  H  H20  1  0.819348  0.429126  0.183127  1
  H  H21  1  0.180652  0.570874  0.816873  1
  H  H22  1  0.742024  0.202197  0.077424  1
  H  H23  1  0.257976  0.797803  0.922576  1
  H  H24  1  0.665444  0.083347  0.902063  1
  H  H25  1  0.334556  0.916653  0.097937  1
  O  O26  1  0.295573  0.439431  0.089094  1
  O  O27  1  0.704427  0.560569  0.910906  1
  O  O28  1  0.048868  0.609512  0.192907  1
  O  O29  1  0.951132  0.390488  0.807093  1
  O  O30  1  0.345020  0.607785  0.422136  1
  O  O31  1  0.654980  0.392215  0.577864  1
  O  O32  1  0.852726  0.579560  0.640600  1
  O  O33  1  0.147274  0.420440  0.359400  1
  O  O34  1  0.554667  0.673409  0.243813  1
  O  O35  1  0.445333  0.326591  0.756187  1
  O  O36  1  0.350399  0.857272  0.414255  1
  O  O37  1  0.649601  0.142728  0.585745  1
  O  O38  1  0.591833  0.744745  0.615258  1
  O  O39  1  0.408167  0.255255  0.384742  1
  O  O40  1  0.854345  0.812009  0.881900  1
  O  O41  1  0.145655  0.187991  0.118100  1
  O  O42  1  0.876973  0.787997  0.526976  1
  O  O43  1  0.123027  0.212003  0.473024  1
  O  O44  1  0.386552  0.046115  0.784217  1
  O  O45  1  0.613448  0.953885  0.215783  1
  O  O46  1  0.983814  0.055731  0.727853  1
  O  O47  1  0.016186  0.944269  0.272147  1
  O  O48  1  0.713616  0.382290  0.174325  1
  O  O49  1  0.286384  0.617710  0.825675  1
  O  O50  1  0.751995  0.102473  0.024432  1
  O  O51  1  0.248005  0.897527  0.975568  1
