# generated using pymatgen
data_Mn6O11F
_symmetry_space_group_name_H-M   'P 1'
_cell_length_a   4.51288642
_cell_length_b   4.51288642
_cell_length_c   8.97458512
_cell_angle_alpha   90.00000000
_cell_angle_beta   90.00000000
_cell_angle_gamma   90.80730130
_symmetry_Int_Tables_number   1
_chemical_formula_structural   Mn6O11F
_chemical_formula_sum   'Mn6 O11 F1'
_cell_volume   182.75954853
_cell_formula_units_Z   1
loop_
 _symmetry_equiv_pos_site_id
 _symmetry_equiv_pos_as_xyz
  1  'x, y, z'
loop_
 _atom_site_type_symbol
 _atom_site_label
 _atom_site_symmetry_multiplicity
 _atom_site_fract_x
 _atom_site_fract_y
 _atom_site_fract_z
 _atom_site_occupancy
  Mn  Mn0  1  0.007298  0.992702  0.007754  1
  Mn  Mn1  1  0.999034  0.000966  0.333333  1
  Mn  Mn2  1  0.007298  0.992702  0.658913  1
  Mn  Mn3  1  0.480612  0.519388  0.833333  1
  Mn  Mn4  1  0.503098  0.496902  0.166698  1
  Mn  Mn5  1  0.503098  0.496902  0.499969  1
  O  O6  1  0.196141  0.803859  0.168571  1
  O  O7  1  0.196141  0.803859  0.498096  1
  O  O8  1  0.190169  0.809831  0.833333  1
  O  O9  1  0.305653  0.305149  0.999617  1
  O  O10  1  0.306026  0.305943  0.333333  1
  O  O11  1  0.305653  0.305149  0.667049  1
  O  O12  1  0.694851  0.694347  0.999617  1
  O  O13  1  0.694057  0.693974  0.333333  1
  O  O14  1  0.694851  0.694347  0.667049  1
  O  O15  1  0.807566  0.192434  0.167752  1
  O  O16  1  0.807566  0.192434  0.498915  1
  F  F17  1  0.800886  0.199114  0.833333  1
