# generated using pymatgen
data_Cs5CeNi2(NO2)12
_symmetry_space_group_name_H-M   'P 1'
_cell_length_a   11.30679714
_cell_length_b   11.30679714
_cell_length_c   11.30679714
_cell_angle_alpha   90.00000000
_cell_angle_beta   90.00000000
_cell_angle_gamma   90.00000000
_symmetry_Int_Tables_number   1
_chemical_formula_structural   Cs5CeNi2(NO2)12
_chemical_formula_sum   'Cs10 Ce2 Ni4 N24 O48'
_cell_volume   1445.50234695
_cell_formula_units_Z   2
loop_
 _symmetry_equiv_pos_site_id
 _symmetry_equiv_pos_as_xyz
  1  'x, y, z'
loop_
 _atom_site_type_symbol
 _atom_site_label
 _atom_site_symmetry_multiplicity
 _atom_site_fract_x
 _atom_site_fract_y
 _atom_site_fract_z
 _atom_site_occupancy
  Cs  Cs0  1  0.500000  0.500000  0.000000  1
  Cs  Cs1  1  0.500000  0.000000  0.500000  1
  Cs  Cs2  1  0.250000  0.750000  0.750000  1
  Cs  Cs3  1  0.750000  0.250000  0.250000  1
  Cs  Cs4  1  0.750000  0.250000  0.750000  1
  Cs  Cs5  1  0.000000  0.000000  0.000000  1
  Cs  Cs6  1  0.750000  0.750000  0.250000  1
  Cs  Cs7  1  0.250000  0.750000  0.250000  1
  Cs  Cs8  1  0.000000  0.500000  0.500000  1
  Cs  Cs9  1  0.250000  0.250000  0.750000  1
  Ce  Ce10  1  0.250000  0.250000  0.250000  1
  Ce  Ce11  1  0.750000  0.750000  0.750000  1
  Ni  Ni12  1  0.000000  0.000000  0.500000  1
  Ni  Ni13  1  0.500000  0.000000  0.000000  1
  Ni  Ni14  1  0.000000  0.500000  0.000000  1
  Ni  Ni15  1  0.500000  0.500000  0.500000  1
  N  N16  1  0.507842  0.506692  0.685242  1
  N  N17  1  0.814758  0.992158  0.506692  1
  N  N18  1  0.685242  0.992158  0.993308  1
  N  N19  1  0.506692  0.814758  0.992158  1
  N  N20  1  0.992158  0.993308  0.685242  1
  N  N21  1  0.006692  0.314758  0.007842  1
  N  N22  1  0.314758  0.007842  0.006692  1
  N  N23  1  0.814758  0.507842  0.993308  1
  N  N24  1  0.506692  0.685242  0.507842  1
  N  N25  1  0.007842  0.493308  0.185242  1
  N  N26  1  0.993308  0.814758  0.507842  1
  N  N27  1  0.492158  0.493308  0.314758  1
  N  N28  1  0.507842  0.993308  0.814758  1
  N  N29  1  0.006692  0.185242  0.492158  1
  N  N30  1  0.685242  0.507842  0.506692  1
  N  N31  1  0.493308  0.185242  0.007842  1
  N  N32  1  0.493308  0.314758  0.492158  1
  N  N33  1  0.185242  0.007842  0.493308  1
  N  N34  1  0.993308  0.685242  0.992158  1
  N  N35  1  0.992158  0.506692  0.814758  1
  N  N36  1  0.492158  0.006692  0.185242  1
  N  N37  1  0.007842  0.006692  0.314758  1
  N  N38  1  0.185242  0.492158  0.006692  1
  N  N39  1  0.314758  0.492158  0.493308  1
  O  O40  1  0.503444  0.240450  0.912176  1
  O  O41  1  0.003443  0.740450  0.087824  1
  O  O42  1  0.412176  0.003443  0.759550  1
  O  O43  1  0.259550  0.587824  0.503444  1
  O  O44  1  0.912176  0.503444  0.240450  1
  O  O45  1  0.242990  0.101353  0.466736  1
  O  O46  1  0.398647  0.466736  0.257010  1
  O  O47  1  0.966736  0.757010  0.601353  1
  O  O48  1  0.587824  0.996556  0.240450  1
  O  O49  1  0.033264  0.242990  0.398647  1
  O  O50  1  0.087824  0.003443  0.740450  1
  O  O51  1  0.398647  0.033264  0.242990  1
  O  O52  1  0.759550  0.412176  0.003443  1
  O  O53  1  0.898647  0.966736  0.742990  1
  O  O54  1  0.033264  0.257010  0.101353  1
  O  O55  1  0.912176  0.996556  0.259550  1
  O  O56  1  0.898647  0.533264  0.757010  1
  O  O57  1  0.240450  0.912176  0.503444  1
  O  O58  1  0.087824  0.496557  0.759550  1
  O  O59  1  0.101353  0.033264  0.257010  1
  O  O60  1  0.533264  0.757010  0.898647  1
  O  O61  1  0.240450  0.587824  0.996556  1
  O  O62  1  0.242990  0.398647  0.033264  1
  O  O63  1  0.759550  0.087824  0.496557  1
  O  O64  1  0.003443  0.759550  0.412176  1
  O  O65  1  0.257010  0.398647  0.466736  1
  O  O66  1  0.412176  0.496557  0.740450  1
  O  O67  1  0.996556  0.240450  0.587824  1
  O  O68  1  0.587824  0.503444  0.259550  1
  O  O69  1  0.533264  0.742990  0.601353  1
  O  O70  1  0.757010  0.601353  0.966736  1
  O  O71  1  0.601353  0.966736  0.757010  1
  O  O72  1  0.259550  0.912176  0.996556  1
  O  O73  1  0.742990  0.898647  0.966736  1
  O  O74  1  0.740450  0.087824  0.003443  1
  O  O75  1  0.503444  0.259550  0.587824  1
  O  O76  1  0.757010  0.898647  0.533264  1
  O  O77  1  0.740450  0.412176  0.496557  1
  O  O78  1  0.996556  0.259550  0.912176  1
  O  O79  1  0.496557  0.759550  0.087824  1
  O  O80  1  0.101353  0.466736  0.242990  1
  O  O81  1  0.257010  0.101353  0.033264  1
  O  O82  1  0.466736  0.257010  0.398647  1
  O  O83  1  0.601353  0.533264  0.742990  1
  O  O84  1  0.496557  0.740450  0.412176  1
  O  O85  1  0.966736  0.742990  0.898647  1
  O  O86  1  0.742990  0.601353  0.533264  1
  O  O87  1  0.466736  0.242990  0.101353  1
