# generated using pymatgen
data_Li3Mn8(OF3)4
_symmetry_space_group_name_H-M   'P 1'
_cell_length_a   6.40387777
_cell_length_b   10.35959345
_cell_length_c   6.20121372
_cell_angle_alpha   107.41544835
_cell_angle_beta   118.95852958
_cell_angle_gamma   89.03070106
_symmetry_Int_Tables_number   1
_chemical_formula_structural   Li3Mn8(OF3)4
_chemical_formula_sum   'Li3 Mn8 O4 F12'
_cell_volume   339.39995740
_cell_formula_units_Z   1
loop_
 _symmetry_equiv_pos_site_id
 _symmetry_equiv_pos_as_xyz
  1  'x, y, z'
loop_
 _atom_site_type_symbol
 _atom_site_label
 _atom_site_symmetry_multiplicity
 _atom_site_fract_x
 _atom_site_fract_y
 _atom_site_fract_z
 _atom_site_occupancy
  Li  Li0  1  0.000000  0.000000  0.000000  1
  Li  Li1  1  0.805492  0.421091  0.613291  1
  Li  Li2  1  0.194508  0.578909  0.386709  1
  Mn  Mn3  1  0.500000  0.000000  0.500000  1
  Mn  Mn4  1  0.500000  0.000000  0.000000  1
  Mn  Mn5  1  0.259072  0.247802  0.503841  1
  Mn  Mn6  1  0.259072  0.247802  0.003033  1
  Mn  Mn7  1  0.753777  0.276583  0.015180  1
  Mn  Mn8  1  0.246223  0.723417  0.984820  1
  Mn  Mn9  1  0.740928  0.752198  0.496159  1
  Mn  Mn10  1  0.740928  0.752198  0.996967  1
  O  O11  1  0.359324  0.112367  0.235846  1
  O  O12  1  0.414144  0.131508  0.772826  1
  O  O13  1  0.585856  0.868492  0.227174  1
  O  O14  1  0.640676  0.887633  0.764154  1
  F  F15  1  0.891297  0.133803  0.233360  1
  F  F16  1  0.891297  0.133803  0.791740  1
  F  F17  1  0.116933  0.358414  0.737673  1
  F  F18  1  0.126447  0.376151  0.251300  1
  F  F19  1  0.611709  0.370088  0.731382  1
  F  F20  1  0.611709  0.370088  0.250415  1
  F  F21  1  0.388291  0.629912  0.268618  1
  F  F22  1  0.388291  0.629912  0.749585  1
  F  F23  1  0.873552  0.623849  0.748700  1
  F  F24  1  0.883067  0.641586  0.262327  1
  F  F25  1  0.108703  0.866197  0.766640  1
  F  F26  1  0.108703  0.866197  0.208260  1
