# generated using pymatgen
data_Mn2PO5
_symmetry_space_group_name_H-M   'P 1'
_cell_length_a   6.66665899
_cell_length_b   7.46380429
_cell_length_c   9.18179020
_cell_angle_alpha   108.32715323
_cell_angle_beta   111.28682562
_cell_angle_gamma   63.47429540
_symmetry_Int_Tables_number   1
_chemical_formula_structural   Mn2PO5
_chemical_formula_sum   'Mn8 P4 O20'
_cell_volume   374.48057842
_cell_formula_units_Z   4
loop_
 _symmetry_equiv_pos_site_id
 _symmetry_equiv_pos_as_xyz
  1  'x, y, z'
loop_
 _atom_site_type_symbol
 _atom_site_label
 _atom_site_symmetry_multiplicity
 _atom_site_fract_x
 _atom_site_fract_y
 _atom_site_fract_z
 _atom_site_occupancy
  Mn  Mn0  1  0.255565  0.937903  0.665630  1
  Mn  Mn1  1  0.783619  0.898266  0.978442  1
  Mn  Mn2  1  0.703445  0.601734  0.521558  1
  Mn  Mn3  1  0.472160  0.437903  0.165630  1
  Mn  Mn4  1  0.527840  0.562097  0.834370  1
  Mn  Mn5  1  0.296555  0.398266  0.478442  1
  Mn  Mn6  1  0.216381  0.101734  0.021558  1
  Mn  Mn7  1  0.744434  0.062097  0.334370  1
  P  P8  1  0.268717  0.945143  0.309348  1
  P  P9  1  0.904512  0.554857  0.190652  1
  P  P10  1  0.095488  0.445143  0.809348  1
  P  P11  1  0.731283  0.054857  0.690652  1
  O  O12  1  0.105775  0.970224  0.141734  1
  O  O13  1  0.871005  0.988911  0.566905  1
  O  O14  1  0.593239  0.915462  0.647625  1
  O  O15  1  0.847102  0.781974  0.192321  1
  O  O16  1  0.436755  0.718026  0.307679  1
  O  O17  1  0.417430  0.856880  0.885155  1
  O  O18  1  0.389154  0.643120  0.614845  1
  O  O19  1  0.934264  0.529776  0.358266  1
  O  O20  1  0.706989  0.488911  0.066905  1
  O  O21  1  0.861076  0.584538  0.852375  1
  O  O22  1  0.138924  0.415462  0.147625  1
  O  O23  1  0.293011  0.511089  0.933095  1
  O  O24  1  0.065736  0.470224  0.641734  1
  O  O25  1  0.610846  0.356880  0.385155  1
  O  O26  1  0.582570  0.143120  0.114845  1
  O  O27  1  0.563245  0.281974  0.692321  1
  O  O28  1  0.152898  0.218026  0.807679  1
  O  O29  1  0.406761  0.084538  0.352375  1
  O  O30  1  0.128995  0.011089  0.433095  1
  O  O31  1  0.894225  0.029776  0.858266  1
