# generated using pymatgen
data_Li4V2Fe3Sb3O16
_symmetry_space_group_name_H-M   'P 1'
_cell_length_a   6.08588388
_cell_length_b   6.14159809
_cell_length_c   9.73031464
_cell_angle_alpha   90.07168484
_cell_angle_beta   91.02592193
_cell_angle_gamma   119.67293980
_symmetry_Int_Tables_number   1
_chemical_formula_structural   Li4V2Fe3Sb3O16
_chemical_formula_sum   'Li4 V2 Fe3 Sb3 O16'
_cell_volume   315.92601233
_cell_formula_units_Z   1
loop_
 _symmetry_equiv_pos_site_id
 _symmetry_equiv_pos_as_xyz
  1  'x, y, z'
loop_
 _atom_site_type_symbol
 _atom_site_label
 _atom_site_symmetry_multiplicity
 _atom_site_fract_x
 _atom_site_fract_y
 _atom_site_fract_z
 _atom_site_occupancy
  Li  Li0  1  0.332252  0.663294  0.880387  1
  Li  Li1  1  0.958554  0.980145  0.987926  1
  Li  Li2  1  0.976690  0.985777  0.501787  1
  Li  Li3  1  0.653646  0.326664  0.401477  1
  V  V4  1  0.347963  0.678063  0.498421  1
  V  V5  1  0.693669  0.345256  0.977101  1
  Fe  Fe6  1  0.664901  0.831737  0.214930  1
  Fe  Fe7  1  0.835298  0.663627  0.713885  1
  Fe  Fe8  1  0.833600  0.172107  0.713560  1
  Sb  Sb9  1  0.171496  0.833578  0.213502  1
  Sb  Sb10  1  0.172348  0.339788  0.214228  1
  Sb  Sb11  1  0.342598  0.170507  0.714307  1
  O  O12  1  0.177830  0.852904  0.596539  1
  O  O13  1  0.033930  0.519455  0.336600  1
  O  O14  1  0.327200  0.662731  0.101872  1
  O  O15  1  0.010810  0.007667  0.315967  1
  O  O16  1  0.014136  0.016367  0.809086  1
  O  O17  1  0.170686  0.329688  0.597916  1
  O  O18  1  0.472775  0.959559  0.336769  1
  O  O19  1  0.472586  0.510701  0.337844  1
  O  O20  1  0.320517  0.159642  0.102001  1
  O  O21  1  0.666060  0.840526  0.598647  1
  O  O22  1  0.506697  0.462960  0.849630  1
  O  O23  1  0.520031  0.036305  0.841992  1
  O  O24  1  0.655658  0.318866  0.602304  1
  O  O25  1  0.854626  0.685406  0.101799  1
  O  O26  1  0.960284  0.470896  0.845357  1
  O  O27  1  0.853159  0.176085  0.102004  1
