# generated using pymatgen
data_Li6NiOF6
_symmetry_space_group_name_H-M   'P 1'
_cell_length_a   4.96554356
_cell_length_b   10.62207433
_cell_length_c   2.96457653
_cell_angle_alpha   98.03468491
_cell_angle_beta   53.29090641
_cell_angle_gamma   103.52436395
_symmetry_Int_Tables_number   1
_chemical_formula_structural   Li6NiOF6
_chemical_formula_sum   'Li6 Ni1 O1 F6'
_cell_volume   121.87858677
_cell_formula_units_Z   1
loop_
 _symmetry_equiv_pos_site_id
 _symmetry_equiv_pos_as_xyz
  1  'x, y, z'
loop_
 _atom_site_type_symbol
 _atom_site_label
 _atom_site_symmetry_multiplicity
 _atom_site_fract_x
 _atom_site_fract_y
 _atom_site_fract_z
 _atom_site_occupancy
  Li  Li0  1  0.567600  0.135132  0.000101  1
  Li  Li1  1  0.148883  0.297724  0.000390  1
  Li  Li2  1  0.713237  0.426484  0.000410  1
  Li  Li3  1  0.286763  0.573516  0.999590  1
  Li  Li4  1  0.851117  0.702276  0.999610  1
  Li  Li5  1  0.432400  0.864868  0.999899  1
  Ni  Ni6  1  0.000000  0.000000  0.000000  1
  O  O7  1  0.500000  0.000000  0.500000  1
  F  F8  1  0.074700  0.149384  0.500053  1
  F  F9  1  0.646176  0.292412  0.500497  1
  F  F10  1  0.215122  0.430351  0.500098  1
  F  F11  1  0.784878  0.569649  0.499902  1
  F  F12  1  0.353824  0.707588  0.499503  1
  F  F13  1  0.925300  0.850616  0.499947  1
