# generated using pymatgen
data_Bi12BO20
_symmetry_space_group_name_H-M   'P 1'
_cell_length_a   8.78572562
_cell_length_b   8.78572562
_cell_length_c   8.78572562
_cell_angle_alpha   109.50177145
_cell_angle_beta   109.47781968
_cell_angle_gamma   109.43407805
_symmetry_Int_Tables_number   1
_chemical_formula_structural   Bi12BO20
_chemical_formula_sum   'Bi12 B1 O20'
_cell_volume   522.04851164
_cell_formula_units_Z   1
loop_
 _symmetry_equiv_pos_site_id
 _symmetry_equiv_pos_as_xyz
  1  'x, y, z'
loop_
 _atom_site_type_symbol
 _atom_site_label
 _atom_site_symmetry_multiplicity
 _atom_site_fract_x
 _atom_site_fract_y
 _atom_site_fract_z
 _atom_site_occupancy
  Bi  Bi0  1  0.839256  0.328550  0.141022  1
  Bi  Bi1  1  0.489598  0.160864  0.302032  1
  Bi  Bi2  1  0.858831  0.187566  0.697968  1
  Bi  Bi3  1  0.698495  0.858769  0.187985  1
  Bi  Bi4  1  0.301505  0.489490  0.160274  1
  Bi  Bi5  1  0.812471  0.671450  0.510706  1
  Bi  Bi6  1  0.160744  0.301766  0.489294  1
  Bi  Bi7  1  0.670784  0.510510  0.812015  1
  Bi  Bi8  1  0.329216  0.141231  0.839726  1
  Bi  Bi9  1  0.510402  0.812434  0.671266  1
  Bi  Bi10  1  0.141169  0.839136  0.328734  1
  Bi  Bi11  1  0.187529  0.698234  0.858978  1
  B  B12  1  0.000000  0.000000  0.000000  1
  O  O13  1  0.399527  0.999846  -0.000009  1
  O  O14  1  0.740485  0.122940  0.354891  1
  O  O15  1  0.876827  0.617525  0.231467  1
  O  O16  1  0.613942  0.382475  0.259301  1
  O  O17  1  0.172134  0.172065  0.172712  1
  O  O18  1  0.827866  0.000578  0.999932  1
  O  O19  1  0.768050  0.385594  0.645109  1
  O  O20  1  0.999855  0.399536  0.000009  1
  O  O21  1  0.382717  0.259400  0.613692  1
  O  O22  1  0.617283  0.230974  0.876682  1
  O  O23  1  0.354292  0.740600  0.123318  1
  O  O24  1  0.645708  0.769026  0.386308  1
  O  O25  1  0.600473  0.600464  0.600318  1
  O  O26  1  0.259515  0.614406  0.382456  1
  O  O27  1  0.999354  0.999422  0.827288  1
  O  O28  1  0.000646  0.827935  0.000068  1
  O  O29  1  0.123173  0.354640  0.740699  1
  O  O30  1  0.386058  0.645360  0.768533  1
  O  O31  1  0.231950  0.877060  0.617544  1
  O  O32  1  0.000145  0.000154  0.399682  1
