# generated using pymatgen
data_Li3NbV4O8
_symmetry_space_group_name_H-M   'P 1'
_cell_length_a   10.61849424
_cell_length_b   10.61849478
_cell_length_c   15.02095001
_cell_angle_alpha   19.44974172
_cell_angle_beta   19.44974562
_cell_angle_gamma   33.65362591
_symmetry_Int_Tables_number   1
_chemical_formula_structural   Li3NbV4O8
_chemical_formula_sum   'Li3 Nb1 V4 O8'
_cell_volume   161.35128482
_cell_formula_units_Z   1
loop_
 _symmetry_equiv_pos_site_id
 _symmetry_equiv_pos_as_xyz
  1  'x, y, z'
loop_
 _atom_site_type_symbol
 _atom_site_label
 _atom_site_symmetry_multiplicity
 _atom_site_fract_x
 _atom_site_fract_y
 _atom_site_fract_z
 _atom_site_occupancy
  Li  Li0  1  0.000000  0.500000  0.500000  1
  Li  Li1  1  0.500000  0.000000  0.500000  1
  Li  Li2  1  0.500000  0.500000  0.500000  1
  Nb  Nb3  1  0.500000  0.500000  0.000000  1
  V  V4  1  0.000000  0.000000  0.000000  1
  V  V5  1  0.000000  0.500000  0.000000  1
  V  V6  1  0.500000  0.000000  0.000000  1
  V  V7  1  0.000000  0.000000  0.500000  1
  O  O8  1  0.979295  0.979295  0.282513  1
  O  O9  1  0.017270  0.501096  0.240268  1
  O  O10  1  0.501096  0.017270  0.240268  1
  O  O11  1  0.020705  0.020705  0.717487  1
  O  O12  1  0.506320  0.506320  0.243427  1
  O  O13  1  0.982730  0.498904  0.759732  1
  O  O14  1  0.498904  0.982730  0.759732  1
  O  O15  1  0.493680  0.493680  0.756573  1
