# generated using pymatgen
data_K3ZrHS(OF)5
_symmetry_space_group_name_H-M   'P 1'
_cell_length_a   10.29844968
_cell_length_b   10.29844968
_cell_length_c   13.31389069
_cell_angle_alpha   90.00000000
_cell_angle_beta   90.00000000
_cell_angle_gamma   45.12615876
_symmetry_Int_Tables_number   1
_chemical_formula_structural   K3ZrHS(OF)5
_chemical_formula_sum   'K12 Zr4 H4 S4 O20 F20'
_cell_volume   1000.66303195
_cell_formula_units_Z   4
loop_
 _symmetry_equiv_pos_site_id
 _symmetry_equiv_pos_as_xyz
  1  'x, y, z'
loop_
 _atom_site_type_symbol
 _atom_site_label
 _atom_site_symmetry_multiplicity
 _atom_site_fract_x
 _atom_site_fract_y
 _atom_site_fract_z
 _atom_site_occupancy
  K  K0  1  0.168762  0.679162  0.708213  1
  K  K1  1  0.679162  0.168762  0.708213  1
  K  K2  1  0.831238  0.320838  0.208213  1
  K  K3  1  0.320838  0.831238  0.208213  1
  K  K4  1  0.095553  0.095553  0.494378  1
  K  K5  1  0.904447  0.904447  0.994378  1
  K  K6  1  0.029243  0.535380  0.228223  1
  K  K7  1  0.535380  0.029243  0.228223  1
  K  K8  1  0.970757  0.464620  0.728223  1
  K  K9  1  0.464620  0.970757  0.728223  1
  K  K10  1  0.576601  0.576601  0.920828  1
  K  K11  1  0.423399  0.423399  0.420828  1
  Zr  Zr12  1  0.840384  0.840384  0.503662  1
  Zr  Zr13  1  0.159616  0.159616  0.003662  1
  Zr  Zr14  1  0.653846  0.653846  0.411647  1
  Zr  Zr15  1  0.346154  0.346154  0.911647  1
  H  H16  1  0.172007  0.369486  0.548696  1
  H  H17  1  0.369486  0.172007  0.548696  1
  H  H18  1  0.827993  0.630514  0.048696  1
  H  H19  1  0.630514  0.827993  0.048696  1
  S  S20  1  0.929411  0.929411  0.318719  1
  S  S21  1  0.070589  0.070589  0.818719  1
  S  S22  1  0.570958  0.570958  0.601420  1
  S  S23  1  0.429042  0.429042  0.101420  1
  O  O24  1  0.049354  0.749856  0.376866  1
  O  O25  1  0.749856  0.049354  0.376866  1
  O  O26  1  0.950646  0.250144  0.876866  1
  O  O27  1  0.250144  0.950646  0.876866  1
  O  O28  1  0.993043  0.993043  0.823048  1
  O  O29  1  0.006957  0.006957  0.323048  1
  O  O30  1  0.902936  0.902936  0.215243  1
  O  O31  1  0.097064  0.097064  0.715243  1
  O  O32  1  0.745686  0.447064  0.539823  1
  O  O33  1  0.447064  0.745686  0.539823  1
  O  O34  1  0.254314  0.552936  0.039823  1
  O  O35  1  0.552936  0.254314  0.039823  1
  O  O36  1  0.493227  0.493227  0.606422  1
  O  O37  1  0.506773  0.506773  0.106422  1
  O  O38  1  0.602496  0.602496  0.702172  1
  O  O39  1  0.397504  0.397504  0.202172  1
  O  O40  1  0.762052  0.762052  0.053350  1
  O  O41  1  0.237948  0.237948  0.553350  1
  O  O42  1  0.724387  0.724387  0.895937  1
  O  O43  1  0.275613  0.275613  0.395937  1
  F  F44  1  0.771310  0.771310  0.373033  1
  F  F45  1  0.228690  0.228690  0.873033  1
  F  F46  1  0.726222  0.726222  0.538840  1
  F  F47  1  0.273778  0.273778  0.038840  1
  F  F48  1  0.827019  0.827019  0.661400  1
  F  F49  1  0.172981  0.172981  0.161400  1
  F  F50  1  0.940871  0.940871  0.558504  1
  F  F51  1  0.059129  0.059129  0.058504  1
  F  F52  1  0.666214  0.666214  0.251081  1
  F  F53  1  0.333786  0.333786  0.751081  1
  F  F54  1  0.552680  0.552680  0.357100  1
  F  F55  1  0.447320  0.447320  0.857100  1
  F  F56  1  0.914518  0.427209  0.035758  1
  F  F57  1  0.427209  0.914518  0.035758  1
  F  F58  1  0.085482  0.572791  0.535758  1
  F  F59  1  0.572791  0.085482  0.535758  1
  F  F60  1  0.080993  0.582189  0.879379  1
  F  F61  1  0.582189  0.080993  0.879379  1
  F  F62  1  0.919007  0.417811  0.379379  1
  F  F63  1  0.417811  0.919007  0.379379  1
