# generated using pymatgen
data_NiH20Se2(NO7)2
_symmetry_space_group_name_H-M   'P 1'
_cell_length_a   9.55322070
_cell_length_b   14.50199223
_cell_length_c   7.34498632
_cell_angle_alpha   90.00000000
_cell_angle_beta   104.94319292
_cell_angle_gamma   90.00000000
_symmetry_Int_Tables_number   1
_chemical_formula_structural   NiH20Se2(NO7)2
_chemical_formula_sum   'Ni2 H40 Se4 N4 O28'
_cell_volume   983.16723411
_cell_formula_units_Z   2
loop_
 _symmetry_equiv_pos_site_id
 _symmetry_equiv_pos_as_xyz
  1  'x, y, z'
loop_
 _atom_site_type_symbol
 _atom_site_label
 _atom_site_symmetry_multiplicity
 _atom_site_fract_x
 _atom_site_fract_y
 _atom_site_fract_z
 _atom_site_occupancy
  Ni  Ni0  1  0.500000  0.500000  0.000000  1
  Ni  Ni1  1  0.000000  0.000000  0.000000  1
  H  H2  1  0.577440  0.168375  0.189727  1
  H  H3  1  0.922560  0.668375  0.810273  1
  H  H4  1  0.422560  0.831625  0.810273  1
  H  H5  1  0.077440  0.331625  0.189727  1
  H  H6  1  0.785280  0.291172  0.304989  1
  H  H7  1  0.714720  0.791172  0.695011  1
  H  H8  1  0.214720  0.708828  0.695011  1
  H  H9  1  0.285280  0.208829  0.304989  1
  H  H10  1  0.552642  0.157528  0.401311  1
  H  H11  1  0.947358  0.657528  0.598689  1
  H  H12  1  0.447358  0.842472  0.598689  1
  H  H13  1  0.052642  0.342472  0.401311  1
  H  H14  1  0.709769  0.035505  0.403725  1
  H  H15  1  0.790231  0.535505  0.596275  1
  H  H16  1  0.290231  0.964495  0.596275  1
  H  H17  1  0.209769  0.464495  0.403725  1
  H  H18  1  0.850885  0.472460  0.929826  1
  H  H19  1  0.649115  0.972460  0.070174  1
  H  H20  1  0.149115  0.527540  0.070174  1
  H  H21  1  0.350885  0.027540  0.929826  1
  H  H22  1  0.666072  0.375558  0.063895  1
  H  H23  1  0.833928  0.875558  0.936105  1
  H  H24  1  0.333928  0.624442  0.936105  1
  H  H25  1  0.166072  0.124442  0.063895  1
  H  H26  1  0.140794  0.399825  0.886038  1
  H  H27  1  0.359206  0.899825  0.113962  1
  H  H28  1  0.859206  0.600175  0.113962  1
  H  H29  1  0.640794  0.100175  0.886038  1
  H  H30  1  0.385786  0.042993  0.028901  1
  H  H31  1  0.114214  0.542993  0.971099  1
  H  H32  1  0.614214  0.957007  0.971099  1
  H  H33  1  0.885786  0.457007  0.028901  1
  H  H34  1  0.324024  0.540605  0.383758  1
  H  H35  1  0.175976  0.040606  0.616242  1
  H  H36  1  0.675976  0.459394  0.616242  1
  H  H37  1  0.824024  0.959395  0.383758  1
  H  H38  1  0.491633  0.700629  0.062251  1
  H  H39  1  0.008367  0.200629  0.937749  1
  H  H40  1  0.508367  0.299371  0.937749  1
  H  H41  1  0.991633  0.799371  0.062251  1
  Se  Se42  1  0.931569  0.321147  0.720276  1
  Se  Se43  1  0.568431  0.821147  0.279724  1
  Se  Se44  1  0.068431  0.678853  0.279724  1
  Se  Se45  1  0.431569  0.178853  0.720276  1
  N  N46  1  0.606469  0.128144  0.310307  1
  N  N47  1  0.893531  0.628144  0.689693  1
  N  N48  1  0.393531  0.871856  0.689693  1
  N  N49  1  0.106469  0.371856  0.310307  1
  O  O50  1  0.955101  0.243360  0.567454  1
  O  O51  1  0.544899  0.743360  0.432546  1
  O  O52  1  0.044899  0.756640  0.432546  1
  O  O53  1  0.455101  0.256640  0.567454  1
  O  O54  1  0.105582  0.383369  0.752590  1
  O  O55  1  0.394418  0.883369  0.247410  1
  O  O56  1  0.894418  0.616631  0.247410  1
  O  O57  1  0.605582  0.116631  0.752590  1
  O  O58  1  0.743840  0.475513  0.542427  1
  O  O59  1  0.756160  0.975513  0.457573  1
  O  O60  1  0.256160  0.524487  0.457573  1
  O  O61  1  0.243840  0.024487  0.542427  1
  O  O62  1  0.968075  0.265565  0.948051  1
  O  O63  1  0.531925  0.765565  0.051949  1
  O  O64  1  0.031925  0.734435  0.051949  1
  O  O65  1  0.468075  0.234435  0.948051  1
  O  O66  1  0.483307  0.371182  0.279020  1
  O  O67  1  0.016693  0.871182  0.720980  1
  O  O68  1  0.516693  0.628818  0.720980  1
  O  O69  1  0.983307  0.128818  0.279020  1
  O  O70  1  0.407107  0.604584  0.050068  1
  O  O71  1  0.092893  0.104584  0.949932  1
  O  O72  1  0.592893  0.395416  0.949932  1
  O  O73  1  0.907107  0.895416  0.050068  1
  O  O74  1  0.509503  0.454294  0.261789  1
  O  O75  1  0.990497  0.954294  0.738211  1
  O  O76  1  0.490497  0.545706  0.738211  1
  O  O77  1  0.009503  0.045706  0.261789  1
