# generated using pymatgen
data_NaCaAlH2OF6
_symmetry_space_group_name_H-M   'P 1'
_cell_length_a   8.07319741
_cell_length_b   9.58772508
_cell_length_c   10.04886506
_cell_angle_alpha   48.48158142
_cell_angle_beta   62.77369380
_cell_angle_gamma   69.13573768
_symmetry_Int_Tables_number   1
_chemical_formula_structural   NaCaAlH2OF6
_chemical_formula_sum   'Na4 Ca4 Al4 H8 O4 F24'
_cell_volume   516.22439069
_cell_formula_units_Z   4
loop_
 _symmetry_equiv_pos_site_id
 _symmetry_equiv_pos_as_xyz
  1  'x, y, z'
loop_
 _atom_site_type_symbol
 _atom_site_label
 _atom_site_symmetry_multiplicity
 _atom_site_fract_x
 _atom_site_fract_y
 _atom_site_fract_z
 _atom_site_occupancy
  Na  Na0  1  0.631359  0.864443  0.127542  1
  Na  Na1  1  0.385557  0.618641  0.873344  1
  Na  Na2  1  0.864443  0.631359  0.876656  1
  Na  Na3  1  0.618641  0.385557  0.622458  1
  Ca  Ca4  1  0.202819  0.202819  0.047181  1
  Ca  Ca5  1  0.047181  0.047181  0.702819  1
  Ca  Ca6  1  0.804340  0.804340  0.445660  1
  Ca  Ca7  1  0.445660  0.445660  0.304340  1
  Al  Al8  1  0.972830  0.524208  0.219627  1
  Al  Al9  1  0.725792  0.277170  0.966665  1
  Al  Al10  1  0.524208  0.972830  0.783335  1
  Al  Al11  1  0.277170  0.725792  0.530373  1
  H  H12  1  0.119168  0.897671  0.077993  1
  H  H13  1  0.352329  0.130832  0.344831  1
  H  H14  1  0.208795  0.812907  0.229818  1
  H  H15  1  0.437093  0.041205  0.501520  1
  H  H16  1  0.897671  0.119168  0.405169  1
  H  H17  1  0.130832  0.352329  0.672007  1
  H  H18  1  0.812907  0.208795  0.248480  1
  H  H19  1  0.041205  0.437093  0.520182  1
  O  O20  1  0.105192  0.897564  0.180046  1
  O  O21  1  0.352436  0.144808  0.432802  1
  O  O22  1  0.897564  0.105192  0.317198  1
  O  O23  1  0.144808  0.352436  0.569954  1
  F  F24  1  0.038143  0.711993  0.570683  1
  F  F25  1  0.538007  0.211857  0.570819  1
  F  F26  1  0.294908  0.475197  0.725189  1
  F  F27  1  0.774803  0.955092  0.745293  1
  F  F28  1  0.064038  0.456999  0.063480  1
  F  F29  1  0.793001  0.185962  0.834517  1
  F  F30  1  0.880842  0.582823  0.386278  1
  F  F31  1  0.667177  0.369158  0.099943  1
  F  F32  1  0.971011  0.280449  0.924364  1
  F  F33  1  0.969551  0.278989  0.425824  1
  F  F34  1  0.726653  0.516793  0.753499  1
  F  F35  1  0.733207  0.523347  0.246946  1
  F  F36  1  0.711993  0.038143  0.179181  1
  F  F37  1  0.211857  0.538007  0.179317  1
  F  F38  1  0.475197  0.294908  0.004707  1
  F  F39  1  0.955092  0.774803  0.024811  1
  F  F40  1  0.456999  0.064038  0.915483  1
  F  F41  1  0.185962  0.793001  0.686520  1
  F  F42  1  0.582823  0.880842  0.650057  1
  F  F43  1  0.369158  0.667177  0.363722  1
  F  F44  1  0.280449  0.971011  0.324176  1
  F  F45  1  0.278989  0.969551  0.825636  1
  F  F46  1  0.516793  0.726653  0.503054  1
  F  F47  1  0.523347  0.733207  0.996501  1
