# generated using pymatgen
data_Li4Ni3Sn3(SbO8)2
_symmetry_space_group_name_H-M   'P 1'
_cell_length_a   6.11953356
_cell_length_b   6.15699149
_cell_length_c   9.81478911
_cell_angle_alpha   90.00003268
_cell_angle_beta   89.89255159
_cell_angle_gamma   120.20346482
_symmetry_Int_Tables_number   1
_chemical_formula_structural   Li4Ni3Sn3(SbO8)2
_chemical_formula_sum   'Li4 Ni3 Sn3 Sb2 O16'
_cell_volume   319.59751174
_cell_formula_units_Z   1
loop_
 _symmetry_equiv_pos_site_id
 _symmetry_equiv_pos_as_xyz
  1  'x, y, z'
loop_
 _atom_site_type_symbol
 _atom_site_label
 _atom_site_symmetry_multiplicity
 _atom_site_fract_x
 _atom_site_fract_y
 _atom_site_fract_z
 _atom_site_occupancy
  Li  Li0  1  0.335718  0.667873  0.895292  1
  Li  Li1  1  0.963962  0.981988  0.979595  1
  Li  Li2  1  0.977425  0.988716  0.497930  1
  Li  Li3  1  0.662556  0.331290  0.412574  1
  Ni  Ni4  1  0.658499  0.829259  0.214601  1
  Ni  Ni5  1  0.833147  0.659284  0.712414  1
  Ni  Ni6  1  0.833137  0.173871  0.712415  1
  Sn  Sn7  1  0.171916  0.832230  0.213488  1
  Sn  Sn8  1  0.171908  0.339707  0.213488  1
  Sn  Sn9  1  0.342899  0.171465  0.712970  1
  Sb  Sb10  1  0.345202  0.672612  0.493547  1
  Sb  Sb11  1  0.687981  0.344004  0.978304  1
  O  O12  1  0.170622  0.832900  0.588431  1
  O  O13  1  0.034481  0.517253  0.347944  1
  O  O14  1  0.332533  0.666280  0.102462  1
  O  O15  1  0.997426  0.998721  0.308708  1
  O  O16  1  0.001270  0.000644  0.798066  1
  O  O17  1  0.170618  0.337743  0.588433  1
  O  O18  1  0.478566  0.960435  0.347047  1
  O  O19  1  0.478555  0.518150  0.347049  1
  O  O20  1  0.338072  0.169052  0.094981  1
  O  O21  1  0.662437  0.831227  0.593664  1
  O  O22  1  0.519659  0.481052  0.854590  1
  O  O23  1  0.519647  0.038629  0.854590  1
  O  O24  1  0.666868  0.333441  0.608119  1
  O  O25  1  0.836567  0.666220  0.094630  1
  O  O26  1  0.971763  0.485891  0.847883  1
  O  O27  1  0.836564  0.170364  0.094626  1
