# generated using pymatgen
data_Ca2CuH6(CO2)6
_symmetry_space_group_name_H-M   'P 1'
_cell_length_a   12.13177984
_cell_length_b   12.13177984
_cell_length_c   6.56701113
_cell_angle_alpha   80.21017647
_cell_angle_beta   99.78982353
_cell_angle_gamma   136.83711601
_symmetry_Int_Tables_number   1
_chemical_formula_structural   Ca2CuH6(CO2)6
_chemical_formula_sum   'Ca4 Cu2 H12 C12 O24'
_cell_volume   650.03360082
_cell_formula_units_Z   2
loop_
 _symmetry_equiv_pos_site_id
 _symmetry_equiv_pos_as_xyz
  1  'x, y, z'
loop_
 _atom_site_type_symbol
 _atom_site_label
 _atom_site_symmetry_multiplicity
 _atom_site_fract_x
 _atom_site_fract_y
 _atom_site_fract_z
 _atom_site_occupancy
  Ca  Ca0  1  0.528466  0.209523  0.936559  1
  Ca  Ca1  1  0.209523  0.528466  0.563441  1
  Ca  Ca2  1  0.471534  0.790477  0.063441  1
  Ca  Ca3  1  0.790477  0.471534  0.436559  1
  Cu  Cu4  1  0.095086  0.095086  0.750000  1
  Cu  Cu5  1  0.904914  0.904914  0.250000  1
  H  H6  1  0.081028  0.844677  0.870820  1
  H  H7  1  0.844677  0.081028  0.629180  1
  H  H8  1  0.918972  0.155323  0.129180  1
  H  H9  1  0.155323  0.918972  0.370820  1
  H  H10  1  0.680431  0.641295  0.936874  1
  H  H11  1  0.641295  0.680431  0.563126  1
  H  H12  1  0.319570  0.358705  0.063126  1
  H  H13  1  0.358705  0.319570  0.436874  1
  H  H14  1  0.683430  0.111749  0.495444  1
  H  H15  1  0.111749  0.683430  0.004556  1
  H  H16  1  0.316570  0.888251  0.504556  1
  H  H17  1  0.888251  0.316570  0.995444  1
  C  C18  1  0.004609  0.802566  0.723332  1
  C  C19  1  0.802566  0.004609  0.776668  1
  C  C20  1  0.995391  0.197434  0.276668  1
  C  C21  1  0.197434  0.995391  0.223332  1
  C  C22  1  0.708016  0.593104  0.069650  1
  C  C23  1  0.593104  0.708016  0.430350  1
  C  C24  1  0.291984  0.406896  0.930350  1
  C  C25  1  0.406896  0.291984  0.569650  1
  C  C26  1  0.653399  0.124625  0.330056  1
  C  C27  1  0.124625  0.653399  0.169944  1
  C  C28  1  0.346601  0.875375  0.669944  1
  C  C29  1  0.875375  0.346601  0.830056  1
  O  O30  1  0.982505  0.888526  0.632758  1
  O  O31  1  0.888526  0.982505  0.867242  1
  O  O32  1  0.017495  0.111474  0.367242  1
  O  O33  1  0.111474  0.017495  0.132758  1
  O  O34  1  0.947801  0.677770  0.656013  1
  O  O35  1  0.677770  0.947801  0.843987  1
  O  O36  1  0.052199  0.322230  0.343987  1
  O  O37  1  0.322230  0.052199  0.156013  1
  O  O38  1  0.315493  0.194037  0.718141  1
  O  O39  1  0.194037  0.315493  0.781859  1
  O  O40  1  0.684507  0.805963  0.281859  1
  O  O41  1  0.805963  0.684507  0.218141  1
  O  O42  1  0.643871  0.452034  0.073286  1
  O  O43  1  0.452034  0.643871  0.426714  1
  O  O44  1  0.356129  0.547966  0.926714  1
  O  O45  1  0.547966  0.356129  0.573286  1
  O  O46  1  0.396668  0.976606  0.790688  1
  O  O47  1  0.976606  0.396668  0.709312  1
  O  O48  1  0.603332  0.023394  0.209312  1
  O  O49  1  0.023394  0.603332  0.290688  1
  O  O50  1  0.671303  0.242717  0.273185  1
  O  O51  1  0.242717  0.671303  0.226815  1
  O  O52  1  0.328697  0.757283  0.726815  1
  O  O53  1  0.757283  0.328697  0.773185  1
