# generated using pymatgen
data_SrZnH6O5
_symmetry_space_group_name_H-M   'P 1'
_cell_length_a   6.25379547
_cell_length_b   6.36218143
_cell_length_c   7.83970838
_cell_angle_alpha   91.34029613
_cell_angle_beta   113.63610608
_cell_angle_gamma   107.69840904
_symmetry_Int_Tables_number   1
_chemical_formula_structural   SrZnH6O5
_chemical_formula_sum   'Sr2 Zn2 H12 O10'
_cell_volume   268.43445949
_cell_formula_units_Z   2
loop_
 _symmetry_equiv_pos_site_id
 _symmetry_equiv_pos_as_xyz
  1  'x, y, z'
loop_
 _atom_site_type_symbol
 _atom_site_label
 _atom_site_symmetry_multiplicity
 _atom_site_fract_x
 _atom_site_fract_y
 _atom_site_fract_z
 _atom_site_occupancy
  Sr  Sr0  1  0.691650  0.402178  0.246731  1
  Sr  Sr1  1  0.308350  0.597822  0.753269  1
  Zn  Zn2  1  0.632893  0.246968  0.729745  1
  Zn  Zn3  1  0.367107  0.753032  0.270255  1
  H  H4  1  0.811377  0.945824  0.820169  1
  H  H5  1  0.188623  0.054176  0.179831  1
  H  H6  1  0.858911  0.612358  0.953930  1
  H  H7  1  0.141089  0.387642  0.046070  1
  H  H8  1  0.882012  0.193406  0.577157  1
  H  H9  1  0.117988  0.806594  0.422843  1
  H  H10  1  0.803910  0.812332  0.527728  1
  H  H11  1  0.196091  0.187668  0.472272  1
  H  H12  1  0.838168  0.978315  0.273562  1
  H  H13  1  0.161832  0.021685  0.726438  1
  H  H14  1  0.813286  0.048443  0.066989  1
  H  H15  1  0.186714  0.951557  0.933011  1
  O  O16  1  0.679641  0.975728  0.844096  1
  O  O17  1  0.320359  0.024272  0.155904  1
  O  O18  1  0.705211  0.494149  0.931864  1
  O  O19  1  0.294789  0.505851  0.068136  1
  O  O20  1  0.837322  0.325364  0.590300  1
  O  O21  1  0.162678  0.674636  0.409700  1
  O  O22  1  0.724513  0.788598  0.389650  1
  O  O23  1  0.275487  0.211402  0.610350  1
  O  O24  1  0.902394  0.103177  0.210698  1
  O  O25  1  0.097606  0.896823  0.789302  1
