# generated using pymatgen
data_K3EuSi3(HO5)2
_symmetry_space_group_name_H-M   'P 1'
_cell_length_a   13.24445450
_cell_length_b   14.11731794
_cell_length_c   6.04766984
_cell_angle_alpha   90.00000000
_cell_angle_beta   90.00000000
_cell_angle_gamma   90.00000000
_symmetry_Int_Tables_number   1
_chemical_formula_structural   K3EuSi3(HO5)2
_chemical_formula_sum   'K12 Eu4 Si12 H8 O40'
_cell_volume   1130.77017506
_cell_formula_units_Z   4
loop_
 _symmetry_equiv_pos_site_id
 _symmetry_equiv_pos_as_xyz
  1  'x, y, z'
loop_
 _atom_site_type_symbol
 _atom_site_label
 _atom_site_symmetry_multiplicity
 _atom_site_fract_x
 _atom_site_fract_y
 _atom_site_fract_z
 _atom_site_occupancy
  Eu  Eu0  1  0.046377  0.250000  0.084394  1
  Eu  Eu1  1  0.453623  0.750000  0.584394  1
  Eu  Eu2  1  0.546377  0.250000  0.415606  1
  Eu  Eu3  1  0.953623  0.750000  0.915606  1
  K  K4  1  0.118040  0.750000  0.426273  1
  K  K5  1  0.136679  0.516539  0.108073  1
  K  K6  1  0.136679  0.983461  0.108073  1
  K  K7  1  0.363321  0.016539  0.608073  1
  K  K8  1  0.363321  0.483461  0.608073  1
  K  K9  1  0.381960  0.250000  0.926273  1
  K  K10  1  0.618040  0.750000  0.073727  1
  K  K11  1  0.636679  0.516539  0.391927  1
  K  K12  1  0.636679  0.983461  0.391927  1
  K  K13  1  0.863321  0.016539  0.891927  1
  K  K14  1  0.863321  0.483461  0.891927  1
  K  K15  1  0.881960  0.250000  0.573727  1
  Si  Si16  1  0.100998  0.105187  0.590104  1
  Si  Si17  1  0.100998  0.394813  0.590104  1
  Si  Si18  1  0.244830  0.750000  0.927581  1
  Si  Si19  1  0.255170  0.250000  0.427581  1
  Si  Si20  1  0.399002  0.605187  0.090104  1
  Si  Si21  1  0.399002  0.894813  0.090104  1
  Si  Si22  1  0.600998  0.105187  0.909896  1
  Si  Si23  1  0.600998  0.394813  0.909896  1
  Si  Si24  1  0.744830  0.750000  0.572419  1
  Si  Si25  1  0.755170  0.250000  0.072419  1
  Si  Si26  1  0.899002  0.605187  0.409896  1
  Si  Si27  1  0.899002  0.894813  0.409896  1
  H  H28  1  0.081927  0.946378  0.625350  1
  H  H29  1  0.081927  0.553622  0.625350  1
  H  H30  1  0.418073  0.446378  0.125350  1
  H  H31  1  0.418073  0.053622  0.125350  1
  H  H32  1  0.581927  0.946378  0.874650  1
  H  H33  1  0.581927  0.553622  0.874650  1
  H  H34  1  0.918073  0.053622  0.374650  1
  H  H35  1  0.918073  0.446378  0.374650  1
  O  O36  1  0.033782  0.125612  0.369216  1
  O  O37  1  0.033782  0.374388  0.369216  1
  O  O38  1  0.042379  0.130118  0.817477  1
  O  O39  1  0.042379  0.369882  0.817477  1
  O  O40  1  0.123783  0.750000  0.935525  1
  O  O41  1  0.139699  0.509268  0.601502  1
  O  O42  1  0.139699  0.990732  0.601502  1
  O  O43  1  0.212770  0.250000  0.177414  1
  O  O44  1  0.214155  0.156697  0.572624  1
  O  O45  1  0.214155  0.343303  0.572624  1
  O  O46  1  0.285845  0.656697  0.072624  1
  O  O47  1  0.285845  0.843303  0.072624  1
  O  O48  1  0.287230  0.750000  0.677414  1
  O  O49  1  0.360301  0.490732  0.101502  1
  O  O50  1  0.360301  0.009268  0.101502  1
  O  O51  1  0.376217  0.250000  0.435525  1
  O  O52  1  0.457621  0.630118  0.317477  1
  O  O53  1  0.457621  0.869882  0.317477  1
  O  O54  1  0.466218  0.625612  0.869216  1
  O  O55  1  0.466218  0.874388  0.869216  1
  O  O56  1  0.533782  0.125612  0.130784  1
  O  O57  1  0.533782  0.374388  0.130784  1
  O  O58  1  0.542379  0.130118  0.682523  1
  O  O59  1  0.542379  0.369882  0.682523  1
  O  O60  1  0.623783  0.750000  0.564475  1
  O  O61  1  0.639699  0.509268  0.898498  1
  O  O62  1  0.639699  0.990732  0.898498  1
  O  O63  1  0.712770  0.250000  0.322586  1
  O  O64  1  0.714155  0.156697  0.927376  1
  O  O65  1  0.714155  0.343303  0.927376  1
  O  O66  1  0.785845  0.656697  0.427376  1
  O  O67  1  0.785845  0.843303  0.427376  1
  O  O68  1  0.787230  0.750000  0.822586  1
  O  O69  1  0.860301  0.009268  0.398498  1
  O  O70  1  0.860301  0.490732  0.398498  1
  O  O71  1  0.876217  0.250000  0.064475  1
  O  O72  1  0.957621  0.630118  0.182523  1
  O  O73  1  0.957621  0.869882  0.182523  1
  O  O74  1  0.966218  0.625612  0.630784  1
  O  O75  1  0.966218  0.874388  0.630784  1
