# generated using pymatgen
data_Sr2VCO3F5
_symmetry_space_group_name_H-M   'P 1'
_cell_length_a   5.61930486
_cell_length_b   8.96146656
_cell_length_c   13.60763608
_cell_angle_alpha   90.00000000
_cell_angle_beta   98.49934672
_cell_angle_gamma   90.00000000
_symmetry_Int_Tables_number   1
_chemical_formula_structural   Sr2VCO3F5
_chemical_formula_sum   'Sr8 V4 C4 O12 F20'
_cell_volume   677.71697908
_cell_formula_units_Z   4
loop_
 _symmetry_equiv_pos_site_id
 _symmetry_equiv_pos_as_xyz
  1  'x, y, z'
loop_
 _atom_site_type_symbol
 _atom_site_label
 _atom_site_symmetry_multiplicity
 _atom_site_fract_x
 _atom_site_fract_y
 _atom_site_fract_z
 _atom_site_occupancy
  Sr  Sr0  1  0.211839  0.892956  0.905033  1
  Sr  Sr1  1  0.221307  0.356869  0.913385  1
  Sr  Sr2  1  0.278693  0.856869  0.586615  1
  Sr  Sr3  1  0.288161  0.392956  0.594967  1
  Sr  Sr4  1  0.711839  0.607044  0.405033  1
  Sr  Sr5  1  0.721307  0.143131  0.413385  1
  Sr  Sr6  1  0.778693  0.643131  0.086615  1
  Sr  Sr7  1  0.788161  0.107044  0.094967  1
  V  V8  1  0.132353  0.871886  0.329859  1
  V  V9  1  0.367647  0.371886  0.170141  1
  V  V10  1  0.632353  0.628114  0.829859  1
  V  V11  1  0.867647  0.128114  0.670141  1
  C  C12  1  0.181490  0.375842  0.363687  1
  C  C13  1  0.318510  0.875842  0.136313  1
  C  C14  1  0.681490  0.124158  0.863687  1
  C  C15  1  0.818510  0.624158  0.636313  1
  O  O16  1  0.004517  0.379841  0.416662  1
  O  O17  1  0.129848  0.370571  0.268395  1
  O  O18  1  0.098090  0.877265  0.090234  1
  O  O19  1  0.504517  0.120160  0.916662  1
  O  O20  1  0.401910  0.377265  0.409766  1
  O  O21  1  0.370152  0.870571  0.231605  1
  O  O22  1  0.629848  0.129429  0.768395  1
  O  O23  1  0.598090  0.622735  0.590234  1
  O  O24  1  0.495483  0.879841  0.083338  1
  O  O25  1  0.901910  0.122735  0.909766  1
  O  O26  1  0.870152  0.629429  0.731605  1
  O  O27  1  0.995483  0.620159  0.583338  1
  F  F28  1  0.058442  0.962068  0.728560  1
  F  F29  1  0.071117  0.283160  0.736520  1
  F  F30  1  0.095527  0.128820  0.565090  1
  F  F31  1  0.404473  0.628819  0.934910  1
  F  F32  1  0.164009  0.512586  0.085805  1
  F  F33  1  0.311036  0.717619  0.414329  1
  F  F34  1  0.428883  0.783160  0.763480  1
  F  F35  1  0.441558  0.462068  0.771440  1
  F  F36  1  0.188964  0.217619  0.085671  1
  F  F37  1  0.335991  0.012586  0.414195  1
  F  F38  1  0.664009  0.987414  0.585805  1
  F  F39  1  0.811036  0.782381  0.914329  1
  F  F40  1  0.558442  0.537932  0.228560  1
  F  F41  1  0.571117  0.216840  0.236520  1
  F  F42  1  0.688964  0.282381  0.585671  1
  F  F43  1  0.835991  0.487414  0.914195  1
  F  F44  1  0.595527  0.371181  0.065090  1
  F  F45  1  0.904473  0.871181  0.434910  1
  F  F46  1  0.928883  0.716840  0.263480  1
  F  F47  1  0.941558  0.037932  0.271440  1
