# generated using pymatgen
data_Li2FeSiO4
_symmetry_space_group_name_H-M   'P 1'
_cell_length_a   6.35885223
_cell_length_b   10.79085683
_cell_length_c   5.13744383
_cell_angle_alpha   90.00000000
_cell_angle_beta   90.00000000
_cell_angle_gamma   90.00000000
_symmetry_Int_Tables_number   1
_chemical_formula_structural   Li2FeSiO4
_chemical_formula_sum   'Li8 Fe4 Si4 O16'
_cell_volume   352.51836714
_cell_formula_units_Z   4
loop_
 _symmetry_equiv_pos_site_id
 _symmetry_equiv_pos_as_xyz
  1  'x, y, z'
loop_
 _atom_site_type_symbol
 _atom_site_label
 _atom_site_symmetry_multiplicity
 _atom_site_fract_x
 _atom_site_fract_y
 _atom_site_fract_z
 _atom_site_occupancy
  Li  Li0  1  0.993382  0.330883  0.206197  1
  Li  Li1  1  0.993382  0.830883  0.293803  1
  Li  Li2  1  0.506618  0.330883  0.206197  1
  Li  Li3  1  0.506618  0.830883  0.293803  1
  Li  Li4  1  0.493382  0.169117  0.706197  1
  Li  Li5  1  0.493382  0.669117  0.793803  1
  Li  Li6  1  0.006618  0.669117  0.793803  1
  Li  Li7  1  0.006618  0.169117  0.706197  1
  Fe  Fe8  1  0.250000  0.420050  0.801883  1
  Fe  Fe9  1  0.250000  0.920049  0.698117  1
  Fe  Fe10  1  0.750000  0.079950  0.301883  1
  Fe  Fe11  1  0.750000  0.579951  0.198117  1
  Si  Si12  1  0.250000  0.083357  0.195098  1
  Si  Si13  1  0.250000  0.583356  0.304902  1
  Si  Si14  1  0.750000  0.416643  0.695098  1
  Si  Si15  1  0.750000  0.916644  0.804902  1
  O  O16  1  0.038628  0.156167  0.305147  1
  O  O17  1  0.038628  0.656167  0.194853  1
  O  O18  1  0.250000  0.088485  0.873569  1
  O  O19  1  0.250000  0.437377  0.211434  1
  O  O20  1  0.250000  0.937377  0.288566  1
  O  O21  1  0.250000  0.588485  0.626431  1
  O  O22  1  0.461372  0.156167  0.305147  1
  O  O23  1  0.461372  0.656167  0.194853  1
  O  O24  1  0.538628  0.843833  0.694853  1
  O  O25  1  0.538628  0.343833  0.805147  1
  O  O26  1  0.750000  0.062623  0.711434  1
  O  O27  1  0.750000  0.411515  0.373569  1
  O  O28  1  0.750000  0.562623  0.788566  1
  O  O29  1  0.750000  0.911515  0.126431  1
  O  O30  1  0.961372  0.343833  0.805147  1
  O  O31  1  0.961372  0.843833  0.694853  1
