# generated using pymatgen
data_Li2MnFe(PO4)2
_symmetry_space_group_name_H-M   'P 1'
_cell_length_a   9.54164462
_cell_length_b   10.50547528
_cell_length_c   6.13058716
_cell_angle_alpha   90.00000000
_cell_angle_beta   90.00000000
_cell_angle_gamma   89.93192742
_symmetry_Int_Tables_number   1
_chemical_formula_structural   Li2MnFe(PO4)2
_chemical_formula_sum   'Li8 Mn4 Fe4 P8 O32'
_cell_volume   614.52662999
_cell_formula_units_Z   4
loop_
 _symmetry_equiv_pos_site_id
 _symmetry_equiv_pos_as_xyz
  1  'x, y, z'
loop_
 _atom_site_type_symbol
 _atom_site_label
 _atom_site_symmetry_multiplicity
 _atom_site_fract_x
 _atom_site_fract_y
 _atom_site_fract_z
 _atom_site_occupancy
  Li  Li0  1  -0.000034  0.000421  0.000855  1
  Li  Li1  1  -0.000034  0.000421  0.499145  1
  Li  Li2  1  0.249910  0.500089  0.499376  1
  Li  Li3  1  0.249910  0.500089  0.000624  1
  Li  Li4  1  0.500145  0.999781  0.000426  1
  Li  Li5  1  0.500145  0.999781  0.499574  1
  Li  Li6  1  0.750042  0.500072  0.000648  1
  Li  Li7  1  0.750042  0.500072  0.499352  1
  Mn  Mn8  1  0.012609  0.718575  0.750000  1
  Mn  Mn9  1  0.237631  0.218522  0.750000  1
  Mn  Mn10  1  0.262463  0.781175  0.250000  1
  Mn  Mn11  1  0.737312  0.218485  0.750000  1
  Fe  Fe12  1  0.486492  0.281661  0.250000  1
  Fe  Fe13  1  0.513957  0.718458  0.750000  1
  Fe  Fe14  1  0.763135  0.782003  0.250000  1
  Fe  Fe15  1  0.986413  0.281663  0.250000  1
  P  P16  1  0.042084  0.592264  0.250000  1
  P  P17  1  0.205821  0.094505  0.250000  1
  P  P18  1  0.295202  0.906272  0.750000  1
  P  P19  1  0.458329  0.407733  0.750000  1
  P  P20  1  0.543452  0.593287  0.250000  1
  P  P21  1  0.706008  0.093633  0.250000  1
  P  P22  1  0.791487  0.906192  0.750000  1
  P  P23  1  0.957719  0.406805  0.750000  1
  O  O24  1  0.103290  0.454727  0.250000  1
  O  O25  1  0.109797  0.661659  0.048610  1
  O  O26  1  0.109797  0.661659  0.451390  1
  O  O27  1  0.118966  0.404822  0.750000  1
  O  O28  1  0.133458  0.903645  0.750000  1
  O  O29  1  0.137963  0.163611  0.048672  1
  O  O30  1  0.137963  0.163611  0.451328  1
  O  O31  1  0.145102  0.956742  0.250000  1
  O  O32  1  0.355613  0.043603  0.750000  1
  O  O33  1  0.361956  0.836374  0.548900  1
  O  O34  1  0.361956  0.836374  0.951100  1
  O  O35  1  0.366983  0.097537  0.250000  1
  O  O36  1  0.381959  0.595775  0.250000  1
  O  O37  1  0.392838  0.337273  0.547380  1
  O  O38  1  0.392838  0.337273  0.952620  1
  O  O39  1  0.395693  0.544588  0.750000  1
  O  O40  1  0.604880  0.456200  0.250000  1
  O  O41  1  0.609134  0.663849  0.047658  1
  O  O42  1  0.609134  0.663849  0.452342  1
  O  O43  1  0.619294  0.404590  0.750000  1
  O  O44  1  0.630664  0.903645  0.750000  1
  O  O45  1  0.637986  0.162926  0.049003  1
  O  O46  1  0.637986  0.162926  0.450997  1
  O  O47  1  0.646529  0.955450  0.250000  1
  O  O48  1  0.855033  0.042512  0.750000  1
  O  O49  1  0.857453  0.836242  0.546999  1
  O  O50  1  0.857453  0.836242  0.953001  1
  O  O51  1  0.867450  0.097503  0.250000  1
  O  O52  1  0.881158  0.597007  0.250000  1
  O  O53  1  0.892748  0.336404  0.547298  1
  O  O54  1  0.892748  0.336404  0.952702  1
  O  O55  1  0.893936  0.543010  0.750000  1
