# generated using pymatgen
data_Na4CrH8SO7
_symmetry_space_group_name_H-M   'P 1'
_cell_length_a   5.83140839
_cell_length_b   13.86621080
_cell_length_c   11.26736785
_cell_angle_alpha   90.00000000
_cell_angle_beta   103.78144899
_cell_angle_gamma   90.00000000
_symmetry_Int_Tables_number   1
_chemical_formula_structural   Na4CrH8SO7
_chemical_formula_sum   'Na16 Cr4 H32 S4 O28'
_cell_volume   884.84566382
_cell_formula_units_Z   4
loop_
 _symmetry_equiv_pos_site_id
 _symmetry_equiv_pos_as_xyz
  1  'x, y, z'
loop_
 _atom_site_type_symbol
 _atom_site_label
 _atom_site_symmetry_multiplicity
 _atom_site_fract_x
 _atom_site_fract_y
 _atom_site_fract_z
 _atom_site_occupancy
  Na  Na0  1  0.009295  0.315446  0.763480  1
  Na  Na1  1  0.250421  0.944254  0.995098  1
  Na  Na2  1  0.246486  0.702122  0.975037  1
  Na  Na3  1  0.009295  0.184554  0.263480  1
  Na  Na4  1  0.250421  0.555746  0.495098  1
  Na  Na5  1  0.246486  0.797878  0.475037  1
  Na  Na6  1  0.501456  0.206890  0.777353  1
  Na  Na7  1  0.498544  0.706890  0.722647  1
  Na  Na8  1  0.501456  0.293110  0.277353  1
  Na  Na9  1  0.498544  0.793110  0.222647  1
  Na  Na10  1  0.753514  0.202122  0.524963  1
  Na  Na11  1  0.749579  0.444254  0.504902  1
  Na  Na12  1  0.990705  0.815446  0.736520  1
  Na  Na13  1  0.753514  0.297878  0.024963  1
  Na  Na14  1  0.749579  0.055746  0.004902  1
  Na  Na15  1  0.990705  0.684554  0.236520  1
  Cr  Cr16  1  0.249432  0.313737  0.516335  1
  Cr  Cr17  1  0.249432  0.186263  0.016335  1
  Cr  Cr18  1  0.750568  0.813737  0.983665  1
  Cr  Cr19  1  0.750568  0.686263  0.483665  1
  H  H20  1  0.099152  0.643038  0.661241  1
  H  H21  1  0.226160  0.536488  0.853151  1
  H  H22  1  0.238856  0.076803  0.828923  1
  H  H23  1  0.160942  0.149188  0.612856  1
  H  H24  1  0.326323  0.357351  0.948164  1
  H  H25  1  0.250087  0.448083  0.682098  1
  H  H26  1  0.426092  0.877773  0.815776  1
  H  H27  1  0.099152  0.856962  0.161241  1
  H  H28  1  0.226160  0.963512  0.353151  1
  H  H29  1  0.238856  0.423197  0.328923  1
  H  H30  1  0.160942  0.350812  0.112856  1
  H  H31  1  0.508423  0.535924  0.862786  1
  H  H32  1  0.326323  0.142649  0.448164  1
  H  H33  1  0.250087  0.051917  0.182098  1
  H  H34  1  0.491577  0.035924  0.637214  1
  H  H35  1  0.573908  0.377773  0.684224  1
  H  H36  1  0.426092  0.622227  0.315776  1
  H  H37  1  0.508423  0.964076  0.362786  1
  H  H38  1  0.749913  0.948083  0.817902  1
  H  H39  1  0.673677  0.857351  0.551836  1
  H  H40  1  0.491577  0.464076  0.137214  1
  H  H41  1  0.839058  0.649188  0.887144  1
  H  H42  1  0.761144  0.576803  0.671077  1
  H  H43  1  0.773840  0.036488  0.646849  1
  H  H44  1  0.900848  0.143038  0.838759  1
  H  H45  1  0.573908  0.122227  0.184224  1
  H  H46  1  0.749913  0.551917  0.317902  1
  H  H47  1  0.673677  0.642649  0.051836  1
  H  H48  1  0.839058  0.850812  0.387144  1
  H  H49  1  0.761144  0.923197  0.171077  1
  H  H50  1  0.773840  0.463512  0.146849  1
  H  H51  1  0.900848  0.356962  0.338759  1
  S  S52  1  0.093328  0.985230  0.591806  1
  S  S53  1  0.093328  0.514770  0.091806  1
  S  S54  1  0.906672  0.485230  0.908194  1
  S  S55  1  0.906672  0.014770  0.408194  1
  O  O56  1  0.085167  0.692211  0.597987  1
  O  O57  1  0.135791  0.419916  0.613342  1
  O  O58  1  0.144665  0.218506  0.628287  1
  O  O59  1  0.363094  0.293657  0.920595  1
  O  O60  1  0.357312  0.089777  0.904390  1
  O  O61  1  0.358801  0.571508  0.829527  1
  O  O62  1  0.415281  0.822771  0.868110  1
  O  O63  1  0.085167  0.807789  0.097987  1
  O  O64  1  0.135791  0.080084  0.113342  1
  O  O65  1  0.144665  0.281494  0.128287  1
  O  O66  1  0.363094  0.206343  0.420595  1
  O  O67  1  0.357312  0.410223  0.404390  1
  O  O68  1  0.358801  0.928492  0.329527  1
  O  O69  1  0.415281  0.677229  0.368110  1
  O  O70  1  0.584719  0.322771  0.631890  1
  O  O71  1  0.641199  0.071508  0.670473  1
  O  O72  1  0.642688  0.589777  0.595610  1
  O  O73  1  0.636906  0.793657  0.579405  1
  O  O74  1  0.855335  0.718506  0.871713  1
  O  O75  1  0.864209  0.919916  0.886658  1
  O  O76  1  0.914833  0.192211  0.902013  1
  O  O77  1  0.584719  0.177229  0.131890  1
  O  O78  1  0.641199  0.428492  0.170473  1
  O  O79  1  0.642688  0.910223  0.095609  1
  O  O80  1  0.636906  0.706343  0.079405  1
  O  O81  1  0.855335  0.781494  0.371713  1
  O  O82  1  0.864209  0.580084  0.386658  1
  O  O83  1  0.914833  0.307789  0.402013  1
