# generated using pymatgen
data_Fe2H11(SeO5)3
_symmetry_space_group_name_H-M   'P 1'
_cell_length_a   17.02187664
_cell_length_b   7.85309123
_cell_length_c   10.06378013
_cell_angle_alpha   90.00000000
_cell_angle_beta   97.46992464
_cell_angle_gamma   90.00000000
_symmetry_Int_Tables_number   1
_chemical_formula_structural   Fe2H11(SeO5)3
_chemical_formula_sum   'Fe8 H44 Se12 O60'
_cell_volume   1333.85229083
_cell_formula_units_Z   4
loop_
 _symmetry_equiv_pos_site_id
 _symmetry_equiv_pos_as_xyz
  1  'x, y, z'
loop_
 _atom_site_type_symbol
 _atom_site_label
 _atom_site_symmetry_multiplicity
 _atom_site_fract_x
 _atom_site_fract_y
 _atom_site_fract_z
 _atom_site_occupancy
  Fe  Fe0  1  0.096785  0.762435  0.953417  1
  Fe  Fe1  1  0.096785  0.737565  0.453417  1
  Fe  Fe2  1  0.392452  0.743363  0.906984  1
  Fe  Fe3  1  0.392452  0.756637  0.406984  1
  Fe  Fe4  1  0.607548  0.243363  0.593016  1
  Fe  Fe5  1  0.607548  0.256637  0.093016  1
  Fe  Fe6  1  0.903215  0.262435  0.546583  1
  Fe  Fe7  1  0.903215  0.237565  0.046583  1
  H  H8  1  0.071242  0.455489  0.591311  1
  H  H9  1  0.071242  0.044511  0.091311  1
  H  H10  1  0.137867  0.406778  0.494727  1
  H  H11  1  0.140184  0.347501  0.905970  1
  H  H12  1  0.137867  0.093222  0.994727  1
  H  H13  1  0.200575  0.227397  0.842799  1
  H  H14  1  0.140184  0.152499  0.405970  1
  H  H15  1  0.200575  0.272603  0.342799  1
  H  H16  1  0.224045  0.209429  0.606211  1
  H  H17  1  0.278241  0.626809  0.001370  1
  H  H18  1  0.277496  0.103219  0.715168  1
  H  H19  1  0.224045  0.290571  0.106211  1
  H  H20  1  0.278241  0.873191  0.501370  1
  H  H21  1  0.277496  0.396781  0.215168  1
  H  H22  1  0.339097  0.340111  0.937202  1
  H  H23  1  0.353925  0.049194  0.995837  1
  H  H24  1  0.339097  0.159889  0.437202  1
  H  H25  1  0.353925  0.450806  0.495837  1
  H  H26  1  0.423493  0.261409  0.930797  1
  H  H27  1  0.390287  0.564897  0.619816  1
  H  H28  1  0.423493  0.238591  0.430797  1
  H  H29  1  0.390287  0.935103  0.119816  1
  H  H30  1  0.609713  0.064897  0.880184  1
  H  H31  1  0.576507  0.761409  0.569203  1
  H  H32  1  0.609713  0.435103  0.380184  1
  H  H33  1  0.576507  0.738591  0.069203  1
  H  H34  1  0.646075  0.549194  0.504163  1
  H  H35  1  0.660903  0.840111  0.562798  1
  H  H36  1  0.646075  0.950806  0.004163  1
  H  H37  1  0.660903  0.659889  0.062798  1
  H  H38  1  0.722504  0.603219  0.784832  1
  H  H39  1  0.721759  0.126809  0.498630  1
  H  H40  1  0.775955  0.709429  0.893789  1
  H  H41  1  0.722504  0.896781  0.284832  1
  H  H42  1  0.721759  0.373191  0.998630  1
  H  H43  1  0.775955  0.790571  0.393789  1
  H  H44  1  0.799425  0.727397  0.657201  1
  H  H45  1  0.859816  0.847501  0.594030  1
  H  H46  1  0.799425  0.772603  0.157201  1
  H  H47  1  0.862133  0.906778  0.005273  1
  H  H48  1  0.859816  0.652499  0.094030  1
  H  H49  1  0.862133  0.593222  0.505273  1
  H  H50  1  0.928758  0.955489  0.908689  1
  H  H51  1  0.928758  0.544511  0.408689  1
  Se  Se52  1  0.018399  0.965383  0.685053  1
  Se  Se53  1  0.018399  0.534617  0.185053  1
  Se  Se54  1  0.225215  0.724432  0.724151  1
  Se  Se55  1  0.225215  0.775568  0.224151  1
  Se  Se56  1  0.465077  0.985055  0.684540  1
  Se  Se57  1  0.465077  0.514945  0.184540  1
  Se  Se58  1  0.534923  0.485055  0.815460  1
  Se  Se59  1  0.534923  0.014945  0.315460  1
  Se  Se60  1  0.774785  0.224432  0.775849  1
  Se  Se61  1  0.774785  0.275568  0.275849  1
  Se  Se62  1  0.981601  0.465383  0.814947  1
  Se  Se63  1  0.981601  0.034617  0.314947  1
  O  O64  1  0.002310  0.865365  0.833344  1
  O  O65  1  0.022271  0.788306  0.584486  1
  O  O66  1  0.002310  0.634635  0.333344  1
  O  O67  1  0.078883  0.528863  0.867082  1
  O  O68  1  0.022271  0.711694  0.084486  1
  O  O69  1  0.078883  0.971137  0.367082  1
  O  O70  1  0.116144  0.503021  0.547646  1
  O  O71  1  0.168014  0.836753  0.821867  1
  O  O72  1  0.177089  0.250709  0.927532  1
  O  O73  1  0.116144  0.996979  0.047646  1
  O  O74  1  0.168014  0.663247  0.321867  1
  O  O75  1  0.177089  0.249291  0.427532  1
  O  O76  1  0.197503  0.827914  0.573238  1
  O  O77  1  0.197503  0.672086  0.073238  1
  O  O78  1  0.245943  0.207439  0.701622  1
  O  O79  1  0.319638  0.582270  0.947185  1
  O  O80  1  0.245943  0.292561  0.201622  1
  O  O81  1  0.316938  0.836594  0.761247  1
  O  O82  1  0.319638  0.917730  0.447185  1
  O  O83  1  0.368453  0.231597  0.940382  1
  O  O84  1  0.316938  0.663406  0.261247  1
  O  O85  1  0.354751  0.571612  0.533421  1
  O  O86  1  0.368453  0.268403  0.440382  1
  O  O87  1  0.354751  0.928388  0.033421  1
  O  O88  1  0.437108  0.547642  0.790375  1
  O  O89  1  0.437108  0.952358  0.290375  1
  O  O90  1  0.471743  0.885855  0.842519  1
  O  O91  1  0.472982  0.819069  0.569815  1
  O  O92  1  0.527018  0.319069  0.930185  1
  O  O93  1  0.471743  0.614145  0.342519  1
  O  O94  1  0.528257  0.385855  0.657481  1
  O  O95  1  0.472982  0.680931  0.069815  1
  O  O96  1  0.527018  0.180931  0.430185  1
  O  O97  1  0.528257  0.114145  0.157481  1
  O  O98  1  0.562892  0.047642  0.709625  1
  O  O99  1  0.562892  0.452358  0.209625  1
  O  O100  1  0.645249  0.071612  0.966579  1
  O  O101  1  0.631547  0.731597  0.559618  1
  O  O102  1  0.645249  0.428388  0.466579  1
  O  O103  1  0.683062  0.336594  0.738753  1
  O  O104  1  0.631547  0.768403  0.059618  1
  O  O105  1  0.680362  0.082270  0.552815  1
  O  O106  1  0.683062  0.163406  0.238753  1
  O  O107  1  0.754057  0.707439  0.798378  1
  O  O108  1  0.680362  0.417730  0.052815  1
  O  O109  1  0.754057  0.792561  0.298378  1
  O  O110  1  0.802497  0.327914  0.926762  1
  O  O111  1  0.802497  0.172086  0.426762  1
  O  O112  1  0.822911  0.750709  0.572468  1
  O  O113  1  0.831986  0.336753  0.678133  1
  O  O114  1  0.883856  0.003021  0.952354  1
  O  O115  1  0.822911  0.749291  0.072468  1
  O  O116  1  0.831986  0.163247  0.178133  1
  O  O117  1  0.883856  0.496979  0.452354  1
  O  O118  1  0.921117  0.028863  0.632918  1
  O  O119  1  0.977729  0.288306  0.915514  1
  O  O120  1  0.921117  0.471137  0.132918  1
  O  O121  1  0.997690  0.365365  0.666656  1
  O  O122  1  0.977729  0.211694  0.415514  1
  O  O123  1  0.997690  0.134635  0.166656  1
