# generated using pymatgen
data_Li3V3P8O29
_symmetry_space_group_name_H-M   'P 1'
_cell_length_a   9.70754656
_cell_length_b   9.76633775
_cell_length_c   14.27581258
_cell_angle_alpha   90.62896212
_cell_angle_beta   90.08609745
_cell_angle_gamma   59.97568076
_symmetry_Int_Tables_number   1
_chemical_formula_structural   Li3V3P8O29
_chemical_formula_sum   'Li6 V6 P16 O58'
_cell_volume   1171.75126803
_cell_formula_units_Z   2
loop_
 _symmetry_equiv_pos_site_id
 _symmetry_equiv_pos_as_xyz
  1  'x, y, z'
loop_
 _atom_site_type_symbol
 _atom_site_label
 _atom_site_symmetry_multiplicity
 _atom_site_fract_x
 _atom_site_fract_y
 _atom_site_fract_z
 _atom_site_occupancy
  Li  Li0  1  0.767264  0.910633  0.552719  1
  Li  Li1  1  0.764409  0.331272  0.060648  1
  Li  Li2  1  0.320496  0.771232  0.550341  1
  Li  Li3  1  0.230494  0.676390  0.949142  1
  Li  Li4  1  0.000904  0.996525  0.014493  1
  Li  Li5  1  0.975738  0.053469  0.494289  1
  V  V6  1  0.564446  0.433255  0.254982  1
  V  V7  1  0.438913  0.561474  0.746016  1
  V  V8  1  0.562033  0.998943  0.758751  1
  V  V9  1  0.436794  0.999574  0.242786  1
  V  V10  1  0.998235  0.563252  0.251297  1
  V  V11  1  0.000851  0.434735  0.745983  1
  P  P12  1  0.919112  0.775021  0.841458  1
  P  P13  1  0.775828  0.914180  0.340744  1
  P  P14  1  0.918429  0.304699  0.343718  1
  P  P15  1  0.668512  0.660118  0.131901  1
  P  P16  1  0.665696  0.670278  0.633180  1
  P  P17  1  0.776273  0.314618  0.841836  1
  P  P18  1  0.696527  0.213487  0.661574  1
  P  P19  1  0.300999  0.914665  0.845351  1
  P  P20  1  0.702387  0.082998  0.158761  1
  P  P21  1  0.310494  0.782255  0.338512  1
  P  P22  1  0.222502  0.685494  0.160752  1
  P  P23  1  0.331986  0.330799  0.366282  1
  P  P24  1  0.329674  0.339679  0.865203  1
  P  P25  1  0.083278  0.692662  0.656386  1
  P  P26  1  0.223565  0.081685  0.661748  1
  P  P27  1  0.083438  0.219228  0.159386  1
  O  O28  1  0.993751  0.788243  0.574524  1
  O  O29  1  0.914599  0.740332  0.330834  1
  O  O30  1  0.807671  0.005578  0.077051  1
  O  O31  1  0.742924  0.912373  0.834513  1
  O  O32  1  0.920792  0.616726  0.826937  1
  O  O33  1  0.813233  0.660472  0.181560  1
  O  O34  1  0.923049  0.459689  0.332071  1
  O  O35  1  0.994512  0.202774  0.078821  1
  O  O36  1  0.916379  0.345240  0.827785  1
  O  O37  1  0.669318  0.815569  0.678621  1
  O  O38  1  0.617543  0.916273  0.323512  1
  O  O39  1  0.811357  0.522040  0.677155  1
  O  O40  1  0.674867  0.654430  0.028145  1
  O  O41  1  0.659454  0.676879  0.529474  1
  O  O42  1  0.668782  0.510566  0.171922  1
  O  O43  1  0.460646  0.918216  0.831754  1
  O  O44  1  0.520145  0.810963  0.174874  1
  O  O45  1  0.741073  0.346717  0.330866  1
  O  O46  1  0.791847  0.196388  0.758206  1
  O  O47  1  0.794266  0.198108  0.578902  1
  O  O48  1  0.775772  0.247024  0.934014  1
  O  O49  1  0.618314  0.473018  0.821136  1
  O  O50  1  0.511358  0.673074  0.673493  1
  O  O51  1  0.656985  0.261094  0.164406  1
  O  O52  1  0.468892  0.621841  0.324918  1
  O  O53  1  0.344156  0.919956  0.327556  1
  O  O54  1  0.797561  0.008443  0.255815  1
  O  O55  1  0.785719  0.984886  0.431797  1
  O  O56  1  0.214306  0.995048  0.578033  1
  O  O57  1  0.655849  0.078524  0.666189  1
  O  O58  1  0.538364  0.377487  0.672966  1
  O  O59  1  0.341570  0.738348  0.833774  1
  O  O60  1  0.480980  0.335587  0.322617  1
  O  O61  1  0.382467  0.531376  0.174839  1
  O  O62  1  0.210942  0.769072  0.071717  1
  O  O63  1  0.229385  0.790737  0.428519  1
  O  O64  1  0.200200  0.798119  0.250049  1
  O  O65  1  0.259122  0.657728  0.658083  1
  O  O66  1  0.481333  0.188244  0.824027  1
  O  O67  1  0.547184  0.073871  0.166903  1
  O  O68  1  0.329780  0.487722  0.819686  1
  O  O69  1  0.326685  0.354218  0.968458  1
  O  O70  1  0.335917  0.329315  0.469589  1
  O  O71  1  0.186117  0.476786  0.321098  1
  O  O72  1  0.383756  0.078192  0.677263  1
  O  O73  1  0.338784  0.183996  0.316350  1
  O  O74  1  0.084547  0.649804  0.169361  1
  O  O75  1  0.004623  0.795935  0.750209  1
  O  O76  1  0.003692  0.788101  0.924736  1
  O  O77  1  0.083268  0.534798  0.670045  1
  O  O78  1  0.187061  0.334664  0.818383  1
  O  O79  1  0.076807  0.379977  0.170447  1
  O  O80  1  0.260685  0.085195  0.161886  1
  O  O81  1  0.208134  0.987329  0.931411  1
  O  O82  1  0.198220  0.001941  0.753850  1
  O  O83  1  0.087633  0.257116  0.665844  1
  O  O84  1  0.989927  0.212290  0.428849  1
  O  O85  1  0.007341  0.195144  0.253710  1
