# generated using pymatgen
data_Rb2CaH8(N3O)4
_symmetry_space_group_name_H-M   'P 1'
_cell_length_a   11.30211105
_cell_length_b   11.30211105
_cell_length_c   6.32673694
_cell_angle_alpha   90.00000000
_cell_angle_beta   90.00000000
_cell_angle_gamma   120.41540237
_symmetry_Int_Tables_number   1
_chemical_formula_structural   Rb2CaH8(N3O)4
_chemical_formula_sum   'Rb4 Ca2 H16 N24 O8'
_cell_volume   696.94159938
_cell_formula_units_Z   2
loop_
 _symmetry_equiv_pos_site_id
 _symmetry_equiv_pos_as_xyz
  1  'x, y, z'
loop_
 _atom_site_type_symbol
 _atom_site_label
 _atom_site_symmetry_multiplicity
 _atom_site_fract_x
 _atom_site_fract_y
 _atom_site_fract_z
 _atom_site_occupancy
  Rb  Rb0  1  0.081446  0.418554  0.750000  1
  Rb  Rb1  1  0.918554  0.581446  0.250000  1
  Rb  Rb2  1  0.581446  0.918554  0.250000  1
  Rb  Rb3  1  0.418554  0.081446  0.750000  1
  Ca  Ca4  1  0.750000  0.750000  0.750000  1
  Ca  Ca5  1  0.250000  0.250000  0.250000  1
  H  H6  1  0.626105  0.468112  0.602260  1
  H  H7  1  0.968112  0.126105  0.102260  1
  H  H8  1  0.531888  0.373895  0.102260  1
  H  H9  1  0.873895  0.031888  0.602260  1
  H  H10  1  0.373895  0.531888  0.397740  1
  H  H11  1  0.031888  0.873895  0.897740  1
  H  H12  1  0.468112  0.626105  0.897740  1
  H  H13  1  0.126105  0.968112  0.397740  1
  H  H14  1  0.748331  0.477469  0.734321  1
  H  H15  1  0.977469  0.248331  0.234321  1
  H  H16  1  0.522531  0.251669  0.234321  1
  H  H17  1  0.751669  0.022531  0.734321  1
  H  H18  1  0.251669  0.522531  0.265679  1
  H  H19  1  0.022531  0.751669  0.765679  1
  H  H20  1  0.477469  0.748331  0.765679  1
  H  H21  1  0.248331  0.977469  0.265679  1
  N  N22  1  0.794191  0.369838  0.899599  1
  N  N23  1  0.869838  0.294191  0.399599  1
  N  N24  1  0.630162  0.205809  0.399599  1
  N  N25  1  0.705809  0.130162  0.899599  1
  N  N26  1  0.205809  0.630162  0.100401  1
  N  N27  1  0.130162  0.705809  0.600401  1
  N  N28  1  0.369838  0.794191  0.600401  1
  N  N29  1  0.294191  0.869838  0.100401  1
  N  N30  1  0.750000  0.250000  0.898475  1
  N  N31  1  0.750000  0.250000  0.398475  1
  N  N32  1  0.250000  0.750000  0.101525  1
  N  N33  1  0.250000  0.750000  0.601525  1
  N  N34  1  0.347126  0.417697  0.902169  1
  N  N35  1  0.917697  0.847126  0.402169  1
  N  N36  1  0.582303  0.652874  0.402169  1
  N  N37  1  0.152874  0.082303  0.902169  1
  N  N38  1  0.652874  0.582303  0.097831  1
  N  N39  1  0.082303  0.152874  0.597831  1
  N  N40  1  0.417697  0.347126  0.597831  1
  N  N41  1  0.847126  0.917697  0.097831  1
  N  N42  1  0.882260  0.882260  0.250000  1
  N  N43  1  0.382260  0.382260  0.750000  1
  N  N44  1  0.117740  0.117740  0.750000  1
  N  N45  1  0.617740  0.617740  0.250000  1
  O  O46  1  0.722673  0.531860  0.641270  1
  O  O47  1  0.031860  0.222673  0.141270  1
  O  O48  1  0.468140  0.277327  0.141270  1
  O  O49  1  0.777327  0.968140  0.641270  1
  O  O50  1  0.277327  0.468140  0.358730  1
  O  O51  1  0.968140  0.777327  0.858730  1
  O  O52  1  0.531860  0.722673  0.858730  1
  O  O53  1  0.222673  0.031860  0.358730  1
