# generated using pymatgen
data_Li2Zr7Fe(PO4)12
_symmetry_space_group_name_H-M   'P 1'
_cell_length_a   8.98493075
_cell_length_b   9.07593968
_cell_length_c   12.54641669
_cell_angle_alpha   90.11687034
_cell_angle_beta   89.98241276
_cell_angle_gamma   89.95536766
_symmetry_Int_Tables_number   1
_chemical_formula_structural   Li2Zr7Fe(PO4)12
_chemical_formula_sum   'Li2 Zr7 Fe1 P12 O48'
_cell_volume   1023.11625985
_cell_formula_units_Z   1
loop_
 _symmetry_equiv_pos_site_id
 _symmetry_equiv_pos_as_xyz
  1  'x, y, z'
loop_
 _atom_site_type_symbol
 _atom_site_label
 _atom_site_symmetry_multiplicity
 _atom_site_fract_x
 _atom_site_fract_y
 _atom_site_fract_z
 _atom_site_occupancy
  Li  Li0  1  0.784002  0.222932  0.180762  1
  Li  Li1  1  0.780481  0.279212  0.811945  1
  Zr  Zr2  1  0.251665  0.532932  0.379464  1
  Zr  Zr3  1  0.252174  0.962501  0.623176  1
  Zr  Zr4  1  0.251805  0.035402  0.118410  1
  Zr  Zr5  1  0.251257  0.465238  0.879904  1
  Zr  Zr6  1  0.747538  0.546756  0.116838  1
  Zr  Zr7  1  0.747185  0.954186  0.877705  1
  Zr  Zr8  1  0.748278  0.027654  0.387120  1
  Fe  Fe9  1  0.748830  0.464001  0.614189  1
  P  P10  1  0.032263  0.249371  0.506143  1
  P  P11  1  0.103383  0.391049  0.142784  1
  P  P12  1  0.103595  0.109484  0.855889  1
  P  P13  1  0.403799  0.606712  0.642176  1
  P  P14  1  0.387808  0.893920  0.356886  1
  P  P15  1  0.458053  0.750431  0.998743  1
  P  P16  1  0.542677  0.250603  0.000238  1
  P  P17  1  0.605134  0.118259  0.645662  1
  P  P18  1  0.616633  0.393402  0.355355  1
  P  P19  1  0.887589  0.598847  0.849111  1
  P  P20  1  0.892490  0.898715  0.142571  1
  P  P21  1  0.963644  0.743060  0.506108  1
  O  O22  1  0.060745  0.647888  0.431606  1
  O  O23  1  0.063893  0.838558  0.577322  1
  O  O24  1  0.061530  0.910952  0.151956  1
  O  O25  1  0.057670  0.582729  0.840443  1
  O  O26  1  0.130397  0.148673  0.574466  1
  O  O27  1  0.130840  0.351125  0.438439  1
  O  O28  1  0.155181  0.437947  0.031375  1
  O  O29  1  0.154978  0.064615  0.967720  1
  O  O30  1  0.151443  0.231708  0.166611  1
  O  O31  1  0.156179  0.267059  0.830847  1
  O  O32  1  0.170784  0.495115  0.227491  1
  O  O33  1  0.169153  0.999023  0.774730  1
  O  O34  1  0.321034  0.999004  0.273900  1
  O  O35  1  0.336466  0.503830  0.726846  1
  O  O36  1  0.362401  0.768921  0.664510  1
  O  O37  1  0.344744  0.732463  0.333669  1
  O  O38  1  0.345103  0.562633  0.531732  1
  O  O39  1  0.331434  0.937436  0.468089  1
  O  O40  1  0.361120  0.844350  0.072445  1
  O  O41  1  0.357450  0.658003  0.926391  1
  O  O42  1  0.435347  0.100576  0.652542  1
  O  O43  1  0.444970  0.404760  0.351009  1
  O  O44  1  0.445854  0.145160  0.066233  1
  O  O45  1  0.444751  0.356232  0.935094  1
  O  O46  1  0.557030  0.649773  0.068187  1
  O  O47  1  0.557888  0.849317  0.928310  1
  O  O48  1  0.574988  0.590736  0.646124  1
  O  O49  1  0.559267  0.908922  0.351745  1
  O  O50  1  0.645858  0.335666  0.079095  1
  O  O51  1  0.647557  0.165919  0.922533  1
  O  O52  1  0.657410  0.078395  0.531888  1
  O  O53  1  0.671810  0.427378  0.467872  1
  O  O54  1  0.667637  0.235285  0.321212  1
  O  O55  1  0.655614  0.276146  0.675208  1
  O  O56  1  0.681044  0.502185  0.272580  1
  O  O57  1  0.679331  0.011410  0.725743  1
  O  O58  1  0.820660  0.010381  0.222926  1
  O  O59  1  0.816021  0.486706  0.770810  1
  O  O60  1  0.844400  0.739827  0.168840  1
  O  O61  1  0.842555  0.759818  0.824489  1
  O  O62  1  0.832983  0.559753  0.962528  1
  O  O63  1  0.838443  0.938783  0.029730  1
  O  O64  1  0.865407  0.642767  0.575160  1
  O  O65  1  0.862428  0.843369  0.437494  1
  O  O66  1  0.930746  0.105990  0.847396  1
  O  O67  1  0.930399  0.397535  0.150371  1
  O  O68  1  0.934565  0.154788  0.432117  1
  O  O69  1  0.935042  0.345727  0.580995  1
