# generated using pymatgen
data_Li2Ti4VO8
_symmetry_space_group_name_H-M   'P 1'
_cell_length_a   5.86867523
_cell_length_b   5.94045639
_cell_length_c   5.93547465
_cell_angle_alpha   89.23287972
_cell_angle_beta   60.37158890
_cell_angle_gamma   119.60107967
_symmetry_Int_Tables_number   1
_chemical_formula_structural   Li2Ti4VO8
_chemical_formula_sum   'Li2 Ti4 V1 O8'
_cell_volume   147.03153887
_cell_formula_units_Z   1
loop_
 _symmetry_equiv_pos_site_id
 _symmetry_equiv_pos_as_xyz
  1  'x, y, z'
loop_
 _atom_site_type_symbol
 _atom_site_label
 _atom_site_symmetry_multiplicity
 _atom_site_fract_x
 _atom_site_fract_y
 _atom_site_fract_z
 _atom_site_occupancy
  Li  Li0  1  0.000000  0.000000  0.500000  1
  Li  Li1  1  0.500000  0.000000  0.500000  1
  Ti  Ti2  1  0.000000  0.000000  0.000000  1
  Ti  Ti3  1  0.000000  0.500000  0.000000  1
  Ti  Ti4  1  0.500000  0.500000  0.000000  1
  Ti  Ti5  1  0.000000  0.500000  0.500000  1
  V  V6  1  0.500000  0.000000  0.000000  1
  O  O7  1  0.998735  0.250995  0.751704  1
  O  O8  1  0.521603  0.265887  0.222681  1
  O  O9  1  0.994397  0.244011  0.255217  1
  O  O10  1  0.500556  0.250995  0.751704  1
  O  O11  1  0.499444  0.749005  0.248296  1
  O  O12  1  0.005603  0.755989  0.744783  1
  O  O13  1  0.478397  0.734113  0.777319  1
  O  O14  1  0.001265  0.749005  0.248296  1
