# generated using pymatgen
data_CoPbO3
_symmetry_space_group_name_H-M   'P 1'
_cell_length_a   5.36763451
_cell_length_b   10.81261529
_cell_length_c   7.64672575
_cell_angle_alpha   89.99723820
_cell_angle_beta   90.00746492
_cell_angle_gamma   89.98099280
_symmetry_Int_Tables_number   1
_chemical_formula_structural   CoPbO3
_chemical_formula_sum   'Co8 Pb8 O24'
_cell_volume   443.80191778
_cell_formula_units_Z   8
loop_
 _symmetry_equiv_pos_site_id
 _symmetry_equiv_pos_as_xyz
  1  'x, y, z'
loop_
 _atom_site_type_symbol
 _atom_site_label
 _atom_site_symmetry_multiplicity
 _atom_site_fract_x
 _atom_site_fract_y
 _atom_site_fract_z
 _atom_site_occupancy
  Co  Co0  1  0.258914  0.124990  0.255974  1
  Co  Co1  1  0.258883  0.124984  0.755968  1
  Co  Co2  1  0.241122  0.625022  0.756055  1
  Co  Co3  1  0.241109  0.625006  0.256007  1
  Co  Co4  1  0.758975  0.374988  0.756031  1
  Co  Co5  1  0.758852  0.374987  0.256077  1
  Co  Co6  1  0.741037  0.874986  0.756001  1
  Co  Co7  1  0.741126  0.875011  0.255943  1
  Pb  Pb8  1  0.250913  0.381150  0.005934  1
  Pb  Pb9  1  0.274829  0.368398  0.506002  1
  Pb  Pb10  1  0.225434  0.868401  0.505915  1
  Pb  Pb11  1  0.248957  0.881174  0.005960  1
  Pb  Pb12  1  0.751103  0.119005  0.005708  1
  Pb  Pb13  1  0.774563  0.131493  0.505976  1
  Pb  Pb14  1  0.748687  0.618835  0.006084  1
  Pb  Pb15  1  0.725854  0.631512  0.506291  1
  O  O16  1  0.000086  0.000050  0.206211  1
  O  O17  1  0.999818  0.000085  0.805570  1
  O  O18  1  0.999881  0.500023  0.201366  1
  O  O19  1  0.999985  0.500031  0.810499  1
  O  O20  1  0.018426  0.255581  0.307512  1
  O  O21  1  0.018796  0.255746  0.704532  1
  O  O22  1  0.236507  0.668565  0.006054  1
  O  O23  1  0.255601  0.581770  0.505984  1
  O  O24  1  0.244510  0.081753  0.505957  1
  O  O25  1  0.263355  0.168552  0.006085  1
  O  O26  1  0.481675  0.755566  0.307406  1
  O  O27  1  0.481302  0.755712  0.704681  1
  O  O28  1  0.500163  0.000074  0.201170  1
  O  O29  1  0.499821  0.999903  0.810519  1
  O  O30  1  0.499766  0.499938  0.206142  1
  O  O31  1  0.499983  0.500015  0.805823  1
  O  O32  1  0.518802  0.244190  0.704896  1
  O  O33  1  0.518279  0.244455  0.307395  1
  O  O34  1  0.755587  0.918172  0.505945  1
  O  O35  1  0.736697  0.831436  0.006042  1
  O  O36  1  0.743962  0.418083  0.506119  1
  O  O37  1  0.763634  0.331565  0.006072  1
  O  O38  1  0.981471  0.744383  0.704710  1
  O  O39  1  0.981533  0.744409  0.307388  1
