# generated using pymatgen
data_AsAuO3
_symmetry_space_group_name_H-M   'P 1'
_cell_length_a   8.89842518
_cell_length_b   8.89842518
_cell_length_c   5.17151280
_cell_angle_alpha   66.95562384
_cell_angle_beta   113.04437616
_cell_angle_gamma   104.83006704
_symmetry_Int_Tables_number   1
_chemical_formula_structural   AsAuO3
_chemical_formula_sum   'As4 Au4 O12'
_cell_volume   344.18403414
_cell_formula_units_Z   4
loop_
 _symmetry_equiv_pos_site_id
 _symmetry_equiv_pos_as_xyz
  1  'x, y, z'
loop_
 _atom_site_type_symbol
 _atom_site_label
 _atom_site_symmetry_multiplicity
 _atom_site_fract_x
 _atom_site_fract_y
 _atom_site_fract_z
 _atom_site_occupancy
  As  As0  1  0.202916  0.626852  0.737978  1
  As  As1  1  0.373148  0.797084  0.237978  1
  As  As2  1  0.626852  0.202916  0.762022  1
  As  As3  1  0.797084  0.373148  0.262022  1
  Au  Au4  1  0.085571  0.085571  0.750000  1
  Au  Au5  1  0.726135  0.726135  0.750000  1
  Au  Au6  1  0.273865  0.273865  0.250000  1
  Au  Au7  1  0.914429  0.914429  0.250000  1
  O  O8  1  0.075623  0.767948  0.618795  1
  O  O9  1  0.232052  0.924377  0.118795  1
  O  O10  1  0.121865  0.429862  0.880491  1
  O  O11  1  0.307368  0.617917  0.510109  1
  O  O12  1  0.570138  0.878135  0.380491  1
  O  O13  1  0.382083  0.692632  0.010109  1
  O  O14  1  0.617917  0.307368  0.989891  1
  O  O15  1  0.429862  0.121865  0.619509  1
  O  O16  1  0.692632  0.382083  0.489891  1
  O  O17  1  0.878135  0.570138  0.119509  1
  O  O18  1  0.767948  0.075623  0.881205  1
  O  O19  1  0.924377  0.232052  0.381205  1
