# generated using pymatgen
data_Li32Ti3Cr13O48
_symmetry_space_group_name_H-M   'P 1'
_cell_length_a   5.05917078
_cell_length_b   8.72229259
_cell_length_c   19.52519631
_cell_angle_alpha   98.10298365
_cell_angle_beta   95.08605593
_cell_angle_gamma   89.73535310
_symmetry_Int_Tables_number   1
_chemical_formula_structural   Li32Ti3Cr13O48
_chemical_formula_sum   'Li32 Ti3 Cr13 O48'
_cell_volume   849.61185333
_cell_formula_units_Z   1
loop_
 _symmetry_equiv_pos_site_id
 _symmetry_equiv_pos_as_xyz
  1  'x, y, z'
loop_
 _atom_site_type_symbol
 _atom_site_label
 _atom_site_symmetry_multiplicity
 _atom_site_fract_x
 _atom_site_fract_y
 _atom_site_fract_z
 _atom_site_occupancy
  Li  Li0  1  0.993725  0.169354  0.249528  1
  Li  Li1  1  0.877002  0.375072  0.374393  1
  Li  Li2  1  0.748444  0.251124  0.000756  1
  Li  Li3  1  0.743365  0.920586  0.000275  1
  Li  Li4  1  0.993500  0.170222  0.749979  1
  Li  Li5  1  0.757351  0.578941  0.500572  1
  Li  Li6  1  0.876542  0.374926  0.874613  1
  Li  Li7  1  0.743514  0.250246  0.500748  1
  Li  Li8  1  0.744925  0.921394  0.500623  1
  Li  Li9  1  0.624600  0.126527  0.125004  1
  Li  Li10  1  0.755569  0.580083  0.000399  1
  Li  Li11  1  0.506331  0.330981  0.250291  1
  Li  Li12  1  0.624444  0.125556  0.625019  1
  Li  Li13  1  0.495117  0.001476  0.250343  1
  Li  Li14  1  0.494991  0.669616  0.249448  1
  Li  Li15  1  0.510227  0.333707  0.750886  1
  Li  Li16  1  0.375757  0.875757  0.375063  1
  Li  Li17  1  0.499846  0.000084  0.750082  1
  Li  Li18  1  0.256049  0.748281  0.999619  1
  Li  Li19  1  0.489654  0.666318  0.749397  1
  Li  Li20  1  0.242165  0.421101  0.000270  1
  Li  Li21  1  0.375666  0.874404  0.875107  1
  Li  Li22  1  0.262210  0.080823  0.499543  1
  Li  Li23  1  0.248366  0.750698  0.499291  1
  Li  Li24  1  0.124702  0.623471  0.124896  1
  Li  Li25  1  0.242137  0.417909  0.499519  1
  Li  Li26  1  0.007498  0.830227  0.250149  1
  Li  Li27  1  0.254697  0.079716  0.999954  1
  Li  Li28  1  0.123600  0.625152  0.625366  1
  Li  Li29  1  0.001593  0.498440  0.249572  1
  Li  Li30  1  0.006755  0.829882  0.750186  1
  Li  Li31  1  0.000375  0.499987  0.750121  1
  Ti  Ti32  1  0.877843  0.039377  0.376475  1
  Ti  Ti33  1  0.874066  0.712269  0.876599  1
  Ti  Ti34  1  0.126084  0.287815  0.623567  1
  Cr  Cr35  1  0.871451  0.702780  0.374409  1
  Cr  Cr36  1  0.873680  0.047200  0.875180  1
  Cr  Cr37  1  0.628844  0.797399  0.125819  1
  Cr  Cr38  1  0.620050  0.461037  0.124872  1
  Cr  Cr39  1  0.629406  0.797364  0.626116  1
  Cr  Cr40  1  0.620308  0.461106  0.625042  1
  Cr  Cr41  1  0.371877  0.547286  0.373990  1
  Cr  Cr42  1  0.377913  0.211505  0.374858  1
  Cr  Cr43  1  0.379778  0.538869  0.875128  1
  Cr  Cr44  1  0.370579  0.202647  0.874100  1
  Cr  Cr45  1  0.125433  0.952395  0.124879  1
  Cr  Cr46  1  0.126187  0.288237  0.124495  1
  Cr  Cr47  1  0.126190  0.952795  0.624924  1
  O  O48  1  0.965165  0.104707  0.069368  1
  O  O49  1  0.935051  0.789078  0.068844  1
  O  O50  1  0.921757  0.427692  0.067599  1
  O  O51  1  0.963948  0.103132  0.568356  1
  O  O52  1  0.815972  0.962212  0.181497  1
  O  O53  1  0.828096  0.323877  0.181786  1
  O  O54  1  0.935885  0.787777  0.569006  1
  O  O55  1  0.923729  0.429263  0.567551  1
  O  O56  1  0.785735  0.646366  0.180868  1
  O  O57  1  0.714596  0.853821  0.318597  1
  O  O58  1  0.816245  0.962166  0.681273  1
  O  O59  1  0.820824  0.324521  0.682330  1
  O  O60  1  0.684856  0.537924  0.318792  1
  O  O61  1  0.669103  0.178690  0.317213  1
  O  O62  1  0.786973  0.647571  0.681410  1
  O  O63  1  0.714395  0.859671  0.818705  1
  O  O64  1  0.467021  0.607076  0.069674  1
  O  O65  1  0.565873  0.709265  0.431405  1
  O  O66  1  0.575814  0.070927  0.433433  1
  O  O67  1  0.670939  0.533356  0.818860  1
  O  O68  1  0.683172  0.175092  0.817667  1
  O  O69  1  0.433539  0.923583  0.067767  1
  O  O70  1  0.418556  0.285684  0.068605  1
  O  O71  1  0.532613  0.391427  0.429582  1
  O  O72  1  0.467145  0.605623  0.569761  1
  O  O73  1  0.574706  0.716782  0.932642  1
  O  O74  1  0.566791  0.077726  0.932652  1
  O  O75  1  0.317714  0.825525  0.182677  1
  O  O76  1  0.330757  0.463839  0.180849  1
  O  O77  1  0.433248  0.922265  0.567589  1
  O  O78  1  0.425851  0.283424  0.567653  1
  O  O79  1  0.532305  0.394224  0.930159  1
  O  O80  1  0.282889  0.141590  0.180338  1
  O  O81  1  0.212876  0.361792  0.318582  1
  O  O82  1  0.316443  0.824906  0.682379  1
  O  O83  1  0.329150  0.466693  0.681228  1
  O  O84  1  0.182160  0.675062  0.317190  1
  O  O85  1  0.180599  0.037059  0.318551  1
  O  O86  1  0.285694  0.140164  0.681355  1
  O  O87  1  0.213022  0.352500  0.818578  1
  O  O88  1  0.065829  0.575069  0.432207  1
  O  O89  1  0.075374  0.216474  0.430851  1
  O  O90  1  0.179524  0.675531  0.817776  1
  O  O91  1  0.183627  0.037755  0.818737  1
  O  O92  1  0.037523  0.889615  0.431525  1
  O  O93  1  0.076077  0.570613  0.932440  1
  O  O94  1  0.063624  0.211950  0.930929  1
  O  O95  1  0.036808  0.896804  0.931703  1
