# generated using pymatgen
data_Li2CrP2O7
_symmetry_space_group_name_H-M   'P 1'
_cell_length_a   5.01498782
_cell_length_b   7.24648040
_cell_length_c   8.58519601
_cell_angle_alpha   90.00258212
_cell_angle_beta   90.01129270
_cell_angle_gamma   69.67399385
_symmetry_Int_Tables_number   1
_chemical_formula_structural   Li2CrP2O7
_chemical_formula_sum   'Li4 Cr2 P4 O14'
_cell_volume   292.56721272
_cell_formula_units_Z   2
loop_
 _symmetry_equiv_pos_site_id
 _symmetry_equiv_pos_as_xyz
  1  'x, y, z'
loop_
 _atom_site_type_symbol
 _atom_site_label
 _atom_site_symmetry_multiplicity
 _atom_site_fract_x
 _atom_site_fract_y
 _atom_site_fract_z
 _atom_site_occupancy
  Li  Li0  1  0.286867  0.899907  0.830378  1
  Li  Li1  1  0.825392  0.654798  0.650998  1
  Li  Li2  1  0.174638  0.345167  0.151038  1
  Li  Li3  1  0.713112  0.100115  0.330407  1
  Cr  Cr4  1  0.797794  0.718063  0.007328  1
  Cr  Cr5  1  0.202118  0.281988  0.507338  1
  P  P6  1  0.209606  0.912352  0.205281  1
  P  P7  1  0.606047  0.518446  0.320643  1
  P  P8  1  0.393881  0.481541  0.820420  1
  P  P9  1  0.790329  0.087723  0.705161  1
  O  O10  1  0.926407  0.879774  0.180940  1
  O  O11  1  0.850486  0.891360  0.789163  1
  O  O12  1  0.379535  0.901358  0.054530  1
  O  O13  1  0.397980  0.748334  0.328879  1
  O  O14  1  0.578558  0.613542  0.821790  1
  O  O15  1  0.774305  0.488817  0.170238  1
  O  O16  1  0.790069  0.492507  0.467875  1
  O  O17  1  0.209871  0.507496  0.967958  1
  O  O18  1  0.225853  0.511185  0.670383  1
  O  O19  1  0.421517  0.386469  0.321761  1
  O  O20  1  0.602005  0.251673  0.828908  1
  O  O21  1  0.620530  0.098625  0.554609  1
  O  O22  1  0.149529  0.108559  0.289105  1
  O  O23  1  0.073572  0.120203  0.680976  1
