# generated using pymatgen
data_Li4CrP6(H4O11)2
_symmetry_space_group_name_H-M   'P 1'
_cell_length_a   7.56875296
_cell_length_b   8.47206931
_cell_length_c   7.04705889
_cell_angle_alpha   102.64863654
_cell_angle_beta   95.88950164
_cell_angle_gamma   85.45316456
_symmetry_Int_Tables_number   1
_chemical_formula_structural   Li4CrP6(H4O11)2
_chemical_formula_sum   'Li4 Cr1 P6 H8 O22'
_cell_volume   437.83291449
_cell_formula_units_Z   1
loop_
 _symmetry_equiv_pos_site_id
 _symmetry_equiv_pos_as_xyz
  1  'x, y, z'
loop_
 _atom_site_type_symbol
 _atom_site_label
 _atom_site_symmetry_multiplicity
 _atom_site_fract_x
 _atom_site_fract_y
 _atom_site_fract_z
 _atom_site_occupancy
  Li  Li0  1  0.349655  0.581731  0.928944  1
  Li  Li1  1  0.437837  0.233185  0.675214  1
  Li  Li2  1  0.562163  0.766815  0.324786  1
  Li  Li3  1  0.650345  0.418269  0.071056  1
  Cr  Cr4  1  0.000000  0.000000  0.000000  1
  P  P5  1  0.021571  0.305009  0.780048  1
  P  P6  1  0.218739  0.831551  0.554189  1
  P  P7  1  0.291872  0.505087  0.339439  1
  P  P8  1  0.708128  0.494913  0.660561  1
  P  P9  1  0.781261  0.168449  0.445811  1
  P  P10  1  0.978429  0.694991  0.219952  1
  H  H11  1  0.237366  0.188153  0.256412  1
  H  H12  1  0.268115  0.004838  0.272061  1
  H  H13  1  0.390421  0.880922  0.968760  1
  H  H14  1  0.412593  0.186020  0.031052  1
  H  H15  1  0.587407  0.813980  0.968948  1
  H  H16  1  0.609579  0.119078  0.031240  1
  H  H17  1  0.731885  0.995162  0.727939  1
  H  H18  1  0.762634  0.811847  0.743588  1
  O  O19  1  0.022920  0.810748  0.434582  1
  O  O20  1  0.090010  0.526857  0.242054  1
  O  O21  1  0.214473  0.339491  0.804112  1
  O  O22  1  0.057847  0.763404  0.069520  1
  O  O23  1  0.194026  0.904700  0.762705  1
  O  O24  1  0.225999  0.074717  0.176620  1
  O  O25  1  0.287402  0.641657  0.540876  1
  O  O26  1  0.316036  0.344646  0.395167  1
  O  O27  1  0.341478  0.906394  0.447665  1
  O  O28  1  0.524931  0.196548  0.978836  1
  O  O29  1  0.419314  0.548491  0.208298  1
  O  O30  1  0.580685  0.451509  0.791702  1
  O  O31  1  0.475069  0.803452  0.021164  1
  O  O32  1  0.658522  0.093606  0.552335  1
  O  O33  1  0.683964  0.655354  0.604833  1
  O  O34  1  0.712598  0.358343  0.459124  1
  O  O35  1  0.774001  0.925283  0.823380  1
  O  O36  1  0.805974  0.095300  0.237295  1
  O  O37  1  0.942153  0.236596  0.930480  1
  O  O38  1  0.785527  0.660509  0.195888  1
  O  O39  1  0.909990  0.473143  0.757946  1
  O  O40  1  0.977080  0.189252  0.565418  1
