# generated using pymatgen
data_Co6O5F7
_symmetry_space_group_name_H-M   'P 1'
_cell_length_a   6.94481430
_cell_length_b   5.53384794
_cell_length_c   5.53384794
_cell_angle_alpha   76.18430448
_cell_angle_beta   74.07379458
_cell_angle_gamma   74.07379458
_symmetry_Int_Tables_number   1
_chemical_formula_structural   Co6O5F7
_chemical_formula_sum   'Co6 O5 F7'
_cell_volume   193.56237072
_cell_formula_units_Z   1
loop_
 _symmetry_equiv_pos_site_id
 _symmetry_equiv_pos_as_xyz
  1  'x, y, z'
loop_
 _atom_site_type_symbol
 _atom_site_label
 _atom_site_symmetry_multiplicity
 _atom_site_fract_x
 _atom_site_fract_y
 _atom_site_fract_z
 _atom_site_occupancy
  Co  Co0  1  0.833333  0.665810  0.667523  1
  Co  Co1  1  0.333333  0.703318  0.630015  1
  Co  Co2  1  0.677650  0.330220  0.341135  1
  Co  Co3  1  0.165649  0.308439  0.323022  1
  Co  Co4  1  0.501017  0.010311  0.024894  1
  Co  Co5  1  0.989017  0.992198  0.003113  1
  O  O6  1  0.637806  0.571507  0.560225  1
  O  O7  1  0.966252  0.218622  0.231388  1
  O  O8  1  0.028860  0.773108  0.761826  1
  O  O9  1  0.700415  0.101945  0.114712  1
  O  O10  1  0.333333  0.986262  0.347071  1
  F  F11  1  0.333333  0.357575  0.975758  1
  F  F12  1  0.653119  0.033382  0.665578  1
  F  F13  1  0.297275  0.908140  0.912443  1
  F  F14  1  0.369392  0.420891  0.425194  1
  F  F15  1  0.655848  0.655480  0.038296  1
  F  F16  1  0.010819  0.295037  0.677853  1
  F  F17  1  0.013547  0.667755  0.299952  1
