# generated using pymatgen
data_Li4Mn2V3O12
_symmetry_space_group_name_H-M   'P 1'
_cell_length_a   9.06058531
_cell_length_b   9.27184570
_cell_length_c   12.55746618
_cell_angle_alpha   90.00000000
_cell_angle_beta   88.69260332
_cell_angle_gamma   90.00000000
_symmetry_Int_Tables_number   1
_chemical_formula_structural   Li4Mn2V3O12
_chemical_formula_sum   'Li16 Mn8 V12 O48'
_cell_volume   1054.65737195
_cell_formula_units_Z   4
loop_
 _symmetry_equiv_pos_site_id
 _symmetry_equiv_pos_as_xyz
  1  'x, y, z'
loop_
 _atom_site_type_symbol
 _atom_site_label
 _atom_site_symmetry_multiplicity
 _atom_site_fract_x
 _atom_site_fract_y
 _atom_site_fract_z
 _atom_site_occupancy
  Li  Li0  1  0.931662  0.080620  0.698913  1
  Li  Li1  1  0.932448  0.515877  0.351061  1
  Li  Li2  1  0.890403  0.671858  0.963675  1
  Li  Li3  1  0.810614  0.775171  0.189018  1
  Li  Li4  1  0.689342  0.275159  0.310983  1
  Li  Li5  1  0.609590  0.171878  0.536304  1
  Li  Li6  1  0.568350  0.580619  0.801060  1
  Li  Li7  1  0.567547  0.015893  0.148936  1
  Li  Li8  1  0.432448  0.984123  0.851061  1
  Li  Li9  1  0.431662  0.419380  0.198913  1
  Li  Li10  1  0.390403  0.828142  0.463675  1
  Li  Li11  1  0.310614  0.724829  0.689018  1
  Li  Li12  1  0.189342  0.224842  0.810983  1
  Li  Li13  1  0.109590  0.328122  0.036304  1
  Li  Li14  1  0.067547  0.484107  0.648936  1
  Li  Li15  1  0.068350  0.919381  0.301060  1
  Mn  Mn16  1  0.746274  0.023953  0.889574  1
  Mn  Mn17  1  0.753673  0.523969  0.610460  1
  Mn  Mn18  1  0.246274  0.476047  0.389574  1
  Mn  Mn19  1  0.253673  0.976031  0.110460  1
  Mn  Mn20  1  0.749884  0.963347  0.382993  1
  Mn  Mn21  1  0.750235  0.463416  0.117097  1
  Mn  Mn22  1  0.249884  0.536653  0.882993  1
  Mn  Mn23  1  0.250235  0.036584  0.617097  1
  V  V24  1  0.949572  0.251804  0.490544  1
  V  V25  1  0.883927  0.374209  0.842922  1
  V  V26  1  0.887704  0.111301  0.138426  1
  V  V27  1  0.616073  0.874219  0.657072  1
  V  V28  1  0.612305  0.611320  0.361575  1
  V  V29  1  0.550440  0.751813  0.009488  1
  V  V30  1  0.449572  0.248196  0.990544  1
  V  V31  1  0.387704  0.388699  0.638426  1
  V  V32  1  0.383927  0.125791  0.342922  1
  V  V33  1  0.112305  0.888680  0.861575  1
  V  V34  1  0.116073  0.625781  0.157072  1
  V  V35  1  0.050440  0.748187  0.509488  1
  O  O36  1  0.952747  0.661052  0.608526  1
  O  O37  1  0.935265  0.867810  0.912313  1
  O  O38  1  0.952557  0.876615  0.441057  1
  O  O39  1  0.935877  0.589908  0.201765  1
  O  O40  1  0.895677  0.372329  0.594308  1
  O  O41  1  0.868606  0.184166  0.841384  1
  O  O42  1  0.875652  0.433526  0.972527  1
  O  O43  1  0.882366  0.978840  0.238445  1
  O  O44  1  0.829910  0.274459  0.192016  1
  O  O45  1  0.784554  0.182310  0.438920  1
  O  O46  1  0.755908  0.476274  0.770514  1
  O  O47  1  0.751988  0.055197  0.047281  1
  O  O48  1  0.744074  0.976255  0.729488  1
  O  O49  1  0.748003  0.555202  0.452718  1
  O  O50  1  0.715451  0.682320  0.061073  1
  O  O51  1  0.670098  0.774492  0.307998  1
  O  O52  1  0.624334  0.933540  0.527461  1
  O  O53  1  0.617626  0.478890  0.261540  1
  O  O54  1  0.631352  0.684203  0.658612  1
  O  O55  1  0.604327  0.872297  0.905671  1
  O  O56  1  0.564725  0.367834  0.587680  1
  O  O57  1  0.547289  0.161021  0.891440  1
  O  O58  1  0.564114  0.089895  0.298239  1
  O  O59  1  0.547472  0.376566  0.058919  1
  O  O60  1  0.452557  0.623385  0.941057  1
  O  O61  1  0.435877  0.910092  0.701765  1
  O  O62  1  0.452747  0.838948  0.108526  1
  O  O63  1  0.435265  0.632190  0.412313  1
  O  O64  1  0.395677  0.127671  0.094308  1
  O  O65  1  0.368606  0.315834  0.341384  1
  O  O66  1  0.382366  0.521160  0.738445  1
  O  O67  1  0.375652  0.066474  0.472527  1
  O  O68  1  0.329910  0.225541  0.692016  1
  O  O69  1  0.284554  0.317690  0.938920  1
  O  O70  1  0.251988  0.444803  0.547281  1
  O  O71  1  0.255908  0.023726  0.270514  1
  O  O72  1  0.248003  0.944798  0.952718  1
  O  O73  1  0.244074  0.523745  0.229488  1
  O  O74  1  0.215451  0.817680  0.561073  1
  O  O75  1  0.170098  0.725508  0.807998  1
  O  O76  1  0.117626  0.021110  0.761540  1
  O  O77  1  0.124334  0.566460  0.027461  1
  O  O78  1  0.131352  0.815797  0.158611  1
  O  O79  1  0.104327  0.627703  0.405671  1
  O  O80  1  0.064114  0.410105  0.798239  1
  O  O81  1  0.047472  0.123434  0.558919  1
  O  O82  1  0.064725  0.132166  0.087680  1
  O  O83  1  0.047289  0.338979  0.391440  1
