# generated using pymatgen
data_Li2MnOF3
_symmetry_space_group_name_H-M   'P 1'
_cell_length_a   2.87272832
_cell_length_b   9.91921784
_cell_length_c   5.09106902
_cell_angle_alpha   90.00000000
_cell_angle_beta   89.95944597
_cell_angle_gamma   90.00000000
_symmetry_Int_Tables_number   1
_chemical_formula_structural   Li2MnOF3
_chemical_formula_sum   'Li4 Mn2 O2 F6'
_cell_volume   145.07108494
_cell_formula_units_Z   2
loop_
 _symmetry_equiv_pos_site_id
 _symmetry_equiv_pos_as_xyz
  1  'x, y, z'
loop_
 _atom_site_type_symbol
 _atom_site_label
 _atom_site_symmetry_multiplicity
 _atom_site_fract_x
 _atom_site_fract_y
 _atom_site_fract_z
 _atom_site_occupancy
  Li  Li0  1  0.504856  0.311940  0.953322  1
  Li  Li1  1  0.495144  0.811940  0.546678  1
  Li  Li2  1  0.504703  0.190235  0.464729  1
  Li  Li3  1  0.495297  0.690235  0.035271  1
  Mn  Mn4  1  0.002554  0.506295  0.538517  1
  Mn  Mn5  1  0.997446  0.006295  0.961483  1
  O  O6  1  0.501870  0.542915  0.765180  1
  O  O7  1  0.498130  0.042915  0.734820  1
  F  F8  1  0.004884  0.296913  0.674712  1
  F  F9  1  0.999768  0.199867  0.174830  1
  F  F10  1  0.496835  0.951837  0.217051  1
  F  F11  1  0.503165  0.451837  0.282949  1
  F  F12  1  0.995116  0.796913  0.825288  1
  F  F13  1  0.000232  0.699867  0.325170  1
