# generated using pymatgen
data_K5H(CN2)2
_symmetry_space_group_name_H-M   'P 1'
_cell_length_a   9.13228421
_cell_length_b   9.13228421
_cell_length_c   11.10360252
_cell_angle_alpha   90.00000000
_cell_angle_beta   90.00000000
_cell_angle_gamma   90.00000000
_symmetry_Int_Tables_number   1
_chemical_formula_structural   K5H(CN2)2
_chemical_formula_sum   'K20 H4 C8 N16'
_cell_volume   926.02507048
_cell_formula_units_Z   4
loop_
 _symmetry_equiv_pos_site_id
 _symmetry_equiv_pos_as_xyz
  1  'x, y, z'
loop_
 _atom_site_type_symbol
 _atom_site_label
 _atom_site_symmetry_multiplicity
 _atom_site_fract_x
 _atom_site_fract_y
 _atom_site_fract_z
 _atom_site_occupancy
  K  K0  1  0.044714  0.646066  0.101522  1
  K  K1  1  0.044714  0.853934  0.601522  1
  K  K2  1  0.146066  0.544714  0.398478  1
  K  K3  1  0.146066  0.955286  0.898478  1
  K  K4  1  0.250000  0.250000  0.152344  1
  K  K5  1  0.250000  0.250000  0.652344  1
  K  K6  1  0.353934  0.544714  0.898478  1
  K  K7  1  0.353934  0.955286  0.398478  1
  K  K8  1  0.455286  0.646066  0.601522  1
  K  K9  1  0.455286  0.853934  0.101522  1
  K  K10  1  0.544714  0.146066  0.898478  1
  K  K11  1  0.544714  0.353934  0.398478  1
  K  K12  1  0.646066  0.044714  0.601522  1
  K  K13  1  0.646066  0.455286  0.101522  1
  K  K14  1  0.750000  0.750000  0.347656  1
  K  K15  1  0.750000  0.750000  0.847656  1
  K  K16  1  0.853934  0.044714  0.101522  1
  K  K17  1  0.853934  0.455286  0.601522  1
  K  K18  1  0.955286  0.353934  0.898478  1
  K  K19  1  0.955286  0.146066  0.398478  1
  H  H20  1  0.250000  0.250000  0.399582  1
  H  H21  1  0.250000  0.250000  0.899582  1
  H  H22  1  0.750000  0.750000  0.100418  1
  H  H23  1  0.750000  0.750000  0.600418  1
  C  C24  1  0.102931  0.602931  0.750000  1
  C  C25  1  0.102931  0.897069  0.250000  1
  C  C26  1  0.397069  0.602931  0.250000  1
  C  C27  1  0.397069  0.897069  0.750000  1
  C  C28  1  0.602931  0.102931  0.250000  1
  C  C29  1  0.602931  0.397069  0.750000  1
  C  C30  1  0.897069  0.102931  0.750000  1
  C  C31  1  0.897069  0.397069  0.250000  1
  N  N32  1  0.055670  0.849132  0.347529  1
  N  N33  1  0.055670  0.650868  0.847529  1
  N  N34  1  0.150868  0.944330  0.152471  1
  N  N35  1  0.150868  0.555670  0.652471  1
  N  N36  1  0.349132  0.555670  0.152471  1
  N  N37  1  0.349132  0.944330  0.652471  1
  N  N38  1  0.444330  0.650868  0.347529  1
  N  N39  1  0.444330  0.849132  0.847529  1
  N  N40  1  0.555670  0.150868  0.152471  1
  N  N41  1  0.555670  0.349132  0.652471  1
  N  N42  1  0.650868  0.055670  0.347529  1
  N  N43  1  0.650868  0.444330  0.847529  1
  N  N44  1  0.849132  0.444330  0.347529  1
  N  N45  1  0.849132  0.055670  0.847529  1
  N  N46  1  0.944330  0.150868  0.652471  1
  N  N47  1  0.944330  0.349132  0.152471  1
