# generated using pymatgen
data_FeB18H32(C4S)2
_symmetry_space_group_name_H-M   'P 1'
_cell_length_a   13.42080863
_cell_length_b   10.69944889
_cell_length_c   8.23932602
_cell_angle_alpha   90.00000000
_cell_angle_beta   90.00000000
_cell_angle_gamma   90.00000000
_symmetry_Int_Tables_number   1
_chemical_formula_structural   FeB18H32(C4S)2
_chemical_formula_sum   'Fe2 B36 H64 C16 S4'
_cell_volume   1183.12812910
_cell_formula_units_Z   2
loop_
 _symmetry_equiv_pos_site_id
 _symmetry_equiv_pos_as_xyz
  1  'x, y, z'
loop_
 _atom_site_type_symbol
 _atom_site_label
 _atom_site_symmetry_multiplicity
 _atom_site_fract_x
 _atom_site_fract_y
 _atom_site_fract_z
 _atom_site_occupancy
  Fe  Fe0  1  0.000000  0.000000  0.848951  1
  Fe  Fe1  1  0.500000  0.500000  0.151049  1
  B  B2  1  0.007563  0.698867  0.970178  1
  B  B3  1  0.009775  0.694547  0.756754  1
  B  B4  1  0.016943  0.852263  0.681262  1
  B  B5  1  0.118954  0.660658  0.869751  1
  B  B6  1  0.119918  0.764552  0.038322  1
  B  B7  1  0.126129  0.753998  0.691844  1
  B  B8  1  0.127447  0.922184  0.964014  1
  B  B9  1  0.131938  0.913866  0.750196  1
  B  B10  1  0.194674  0.796830  0.867961  1
  B  B11  1  0.305326  0.296830  0.132039  1
  B  B12  1  0.368062  0.413866  0.249804  1
  B  B13  1  0.372553  0.422184  0.035986  1
  B  B14  1  0.373871  0.253998  0.308156  1
  B  B15  1  0.380082  0.264552  0.961678  1
  B  B16  1  0.381046  0.160658  0.130249  1
  B  B17  1  0.483057  0.352263  0.318738  1
  B  B18  1  0.490225  0.194547  0.243246  1
  B  B19  1  0.492437  0.198867  0.029822  1
  B  B20  1  0.507563  0.801133  0.029822  1
  B  B21  1  0.509775  0.805453  0.243246  1
  B  B22  1  0.516943  0.647737  0.318738  1
  B  B23  1  0.618954  0.839342  0.130249  1
  B  B24  1  0.619918  0.735448  0.961678  1
  B  B25  1  0.626129  0.746002  0.308156  1
  B  B26  1  0.627447  0.577816  0.035986  1
  B  B27  1  0.631938  0.586134  0.249804  1
  B  B28  1  0.694674  0.703170  0.132039  1
  B  B29  1  0.805326  0.203170  0.867961  1
  B  B30  1  0.868062  0.086134  0.750196  1
  B  B31  1  0.872553  0.077816  0.964014  1
  B  B32  1  0.873871  0.246002  0.691844  1
  B  B33  1  0.880082  0.235448  0.038322  1
  B  B34  1  0.881046  0.339342  0.869751  1
  B  B35  1  0.983057  0.147737  0.681262  1
  B  B36  1  0.990225  0.305453  0.756754  1
  B  B37  1  0.992437  0.301133  0.970178  1
  H  H38  1  0.112765  0.523711  0.447167  1
  H  H39  1  0.108612  0.998421  0.393481  1
  H  H40  1  0.133020  0.481623  0.238527  1
  H  H41  1  0.155540  0.368362  0.396043  1
  H  H42  1  0.205862  0.883212  0.394494  1
  H  H43  1  0.232812  0.042123  0.334182  1
  H  H44  1  0.267188  0.542123  0.665818  1
  H  H45  1  0.294138  0.383212  0.605506  1
  H  H46  1  0.344460  0.868362  0.603957  1
  H  H47  1  0.366980  0.981623  0.761473  1
  H  H48  1  0.391388  0.498421  0.606519  1
  H  H49  1  0.387235  0.023711  0.552833  1
  H  H50  1  0.612765  0.976289  0.552833  1
  H  H51  1  0.608612  0.501579  0.606519  1
  H  H52  1  0.633020  0.018377  0.761473  1
  H  H53  1  0.655540  0.131638  0.603957  1
  H  H54  1  0.705862  0.616788  0.605506  1
  H  H55  1  0.732812  0.457877  0.665818  1
  H  H56  1  0.767188  0.957877  0.334182  1
  H  H57  1  0.794138  0.116788  0.394494  1
  H  H58  1  0.844460  0.631638  0.396043  1
  H  H59  1  0.866980  0.518377  0.238527  1
  H  H60  1  0.891388  0.001579  0.393481  1
  H  H61  1  0.887235  0.476289  0.447167  1
  H  H62  1  0.024390  0.122433  0.123103  1
  H  H63  1  0.023449  0.138478  0.552231  1
  H  H64  1  0.041645  0.379805  0.688953  1
  H  H65  1  0.045855  0.363237  0.052187  1
  H  H66  1  0.126178  0.189218  0.865141  1
  H  H67  1  0.147354  0.741529  0.173106  1
  H  H68  1  0.151266  0.556705  0.878287  1
  H  H69  1  0.165494  0.718479  0.569565  1
  H  H70  1  0.169829  0.992221  0.053509  1
  H  H71  1  0.216649  0.288825  0.122787  1
  H  H72  1  0.283351  0.788825  0.877213  1
  H  H73  1  0.330171  0.492221  0.946491  1
  H  H74  1  0.334506  0.218479  0.430435  1
  H  H75  1  0.348734  0.056705  0.121713  1
  H  H76  1  0.352646  0.241529  0.826894  1
  H  H77  1  0.373822  0.689218  0.134859  1
  H  H78  1  0.454145  0.863237  0.947813  1
  H  H79  1  0.458355  0.879805  0.311047  1
  H  H80  1  0.476551  0.638478  0.447769  1
  H  H81  1  0.475610  0.622433  0.876897  1
  H  H82  1  0.524390  0.377567  0.876897  1
  H  H83  1  0.523449  0.361522  0.447769  1
  H  H84  1  0.541645  0.120195  0.311047  1
  H  H85  1  0.545855  0.136763  0.947813  1
  H  H86  1  0.626178  0.310782  0.134859  1
  H  H87  1  0.647354  0.758471  0.826894  1
  H  H88  1  0.651266  0.943295  0.121713  1
  H  H89  1  0.665494  0.781521  0.430435  1
  H  H90  1  0.669829  0.507779  0.946491  1
  H  H91  1  0.716649  0.211175  0.877213  1
  H  H92  1  0.783351  0.711175  0.122787  1
  H  H93  1  0.830171  0.007779  0.053509  1
  H  H94  1  0.834506  0.281521  0.569565  1
  H  H95  1  0.848734  0.443295  0.878287  1
  H  H96  1  0.852646  0.258471  0.173106  1
  H  H97  1  0.873822  0.810782  0.865141  1
  H  H98  1  0.954145  0.636763  0.052187  1
  H  H99  1  0.958355  0.620195  0.688953  1
  H  H100  1  0.976551  0.861522  0.552231  1
  H  H101  1  0.975610  0.877567  0.123103  1
  C  C102  1  0.016868  0.856385  0.012970  1
  C  C103  1  0.045644  0.183143  0.854645  1
  C  C104  1  0.454356  0.683143  0.145355  1
  C  C105  1  0.483132  0.356385  0.987030  1
  C  C106  1  0.516868  0.643615  0.987030  1
  C  C107  1  0.545644  0.316857  0.145355  1
  C  C108  1  0.954356  0.816857  0.854645  1
  C  C109  1  0.983132  0.143615  0.012970  1
  C  C110  1  0.158222  0.467733  0.363608  1
  C  C111  1  0.188056  0.982132  0.413789  1
  C  C112  1  0.311944  0.482132  0.586211  1
  C  C113  1  0.341778  0.967733  0.636392  1
  C  C114  1  0.658222  0.032267  0.636392  1
  C  C115  1  0.688056  0.517868  0.586211  1
  C  C116  1  0.811944  0.017868  0.413789  1
  C  C117  1  0.841778  0.532267  0.363608  1
  S  S118  1  0.215017  0.023709  0.621648  1
  S  S119  1  0.284983  0.523709  0.378352  1
  S  S120  1  0.715017  0.476291  0.378352  1
  S  S121  1  0.784983  0.976291  0.621648  1
