# generated using pymatgen
data_Fe3OF5
_symmetry_space_group_name_H-M   'P 1'
_cell_length_a   4.78262391
_cell_length_b   8.08691111
_cell_length_c   5.79360027
_cell_angle_alpha   92.17326838
_cell_angle_beta   90.00000000
_cell_angle_gamma   90.00000000
_symmetry_Int_Tables_number   1
_chemical_formula_structural   Fe3OF5
_chemical_formula_sum   'Fe6 O2 F10'
_cell_volume   223.91590086
_cell_formula_units_Z   2
loop_
 _symmetry_equiv_pos_site_id
 _symmetry_equiv_pos_as_xyz
  1  'x, y, z'
loop_
 _atom_site_type_symbol
 _atom_site_label
 _atom_site_symmetry_multiplicity
 _atom_site_fract_x
 _atom_site_fract_y
 _atom_site_fract_z
 _atom_site_occupancy
  Fe  Fe0  1  0.514158  0.666936  0.164037  1
  Fe  Fe1  1  0.492262  0.014054  0.496186  1
  Fe  Fe2  1  0.478825  0.325633  0.812403  1
  Fe  Fe3  1  0.978825  0.674367  0.687597  1
  Fe  Fe4  1  0.014158  0.333064  0.335963  1
  Fe  Fe5  1  0.992262  0.985946  0.003814  1
  O  O6  1  0.809538  0.753790  0.955504  1
  O  O7  1  0.309538  0.246210  0.544496  1
  F  F8  1  0.791102  0.449498  0.640068  1
  F  F9  1  0.804803  0.100987  0.295811  1
  F  F10  1  0.712468  0.115988  0.804308  1
  F  F11  1  0.708570  0.771851  0.471849  1
  F  F12  1  0.688272  0.416298  0.116622  1
  F  F13  1  0.291102  0.550502  0.859932  1
  F  F14  1  0.304803  0.899013  0.204189  1
  F  F15  1  0.208570  0.228149  0.028151  1
  F  F16  1  0.188272  0.583702  0.383378  1
  F  F17  1  0.212468  0.884012  0.695692  1
