# generated using pymatgen
data_Li2FeF5
_symmetry_space_group_name_H-M   'P 1'
_cell_length_a   7.22456197
_cell_length_b   19.19966866
_cell_length_c   5.49040572
_cell_angle_alpha   90.00000000
_cell_angle_beta   90.00000000
_cell_angle_gamma   90.00000000
_symmetry_Int_Tables_number   1
_chemical_formula_structural   Li2FeF5
_chemical_formula_sum   'Li16 Fe8 F40'
_cell_volume   761.56976334
_cell_formula_units_Z   8
loop_
 _symmetry_equiv_pos_site_id
 _symmetry_equiv_pos_as_xyz
  1  'x, y, z'
loop_
 _atom_site_type_symbol
 _atom_site_label
 _atom_site_symmetry_multiplicity
 _atom_site_fract_x
 _atom_site_fract_y
 _atom_site_fract_z
 _atom_site_occupancy
  Li  Li0  1  0.102618  0.653324  0.500000  1
  Li  Li1  1  0.193551  0.082890  0.000000  1
  Li  Li2  1  0.264938  0.735519  0.000000  1
  Li  Li3  1  0.201041  0.516003  0.500000  1
  Li  Li4  1  0.298959  0.016003  0.500000  1
  Li  Li5  1  0.235062  0.235519  0.000000  1
  Li  Li6  1  0.306449  0.582890  0.000000  1
  Li  Li7  1  0.397382  0.153324  0.500000  1
  Li  Li8  1  0.602618  0.846676  0.500000  1
  Li  Li9  1  0.693551  0.417110  0.000000  1
  Li  Li10  1  0.764938  0.764481  0.000000  1
  Li  Li11  1  0.701041  0.983997  0.500000  1
  Li  Li12  1  0.798959  0.483997  0.500000  1
  Li  Li13  1  0.735062  0.264481  0.000000  1
  Li  Li14  1  0.806449  0.917110  0.000000  1
  Li  Li15  1  0.897382  0.346676  0.500000  1
  Fe  Fe16  1  0.010113  0.843124  0.500000  1
  Fe  Fe17  1  0.127321  0.397256  0.000000  1
  Fe  Fe18  1  0.372679  0.897256  0.000000  1
  Fe  Fe19  1  0.489887  0.343124  0.500000  1
  Fe  Fe20  1  0.510113  0.656876  0.500000  1
  Fe  Fe21  1  0.627321  0.102744  0.000000  1
  Fe  Fe22  1  0.872679  0.602744  0.000000  1
  Fe  Fe23  1  0.989887  0.156876  0.500000  1
  F  F24  1  0.019165  0.303427  0.000000  1
  F  F25  1  0.042658  0.572897  0.260196  1
  F  F26  1  0.042658  0.572897  0.739804  1
  F  F27  1  0.069949  0.061068  0.500000  1
  F  F28  1  0.177550  0.165014  0.758210  1
  F  F29  1  0.177550  0.165014  0.241790  1
  F  F30  1  0.052330  0.746579  0.500000  1
  F  F31  1  0.204609  0.858515  0.251160  1
  F  F32  1  0.204609  0.858515  0.748840  1
  F  F33  1  0.227541  0.981582  0.000000  1
  F  F34  1  0.272459  0.481582  0.000000  1
  F  F35  1  0.295391  0.358515  0.251160  1
  F  F36  1  0.295391  0.358515  0.748840  1
  F  F37  1  0.447670  0.246579  0.500000  1
  F  F38  1  0.322450  0.665014  0.241790  1
  F  F39  1  0.322450  0.665014  0.758210  1
  F  F40  1  0.430051  0.561068  0.500000  1
  F  F41  1  0.457342  0.072897  0.260196  1
  F  F42  1  0.457342  0.072897  0.739804  1
  F  F43  1  0.480835  0.803427  0.000000  1
  F  F44  1  0.519165  0.196573  0.000000  1
  F  F45  1  0.542658  0.927103  0.260196  1
  F  F46  1  0.542658  0.927103  0.739804  1
  F  F47  1  0.569949  0.438932  0.500000  1
  F  F48  1  0.677550  0.334986  0.241790  1
  F  F49  1  0.677550  0.334986  0.758210  1
  F  F50  1  0.552330  0.753421  0.500000  1
  F  F51  1  0.704609  0.641485  0.251160  1
  F  F52  1  0.704609  0.641485  0.748840  1
  F  F53  1  0.727541  0.518418  0.000000  1
  F  F54  1  0.772459  0.018418  0.000000  1
  F  F55  1  0.795391  0.141485  0.251160  1
  F  F56  1  0.795391  0.141485  0.748840  1
  F  F57  1  0.947670  0.253421  0.500000  1
  F  F58  1  0.822450  0.834986  0.241790  1
  F  F59  1  0.822450  0.834986  0.758210  1
  F  F60  1  0.930051  0.938932  0.500000  1
  F  F61  1  0.957342  0.427103  0.260196  1
  F  F62  1  0.957342  0.427103  0.739804  1
  F  F63  1  0.980835  0.696573  0.000000  1
