# generated using pymatgen
data_LiV(SO4)3
_symmetry_space_group_name_H-M   'P 1'
_cell_length_a   8.18063895
_cell_length_b   8.42209766
_cell_length_c   8.26973748
_cell_angle_alpha   107.77131691
_cell_angle_beta   106.58246958
_cell_angle_gamma   108.31111206
_symmetry_Int_Tables_number   1
_chemical_formula_structural   LiV(SO4)3
_chemical_formula_sum   'Li2 V2 S6 O24'
_cell_volume   467.05456463
_cell_formula_units_Z   2
loop_
 _symmetry_equiv_pos_site_id
 _symmetry_equiv_pos_as_xyz
  1  'x, y, z'
loop_
 _atom_site_type_symbol
 _atom_site_label
 _atom_site_symmetry_multiplicity
 _atom_site_fract_x
 _atom_site_fract_y
 _atom_site_fract_z
 _atom_site_occupancy
  Li  Li0  1  0.145091  0.573330  0.772612  1
  Li  Li1  1  0.854909  0.426670  0.227388  1
  V  V2  1  0.000000  0.000000  0.000000  1
  V  V3  1  0.500000  0.500000  0.500000  1
  S  S4  1  0.090580  0.233233  0.446145  1
  S  S5  1  0.542501  0.899377  0.758221  1
  S  S6  1  0.220839  0.437719  0.095002  1
  S  S7  1  0.779161  0.562281  0.904998  1
  S  S8  1  0.457499  0.100623  0.241779  1
  S  S9  1  0.909419  0.766767  0.553855  1
  O  O10  1  0.007238  0.863030  0.770339  1
  O  O11  1  0.033458  0.700932  0.489358  1
  O  O12  1  0.121983  0.224567  0.984748  1
  O  O13  1  0.268799  0.512271  0.970546  1
  O  O14  1  0.104569  0.496861  0.178245  1
  O  O15  1  0.237646  0.011227  0.120317  1
  O  O16  1  0.440928  0.810320  0.847717  1
  O  O17  1  0.255575  0.418313  0.486969  1
  O  O18  1  0.166763  0.127082  0.520609  1
  O  O19  1  0.523061  0.744548  0.582573  1
  O  O20  1  0.497998  0.963652  0.288377  1
  O  O21  1  0.591868  0.522464  0.752047  1
  O  O22  1  0.408132  0.477536  0.247953  1
  O  O23  1  0.502002  0.036348  0.711623  1
  O  O24  1  0.476939  0.255452  0.417427  1
  O  O25  1  0.833237  0.872918  0.479391  1
  O  O26  1  0.744425  0.581687  0.513031  1
  O  O27  1  0.559072  0.189680  0.152283  1
  O  O28  1  0.762354  0.988773  0.879683  1
  O  O29  1  0.895431  0.503139  0.821755  1
  O  O30  1  0.731201  0.487729  0.029454  1
  O  O31  1  0.878017  0.775433  0.015252  1
  O  O32  1  0.966542  0.299068  0.510642  1
  O  O33  1  0.992762  0.136970  0.229661  1
