# generated using pymatgen
data_BaH8PtC4(NO)4
_symmetry_space_group_name_H-M   'P 1'
_cell_length_a   9.32344569
_cell_length_b   9.32344569
_cell_length_c   6.67899066
_cell_angle_alpha   78.30825593
_cell_angle_beta   101.69174407
_cell_angle_gamma   83.02342638
_symmetry_Int_Tables_number   1
_chemical_formula_structural   BaH8PtC4(NO)4
_chemical_formula_sum   'Ba2 H16 Pt2 C8 N8 O8'
_cell_volume   548.68543742
_cell_formula_units_Z   2
loop_
 _symmetry_equiv_pos_site_id
 _symmetry_equiv_pos_as_xyz
  1  'x, y, z'
loop_
 _atom_site_type_symbol
 _atom_site_label
 _atom_site_symmetry_multiplicity
 _atom_site_fract_x
 _atom_site_fract_y
 _atom_site_fract_z
 _atom_site_occupancy
  Ba  Ba0  1  0.629649  0.629649  0.750000  1
  Ba  Ba1  1  0.370351  0.370351  0.250000  1
  H  H2  1  0.290851  0.506358  0.657658  1
  H  H3  1  0.506358  0.290851  0.842342  1
  H  H4  1  0.709149  0.493642  0.342342  1
  H  H5  1  0.493642  0.709149  0.157658  1
  H  H6  1  0.285517  0.629126  0.459729  1
  H  H7  1  0.629126  0.285517  0.040271  1
  H  H8  1  0.714483  0.370874  0.540271  1
  H  H9  1  0.370874  0.714483  0.959729  1
  H  H10  1  0.090307  0.532549  0.809080  1
  H  H11  1  0.532549  0.090307  0.690920  1
  H  H12  1  0.909693  0.467451  0.190920  1
  H  H13  1  0.467451  0.909693  0.309080  1
  H  H14  1  0.125507  0.374081  0.778419  1
  H  H15  1  0.374081  0.125507  0.721581  1
  H  H16  1  0.874493  0.625919  0.221581  1
  H  H17  1  0.625919  0.874493  0.278419  1
  Pt  Pt18  1  0.000000  0.000000  0.000000  1
  Pt  Pt19  1  0.000000  0.000000  0.500000  1
  C  C20  1  0.095242  0.786621  0.086951  1
  C  C21  1  0.786621  0.095242  0.413049  1
  C  C22  1  0.904758  0.213379  0.913049  1
  C  C23  1  0.213379  0.904758  0.586951  1
  C  C24  1  0.802496  0.935563  0.946457  1
  C  C25  1  0.935563  0.802496  0.553543  1
  C  C26  1  0.197504  0.064437  0.053543  1
  C  C27  1  0.064437  0.197504  0.446457  1
  N  N28  1  0.149876  0.660540  0.137073  1
  N  N29  1  0.660540  0.149876  0.362927  1
  N  N30  1  0.850124  0.339460  0.862927  1
  N  N31  1  0.339460  0.850124  0.637073  1
  N  N32  1  0.688202  0.893417  0.911740  1
  N  N33  1  0.893417  0.688202  0.588260  1
  N  N34  1  0.311798  0.106583  0.088260  1
  N  N35  1  0.106583  0.311798  0.411740  1
  O  O36  1  0.351695  0.542866  0.557851  1
  O  O37  1  0.542866  0.351695  0.942149  1
  O  O38  1  0.648305  0.457134  0.442149  1
  O  O39  1  0.457134  0.648305  0.057851  1
  O  O40  1  0.172680  0.449608  0.835893  1
  O  O41  1  0.449608  0.172680  0.664107  1
  O  O42  1  0.827320  0.550392  0.164107  1
  O  O43  1  0.550392  0.827320  0.335893  1
