# generated using pymatgen
data_K2MnH8(SO6)2
_symmetry_space_group_name_H-M   'P 1'
_cell_length_a   9.69709246
_cell_length_b   10.10172389
_cell_length_c   12.09148385
_cell_angle_alpha   95.51621445
_cell_angle_beta   90.00000000
_cell_angle_gamma   90.00000000
_symmetry_Int_Tables_number   1
_chemical_formula_structural   K2MnH8(SO6)2
_chemical_formula_sum   'K8 Mn4 H32 S8 O48'
_cell_volume   1178.96457701
_cell_formula_units_Z   4
loop_
 _symmetry_equiv_pos_site_id
 _symmetry_equiv_pos_as_xyz
  1  'x, y, z'
loop_
 _atom_site_type_symbol
 _atom_site_label
 _atom_site_symmetry_multiplicity
 _atom_site_fract_x
 _atom_site_fract_y
 _atom_site_fract_z
 _atom_site_occupancy
  K  K0  1  0.268102  0.239997  0.170161  1
  K  K1  1  0.768102  0.760003  0.329839  1
  K  K2  1  0.731898  0.760003  0.829839  1
  K  K3  1  0.231898  0.239997  0.670161  1
  K  K4  1  0.741424  0.258931  0.168983  1
  K  K5  1  0.241424  0.741069  0.331017  1
  K  K6  1  0.258576  0.741069  0.831017  1
  K  K7  1  0.758576  0.258931  0.668983  1
  Mn  Mn8  1  0.000000  0.000000  0.000000  1
  Mn  Mn9  1  0.500000  0.000000  0.500000  1
  Mn  Mn10  1  0.500000  0.500000  0.000000  1
  Mn  Mn11  1  0.000000  0.500000  0.500000  1
  S  S12  1  0.505014  0.952669  0.203541  1
  S  S13  1  0.005014  0.047331  0.296459  1
  S  S14  1  0.494986  0.047331  0.796459  1
  S  S15  1  0.994986  0.952669  0.703541  1
  S  S16  1  0.992644  0.522664  0.207432  1
  S  S17  1  0.492644  0.477336  0.292568  1
  S  S18  1  0.007356  0.477336  0.792568  1
  S  S19  1  0.507356  0.522664  0.707432  1
  O  O20  1  0.373214  0.116270  0.854345  1
  O  O21  1  0.873214  0.883730  0.645655  1
  O  O22  1  0.626786  0.883730  0.145655  1
  O  O23  1  0.126786  0.116270  0.354345  1
  O  O24  1  0.374152  0.887164  0.158530  1
  O  O25  1  0.874152  0.112836  0.341470  1
  O  O26  1  0.625848  0.112836  0.841470  1
  O  O27  1  0.125848  0.887164  0.658530  1
  O  O28  1  0.088432  0.606749  0.146115  1
  O  O29  1  0.588432  0.393251  0.353885  1
  O  O30  1  0.911568  0.393251  0.853885  1
  O  O31  1  0.411568  0.606749  0.646115  1
  O  O32  1  0.847138  0.548100  0.176480  1
  O  O33  1  0.347138  0.451900  0.323520  1
  O  O34  1  0.152862  0.451900  0.823520  1
  O  O35  1  0.652862  0.548100  0.676480  1
  O  O36  1  0.015221  0.067188  0.176308  1
  O  O37  1  0.515221  0.932812  0.323692  1
  O  O38  1  0.984779  0.932812  0.823692  1
  O  O39  1  0.484779  0.067188  0.676308  1
  O  O40  1  0.505048  0.094483  0.184901  1
  O  O41  1  0.005048  0.905517  0.315099  1
  O  O42  1  0.494952  0.905517  0.815099  1
  O  O43  1  0.994952  0.094483  0.684901  1
  O  O44  1  0.510897  0.436503  0.170731  1
  O  O45  1  0.010897  0.563497  0.329269  1
  O  O46  1  0.489103  0.563497  0.829269  1
  O  O47  1  0.989103  0.436503  0.670731  1
  O  O48  1  0.024958  0.379197  0.182228  1
  O  O49  1  0.524958  0.620803  0.317772  1
  O  O50  1  0.975042  0.620803  0.817772  1
  O  O51  1  0.475042  0.379197  0.682228  1
  O  O52  1  0.333962  0.354460  0.964974  1
  O  O53  1  0.833962  0.645540  0.535026  1
  O  O54  1  0.666038  0.645540  0.035026  1
  O  O55  1  0.166038  0.354460  0.464974  1
  O  O56  1  0.334425  0.648239  0.044644  1
  O  O57  1  0.834425  0.351761  0.455356  1
  O  O58  1  0.665575  0.351761  0.955356  1
  O  O59  1  0.165575  0.648239  0.544644  1
  O  O60  1  0.226859  0.981733  0.992705  1
  O  O61  1  0.726859  0.018267  0.507295  1
  O  O62  1  0.773141  0.018267  0.007295  1
  O  O63  1  0.273141  0.981733  0.492705  1
  O  O64  1  0.985248  0.782982  0.013603  1
  O  O65  1  0.485248  0.217018  0.486397  1
  O  O66  1  0.014752  0.217018  0.986397  1
  O  O67  1  0.514752  0.782982  0.513603  1
  H  H68  1  0.257911  0.391308  0.921619  1
  H  H69  1  0.757911  0.608692  0.578381  1
  H  H70  1  0.742089  0.608692  0.078381  1
  H  H71  1  0.242089  0.391308  0.421619  1
  H  H72  1  0.358907  0.268414  0.921553  1
  H  H73  1  0.858907  0.731586  0.578447  1
  H  H74  1  0.641093  0.731586  0.078447  1
  H  H75  1  0.141093  0.268414  0.421553  1
  H  H76  1  0.248785  0.617022  0.079012  1
  H  H77  1  0.748785  0.382978  0.420988  1
  H  H78  1  0.751215  0.382978  0.920988  1
  H  H79  1  0.251215  0.617022  0.579012  1
  H  H80  1  0.359007  0.733947  0.088478  1
  H  H81  1  0.859007  0.266053  0.411522  1
  H  H82  1  0.640993  0.266053  0.911522  1
  H  H83  1  0.140993  0.733947  0.588478  1
  H  H84  1  0.285799  0.030829  0.942390  1
  H  H85  1  0.785799  0.969171  0.557610  1
  H  H86  1  0.714201  0.969171  0.057610  1
  H  H87  1  0.214201  0.030829  0.442390  1
  H  H88  1  0.285353  0.952261  0.053458  1
  H  H89  1  0.785353  0.047739  0.446542  1
  H  H90  1  0.714647  0.047739  0.946542  1
  H  H91  1  0.214647  0.952261  0.553458  1
  H  H92  1  0.016425  0.728488  0.073210  1
  H  H93  1  0.516425  0.271512  0.426790  1
  H  H94  1  0.983575  0.271512  0.926790  1
  H  H95  1  0.483575  0.728488  0.573210  1
  H  H96  1  0.984470  0.720224  0.945183  1
  H  H97  1  0.484470  0.279776  0.554817  1
  H  H98  1  0.015530  0.279776  0.054817  1
  H  H99  1  0.515530  0.720224  0.445183  1
