# generated using pymatgen
data_Ba2YBr7
_symmetry_space_group_name_H-M   'P 1'
_cell_length_a   11.26403866
_cell_length_b   16.60444347
_cell_length_c   7.32186325
_cell_angle_alpha   90.00000000
_cell_angle_beta   90.68051672
_cell_angle_gamma   90.00000000
_symmetry_Int_Tables_number   1
_chemical_formula_structural   Ba2YBr7
_chemical_formula_sum   'Ba8 Y4 Br28'
_cell_volume   1369.33413946
_cell_formula_units_Z   4
loop_
 _symmetry_equiv_pos_site_id
 _symmetry_equiv_pos_as_xyz
  1  'x, y, z'
loop_
 _atom_site_type_symbol
 _atom_site_label
 _atom_site_symmetry_multiplicity
 _atom_site_fract_x
 _atom_site_fract_y
 _atom_site_fract_z
 _atom_site_occupancy
  Ba  Ba0  1  0.048183  0.220407  0.267127  1
  Ba  Ba1  1  0.175906  0.560100  0.268138  1
  Ba  Ba2  1  0.324094  0.060100  0.731862  1
  Ba  Ba3  1  0.451817  0.720407  0.732873  1
  Ba  Ba4  1  0.548183  0.279593  0.267127  1
  Ba  Ba5  1  0.675906  0.939900  0.268138  1
  Ba  Ba6  1  0.824094  0.439900  0.731862  1
  Ba  Ba7  1  0.951817  0.779593  0.732873  1
  Y  Y8  1  0.218227  0.872827  0.216357  1
  Y  Y9  1  0.281773  0.372827  0.783643  1
  Y  Y10  1  0.718227  0.627173  0.216357  1
  Y  Y11  1  0.781773  0.127173  0.783643  1
  Br  Br12  1  0.028630  0.139571  0.706307  1
  Br  Br13  1  0.069836  0.396029  0.001349  1
  Br  Br14  1  0.084028  0.394878  0.511524  1
  Br  Br15  1  0.122269  0.930008  0.869279  1
  Br  Br16  1  0.198707  0.741640  0.490636  1
  Br  Br17  1  0.206247  0.726173  0.000420  1
  Br  Br18  1  0.212915  0.040634  0.297791  1
  Br  Br19  1  0.287085  0.540634  0.702209  1
  Br  Br20  1  0.293753  0.226173  0.999580  1
  Br  Br21  1  0.301293  0.241640  0.509364  1
  Br  Br22  1  0.377731  0.430008  0.130721  1
  Br  Br23  1  0.415972  0.894878  0.488476  1
  Br  Br24  1  0.430164  0.896029  0.998651  1
  Br  Br25  1  0.471370  0.639571  0.293693  1
  Br  Br26  1  0.528630  0.360429  0.706307  1
  Br  Br27  1  0.569836  0.103971  0.001349  1
  Br  Br28  1  0.584028  0.105122  0.511524  1
  Br  Br29  1  0.622269  0.569992  0.869279  1
  Br  Br30  1  0.698707  0.758360  0.490636  1
  Br  Br31  1  0.706247  0.773827  0.000420  1
  Br  Br32  1  0.712915  0.459366  0.297791  1
  Br  Br33  1  0.787085  0.959366  0.702209  1
  Br  Br34  1  0.793753  0.273827  0.999580  1
  Br  Br35  1  0.801293  0.258360  0.509364  1
  Br  Br36  1  0.877731  0.069992  0.130721  1
  Br  Br37  1  0.915972  0.605122  0.488476  1
  Br  Br38  1  0.930164  0.603971  0.998651  1
  Br  Br39  1  0.971370  0.860429  0.293693  1
