# generated using pymatgen
data_MnH8(NF3)2
_symmetry_space_group_name_H-M   'P 1'
_cell_length_a   5.94793687
_cell_length_b   5.94810462
_cell_length_c   9.53638984
_cell_angle_alpha   89.99960600
_cell_angle_beta   90.00019782
_cell_angle_gamma   120.00093441
_symmetry_Int_Tables_number   1
_chemical_formula_structural   MnH8(NF3)2
_chemical_formula_sum   'Mn2 H16 N4 F12'
_cell_volume   292.18336600
_cell_formula_units_Z   2
loop_
 _symmetry_equiv_pos_site_id
 _symmetry_equiv_pos_as_xyz
  1  'x, y, z'
loop_
 _atom_site_type_symbol
 _atom_site_label
 _atom_site_symmetry_multiplicity
 _atom_site_fract_x
 _atom_site_fract_y
 _atom_site_fract_z
 _atom_site_occupancy
  Mn  Mn0  1  0.333335  0.666673  0.250797  1
  Mn  Mn1  1  0.666665  0.333338  0.750797  1
  H  H2  1  0.094311  0.905698  0.556257  1
  H  H3  1  0.145058  0.572545  0.912271  1
  H  H4  1  0.333302  0.666699  0.768048  1
  H  H5  1  1.000000  0.000005  0.200565  1
  H  H6  1  0.000000  0.000006  0.700565  1
  H  H7  1  0.094311  0.188620  0.556254  1
  H  H8  1  0.427457  0.854940  0.912270  1
  H  H9  1  0.188622  0.094315  0.056255  1
  H  H10  1  0.427465  0.572544  0.912250  1
  H  H11  1  0.572543  0.427483  0.412270  1
  H  H12  1  0.811378  0.905693  0.556255  1
  H  H13  1  0.572535  0.145079  0.412250  1
  H  H14  1  0.666698  0.333396  0.268048  1
  H  H15  1  0.905689  0.811387  0.056257  1
  H  H16  1  0.854942  0.427487  0.412271  1
  H  H17  1  0.905689  0.094310  0.056254  1
  N  N18  1  0.333315  0.666687  0.875873  1
  N  N19  1  0.000001  0.000003  0.092722  1
  N  N20  1  -0.000001  0.000002  0.592722  1
  N  N21  1  0.666685  0.333371  0.375873  1
  F  F22  1  0.185614  0.814391  0.362167  1
  F  F23  1  0.040039  0.520035  0.139397  1
  F  F24  1  0.185592  0.371192  0.362148  1
  F  F25  1  0.479980  0.959960  0.139394  1
  F  F26  1  0.479980  0.520032  0.139395  1
  F  F27  1  0.628819  0.814411  0.362148  1
  F  F28  1  0.371181  0.185592  0.862148  1
  F  F29  1  0.520020  0.479979  0.639394  1
  F  F30  1  0.520020  0.040051  0.639395  1
  F  F31  1  0.814386  0.628777  0.862167  1
  F  F32  1  0.959961  0.479996  0.639397  1
  F  F33  1  0.814408  0.185600  0.862148  1
