# generated using pymatgen
data_Li3MnFe2(BO3)3
_symmetry_space_group_name_H-M   'P 1'
_cell_length_a   8.26486222
_cell_length_b   8.25074563
_cell_length_c   3.15355916
_cell_angle_alpha   90.00000000
_cell_angle_beta   90.00000000
_cell_angle_gamma   120.19189766
_symmetry_Int_Tables_number   1
_chemical_formula_structural   Li3MnFe2(BO3)3
_chemical_formula_sum   'Li3 Mn1 Fe2 B3 O9'
_cell_volume   185.87346212
_cell_formula_units_Z   1
loop_
 _symmetry_equiv_pos_site_id
 _symmetry_equiv_pos_as_xyz
  1  'x, y, z'
loop_
 _atom_site_type_symbol
 _atom_site_label
 _atom_site_symmetry_multiplicity
 _atom_site_fract_x
 _atom_site_fract_y
 _atom_site_fract_z
 _atom_site_occupancy
  Li  Li0  1  0.283654  0.981686  0.500000  1
  Li  Li1  1  0.015849  0.301101  0.500000  1
  Li  Li2  1  0.698432  0.714727  0.500000  1
  Mn  Mn3  1  0.372780  0.360627  0.000000  1
  Fe  Fe4  1  0.640903  0.007845  0.000000  1
  Fe  Fe5  1  0.992390  0.632778  0.000000  1
  B  B6  1  0.997582  0.999397  0.000000  1
  B  B7  1  0.333384  0.668862  0.500000  1
  B  B8  1  0.668728  0.332508  0.500000  1
  O  O9  1  0.108775  0.916230  0.000000  1
  O  O10  1  0.138578  0.582201  0.500000  1
  O  O11  1  0.079985  0.193575  0.000000  1
  O  O12  1  0.442262  0.863502  0.500000  1
  O  O13  1  0.418979  0.560775  0.500000  1
  O  O14  1  0.474401  0.251451  0.500000  1
  O  O15  1  0.803332  0.887185  0.000000  1
  O  O16  1  0.782331  0.527316  0.500000  1
  O  O17  1  0.747656  0.218230  0.500000  1
