# generated using pymatgen
data_LiMn2(PO4)2
_symmetry_space_group_name_H-M   'P 1'
_cell_length_a   6.76133796
_cell_length_b   9.13591276
_cell_length_c   9.07084573
_cell_angle_alpha   94.47831334
_cell_angle_beta   63.50619456
_cell_angle_gamma   115.50924893
_symmetry_Int_Tables_number   1
_chemical_formula_structural   LiMn2(PO4)2
_chemical_formula_sum   'Li3 Mn6 P6 O24'
_cell_volume   448.05365654
_cell_formula_units_Z   3
loop_
 _symmetry_equiv_pos_site_id
 _symmetry_equiv_pos_as_xyz
  1  'x, y, z'
loop_
 _atom_site_type_symbol
 _atom_site_label
 _atom_site_symmetry_multiplicity
 _atom_site_fract_x
 _atom_site_fract_y
 _atom_site_fract_z
 _atom_site_occupancy
  Li  Li0  1  0.727447  0.993392  0.009671  1
  Li  Li1  1  0.272553  0.006608  0.990329  1
  Li  Li2  1  0.000000  0.500000  0.500000  1
  Mn  Mn3  1  0.805761  0.381846  0.936012  1
  Mn  Mn4  1  0.739715  0.717776  0.718825  1
  Mn  Mn5  1  0.302462  0.059670  0.618526  1
  Mn  Mn6  1  0.697538  0.940330  0.381474  1
  Mn  Mn7  1  0.260285  0.282224  0.281175  1
  Mn  Mn8  1  0.194239  0.618154  0.063988  1
  P  P9  1  0.832094  0.117736  0.661119  1
  P  P10  1  0.745861  0.289193  0.298394  1
  P  P11  1  0.343972  0.334494  0.875948  1
  P  P12  1  0.656028  0.665506  0.124052  1
  P  P13  1  0.254139  0.710807  0.701606  1
  P  P14  1  0.167906  0.882264  0.338882  1
  O  O15  1  0.704239  0.150466  0.843238  1
  O  O16  1  0.862561  0.166515  0.263994  1
  O  O17  1  0.631736  0.034188  0.597295  1
  O  O18  1  0.954773  0.459561  0.279442  1
  O  O19  1  0.963113  0.726818  0.459789  1
  O  O20  1  0.921847  0.990827  0.674744  1
  O  O21  1  0.593626  0.690226  0.984146  1
  O  O22  1  0.575656  0.456585  0.730761  1
  O  O23  1  0.537634  0.264738  0.477180  1
  O  O24  1  0.862899  0.607123  0.051275  1
  O  O25  1  0.629602  0.270941  0.179145  1
  O  O26  1  0.235302  0.155047  0.831389  1
  O  O27  1  0.764698  0.844953  0.168611  1
  O  O28  1  0.370398  0.729059  0.820855  1
  O  O29  1  0.137101  0.392877  0.948725  1
  O  O30  1  0.462366  0.735262  0.522820  1
  O  O31  1  0.424344  0.543415  0.269239  1
  O  O32  1  0.406374  0.309774  0.015854  1
  O  O33  1  0.078153  0.009173  0.325256  1
  O  O34  1  0.036887  0.273182  0.540211  1
  O  O35  1  0.045227  0.540439  0.720558  1
  O  O36  1  0.368264  0.965812  0.402705  1
  O  O37  1  0.137439  0.833485  0.736006  1
  O  O38  1  0.295761  0.849534  0.156762  1
