# generated using pymatgen
data_Li2Co(CO3)2
_symmetry_space_group_name_H-M   'P 1'
_cell_length_a   7.57704268
_cell_length_b   9.12939697
_cell_length_c   9.72345926
_cell_angle_alpha   89.99810904
_cell_angle_beta   89.99802303
_cell_angle_gamma   55.98020462
_symmetry_Int_Tables_number   1
_chemical_formula_structural   Li2Co(CO3)2
_chemical_formula_sum   'Li8 Co4 C8 O24'
_cell_volume   557.48808834
_cell_formula_units_Z   4
loop_
 _symmetry_equiv_pos_site_id
 _symmetry_equiv_pos_as_xyz
  1  'x, y, z'
loop_
 _atom_site_type_symbol
 _atom_site_label
 _atom_site_symmetry_multiplicity
 _atom_site_fract_x
 _atom_site_fract_y
 _atom_site_fract_z
 _atom_site_occupancy
  Li  Li0  1  0.844193  0.789449  0.316755  1
  Li  Li1  1  0.635392  0.856881  0.621462  1
  Li  Li2  1  0.844182  0.289428  0.183196  1
  Li  Li3  1  0.635349  0.356883  0.878556  1
  Li  Li4  1  0.364570  0.643051  0.121511  1
  Li  Li5  1  0.155792  0.710501  0.816753  1
  Li  Li6  1  0.364653  0.143062  0.378515  1
  Li  Li7  1  0.155817  0.210537  0.683184  1
  Co  Co8  1  0.460409  0.952185  0.118958  1
  Co  Co9  1  0.539686  0.547749  0.618981  1
  Co  Co10  1  0.460343  0.452295  0.381053  1
  Co  Co11  1  0.539703  0.047698  0.880999  1
  C  C12  1  0.924009  0.802364  0.015429  1
  C  C13  1  0.924097  0.302292  0.484510  1
  C  C14  1  0.489793  0.768952  0.381874  1
  C  C15  1  0.510146  0.731073  0.881916  1
  C  C16  1  0.489733  0.268915  0.118205  1
  C  C17  1  0.510233  0.231089  0.618159  1
  C  C18  1  0.075980  0.697670  0.515485  1
  C  C19  1  0.076019  0.197701  0.984443  1
  O  O20  1  0.876850  0.816370  0.524352  1
  O  O21  1  0.854558  0.888060  0.897966  1
  O  O22  1  0.793181  0.838459  0.116935  1
  O  O23  1  0.876785  0.316347  0.975647  1
  O  O24  1  0.854482  0.388000  0.601975  1
  O  O25  1  0.793265  0.338348  0.382972  1
  O  O26  1  0.521174  0.882863  0.325036  1
  O  O27  1  0.484466  0.752066  0.013723  1
  O  O28  1  0.560260  0.818791  0.807549  1
  O  O29  1  0.439673  0.681214  0.307495  1
  O  O30  1  0.515437  0.747938  0.513686  1
  O  O31  1  0.478798  0.617121  0.825063  1
  O  O32  1  0.521169  0.382838  0.175006  1
  O  O33  1  0.484581  0.252129  0.486352  1
  O  O34  1  0.560386  0.318751  0.692564  1
  O  O35  1  0.439615  0.181231  0.192595  1
  O  O36  1  0.515328  0.247919  0.986373  1
  O  O37  1  0.478827  0.117147  0.674963  1
  O  O38  1  0.206844  0.661595  0.616999  1
  O  O39  1  0.145502  0.612033  0.398007  1
  O  O40  1  0.123175  0.683536  0.024269  1
  O  O41  1  0.206731  0.161798  0.882910  1
  O  O42  1  0.145612  0.112064  0.101911  1
  O  O43  1  0.123184  0.183603  0.475719  1
