# generated using pymatgen
data_Li2CoP2O7
_symmetry_space_group_name_H-M   'P 1'
_cell_length_a   5.11862772
_cell_length_b   7.07438257
_cell_length_c   8.74932353
_cell_angle_alpha   113.74408916
_cell_angle_beta   90.75612130
_cell_angle_gamma   110.71662956
_symmetry_Int_Tables_number   1
_chemical_formula_structural   Li2CoP2O7
_chemical_formula_sum   'Li4 Co2 P4 O14'
_cell_volume   266.73425576
_cell_formula_units_Z   2
loop_
 _symmetry_equiv_pos_site_id
 _symmetry_equiv_pos_as_xyz
  1  'x, y, z'
loop_
 _atom_site_type_symbol
 _atom_site_label
 _atom_site_symmetry_multiplicity
 _atom_site_fract_x
 _atom_site_fract_y
 _atom_site_fract_z
 _atom_site_occupancy
  Li  Li0  1  0.073668  0.310259  0.008357  1
  Li  Li1  1  0.328466  0.614339  0.752392  1
  Li  Li2  1  0.671534  0.385661  0.247608  1
  Li  Li3  1  0.926332  0.689741  0.991643  1
  Co  Co4  1  0.143537  0.157057  0.337504  1
  Co  Co5  1  0.856463  0.842943  0.662496  1
  P  P6  1  0.249726  0.647837  0.392595  1
  P  P7  1  0.479235  0.836864  0.141114  1
  P  P8  1  0.520765  0.163136  0.858886  1
  P  P9  1  0.750274  0.352163  0.607405  1
  O  O10  1  0.988996  0.708492  0.429262  1
  O  O11  1  0.434663  0.690438  0.549059  1
  O  O12  1  0.156562  0.401265  0.255209  1
  O  O13  1  0.198197  0.084475  0.849568  1
  O  O14  1  0.305149  0.612786  0.988916  1
  O  O15  1  0.449832  0.804560  0.315545  1
  O  O16  1  0.641680  0.990169  0.848317  1
  O  O17  1  0.358320  0.009831  0.151683  1
  O  O18  1  0.550168  0.195440  0.684455  1
  O  O19  1  0.694851  0.387214  0.011084  1
  O  O20  1  0.801803  0.915525  0.150432  1
  O  O21  1  0.843438  0.598735  0.744791  1
  O  O22  1  0.565337  0.309562  0.450941  1
  O  O23  1  0.011004  0.291508  0.570738  1
