# generated using pymatgen
data_Ca5Ti3NbAl(SiO5)5
_symmetry_space_group_name_H-M   'P 1'
_cell_length_a   5.47282159
_cell_length_b   27.53166453
_cell_length_c   7.12746394
_cell_angle_alpha   104.37694314
_cell_angle_beta   103.69469944
_cell_angle_gamma   105.86812558
_symmetry_Int_Tables_number   1
_chemical_formula_structural   Ca5Ti3NbAl(SiO5)5
_chemical_formula_sum   'Ca10 Ti6 Nb2 Al2 Si10 O50'
_cell_volume   945.66859813
_cell_formula_units_Z   2
loop_
 _symmetry_equiv_pos_site_id
 _symmetry_equiv_pos_as_xyz
  1  'x, y, z'
loop_
 _atom_site_type_symbol
 _atom_site_label
 _atom_site_symmetry_multiplicity
 _atom_site_fract_x
 _atom_site_fract_y
 _atom_site_fract_z
 _atom_site_occupancy
  Ca  Ca0  1  0.174847  0.968029  0.762777  1
  Ca  Ca1  1  0.182887  0.768935  0.771728  1
  Ca  Ca2  1  0.173554  0.567042  0.756108  1
  Ca  Ca3  1  0.166936  0.365397  0.750932  1
  Ca  Ca4  1  0.817113  0.831065  0.228272  1
  Ca  Ca5  1  0.166449  0.166337  0.749165  1
  Ca  Ca6  1  0.825153  0.631971  0.237223  1
  Ca  Ca7  1  0.833551  0.433663  0.250835  1
  Ca  Ca8  1  0.833064  0.234603  0.249068  1
  Ca  Ca9  1  0.826446  0.032958  0.243892  1
  Ti  Ti10  1  0.498683  0.498595  0.996702  1
  Ti  Ti11  1  0.504142  0.500396  0.500221  1
  Ti  Ti12  1  0.500000  0.300000  0.000000  1
  Ti  Ti13  1  0.500000  0.300000  0.500000  1
  Ti  Ti14  1  0.501317  0.101405  0.003298  1
  Ti  Ti15  1  0.495858  0.099604  0.499779  1
  Nb  Nb16  1  0.494639  0.899415  0.498368  1
  Nb  Nb17  1  0.505361  0.700585  0.501632  1
  Al  Al18  1  0.501453  0.901495  0.002888  1
  Al  Al19  1  0.498547  0.698505  0.997112  1
  Si  Si20  1  0.176853  0.963630  0.243392  1
  Si  Si21  1  0.172872  0.761287  0.238292  1
  Si  Si22  1  0.180730  0.561896  0.246973  1
  Si  Si23  1  0.827128  0.838713  0.761708  1
  Si  Si24  1  0.183205  0.363836  0.251324  1
  Si  Si25  1  0.823147  0.636370  0.756608  1
  Si  Si26  1  0.182407  0.164005  0.252564  1
  Si  Si27  1  0.817593  0.435995  0.747436  1
  Si  Si28  1  0.816795  0.236164  0.748676  1
  Si  Si29  1  0.819270  0.038104  0.753027  1
  O  O30  1  0.127183  0.852261  0.918524  1
  O  O31  1  0.181655  0.922590  0.382688  1
  O  O32  1  0.428815  0.914044  0.756094  1
  O  O33  1  0.124294  0.650579  0.914988  1
  O  O34  1  0.241811  0.822020  0.404260  1
  O  O35  1  0.398658  0.962512  0.122704  1
  O  O36  1  0.183400  0.721834  0.382224  1
  O  O37  1  0.604172  0.838849  0.881047  1
  O  O38  1  0.754224  0.977366  0.592987  1
  O  O39  1  0.430485  0.713303  0.754630  1
  O  O40  1  0.118012  0.449724  0.910069  1
  O  O41  1  0.569515  0.886697  0.245370  1
  O  O42  1  0.245776  0.622634  0.407013  1
  O  O43  1  0.395828  0.761151  0.118953  1
  O  O44  1  0.187823  0.521180  0.382034  1
  O  O45  1  0.816600  0.878166  0.617776  1
  O  O46  1  0.601342  0.637488  0.877296  1
  O  O47  1  0.758189  0.777980  0.595740  1
  O  O48  1  0.433975  0.513984  0.750960  1
  O  O49  1  0.875706  0.949421  0.085012  1
  O  O50  1  0.117994  0.250247  0.910935  1
  O  O51  1  0.571185  0.685956  0.243906  1
  O  O52  1  0.250971  0.424174  0.411828  1
  O  O53  1  0.394726  0.561994  0.118589  1
  O  O54  1  0.187526  0.321881  0.382992  1
  O  O55  1  0.818345  0.677410  0.617312  1
  O  O56  1  0.604363  0.436394  0.877470  1
  O  O57  1  0.752960  0.576082  0.589379  1
  O  O58  1  0.431594  0.314035  0.750724  1
  O  O59  1  0.872817  0.747739  0.081476  1
  O  O60  1  0.118976  0.051552  0.914044  1
  O  O61  1  0.569593  0.485458  0.248325  1
  O  O62  1  0.248609  0.224411  0.412863  1
  O  O63  1  0.394334  0.362651  0.119645  1
  O  O64  1  0.185215  0.121971  0.383160  1
  O  O65  1  0.814786  0.478029  0.616840  1
  O  O66  1  0.605666  0.237349  0.880355  1
  O  O67  1  0.751391  0.375589  0.587137  1
  O  O68  1  0.430407  0.114542  0.751675  1
  O  O69  1  0.881024  0.548448  0.085956  1
  O  O70  1  0.568406  0.285965  0.249276  1
  O  O71  1  0.247040  0.023918  0.410621  1
  O  O72  1  0.395637  0.163606  0.122530  1
  O  O73  1  0.812474  0.278119  0.617008  1
  O  O74  1  0.605274  0.038006  0.881411  1
  O  O75  1  0.749029  0.175826  0.588172  1
  O  O76  1  0.882006  0.349753  0.089065  1
  O  O77  1  0.566025  0.086016  0.249040  1
  O  O78  1  0.812177  0.078820  0.617966  1
  O  O79  1  0.881988  0.150276  0.089931  1
