# generated using pymatgen
data_MnCo(PO4)2
_symmetry_space_group_name_H-M   'P 1'
_cell_length_a   8.45359018
_cell_length_b   8.60074083
_cell_length_c   8.60074052
_cell_angle_alpha   59.99999711
_cell_angle_beta   59.42249873
_cell_angle_gamma   59.42249411
_symmetry_Int_Tables_number   1
_chemical_formula_structural   MnCo(PO4)2
_chemical_formula_sum   'Mn3 Co3 P6 O24'
_cell_volume   438.27961941
_cell_formula_units_Z   3
loop_
 _symmetry_equiv_pos_site_id
 _symmetry_equiv_pos_as_xyz
  1  'x, y, z'
loop_
 _atom_site_type_symbol
 _atom_site_label
 _atom_site_symmetry_multiplicity
 _atom_site_fract_x
 _atom_site_fract_y
 _atom_site_fract_z
 _atom_site_occupancy
  Mn  Mn0  1  0.074268  0.641910  0.641910  1
  Mn  Mn1  1  0.425333  0.858222  0.858222  1
  Mn  Mn2  1  0.927870  0.357377  0.357377  1
  Co  Co3  1  0.992319  0.002560  0.002560  1
  Co  Co4  1  0.570281  0.143240  0.143240  1
  Co  Co5  1  0.502146  0.499285  0.499285  1
  P  P6  1  0.248138  0.249748  0.544905  1
  P  P7  1  0.248138  0.957209  0.249748  1
  P  P8  1  0.248138  0.544905  0.957209  1
  P  P9  1  0.752797  0.458239  0.040133  1
  P  P10  1  0.752797  0.040133  0.748831  1
  P  P11  1  0.752797  0.748831  0.458239  1
  O  O12  1  0.061335  0.116480  0.311184  1
  O  O13  1  0.061335  0.511001  0.116480  1
  O  O14  1  0.061335  0.311184  0.511001  1
  O  O15  1  0.222515  0.091646  0.747266  1
  O  O16  1  0.437552  0.186555  0.388187  1
  O  O17  1  0.269213  0.414001  0.560548  1
  O  O18  1  0.222515  0.938572  0.091646  1
  O  O19  1  0.269213  0.756238  0.414001  1
  O  O20  1  0.563851  0.615073  0.007370  1
  O  O21  1  0.269213  0.560548  0.756238  1
  O  O22  1  0.778519  0.257760  0.057048  1
  O  O23  1  0.563851  0.007370  0.813708  1
  O  O24  1  0.437552  0.987706  0.186555  1
  O  O25  1  0.222515  0.747266  0.938572  1
  O  O26  1  0.728987  0.445625  0.239222  1
  O  O27  1  0.437552  0.388187  0.987706  1
  O  O28  1  0.728987  0.239222  0.586166  1
  O  O29  1  0.778519  0.057048  0.906672  1
  O  O30  1  0.728987  0.586166  0.445625  1
  O  O31  1  0.563851  0.813708  0.615073  1
  O  O32  1  0.778519  0.906672  0.257760  1
  O  O33  1  0.939689  0.682227  0.497566  1
  O  O34  1  0.939689  0.497566  0.880520  1
  O  O35  1  0.939689  0.880520  0.682227  1
