# generated using pymatgen
data_NaTiPCO7
_symmetry_space_group_name_H-M   'P 1'
_cell_length_a   9.13378023
_cell_length_b   6.41872571
_cell_length_c   5.49613798
_cell_angle_alpha   90.00000000
_cell_angle_beta   86.62902270
_cell_angle_gamma   90.00000000
_symmetry_Int_Tables_number   1
_chemical_formula_structural   NaTiPCO7
_chemical_formula_sum   'Na2 Ti2 P2 C2 O14'
_cell_volume   321.66581592
_cell_formula_units_Z   2
loop_
 _symmetry_equiv_pos_site_id
 _symmetry_equiv_pos_as_xyz
  1  'x, y, z'
loop_
 _atom_site_type_symbol
 _atom_site_label
 _atom_site_symmetry_multiplicity
 _atom_site_fract_x
 _atom_site_fract_y
 _atom_site_fract_z
 _atom_site_occupancy
  Na  Na0  1  0.213141  0.494486  0.229687  1
  Na  Na1  1  0.786859  0.994486  0.770313  1
  Ti  Ti2  1  0.341622  0.766378  0.788487  1
  Ti  Ti3  1  0.658378  0.266378  0.211513  1
  P  P4  1  0.444866  0.258312  0.732999  1
  P  P5  1  0.555134  0.758312  0.267001  1
  C  C6  1  0.079935  0.738336  0.720669  1
  C  C7  1  0.920065  0.238336  0.279331  1
  O  O8  1  0.051161  0.246024  0.314691  1
  O  O9  1  0.138930  0.743890  0.938462  1
  O  O10  1  0.188853  0.729969  0.546679  1
  O  O11  1  0.347480  0.063654  0.786009  1
  O  O12  1  0.351566  0.449544  0.802873  1
  O  O13  1  0.417415  0.744981  0.116017  1
  O  O14  1  0.496380  0.262274  0.458094  1
  O  O15  1  0.503620  0.762274  0.541906  1
  O  O16  1  0.582585  0.244981  0.883983  1
  O  O17  1  0.648434  0.949544  0.197127  1
  O  O18  1  0.652520  0.563654  0.213991  1
  O  O19  1  0.811147  0.229969  0.453321  1
  O  O20  1  0.861070  0.243890  0.061538  1
  O  O21  1  0.948839  0.746024  0.685309  1
