# generated using pymatgen
data_Li4Fe2Ni3Te3O16
_symmetry_space_group_name_H-M   'P 1'
_cell_length_a   6.11584817
_cell_length_b   6.22455759
_cell_length_c   9.72599147
_cell_angle_alpha   89.41585383
_cell_angle_beta   90.88658464
_cell_angle_gamma   120.22328015
_symmetry_Int_Tables_number   1
_chemical_formula_structural   Li4Fe2Ni3Te3O16
_chemical_formula_sum   'Li4 Fe2 Ni3 Te3 O16'
_cell_volume   319.88545258
_cell_formula_units_Z   1
loop_
 _symmetry_equiv_pos_site_id
 _symmetry_equiv_pos_as_xyz
  1  'x, y, z'
loop_
 _atom_site_type_symbol
 _atom_site_label
 _atom_site_symmetry_multiplicity
 _atom_site_fract_x
 _atom_site_fract_y
 _atom_site_fract_z
 _atom_site_occupancy
  Li  Li0  1  0.329390  0.666719  0.876084  1
  Li  Li1  1  0.960611  0.980892  0.987236  1
  Li  Li2  1  0.976752  0.981694  0.507308  1
  Li  Li3  1  0.648093  0.334543  0.404047  1
  Fe  Fe4  1  0.364923  0.681767  0.508563  1
  Fe  Fe5  1  0.711152  0.337731  0.971179  1
  Ni  Ni6  1  0.660264  0.836381  0.214328  1
  Ni  Ni7  1  0.838169  0.663440  0.715439  1
  Ni  Ni8  1  0.838619  0.174251  0.712591  1
  Te  Te9  1  0.164833  0.829227  0.215927  1
  Te  Te10  1  0.172648  0.340413  0.217343  1
  Te  Te11  1  0.346548  0.172928  0.714322  1
  O  O12  1  0.189414  0.864081  0.599194  1
  O  O13  1  0.023648  0.536587  0.340619  1
  O  O14  1  0.324789  0.687530  0.100706  1
  O  O15  1  0.999225  0.975016  0.320312  1
  O  O16  1  0.024846  0.011007  0.806757  1
  O  O17  1  0.185187  0.324206  0.596389  1
  O  O18  1  0.462594  0.963752  0.335441  1
  O  O19  1  0.478990  0.527526  0.346384  1
  O  O20  1  0.312186  0.130830  0.101564  1
  O  O21  1  0.671766  0.838860  0.601611  1
  O  O22  1  0.503995  0.459830  0.842147  1
  O  O23  1  0.507245  0.037201  0.836674  1
  O  O24  1  0.652397  0.329454  0.605590  1
  O  O25  1  0.856346  0.679218  0.102030  1
  O  O26  1  0.972120  0.483140  0.839171  1
  O  O27  1  0.823252  0.152074  0.088885  1
