# generated using pymatgen
data_Li3Mn4(BO3)4
_symmetry_space_group_name_H-M   'P 1'
_cell_length_a   15.73732614
_cell_length_b   5.28839947
_cell_length_c   6.19252416
_cell_angle_alpha   87.59347442
_cell_angle_beta   101.90665743
_cell_angle_gamma   88.39854426
_symmetry_Int_Tables_number   1
_chemical_formula_structural   Li3Mn4(BO3)4
_chemical_formula_sum   'Li6 Mn8 B8 O24'
_cell_volume   503.48804344
_cell_formula_units_Z   2
loop_
 _symmetry_equiv_pos_site_id
 _symmetry_equiv_pos_as_xyz
  1  'x, y, z'
loop_
 _atom_site_type_symbol
 _atom_site_label
 _atom_site_symmetry_multiplicity
 _atom_site_fract_x
 _atom_site_fract_y
 _atom_site_fract_z
 _atom_site_occupancy
  Li  Li0  1  0.906812  0.573822  0.775361  1
  Li  Li1  1  0.603224  0.412139  0.742018  1
  Li  Li2  1  0.843188  0.926178  0.474639  1
  Li  Li3  1  0.345013  0.930780  0.973308  1
  Li  Li4  1  0.146776  0.087861  0.507982  1
  Li  Li5  1  0.404987  0.569220  0.276692  1
  Mn  Mn6  1  0.834667  0.085372  0.921230  1
  Mn  Mn7  1  0.915333  0.414628  0.328770  1
  Mn  Mn8  1  0.414900  0.421541  0.831246  1
  Mn  Mn9  1  0.657516  0.911625  0.589995  1
  Mn  Mn10  1  0.335100  0.078459  0.418754  1
  Mn  Mn11  1  0.592906  0.578804  0.167693  1
  Mn  Mn12  1  0.092484  0.588375  0.660005  1
  Mn  Mn13  1  0.157094  0.921196  0.082307  1
  B  B14  1  0.753172  0.575956  0.970359  1
  B  B15  1  0.749672  0.425506  0.512656  1
  B  B16  1  0.996828  0.924044  0.279641  1
  B  B17  1  0.498293  0.924563  0.756933  1
  B  B18  1  0.502272  0.074086  0.255173  1
  B  B19  1  0.000328  0.074494  0.737344  1
  B  B20  1  0.251707  0.575437  0.493067  1
  B  B21  1  0.247728  0.425914  0.994827  1
  O  O22  1  0.992064  0.333840  0.689250  1
  O  O23  1  0.838926  0.476160  0.996273  1
  O  O24  1  0.931708  0.932453  0.768415  1
  O  O25  1  0.911074  0.023840  0.253727  1
  O  O26  1  0.757936  0.166160  0.560750  1
  O  O27  1  0.737162  0.824995  0.877940  1
  O  O28  1  0.560590  0.078608  0.702776  1
  O  O29  1  0.818292  0.567547  0.481585  1
  O  O30  1  0.415696  0.031174  0.757493  1
  O  O31  1  0.668416  0.544340  0.511650  1
  O  O32  1  0.516101  0.667756  0.813926  1
  O  O33  1  0.318349  0.571879  0.983138  1
  O  O34  1  0.689112  0.434880  0.020862  1
  O  O35  1  0.491445  0.330289  0.191398  1
  O  O36  1  0.334304  0.468826  0.492507  1
  O  O37  1  0.585383  0.953300  0.290992  1
  O  O38  1  0.189410  0.421392  0.547224  1
  O  O39  1  0.431651  0.928121  0.266862  1
  O  O40  1  0.258555  0.169711  0.058602  1
  O  O41  1  0.233899  0.832244  0.436074  1
  O  O42  1  0.081584  0.955660  0.738350  1
  O  O43  1  0.060888  0.065120  0.229138  1
  O  O44  1  0.164617  0.546700  0.959008  1
  O  O45  1  0.012838  0.675005  0.372060  1
