# generated using pymatgen
data_Ti3Fe2Te(PO4)6
_symmetry_space_group_name_H-M   'P 1'
_cell_length_a   8.64726108
_cell_length_b   8.64726077
_cell_length_c   8.64726102
_cell_angle_alpha   61.30084750
_cell_angle_beta   61.30085065
_cell_angle_gamma   61.30084244
_symmetry_Int_Tables_number   1
_chemical_formula_structural   Ti3Fe2Te(PO4)6
_chemical_formula_sum   'Ti3 Fe2 Te1 P6 O24'
_cell_volume   470.58475216
_cell_formula_units_Z   1
loop_
 _symmetry_equiv_pos_site_id
 _symmetry_equiv_pos_as_xyz
  1  'x, y, z'
loop_
 _atom_site_type_symbol
 _atom_site_label
 _atom_site_symmetry_multiplicity
 _atom_site_fract_x
 _atom_site_fract_y
 _atom_site_fract_z
 _atom_site_occupancy
  Ti  Ti0  1  0.144101  0.144101  0.144101  1
  Ti  Ti1  1  0.355205  0.355205  0.355205  1
  Ti  Ti2  1  0.642983  0.642983  0.642983  1
  Fe  Fe3  1  0.003520  0.003520  0.003520  1
  Fe  Fe4  1  0.499523  0.499523  0.499523  1
  Te  Te5  1  0.854600  0.854600  0.854600  1
  P  P6  1  0.256905  0.537826  0.956885  1
  P  P7  1  0.537826  0.956885  0.256905  1
  P  P8  1  0.956885  0.256905  0.537826  1
  P  P9  1  0.049256  0.747324  0.446077  1
  P  P10  1  0.446077  0.049256  0.747324  1
  P  P11  1  0.747324  0.446077  0.049256  1
  O  O12  1  0.111201  0.328128  0.490787  1
  O  O13  1  0.328128  0.490787  0.111201  1
  O  O14  1  0.062516  0.907331  0.255540  1
  O  O15  1  0.490787  0.111201  0.328128  1
  O  O16  1  0.023105  0.814744  0.596812  1
  O  O17  1  0.242153  0.589922  0.430547  1
  O  O18  1  0.255540  0.062516  0.907331  1
  O  O19  1  0.430547  0.242153  0.589922  1
  O  O20  1  0.182537  0.387280  0.999224  1
  O  O21  1  0.589922  0.430547  0.242153  1
  O  O22  1  0.102051  0.735523  0.948179  1
  O  O23  1  0.387280  0.999224  0.182537  1
  O  O24  1  0.596812  0.023105  0.814744  1
  O  O25  1  0.907331  0.255540  0.062516  1
  O  O26  1  0.411275  0.554153  0.761909  1
  O  O27  1  0.814744  0.596812  0.023105  1
  O  O28  1  0.554153  0.761909  0.411275  1
  O  O29  1  0.735523  0.948179  0.102051  1
  O  O30  1  0.761909  0.411275  0.554153  1
  O  O31  1  0.999224  0.182537  0.387280  1
  O  O32  1  0.497585  0.886254  0.687038  1
  O  O33  1  0.948179  0.102051  0.735523  1
  O  O34  1  0.687038  0.497585  0.886254  1
  O  O35  1  0.886254  0.687038  0.497585  1
