# generated using pymatgen
data_Na2Ti2O5
_symmetry_space_group_name_H-M   'P 1'
_cell_length_a   3.66570445
_cell_length_b   6.23413012
_cell_length_c   5.82317308
_cell_angle_alpha   81.42989250
_cell_angle_beta   90.00000000
_cell_angle_gamma   72.90224938
_symmetry_Int_Tables_number   1
_chemical_formula_structural   Na2Ti2O5
_chemical_formula_sum   'Na2 Ti2 O5'
_cell_volume   125.63727109
_cell_formula_units_Z   1
loop_
 _symmetry_equiv_pos_site_id
 _symmetry_equiv_pos_as_xyz
  1  'x, y, z'
loop_
 _atom_site_type_symbol
 _atom_site_label
 _atom_site_symmetry_multiplicity
 _atom_site_fract_x
 _atom_site_fract_y
 _atom_site_fract_z
 _atom_site_occupancy
  Na  Na0  1  0.599933  0.800134  0.354529  1
  Na  Na1  1  0.400067  0.199866  0.645471  1
  Ti  Ti2  1  0.145199  0.709602  0.900513  1
  Ti  Ti3  1  0.854801  0.290398  0.099487  1
  O  O4  1  0.124559  0.750881  0.600677  1
  O  O5  1  0.679086  0.641828  0.012953  1
  O  O6  1  0.320914  0.358172  0.987047  1
  O  O7  1  0.875441  0.249119  0.399323  1
  O  O8  1  0.000000  0.000000  0.000000  1
