# generated using pymatgen
data_Li2MnO2F
_symmetry_space_group_name_H-M   'P 1'
_cell_length_a   5.22420522
_cell_length_b   5.13507515
_cell_length_c   9.80201753
_cell_angle_alpha   85.92439912
_cell_angle_beta   98.03164633
_cell_angle_gamma   120.57584886
_symmetry_Int_Tables_number   1
_chemical_formula_structural   Li2MnO2F
_chemical_formula_sum   'Li8 Mn4 O8 F4'
_cell_volume   224.17269991
_cell_formula_units_Z   4
loop_
 _symmetry_equiv_pos_site_id
 _symmetry_equiv_pos_as_xyz
  1  'x, y, z'
loop_
 _atom_site_type_symbol
 _atom_site_label
 _atom_site_symmetry_multiplicity
 _atom_site_fract_x
 _atom_site_fract_y
 _atom_site_fract_z
 _atom_site_occupancy
  Li  Li0  1  0.194207  0.870511  0.505841  1
  Li  Li1  1  0.000000  0.500000  0.000000  1
  Li  Li2  1  0.069361  0.138723  0.250000  1
  Li  Li3  1  0.676303  0.870511  0.994159  1
  Li  Li4  1  0.500000  0.500000  0.500000  1
  Li  Li5  1  0.323697  0.129489  0.005841  1
  Li  Li6  1  0.930639  0.861277  0.750000  1
  Li  Li7  1  0.805793  0.129489  0.494159  1
  Mn  Mn8  1  0.255408  0.510816  0.750000  1
  Mn  Mn9  1  0.419437  0.838874  0.250000  1
  Mn  Mn10  1  0.580563  0.161126  0.750000  1
  Mn  Mn11  1  0.744592  0.489184  0.250000  1
  O  O12  1  0.058909  0.805352  0.145449  1
  O  O13  1  0.297897  0.824328  0.868170  1
  O  O14  1  0.526431  0.824328  0.631830  1
  O  O15  1  0.253557  0.194648  0.645449  1
  O  O16  1  0.746443  0.805352  0.354551  1
  O  O17  1  0.473569  0.175672  0.368170  1
  O  O18  1  0.702103  0.175672  0.131830  1
  O  O19  1  0.941091  0.194648  0.854551  1
  F  F20  1  0.128986  0.484572  0.383795  1
  F  F21  1  0.644414  0.515428  0.883795  1
  F  F22  1  0.355586  0.484572  0.116205  1
  F  F23  1  0.871014  0.515428  0.616205  1
