# generated using pymatgen
data_Sr3LaMn2(WO6)2
_symmetry_space_group_name_H-M   'P 1'
_cell_length_a   5.81735232
_cell_length_b   5.79494166
_cell_length_c   16.17666755
_cell_angle_alpha   89.70991010
_cell_angle_beta   90.00000000
_cell_angle_gamma   90.00000000
_symmetry_Int_Tables_number   1
_chemical_formula_structural   Sr3LaMn2(WO6)2
_chemical_formula_sum   'Sr6 La2 Mn4 W4 O24'
_cell_volume   545.32816556
_cell_formula_units_Z   2
loop_
 _symmetry_equiv_pos_site_id
 _symmetry_equiv_pos_as_xyz
  1  'x, y, z'
loop_
 _atom_site_type_symbol
 _atom_site_label
 _atom_site_symmetry_multiplicity
 _atom_site_fract_x
 _atom_site_fract_y
 _atom_site_fract_z
 _atom_site_occupancy
  Sr  Sr0  1  0.977347  0.983122  0.124481  1
  Sr  Sr1  1  0.978362  0.991049  0.626373  1
  Sr  Sr2  1  0.522665  0.491289  0.880235  1
  Sr  Sr3  1  0.477347  0.516878  0.125519  1
  Sr  Sr4  1  0.478362  0.508951  0.623627  1
  Sr  Sr5  1  0.022665  0.008711  0.369765  1
  La  La6  1  0.529711  0.488455  0.366447  1
  La  La7  1  0.029711  0.011545  0.883553  1
  Mn  Mn8  1  0.999955  0.497548  0.002508  1
  Mn  Mn9  1  0.001876  0.501184  0.499501  1
  Mn  Mn10  1  0.499955  0.002452  0.247492  1
  Mn  Mn11  1  0.501876  0.998816  0.750499  1
  W  W12  1  0.001248  0.502996  0.249915  1
  W  W13  1  -0.000047  0.500247  0.749284  1
  W  W14  1  0.501248  0.997004  0.000085  1
  W  W15  1  0.499953  0.999753  0.500716  1
  O  O16  1  0.013388  0.421228  0.631946  1
  O  O17  1  0.013491  0.416333  0.135187  1
  O  O18  1  0.220898  0.768407  0.231944  1
  O  O19  1  0.218893  0.749776  0.728664  1
  O  O20  1  0.228774  0.783742  0.017777  1
  O  O21  1  0.242815  0.790931  0.523097  1
  O  O22  1  0.274477  0.290373  0.278266  1
  O  O23  1  0.250217  0.280173  0.773597  1
  O  O24  1  0.267810  0.253993  0.972801  1
  O  O25  1  0.288674  0.258770  0.477165  1
  O  O26  1  0.481249  0.922643  0.879761  1
  O  O27  1  0.488195  0.908293  0.384326  1
  O  O28  1  0.513388  0.078772  0.618054  1
  O  O29  1  0.513491  0.083667  0.114813  1
  O  O30  1  0.718893  0.750224  0.521336  1
  O  O31  1  0.720898  0.731593  0.018056  1
  O  O32  1  0.728774  0.716258  0.232223  1
  O  O33  1  0.742815  0.709069  0.726903  1
  O  O34  1  0.750217  0.219827  0.476403  1
  O  O35  1  0.774477  0.209627  0.971734  1
  O  O36  1  0.767810  0.246007  0.277199  1
  O  O37  1  0.788674  0.241230  0.772835  1
  O  O38  1  0.981249  0.577357  0.370239  1
  O  O39  1  0.988195  0.591707  0.865674  1
