# generated using pymatgen
data_MnH4(SO5)2
_symmetry_space_group_name_H-M   'P 1'
_cell_length_a   6.23088855
_cell_length_b   7.62334414
_cell_length_c   10.30871979
_cell_angle_alpha   69.75816806
_cell_angle_beta   71.59576713
_cell_angle_gamma   65.44541788
_symmetry_Int_Tables_number   1
_chemical_formula_structural   MnH4(SO5)2
_chemical_formula_sum   'Mn2 H8 S4 O20'
_cell_volume   409.30748622
_cell_formula_units_Z   2
loop_
 _symmetry_equiv_pos_site_id
 _symmetry_equiv_pos_as_xyz
  1  'x, y, z'
loop_
 _atom_site_type_symbol
 _atom_site_label
 _atom_site_symmetry_multiplicity
 _atom_site_fract_x
 _atom_site_fract_y
 _atom_site_fract_z
 _atom_site_occupancy
  Mn  Mn0  1  0.253288  0.021778  0.247243  1
  Mn  Mn1  1  0.746712  0.978222  0.752757  1
  H  H2  1  0.163657  0.399188  0.201101  1
  H  H3  1  0.376715  0.277953  0.295239  1
  H  H4  1  0.209800  0.688163  0.361236  1
  H  H5  1  0.360051  0.702974  0.192990  1
  H  H6  1  0.639949  0.297026  0.807010  1
  H  H7  1  0.790200  0.311837  0.638764  1
  H  H8  1  0.623285  0.722047  0.704761  1
  H  H9  1  0.836343  0.600812  0.798899  1
  S  S10  1  0.253868  0.240971  0.914146  1
  S  S11  1  0.264426  0.771902  0.569601  1
  S  S12  1  0.735574  0.228098  0.430399  1
  S  S13  1  0.746132  0.759029  0.085854  1
  O  O14  1  0.183566  0.112217  0.059221  1
  O  O15  1  0.295201  0.271084  0.227727  1
  O  O16  1  0.032914  0.366535  0.863841  1
  O  O17  1  0.216599  0.772938  0.261517  1
  O  O18  1  0.165866  0.650987  0.538910  1
  O  O19  1  0.096428  0.872052  0.686694  1
  O  O20  1  0.398011  0.096222  0.819038  1
  O  O21  1  0.505481  0.333904  0.385109  1
  O  O22  1  0.299324  0.940829  0.439907  1
  O  O23  1  0.598896  0.654396  0.081196  1
  O  O24  1  0.401104  0.345604  0.918804  1
  O  O25  1  0.700676  0.059171  0.560093  1
  O  O26  1  0.494519  0.666096  0.614891  1
  O  O27  1  0.601989  0.903778  0.180962  1
  O  O28  1  0.903572  0.127948  0.313306  1
  O  O29  1  0.834134  0.349013  0.461090  1
  O  O30  1  0.783401  0.227062  0.738483  1
  O  O31  1  0.967086  0.633465  0.136159  1
  O  O32  1  0.704799  0.728916  0.772273  1
  O  O33  1  0.816434  0.887783  0.940779  1
