# generated using pymatgen
data_Mn3(O2F)2
_symmetry_space_group_name_H-M   'P 1'
_cell_length_a   4.61767272
_cell_length_b   4.61767272
_cell_length_c   9.08988497
_cell_angle_alpha   90.37406937
_cell_angle_beta   89.62593063
_cell_angle_gamma   94.08762355
_symmetry_Int_Tables_number   1
_chemical_formula_structural   Mn3(O2F)2
_chemical_formula_sum   'Mn6 O8 F4'
_cell_volume   193.32198297
_cell_formula_units_Z   2
loop_
 _symmetry_equiv_pos_site_id
 _symmetry_equiv_pos_as_xyz
  1  'x, y, z'
loop_
 _atom_site_type_symbol
 _atom_site_label
 _atom_site_symmetry_multiplicity
 _atom_site_fract_x
 _atom_site_fract_y
 _atom_site_fract_z
 _atom_site_occupancy
  Mn  Mn0  1  0.987944  0.012056  0.008586  1
  Mn  Mn1  1  0.000000  0.000000  0.333333  1
  Mn  Mn2  1  0.012056  0.987944  0.658080  1
  Mn  Mn3  1  0.500000  0.500000  0.833333  1
  Mn  Mn4  1  0.521136  0.478864  0.167732  1
  Mn  Mn5  1  0.478864  0.521136  0.498934  1
  O  O6  1  0.191215  0.808785  0.494803  1
  O  O7  1  0.317506  0.292992  0.002971  1
  O  O8  1  0.307565  0.307565  0.333333  1
  O  O9  1  0.292992  0.317506  0.663695  1
  O  O10  1  0.707008  0.682494  0.002971  1
  O  O11  1  0.692434  0.692434  0.333333  1
  O  O12  1  0.682494  0.707008  0.663695  1
  O  O13  1  0.808785  0.191215  0.171864  1
  F  F14  1  0.223055  0.776945  0.167096  1
  F  F15  1  0.187512  0.812488  0.846475  1
  F  F16  1  0.776945  0.223055  0.499571  1
  F  F17  1  0.812488  0.187512  0.820192  1
