# generated using pymatgen
data_H4C(N2O)2
_symmetry_space_group_name_H-M   'P 1'
_cell_length_a   4.40392119
_cell_length_b   9.56861697
_cell_length_c   10.97044866
_cell_angle_alpha   84.01602913
_cell_angle_beta   80.44268923
_cell_angle_gamma   80.34815961
_symmetry_Int_Tables_number   1
_chemical_formula_structural   H4C(N2O)2
_chemical_formula_sum   'H16 C4 N16 O8'
_cell_volume   448.02853610
_cell_formula_units_Z   4
loop_
 _symmetry_equiv_pos_site_id
 _symmetry_equiv_pos_as_xyz
  1  'x, y, z'
loop_
 _atom_site_type_symbol
 _atom_site_label
 _atom_site_symmetry_multiplicity
 _atom_site_fract_x
 _atom_site_fract_y
 _atom_site_fract_z
 _atom_site_occupancy
  H  H0  1  0.389223  0.523191  0.324065  1
  H  H1  1  0.610777  0.476809  0.675935  1
  H  H2  1  0.266401  0.381660  0.425067  1
  H  H3  1  0.733599  0.618340  0.574933  1
  H  H4  1  0.591080  0.111816  0.228252  1
  H  H5  1  0.408920  0.888184  0.771748  1
  H  H6  1  0.445231  0.152032  0.379874  1
  H  H7  1  0.554769  0.847968  0.620126  1
  H  H8  1  0.173894  0.143644  0.014298  1
  H  H9  1  0.826106  0.856356  0.985702  1
  H  H10  1  0.030519  0.144332  0.171827  1
  H  H11  1  0.969481  0.855668  0.828173  1
  H  H12  1  0.030624  0.327194  0.877691  1
  H  H13  1  0.969376  0.672806  0.122309  1
  H  H14  1  0.690199  0.451950  0.916949  1
  H  H15  1  0.309801  0.548050  0.083051  1
  C  C16  1  0.514118  0.325728  0.256956  1
  C  C17  1  0.485882  0.674273  0.743044  1
  C  C18  1  0.824580  0.309531  0.059169  1
  C  C19  1  0.175420  0.690469  0.940831  1
  N  N20  1  0.021904  0.833405  0.396308  1
  N  N21  1  0.978096  0.166595  0.603692  1
  N  N22  1  0.378987  0.417241  0.342249  1
  N  N23  1  0.621013  0.582759  0.657751  1
  N  N24  1  0.528676  0.186228  0.291487  1
  N  N25  1  0.471324  0.813772  0.708513  1
  N  N26  1  0.613765  0.381344  0.142695  1
  N  N27  1  0.386235  0.618656  0.857305  1
  N  N28  1  0.023858  0.190798  0.084834  1
  N  N29  1  0.976142  0.809202  0.915166  1
  N  N30  1  0.843903  0.363455  0.940612  1
  N  N31  1  0.156097  0.636545  0.059388  1
  N  N32  1  0.160033  0.909030  0.292690  1
  N  N33  1  0.839967  0.090970  0.707310  1
  N  N34  1  0.431349  0.842944  0.230002  1
  N  N35  1  0.568651  0.157056  0.769998  1
  O  O36  1  0.128837  0.713101  0.439612  1
  O  O37  1  0.871163  0.286899  0.560388  1
  O  O38  1  0.770007  0.902582  0.443561  1
  O  O39  1  0.229993  0.097418  0.556439  1
  O  O40  1  0.558958  0.717842  0.251236  1
  O  O41  1  0.441042  0.282158  0.748764  1
  O  O42  1  0.546695  0.924127  0.142256  1
  O  O43  1  0.453305  0.075873  0.857744  1
