# generated using pymatgen
data_Na2FeCSO7
_symmetry_space_group_name_H-M   'P 1'
_cell_length_a   9.07930616
_cell_length_b   6.69074623
_cell_length_c   5.29941373
_cell_angle_alpha   90.00000000
_cell_angle_beta   89.48284367
_cell_angle_gamma   90.00000000
_symmetry_Int_Tables_number   1
_chemical_formula_structural   Na2FeCSO7
_chemical_formula_sum   'Na4 Fe2 C2 S2 O14'
_cell_volume   321.91213961
_cell_formula_units_Z   2
loop_
 _symmetry_equiv_pos_site_id
 _symmetry_equiv_pos_as_xyz
  1  'x, y, z'
loop_
 _atom_site_type_symbol
 _atom_site_label
 _atom_site_symmetry_multiplicity
 _atom_site_fract_x
 _atom_site_fract_y
 _atom_site_fract_z
 _atom_site_occupancy
  Na  Na0  1  0.217843  0.992499  0.233127  1
  Na  Na1  1  0.217843  0.507501  0.233127  1
  Na  Na2  1  0.782157  0.492499  0.766873  1
  Na  Na3  1  0.782157  0.007501  0.766873  1
  Fe  Fe4  1  0.349468  0.750000  0.766507  1
  Fe  Fe5  1  0.650532  0.250000  0.233493  1
  C  C6  1  0.071638  0.750000  0.728605  1
  C  C7  1  0.928362  0.250000  0.271395  1
  S  S8  1  0.422917  0.250000  0.709594  1
  S  S9  1  0.577083  0.750000  0.290406  1
  O  O10  1  0.066648  0.250000  0.288805  1
  O  O11  1  0.140346  0.750000  0.946500  1
  O  O12  1  0.160474  0.750000  0.529306  1
  O  O13  1  0.339164  0.069892  0.791598  1
  O  O14  1  0.339164  0.430108  0.791598  1
  O  O15  1  0.427815  0.750000  0.174094  1
  O  O16  1  0.438640  0.250000  0.426031  1
  O  O17  1  0.561360  0.750000  0.573969  1
  O  O18  1  0.572185  0.250000  0.825906  1
  O  O19  1  0.660836  0.569892  0.208402  1
  O  O20  1  0.660836  0.930108  0.208402  1
  O  O21  1  0.839526  0.250000  0.470694  1
  O  O22  1  0.859654  0.250000  0.053499  1
  O  O23  1  0.933352  0.750000  0.711195  1
