# generated using pymatgen
data_Li2Ni3WO8
_symmetry_space_group_name_H-M   'P 1'
_cell_length_a   5.87699818
_cell_length_b   5.87764162
_cell_length_c   9.59689972
_cell_angle_alpha   89.99625735
_cell_angle_beta   90.00187219
_cell_angle_gamma   120.00362830
_symmetry_Int_Tables_number   1
_chemical_formula_structural   Li2Ni3WO8
_chemical_formula_sum   'Li4 Ni6 W2 O16'
_cell_volume   287.08094436
_cell_formula_units_Z   2
loop_
 _symmetry_equiv_pos_site_id
 _symmetry_equiv_pos_as_xyz
  1  'x, y, z'
loop_
 _atom_site_type_symbol
 _atom_site_label
 _atom_site_symmetry_multiplicity
 _atom_site_fract_x
 _atom_site_fract_y
 _atom_site_fract_z
 _atom_site_occupancy
  Li  Li0  1  0.333318  0.666634  0.902990  1
  Li  Li1  1  -0.000001  0.000038  0.990011  1
  Li  Li2  1  0.000001  0.000038  0.490011  1
  Li  Li3  1  0.666682  0.333316  0.402990  1
  Ni  Ni4  1  0.169751  0.830241  0.214514  1
  Ni  Ni5  1  0.169752  0.339589  0.214487  1
  Ni  Ni6  1  0.660427  0.830272  0.214494  1
  Ni  Ni7  1  0.339573  0.169844  0.714494  1
  Ni  Ni8  1  0.830249  0.660489  0.714514  1
  Ni  Ni9  1  0.830248  0.169837  0.714487  1
  W  W10  1  0.333356  0.666771  0.487188  1
  W  W11  1  0.666644  0.333415  0.987188  1
  O  O12  1  0.170286  0.829907  0.588257  1
  O  O13  1  0.034571  0.517172  0.350079  1
  O  O14  1  0.333520  0.666499  0.116188  1
  O  O15  1  0.999837  0.000183  0.298992  1
  O  O16  1  0.000163  0.000346  0.798992  1
  O  O17  1  0.170249  0.340383  0.588335  1
  O  O18  1  0.482852  0.965451  0.350070  1
  O  O19  1  0.482759  0.517305  0.350009  1
  O  O20  1  0.340361  0.170224  0.088306  1
  O  O21  1  0.659639  0.829863  0.588306  1
  O  O22  1  0.517148  0.482600  0.850070  1
  O  O23  1  0.517241  0.034546  0.850009  1
  O  O24  1  0.666480  0.332978  0.616188  1
  O  O25  1  0.829714  0.659620  0.088257  1
  O  O26  1  0.965429  0.482602  0.850079  1
  O  O27  1  0.829751  0.170134  0.088335  1
