# generated using pymatgen
data_Li5Fe2P2(CO7)2
_symmetry_space_group_name_H-M   'P 1'
_cell_length_a   8.46164880
_cell_length_b   8.18785939
_cell_length_c   8.27978511
_cell_angle_alpha   75.84179507
_cell_angle_beta   87.20145950
_cell_angle_gamma   94.04205740
_symmetry_Int_Tables_number   1
_chemical_formula_structural   Li5Fe2P2(CO7)2
_chemical_formula_sum   'Li10 Fe4 P4 C4 O28'
_cell_volume   553.54214021
_cell_formula_units_Z   2
loop_
 _symmetry_equiv_pos_site_id
 _symmetry_equiv_pos_as_xyz
  1  'x, y, z'
loop_
 _atom_site_type_symbol
 _atom_site_label
 _atom_site_symmetry_multiplicity
 _atom_site_fract_x
 _atom_site_fract_y
 _atom_site_fract_z
 _atom_site_occupancy
  Li  Li0  1  0.900658  0.260173  0.496176  1
  Li  Li1  1  0.904629  0.750537  0.975929  1
  Li  Li2  1  0.728134  0.110488  0.851933  1
  Li  Li3  1  0.725858  0.408175  0.111250  1
  Li  Li4  1  0.722223  0.616727  0.363106  1
  Li  Li5  1  0.274142  0.591825  0.888750  1
  Li  Li6  1  0.277777  0.383273  0.636894  1
  Li  Li7  1  0.271866  0.889512  0.148067  1
  Li  Li8  1  0.099342  0.739827  0.503824  1
  Li  Li9  1  0.095371  0.249463  0.024071  1
  Fe  Fe10  1  0.679481  0.529949  0.724964  1
  Fe  Fe11  1  0.657393  0.022665  0.232250  1
  Fe  Fe12  1  0.342607  0.977335  0.767750  1
  Fe  Fe13  1  0.320519  0.470051  0.275036  1
  P  P14  1  0.585749  0.244113  0.517237  1
  P  P15  1  0.582198  0.737946  0.015997  1
  P  P16  1  0.417802  0.262054  0.984003  1
  P  P17  1  0.414251  0.755887  0.482763  1
  C  C18  1  0.972648  0.473307  0.780350  1
  C  C19  1  0.947412  0.961350  0.263439  1
  C  C20  1  0.052588  0.038650  0.736561  1
  C  C21  1  0.027352  0.526693  0.219650  1
  O  O22  1  0.940839  0.594588  0.657174  1
  O  O23  1  0.917072  0.098809  0.154881  1
  O  O24  1  0.914198  0.084605  0.710260  1
  O  O25  1  0.854378  0.384742  0.877353  1
  O  O26  1  0.882951  0.561762  0.189417  1
  O  O27  1  0.821464  0.870824  0.346613  1
  O  O28  1  0.709917  0.375955  0.556054  1
  O  O29  1  0.677815  0.183337  0.377179  1
  O  O30  1  0.692357  0.678544  0.891901  1
  O  O31  1  0.674920  0.898949  0.045299  1
  O  O32  1  0.552544  0.095620  0.679362  1
  O  O33  1  0.581735  0.216271  0.053252  1
  O  O34  1  0.571149  0.686012  0.532818  1
  O  O35  1  0.554548  0.595919  0.179508  1
  O  O36  1  0.445452  0.404081  0.820492  1
  O  O37  1  0.428851  0.313988  0.467182  1
  O  O38  1  0.418265  0.783729  0.946748  1
  O  O39  1  0.447456  0.904380  0.320638  1
  O  O40  1  0.325080  0.101051  0.954701  1
  O  O41  1  0.322185  0.816663  0.622821  1
  O  O42  1  0.307643  0.321456  0.108099  1
  O  O43  1  0.290083  0.624045  0.443946  1
  O  O44  1  0.178536  0.129176  0.653387  1
  O  O45  1  0.117049  0.438238  0.810583  1
  O  O46  1  0.145622  0.615258  0.122647  1
  O  O47  1  0.085802  0.915395  0.289740  1
  O  O48  1  0.059161  0.405412  0.342826  1
  O  O49  1  0.082928  0.901191  0.845119  1
