# generated using pymatgen
data_Li4Cu3Ni(PO4)4
_symmetry_space_group_name_H-M   'P 1'
_cell_length_a   4.73731958
_cell_length_b   9.96623392
_cell_length_c   6.07298775
_cell_angle_alpha   90.00000000
_cell_angle_beta   90.00000000
_cell_angle_gamma   89.07856601
_symmetry_Int_Tables_number   1
_chemical_formula_structural   Li4Cu3Ni(PO4)4
_chemical_formula_sum   'Li4 Cu3 Ni1 P4 O16'
_cell_volume   286.68832055
_cell_formula_units_Z   1
loop_
 _symmetry_equiv_pos_site_id
 _symmetry_equiv_pos_as_xyz
  1  'x, y, z'
loop_
 _atom_site_type_symbol
 _atom_site_label
 _atom_site_symmetry_multiplicity
 _atom_site_fract_x
 _atom_site_fract_y
 _atom_site_fract_z
 _atom_site_occupancy
  Li  Li0  1  0.997502  0.997739  0.999922  1
  Li  Li1  1  0.997502  0.997739  0.500078  1
  Li  Li2  1  0.500790  0.500372  0.497393  1
  Li  Li3  1  0.500790  0.500372  0.002607  1
  Cu  Cu4  1  0.049687  0.713205  0.750000  1
  Cu  Cu5  1  0.449918  0.216881  0.750000  1
  Cu  Cu6  1  0.547734  0.784568  0.250000  1
  Ni  Ni7  1  0.978858  0.277966  0.250000  1
  P  P8  1  0.081617  0.596285  0.250000  1
  P  P9  1  0.420216  0.094234  0.250000  1
  P  P10  1  0.576041  0.904902  0.750000  1
  P  P11  1  0.918663  0.403255  0.750000  1
  O  O12  1  0.198673  0.449833  0.250000  1
  O  O13  1  0.218042  0.665224  0.046152  1
  O  O14  1  0.218042  0.665224  0.453848  1
  O  O15  1  0.246157  0.394614  0.750000  1
  O  O16  1  0.251141  0.897487  0.750000  1
  O  O17  1  0.273361  0.165252  0.048993  1
  O  O18  1  0.273361  0.165252  0.451007  1
  O  O19  1  0.307727  0.947907  0.250000  1
  O  O20  1  0.682359  0.053334  0.750000  1
  O  O21  1  0.717965  0.837921  0.545693  1
  O  O22  1  0.717965  0.837921  0.954307  1
  O  O23  1  0.742486  0.099844  0.250000  1
  O  O24  1  0.755414  0.604668  0.250000  1
  O  O25  1  0.783404  0.337756  0.543380  1
  O  O26  1  0.783404  0.337756  0.956620  1
  O  O27  1  0.811184  0.552487  0.750000  1
