# generated using pymatgen
data_SbN3(O3F)3
_symmetry_space_group_name_H-M   'P 1'
_cell_length_a   8.89303566
_cell_length_b   8.89303566
_cell_length_c   7.45640464
_cell_angle_alpha   90.00000000
_cell_angle_beta   90.00000000
_cell_angle_gamma   80.82237513
_symmetry_Int_Tables_number   1
_chemical_formula_structural   SbN3(O3F)3
_chemical_formula_sum   'Sb2 N6 O18 F6'
_cell_volume   582.14889639
_cell_formula_units_Z   2
loop_
 _symmetry_equiv_pos_site_id
 _symmetry_equiv_pos_as_xyz
  1  'x, y, z'
loop_
 _atom_site_type_symbol
 _atom_site_label
 _atom_site_symmetry_multiplicity
 _atom_site_fract_x
 _atom_site_fract_y
 _atom_site_fract_z
 _atom_site_occupancy
  Sb  Sb0  1  0.141573  0.141573  0.107603  1
  Sb  Sb1  1  0.858427  0.858427  0.607603  1
  N  N2  1  0.317203  0.786194  0.251830  1
  N  N3  1  0.213806  0.682797  0.751830  1
  N  N4  1  0.700851  0.700851  0.026140  1
  N  N5  1  0.299149  0.299149  0.526140  1
  N  N6  1  0.786194  0.317203  0.251830  1
  N  N7  1  0.682797  0.213806  0.751830  1
  O  O8  1  0.210214  0.844188  0.147079  1
  O  O9  1  0.155812  0.789786  0.647079  1
  O  O10  1  0.378877  0.867316  0.354961  1
  O  O11  1  0.132684  0.621123  0.854961  1
  O  O12  1  0.355211  0.643342  0.745984  1
  O  O13  1  0.356658  0.644789  0.245984  1
  O  O14  1  0.602834  0.790424  0.942375  1
  O  O15  1  0.209576  0.397166  0.442375  1
  O  O16  1  0.289964  0.289964  0.692294  1
  O  O17  1  0.710036  0.710036  0.192294  1
  O  O18  1  0.397166  0.209576  0.442375  1
  O  O19  1  0.790424  0.602834  0.942375  1
  O  O20  1  0.644789  0.356658  0.245984  1
  O  O21  1  0.643342  0.355211  0.745984  1
  O  O22  1  0.621123  0.132684  0.854961  1
  O  O23  1  0.867316  0.378877  0.354961  1
  O  O24  1  0.844188  0.210214  0.147079  1
  O  O25  1  0.789786  0.155812  0.647079  1
  F  F26  1  0.645924  0.888455  0.544765  1
  F  F27  1  0.111545  0.354076  0.044765  1
  F  F28  1  0.072463  0.072463  0.881336  1
  F  F29  1  0.927537  0.927537  0.381336  1
  F  F30  1  0.354076  0.111545  0.044765  1
  F  F31  1  0.888455  0.645924  0.544765  1
