# generated using pymatgen
data_Li2Mn2(SiO3)3
_symmetry_space_group_name_H-M   'P 1'
_cell_length_a   10.18019490
_cell_length_b   10.18019447
_cell_length_c   12.52050288
_cell_angle_alpha   90.00000000
_cell_angle_beta   90.00000000
_cell_angle_gamma   120.00000228
_symmetry_Int_Tables_number   1
_chemical_formula_structural   Li2Mn2(SiO3)3
_chemical_formula_sum   'Li12 Mn12 Si18 O54'
_cell_volume   1123.73669035
_cell_formula_units_Z   6
loop_
 _symmetry_equiv_pos_site_id
 _symmetry_equiv_pos_as_xyz
  1  'x, y, z'
loop_
 _atom_site_type_symbol
 _atom_site_label
 _atom_site_symmetry_multiplicity
 _atom_site_fract_x
 _atom_site_fract_y
 _atom_site_fract_z
 _atom_site_occupancy
  Li  Li0  1  0.136400  0.953034  0.185891  1
  Li  Li1  1  0.300852  0.828388  0.017657  1
  Li  Li2  1  0.171612  0.472464  0.684324  1
  Li  Li3  1  0.046966  0.183365  0.852558  1
  Li  Li4  1  0.527536  0.699148  0.350990  1
  Li  Li5  1  0.173183  0.045770  0.681731  1
  Li  Li6  1  0.342565  0.342266  0.749592  1
  Li  Li7  1  0.816635  0.863600  0.519225  1
  Li  Li8  1  0.872588  0.826817  0.015064  1
  Li  Li9  1  0.657734  0.000299  0.416259  1
  Li  Li10  1  0.999701  0.657435  0.082925  1
  Li  Li11  1  0.954230  0.127412  0.348398  1
  Mn  Mn12  1  0.312702  0.811696  0.489220  1
  Mn  Mn13  1  0.188304  0.501006  0.155887  1
  Mn  Mn14  1  0.498994  0.687298  0.822554  1
  Mn  Mn15  1  0.334782  0.307632  0.254717  1
  Mn  Mn16  1  0.367609  0.338447  0.001457  1
  Mn  Mn17  1  0.485937  0.162870  0.840514  1
  Mn  Mn18  1  0.676933  0.514063  0.173848  1
  Mn  Mn19  1  0.972849  0.665218  0.588050  1
  Mn  Mn20  1  0.970838  0.632391  0.334791  1
  Mn  Mn21  1  0.661553  0.029162  0.668124  1
  Mn  Mn22  1  0.692368  0.027151  0.921384  1
  Mn  Mn23  1  0.837130  0.323067  0.507181  1
  Si  Si24  1  0.139189  0.956653  0.917214  1
  Si  Si25  1  0.284342  0.808165  0.758304  1
  Si  Si26  1  0.168577  0.507884  0.901430  1
  Si  Si27  1  0.339307  0.831423  0.234764  1
  Si  Si28  1  0.043347  0.182536  0.583881  1
  Si  Si29  1  0.191835  0.476177  0.424971  1
  Si  Si30  1  0.168422  0.005942  0.439180  1
  Si  Si31  1  0.492116  0.660693  0.568097  1
  Si  Si32  1  0.523823  0.715658  0.091638  1
  Si  Si33  1  0.621918  0.491515  0.448068  1
  Si  Si34  1  0.466254  0.185849  0.568725  1
  Si  Si35  1  0.817464  0.860811  0.250548  1
  Si  Si36  1  0.837519  0.831578  0.772513  1
  Si  Si37  1  0.719596  0.533746  0.902058  1
  Si  Si38  1  0.508485  0.130404  0.114735  1
  Si  Si39  1  0.869596  0.378082  0.781401  1
  Si  Si40  1  0.814151  0.280404  0.235391  1
  Si  Si41  1  0.994058  0.162481  0.105846  1
  O  O42  1  0.076058  0.821256  0.443406  1
  O  O43  1  0.100612  0.878724  0.033886  1
  O  O44  1  0.203082  0.870903  0.839765  1
  O  O45  1  0.158780  0.710215  0.227985  1
  O  O46  1  0.088116  0.553795  0.442113  1
  O  O47  1  0.010015  0.371147  0.846618  1
  O  O48  1  0.211855  0.779116  0.639553  1
  O  O49  1  0.146665  0.578456  0.010987  1
  O  O50  1  0.361132  0.989985  0.179952  1
  O  O51  1  0.236384  0.637879  0.804986  1
  O  O52  1  0.129097  0.332178  0.506432  1
  O  O53  1  0.431790  0.853335  0.344321  1
  O  O54  1  0.121276  0.221887  0.700553  1
  O  O55  1  0.220884  0.432739  0.306220  1
  O  O56  1  0.465680  0.911884  0.775446  1
  O  O57  1  0.401495  0.763616  0.138320  1
  O  O58  1  0.289785  0.448565  0.894652  1
  O  O59  1  0.178744  0.254801  0.110072  1
  O  O60  1  0.082665  0.057705  0.528643  1
  O  O61  1  0.362121  0.598505  0.471653  1
  O  O62  1  0.189962  0.091707  0.326831  1
  O  O63  1  0.421544  0.568210  0.677654  1
  O  O64  1  0.551435  0.841220  0.561318  1
  O  O65  1  0.567261  0.788145  0.972886  1
  O  O66  1  0.255459  0.136392  0.903449  1
  O  O67  1  0.446205  0.534320  0.108779  1
  O  O68  1  0.667822  0.796918  0.173099  1
  O  O69  1  0.628853  0.638868  0.513285  1
  O  O70  1  0.333872  0.044620  0.494251  1
  O  O71  1  0.745199  0.923942  0.776739  1
  O  O72  1  0.560241  0.490622  0.326536  1
  O  O73  1  0.396553  0.175649  0.687627  1
  O  O74  1  0.778113  0.899388  0.367219  1
  O  O75  1  0.490633  0.340366  0.509348  1
  O  O76  1  0.487662  0.278819  0.131101  1
  O  O77  1  0.552295  0.385976  0.893155  1
  O  O78  1  0.710747  0.666128  0.827584  1
  O  O79  1  0.509378  0.069619  0.993202  1
  O  O80  1  0.779097  0.603447  0.020961  1
  O  O81  1  0.901746  0.810038  0.660165  1
  O  O82  1  0.880934  0.744541  0.236782  1
  O  O83  1  0.614024  0.166318  0.559821  1
  O  O84  1  0.791157  0.512338  0.464434  1
  O  O85  1  0.975040  0.917335  0.861976  1
  O  O86  1  0.659634  0.150267  0.176015  1
  O  O87  1  0.849733  0.509367  0.842681  1
  O  O88  1  0.833682  0.447705  0.226488  1
  O  O89  1  0.721181  0.208843  0.797767  1
  O  O90  1  0.824351  0.220903  0.354294  1
  O  O91  1  0.930381  0.439759  0.659869  1
  O  O92  1  0.863608  0.119066  0.570115  1
  O  O93  1  0.955380  0.289253  0.160918  1
  O  O94  1  0.908293  0.098254  0.993498  1
  O  O95  1  0.942295  0.024960  0.195310  1
