# generated using pymatgen
data_LiMn2P2HO8
_symmetry_space_group_name_H-M   'P 1'
_cell_length_a   5.09596615
_cell_length_b   8.61244328
_cell_length_c   7.81385055
_cell_angle_alpha   90.00000000
_cell_angle_beta   104.43084448
_cell_angle_gamma   90.00000000
_symmetry_Int_Tables_number   1
_chemical_formula_structural   LiMn2P2HO8
_chemical_formula_sum   'Li2 Mn4 P4 H2 O16'
_cell_volume   332.11984605
_cell_formula_units_Z   2
loop_
 _symmetry_equiv_pos_site_id
 _symmetry_equiv_pos_as_xyz
  1  'x, y, z'
loop_
 _atom_site_type_symbol
 _atom_site_label
 _atom_site_symmetry_multiplicity
 _atom_site_fract_x
 _atom_site_fract_y
 _atom_site_fract_z
 _atom_site_occupancy
  Li  Li0  1  0.004705  0.998573  0.492641  1
  Li  Li1  1  0.495295  0.498573  0.007359  1
  Mn  Mn2  1  0.130239  0.343555  0.667746  1
  Mn  Mn3  1  0.369761  0.843555  0.832254  1
  Mn  Mn4  1  0.619858  0.157769  0.176983  1
  Mn  Mn5  1  0.880142  0.657769  0.323017  1
  P  P6  1  0.131284  0.358458  0.273509  1
  P  P7  1  0.368716  0.858458  0.226491  1
  P  P8  1  0.637841  0.144301  0.769713  1
  P  P9  1  0.862159  0.644301  0.730287  1
  H  H10  1  0.529593  0.513504  0.509887  1
  H  H11  1  0.970407  0.013504  0.990113  1
  O  O12  1  0.093938  0.537461  0.825275  1
  O  O13  1  0.019430  0.202293  0.326531  1
  O  O14  1  0.152113  0.833951  0.330000  1
  O  O15  1  0.254908  0.449491  0.452899  1
  O  O16  1  0.406062  0.037461  0.674725  1
  O  O17  1  0.523495  0.296696  0.825477  1
  O  O18  1  0.245092  0.949491  0.047101  1
  O  O19  1  0.347887  0.333951  0.170000  1
  O  O20  1  0.642591  0.667346  0.829941  1
  O  O21  1  0.769495  0.056532  0.956887  1
  O  O22  1  0.480570  0.702293  0.173469  1
  O  O23  1  0.607063  0.959070  0.330464  1
  O  O24  1  0.730505  0.556532  0.543113  1
  O  O25  1  0.857409  0.167346  0.670059  1
  O  O26  1  0.976505  0.796696  0.674523  1
  O  O27  1  0.892937  0.459070  0.169536  1
