# generated using pymatgen
data_V2OF4
_symmetry_space_group_name_H-M   'P 1'
_cell_length_a   4.92698814
_cell_length_b   6.86738257
_cell_length_c   5.71055390
_cell_angle_alpha   102.07372267
_cell_angle_beta   90.01373728
_cell_angle_gamma   68.99986189
_symmetry_Int_Tables_number   1
_chemical_formula_structural   V2OF4
_chemical_formula_sum   'V4 O2 F8'
_cell_volume   175.80370166
_cell_formula_units_Z   2
loop_
 _symmetry_equiv_pos_site_id
 _symmetry_equiv_pos_as_xyz
  1  'x, y, z'
loop_
 _atom_site_type_symbol
 _atom_site_label
 _atom_site_symmetry_multiplicity
 _atom_site_fract_x
 _atom_site_fract_y
 _atom_site_fract_z
 _atom_site_occupancy
  V  V0  1  0.889555  0.725678  0.712179  1
  V  V1  1  0.382704  0.724717  0.212355  1
  V  V2  1  0.615415  0.273486  0.785132  1
  V  V3  1  0.108573  0.272520  0.284995  1
  O  O4  1  0.869308  0.999853  0.749024  1
  O  O5  1  0.129958  0.998359  0.248043  1
  F  F6  1  0.694992  0.765787  0.035766  1
  F  F7  1  0.535518  0.769156  0.536601  1
  F  F8  1  0.278030  0.595784  0.867311  1
  F  F9  1  0.122804  0.596168  0.367294  1
  F  F10  1  0.873991  0.402851  0.629556  1
  F  F11  1  0.719779  0.401685  0.130712  1
  F  F12  1  0.461654  0.231144  0.461266  1
  F  F13  1  0.304495  0.230304  0.961005  1
