# generated using pymatgen
data_Li7Cr7(P4O17)2
_symmetry_space_group_name_H-M   'P 1'
_cell_length_a   7.97331154
_cell_length_b   20.23719352
_cell_length_c   9.93075374
_cell_angle_alpha   90.00000000
_cell_angle_beta   112.09899460
_cell_angle_gamma   90.00000000
_symmetry_Int_Tables_number   1
_chemical_formula_structural   Li7Cr7(P4O17)2
_chemical_formula_sum   'Li14 Cr14 P16 O68'
_cell_volume   1484.68106379
_cell_formula_units_Z   2
loop_
 _symmetry_equiv_pos_site_id
 _symmetry_equiv_pos_as_xyz
  1  'x, y, z'
loop_
 _atom_site_type_symbol
 _atom_site_label
 _atom_site_symmetry_multiplicity
 _atom_site_fract_x
 _atom_site_fract_y
 _atom_site_fract_z
 _atom_site_occupancy
  Li  Li0  1  0.000000  0.000000  0.500000  1
  Li  Li1  1  0.223239  0.644210  0.826236  1
  Li  Li2  1  0.000000  0.500000  0.000000  1
  Li  Li3  1  0.223239  0.855790  0.326236  1
  Li  Li4  1  0.450116  0.051060  0.821737  1
  Li  Li5  1  0.354761  0.760637  0.699608  1
  Li  Li6  1  0.645239  0.260637  0.800392  1
  Li  Li7  1  0.450116  0.448940  0.321737  1
  Li  Li8  1  0.549884  0.551060  0.678263  1
  Li  Li9  1  0.354761  0.739363  0.199608  1
  Li  Li10  1  0.645239  0.239363  0.300392  1
  Li  Li11  1  0.549884  0.948940  0.178263  1
  Li  Li12  1  0.776761  0.144210  0.673764  1
  Li  Li13  1  0.776761  0.355790  0.173764  1
  Cr  Cr14  1  0.017577  0.338839  0.951436  1
  Cr  Cr15  1  0.101073  0.920023  0.891394  1
  Cr  Cr16  1  0.017577  0.161161  0.451436  1
  Cr  Cr17  1  0.101073  0.579977  0.391394  1
  Cr  Cr18  1  0.281858  0.361440  0.801271  1
  Cr  Cr19  1  0.281858  0.138560  0.301271  1
  Cr  Cr20  1  0.500000  0.000000  0.500000  1
  Cr  Cr21  1  0.718142  0.861440  0.698729  1
  Cr  Cr22  1  0.500000  0.500000  0.000000  1
  Cr  Cr23  1  0.718142  0.638560  0.198729  1
  Cr  Cr24  1  0.898927  0.420023  0.608606  1
  Cr  Cr25  1  0.982423  0.838839  0.548564  1
  Cr  Cr26  1  0.898927  0.079977  0.108606  1
  Cr  Cr27  1  0.982423  0.661161  0.048564  1
  P  P28  1  0.955071  0.274891  0.650618  1
  P  P29  1  0.180283  0.506782  0.685810  1
  P  P30  1  0.955071  0.225109  0.150618  1
  P  P31  1  0.344929  0.915068  0.699231  1
  P  P32  1  0.383677  0.147120  0.597739  1
  P  P33  1  0.180283  0.993218  0.185810  1
  P  P34  1  0.344929  0.584932  0.199231  1
  P  P35  1  0.616323  0.647120  0.902261  1
  P  P36  1  0.383677  0.352880  0.097739  1
  P  P37  1  0.655071  0.415068  0.800769  1
  P  P38  1  0.819717  0.006782  0.814190  1
  P  P39  1  0.616323  0.852880  0.402261  1
  P  P40  1  0.655071  0.084932  0.300769  1
  P  P41  1  0.044929  0.774891  0.849382  1
  P  P42  1  0.819717  0.493218  0.314190  1
  P  P43  1  0.044929  0.725109  0.349382  1
  O  O44  1  0.098017  0.704853  0.916889  1
  O  O45  1  0.153155  0.827415  0.960860  1
  O  O46  1  0.060173  0.394232  0.811302  1
  O  O47  1  0.103423  0.775814  0.712945  1
  O  O48  1  0.973419  0.514910  0.642499  1
  O  O49  1  0.098017  0.795147  0.416889  1
  O  O50  1  0.153155  0.672585  0.460860  1
  O  O51  1  0.273060  0.302117  0.976189  1
  O  O52  1  0.060173  0.105768  0.311302  1
  O  O53  1  0.248577  0.116192  0.656796  1
  O  O54  1  0.103423  0.724186  0.212945  1
  O  O55  1  0.973419  0.985090  0.142499  1
  O  O56  1  0.159720  0.284523  0.686645  1
  O  O57  1  0.163026  0.909007  0.564609  1
  O  O58  1  0.319717  0.927332  0.843912  1
  O  O59  1  0.264441  0.525472  0.848902  1
  O  O60  1  0.206236  0.432509  0.646676  1
  O  O61  1  0.259879  0.553323  0.600820  1
  O  O62  1  0.431196  0.405523  0.997895  1
  O  O63  1  0.273060  0.197883  0.476189  1
  O  O64  1  0.431173  0.980003  0.671319  1
  O  O65  1  0.248577  0.383808  0.156796  1
  O  O66  1  0.159720  0.215477  0.186645  1
  O  O67  1  0.163026  0.590993  0.064609  1
  O  O68  1  0.319717  0.572668  0.343913  1
  O  O69  1  0.264441  0.974528  0.348902  1
  O  O70  1  0.206236  0.067491  0.146676  1
  O  O71  1  0.259879  0.946677  0.100820  1
  O  O72  1  0.431196  0.094477  0.497895  1
  O  O73  1  0.442467  0.675724  0.793337  1
  O  O74  1  0.538724  0.351899  0.790402  1
  O  O75  1  0.461276  0.851899  0.709598  1
  O  O76  1  0.557533  0.175724  0.706663  1
  O  O77  1  0.568827  0.480003  0.828681  1
  O  O78  1  0.431173  0.519997  0.171320  1
  O  O79  1  0.442467  0.824276  0.293337  1
  O  O80  1  0.538724  0.148101  0.290402  1
  O  O81  1  0.461276  0.648101  0.209598  1
  O  O82  1  0.557533  0.324276  0.206663  1
  O  O83  1  0.568804  0.905523  0.502105  1
  O  O84  1  0.740121  0.053323  0.899180  1
  O  O85  1  0.793764  0.932509  0.853324  1
  O  O86  1  0.735559  0.025472  0.651098  1
  O  O87  1  0.680283  0.427332  0.656088  1
  O  O88  1  0.836974  0.409007  0.935391  1
  O  O89  1  0.840280  0.784523  0.813355  1
  O  O90  1  0.751423  0.616192  0.843204  1
  O  O91  1  0.568827  0.019997  0.328680  1
  O  O92  1  0.726940  0.802117  0.523811  1
  O  O93  1  0.568804  0.594477  0.002105  1
  O  O94  1  0.740121  0.446677  0.399180  1
  O  O95  1  0.793764  0.567491  0.353324  1
  O  O96  1  0.735559  0.474528  0.151098  1
  O  O97  1  0.680283  0.072668  0.156087  1
  O  O98  1  0.836974  0.090993  0.435391  1
  O  O99  1  0.840280  0.715477  0.313355  1
  O  O100  1  0.026581  0.014910  0.857501  1
  O  O101  1  0.896577  0.275814  0.787055  1
  O  O102  1  0.751423  0.883808  0.343204  1
  O  O103  1  0.939827  0.894232  0.688698  1
  O  O104  1  0.726940  0.697883  0.023811  1
  O  O105  1  0.846845  0.327415  0.539140  1
  O  O106  1  0.901983  0.204853  0.583111  1
  O  O107  1  0.026581  0.485090  0.357501  1
  O  O108  1  0.896577  0.224186  0.287055  1
  O  O109  1  0.939827  0.605768  0.188698  1
  O  O110  1  0.846845  0.172585  0.039140  1
  O  O111  1  0.901983  0.295147  0.083111  1
