# generated using pymatgen
data_V6O7F5
_symmetry_space_group_name_H-M   'P 1'
_cell_length_a   4.64540952
_cell_length_b   7.81123015
_cell_length_c   5.62902154
_cell_angle_alpha   92.95360579
_cell_angle_beta   90.85574018
_cell_angle_gamma   89.13443782
_symmetry_Int_Tables_number   1
_chemical_formula_structural   V6O7F5
_chemical_formula_sum   'V6 O7 F5'
_cell_volume   203.94160693
_cell_formula_units_Z   1
loop_
 _symmetry_equiv_pos_site_id
 _symmetry_equiv_pos_as_xyz
  1  'x, y, z'
loop_
 _atom_site_type_symbol
 _atom_site_label
 _atom_site_symmetry_multiplicity
 _atom_site_fract_x
 _atom_site_fract_y
 _atom_site_fract_z
 _atom_site_occupancy
  V  V0  1  0.532960  0.652708  0.156067  1
  V  V1  1  0.501715  0.002199  0.503165  1
  V  V2  1  0.476981  0.351746  0.826237  1
  V  V3  1  -0.000297  0.693758  0.677878  1
  V  V4  1  0.987273  0.319157  0.337694  1
  V  V5  1  0.987214  0.993037  0.008670  1
  O  O6  1  0.807130  0.091463  0.299119  1
  O  O7  1  0.798569  0.769629  0.958769  1
  O  O8  1  0.713614  0.760343  0.467333  1
  O  O9  1  0.699100  0.424279  0.123003  1
  O  O10  1  0.283684  0.569397  0.851686  1
  O  O11  1  0.309109  0.233059  0.535679  1
  O  O12  1  0.197818  0.904725  0.715061  1
  F  F13  1  0.803662  0.442744  0.631173  1
  F  F14  1  0.699642  0.114277  0.805034  1
  F  F15  1  0.305169  0.886665  0.204535  1
  F  F16  1  0.198940  0.224762  0.035561  1
  F  F17  1  0.197716  0.566052  0.363336  1
