# generated using pymatgen
data_LaTh4O10
_symmetry_space_group_name_H-M   'P 1'
_cell_length_a   6.91409192
_cell_length_b   5.64403786
_cell_length_c   6.91409192
_cell_angle_alpha   65.91103313
_cell_angle_beta   99.58962707
_cell_angle_gamma   114.08896687
_symmetry_Int_Tables_number   1
_chemical_formula_structural   LaTh4O10
_chemical_formula_sum   'La1 Th4 O10'
_cell_volume   224.86341387
_cell_formula_units_Z   1
loop_
 _symmetry_equiv_pos_site_id
 _symmetry_equiv_pos_as_xyz
  1  'x, y, z'
loop_
 _atom_site_type_symbol
 _atom_site_label
 _atom_site_symmetry_multiplicity
 _atom_site_fract_x
 _atom_site_fract_y
 _atom_site_fract_z
 _atom_site_occupancy
  La  La0  1  0.200000  0.400000  0.400000  1
  Th  Th1  1  0.398996  0.799506  0.799984  1
  Th  Th2  1  0.001004  0.000494  0.000016  1
  Th  Th3  1  0.800016  0.600510  0.598996  1
  Th  Th4  1  0.599984  0.199490  0.201004  1
  O  O5  1  0.097063  0.939839  0.706392  1
  O  O6  1  0.097063  0.450832  0.706392  1
  O  O7  1  0.506392  0.757224  0.502937  1
  O  O8  1  0.700000  0.150000  0.900000  1
  O  O9  1  0.700000  0.650000  0.900000  1
  O  O10  1  0.302937  0.349168  0.093608  1
  O  O11  1  0.302937  0.860161  0.093608  1
  O  O12  1  0.506392  0.246231  0.502937  1
  O  O13  1  0.893608  0.042776  0.297063  1
  O  O14  1  0.893608  0.553769  0.297063  1
