# generated using pymatgen
data_Cu2(SO4)3
_symmetry_space_group_name_H-M   'P 1'
_cell_length_a   8.32382821
_cell_length_b   11.70584912
_cell_length_c   8.60412099
_cell_angle_alpha   90.00000000
_cell_angle_beta   90.00000000
_cell_angle_gamma   91.20681554
_symmetry_Int_Tables_number   1
_chemical_formula_structural   Cu2(SO4)3
_chemical_formula_sum   'Cu8 S12 O48'
_cell_volume   838.17788097
_cell_formula_units_Z   4
loop_
 _symmetry_equiv_pos_site_id
 _symmetry_equiv_pos_as_xyz
  1  'x, y, z'
loop_
 _atom_site_type_symbol
 _atom_site_label
 _atom_site_symmetry_multiplicity
 _atom_site_fract_x
 _atom_site_fract_y
 _atom_site_fract_z
 _atom_site_occupancy
  Cu  Cu0  1  0.250993  0.891501  0.032044  1
  Cu  Cu1  1  0.249007  0.608499  0.532044  1
  Cu  Cu2  1  0.252449  0.385170  0.967996  1
  Cu  Cu3  1  0.247551  0.114830  0.467996  1
  Cu  Cu4  1  0.752449  0.885170  0.532004  1
  Cu  Cu5  1  0.747551  0.614830  0.032004  1
  Cu  Cu6  1  0.750993  0.391501  0.467956  1
  Cu  Cu7  1  0.749007  0.108499  0.967956  1
  S  S8  1  0.041898  0.493021  0.249202  1
  S  S9  1  0.110707  0.848841  0.378195  1
  S  S10  1  0.116682  0.145304  0.113655  1
  S  S11  1  0.389293  0.651159  0.878195  1
  S  S12  1  0.383318  0.354696  0.613655  1
  S  S13  1  0.458102  0.006979  0.749202  1
  S  S14  1  0.541898  0.993021  0.250798  1
  S  S15  1  0.616682  0.645304  0.386345  1
  S  S16  1  0.610707  0.348841  0.121805  1
  S  S17  1  0.883318  0.854696  0.886345  1
  S  S18  1  0.889293  0.151159  0.621805  1
  S  S19  1  0.958102  0.506979  0.750798  1
  O  O20  1  0.045866  0.447372  0.874086  1
  O  O21  1  0.049489  0.901192  0.882836  1
  O  O22  1  0.052915  0.601656  0.677143  1
  O  O23  1  0.054142  0.190146  0.576896  1
  O  O24  1  0.094632  0.582513  0.360716  1
  O  O25  1  0.120823  0.831343  0.206922  1
  O  O26  1  0.129407  0.971845  0.414457  1
  O  O27  1  0.122309  0.242584  0.002537  1
  O  O28  1  0.164619  0.188317  0.269802  1
  O  O29  1  0.187825  0.440341  0.182616  1
  O  O30  1  0.231529  0.783096  0.464590  1
  O  O31  1  0.268471  0.716904  0.964590  1
  O  O32  1  0.234018  0.059650  0.059697  1
  O  O33  1  0.265982  0.440350  0.559697  1
  O  O34  1  0.312175  0.059659  0.682616  1
  O  O35  1  0.335381  0.311683  0.769802  1
  O  O36  1  0.370593  0.528155  0.914457  1
  O  O37  1  0.377690  0.257416  0.502537  1
  O  O38  1  0.379177  0.668657  0.706922  1
  O  O39  1  0.405368  0.917487  0.860716  1
  O  O40  1  0.447085  0.898344  0.177143  1
  O  O41  1  0.450511  0.598808  0.382836  1
  O  O42  1  0.445858  0.309854  0.076896  1
  O  O43  1  0.454134  0.052628  0.374086  1
  O  O44  1  0.545866  0.947372  0.625914  1
  O  O45  1  0.554142  0.690146  0.923104  1
  O  O46  1  0.549489  0.401192  0.617164  1
  O  O47  1  0.552915  0.101656  0.822857  1
  O  O48  1  0.594632  0.082513  0.139284  1
  O  O49  1  0.620823  0.331343  0.293078  1
  O  O50  1  0.622309  0.742584  0.497462  1
  O  O51  1  0.629407  0.471845  0.085543  1
  O  O52  1  0.664619  0.688317  0.230198  1
  O  O53  1  0.687825  0.940341  0.317384  1
  O  O54  1  0.734018  0.559650  0.440303  1
  O  O55  1  0.765982  0.940350  0.940303  1
  O  O56  1  0.731529  0.283096  0.035410  1
  O  O57  1  0.768471  0.216904  0.535410  1
  O  O58  1  0.812175  0.559659  0.817384  1
  O  O59  1  0.835381  0.811683  0.730198  1
  O  O60  1  0.877691  0.757416  0.997463  1
  O  O61  1  0.870593  0.028155  0.585543  1
  O  O62  1  0.879177  0.168657  0.793078  1
  O  O63  1  0.905368  0.417487  0.639284  1
  O  O64  1  0.945858  0.809854  0.423104  1
  O  O65  1  0.947085  0.398344  0.322857  1
  O  O66  1  0.950511  0.098808  0.117164  1
  O  O67  1  0.954134  0.552628  0.125914  1
