# generated using pymatgen
data_Mn3O2F5
_symmetry_space_group_name_H-M   'P 1'
_cell_length_a   8.43001932
_cell_length_b   13.89236130
_cell_length_c   6.42829684
_cell_angle_alpha   89.84807875
_cell_angle_beta   67.78404412
_cell_angle_gamma   145.30680553
_symmetry_Int_Tables_number   1
_chemical_formula_structural   Mn3O2F5
_chemical_formula_sum   'Mn6 O4 F10'
_cell_volume   318.82756862
_cell_formula_units_Z   2
loop_
 _symmetry_equiv_pos_site_id
 _symmetry_equiv_pos_as_xyz
  1  'x, y, z'
loop_
 _atom_site_type_symbol
 _atom_site_label
 _atom_site_symmetry_multiplicity
 _atom_site_fract_x
 _atom_site_fract_y
 _atom_site_fract_z
 _atom_site_occupancy
  Mn  Mn0  1  0.003460  0.110558  0.999612  1
  Mn  Mn1  1  0.499923  0.999343  0.502036  1
  Mn  Mn2  1  0.502383  0.001635  0.000729  1
  Mn  Mn3  1  0.499513  0.499201  0.004030  1
  Mn  Mn4  1  0.502988  0.501895  0.501734  1
  Mn  Mn5  1  0.002727  0.892489  0.998961  1
  O  O6  1  0.002436  0.799872  0.221479  1
  O  O7  1  0.999714  0.798195  0.780559  1
  O  O8  1  0.002809  0.203738  0.779879  1
  O  O9  1  0.000180  0.200890  0.223501  1
  F  F10  1  0.005051  0.002122  0.190590  1
  F  F11  1  0.008485  0.004475  0.803891  1
  F  F12  1  0.596255  0.444529  0.707242  1
  F  F13  1  0.594540  0.150821  0.704862  1
  F  F14  1  0.560722  0.111042  0.223291  1
  F  F15  1  0.564878  0.451429  0.222440  1
  F  F16  1  0.439684  0.888894  0.781924  1
  F  F17  1  0.439072  0.549983  0.783699  1
  F  F18  1  0.407174  0.556600  0.297783  1
  F  F19  1  0.412728  0.851981  0.292977  1
