# generated using pymatgen
data_Li3Sb(PO4)2
_symmetry_space_group_name_H-M   'P 1'
_cell_length_a   8.37244488
_cell_length_b   8.37244488
_cell_length_c   8.37244428
_cell_angle_alpha   68.96868091
_cell_angle_beta   68.96868091
_cell_angle_gamma   68.96868409
_symmetry_Int_Tables_number   1
_chemical_formula_structural   Li3Sb(PO4)2
_chemical_formula_sum   'Li9 Sb3 P6 O24'
_cell_volume   493.14904228
_cell_formula_units_Z   3
loop_
 _symmetry_equiv_pos_site_id
 _symmetry_equiv_pos_as_xyz
  1  'x, y, z'
loop_
 _atom_site_type_symbol
 _atom_site_label
 _atom_site_symmetry_multiplicity
 _atom_site_fract_x
 _atom_site_fract_y
 _atom_site_fract_z
 _atom_site_occupancy
  Li  Li0  1  0.301023  0.838842  0.622916  1
  Li  Li1  1  0.352757  0.746616  0.139309  1
  Li  Li2  1  0.139309  0.352757  0.746616  1
  Li  Li3  1  0.997457  0.997457  0.997457  1
  Li  Li4  1  0.511824  0.511824  0.511824  1
  Li  Li5  1  0.653538  0.653538  0.653538  1
  Li  Li6  1  0.838842  0.622916  0.301023  1
  Li  Li7  1  0.622916  0.301023  0.838842  1
  Li  Li8  1  0.746616  0.139309  0.352757  1
  Sb  Sb9  1  0.154952  0.154952  0.154952  1
  Sb  Sb10  1  0.341502  0.341502  0.341502  1
  Sb  Sb11  1  0.844507  0.844507  0.844507  1
  P  P12  1  0.083596  0.752711  0.422450  1
  P  P13  1  0.582030  0.910004  0.245091  1
  P  P14  1  0.245091  0.582030  0.910004  1
  P  P15  1  0.752711  0.422450  0.083596  1
  P  P16  1  0.422450  0.083596  0.752711  1
  P  P17  1  0.910004  0.245091  0.582030  1
  O  O18  1  0.100618  0.898411  0.232564  1
  O  O19  1  0.095418  0.767802  0.894929  1
  O  O20  1  0.463661  0.916991  0.696100  1
  O  O21  1  0.563548  0.093775  0.821466  1
  O  O22  1  0.262739  0.597247  0.393511  1
  O  O23  1  0.170511  0.429558  0.931180  1
  O  O24  1  0.072096  0.304186  0.562823  1
  O  O25  1  0.593902  0.738951  0.396886  1
  O  O26  1  0.767802  0.894929  0.095418  1
  O  O27  1  0.931180  0.170511  0.429558  1
  O  O28  1  0.304186  0.562823  0.072096  1
  O  O29  1  0.396886  0.593902  0.738951  1
  O  O30  1  0.597247  0.393511  0.262739  1
  O  O31  1  0.696100  0.463661  0.916991  1
  O  O32  1  0.093775  0.821466  0.563548  1
  O  O33  1  0.393511  0.262739  0.597247  1
  O  O34  1  0.232564  0.100618  0.898411  1
  O  O35  1  0.821466  0.563548  0.093775  1
  O  O36  1  0.916991  0.696100  0.463661  1
  O  O37  1  0.738951  0.396886  0.593902  1
  O  O38  1  0.429558  0.931180  0.170511  1
  O  O39  1  0.562823  0.072096  0.304186  1
  O  O40  1  0.898411  0.232564  0.100618  1
  O  O41  1  0.894929  0.095418  0.767802  1
