# generated using pymatgen
data_Li8TiMn3(PO4)6
_symmetry_space_group_name_H-M   'P 1'
_cell_length_a   9.34681376
_cell_length_b   8.43767068
_cell_length_c   8.48973422
_cell_angle_alpha   60.68862144
_cell_angle_beta   63.18558168
_cell_angle_gamma   90.30084115
_symmetry_Int_Tables_number   1
_chemical_formula_structural   Li8TiMn3(PO4)6
_chemical_formula_sum   'Li8 Ti1 Mn3 P6 O24'
_cell_volume   498.57357588
_cell_formula_units_Z   1
loop_
 _symmetry_equiv_pos_site_id
 _symmetry_equiv_pos_as_xyz
  1  'x, y, z'
loop_
 _atom_site_type_symbol
 _atom_site_label
 _atom_site_symmetry_multiplicity
 _atom_site_fract_x
 _atom_site_fract_y
 _atom_site_fract_z
 _atom_site_occupancy
  Li  Li0  1  0.863485  0.264016  0.809301  1
  Li  Li1  1  0.901028  0.938429  0.368813  1
  Li  Li2  1  0.854160  0.662568  0.068910  1
  Li  Li3  1  0.593779  0.798884  0.667253  1
  Li  Li4  1  0.414480  0.199016  0.330254  1
  Li  Li5  1  0.146850  0.344715  0.921973  1
  Li  Li6  1  0.095105  0.056722  0.637396  1
  Li  Li7  1  0.136818  0.735763  0.200301  1
  Ti  Ti8  1  0.034314  0.353468  0.306728  1
  Mn  Mn9  1  0.968653  0.649561  0.688992  1
  Mn  Mn10  1  0.438910  0.150088  0.710937  1
  Mn  Mn11  1  0.562347  0.849848  0.285770  1
  P  P12  1  0.752151  0.955418  0.779571  1
  P  P13  1  0.750803  0.539568  0.509875  1
  P  P14  1  0.759617  0.252431  0.198492  1
  P  P15  1  0.238719  0.748686  0.813586  1
  P  P16  1  0.247355  0.445775  0.495108  1
  P  P17  1  0.247969  0.058819  0.205237  1
  O  O18  1  0.893549  0.158650  0.627451  1
  O  O19  1  0.811554  0.491534  0.664558  1
  O  O20  1  0.810050  0.843005  0.672404  1
  O  O21  1  0.899195  0.538105  0.311760  1
  O  O22  1  0.899619  0.210924  0.264230  1
  O  O23  1  0.739096  0.747910  0.416022  1
  O  O24  1  0.583924  0.975438  0.803015  1
  O  O25  1  0.590249  0.402500  0.601505  1
  O  O26  1  0.816153  0.466244  0.029768  1
  O  O27  1  0.759341  0.130057  0.110515  1
  O  O28  1  0.588878  0.191807  0.393498  1
  O  O29  1  0.751535  0.862734  0.988165  1
  O  O30  1  0.267988  0.165996  0.986000  1
  O  O31  1  0.406214  0.778645  0.631319  1
  O  O32  1  0.254220  0.862966  0.903627  1
  O  O33  1  0.167904  0.527332  0.999099  1
  O  O34  1  0.403983  0.605192  0.374170  1
  O  O35  1  0.408709  0.040460  0.210751  1
  O  O36  1  0.276311  0.246976  0.560720  1
  O  O37  1  0.102489  0.797205  0.753838  1
  O  O38  1  0.104062  0.428418  0.697213  1
  O  O39  1  0.175174  0.175745  0.311882  1
  O  O40  1  0.171854  0.484302  0.347970  1
  O  O41  1  0.111407  0.864080  0.342021  1
