# generated using pymatgen
data_V3Cr2Sb3O16
_symmetry_space_group_name_H-M   'P 1'
_cell_length_a   6.11975272
_cell_length_b   6.05962089
_cell_length_c   9.11469834
_cell_angle_alpha   90.00015206
_cell_angle_beta   90.02567950
_cell_angle_gamma   119.67515502
_symmetry_Int_Tables_number   1
_chemical_formula_structural   V3Cr2Sb3O16
_chemical_formula_sum   'V3 Cr2 Sb3 O16'
_cell_volume   293.67333458
_cell_formula_units_Z   1
loop_
 _symmetry_equiv_pos_site_id
 _symmetry_equiv_pos_as_xyz
  1  'x, y, z'
loop_
 _atom_site_type_symbol
 _atom_site_label
 _atom_site_symmetry_multiplicity
 _atom_site_fract_x
 _atom_site_fract_y
 _atom_site_fract_z
 _atom_site_occupancy
  V  V0  1  0.663397  0.831705  0.207781  1
  V  V1  1  0.833073  0.666351  0.708671  1
  V  V2  1  0.833024  0.166664  0.708631  1
  Cr  Cr3  1  0.339027  0.669531  0.489332  1
  Cr  Cr4  1  0.677562  0.338784  0.984614  1
  Sb  Sb5  1  0.165072  0.831027  0.211347  1
  Sb  Sb6  1  0.165077  0.334064  0.211350  1
  Sb  Sb7  1  0.337270  0.168652  0.709649  1
  O  O8  1  0.164939  0.829555  0.606561  1
  O  O9  1  0.042603  0.521311  0.346427  1
  O  O10  1  0.319203  0.659609  0.090975  1
  O  O11  1  0.005674  0.002847  0.321559  1
  O  O12  1  0.998987  0.999500  0.812376  1
  O  O13  1  0.164934  0.335406  0.606556  1
  O  O14  1  0.471021  0.951303  0.338093  1
  O  O15  1  0.471022  0.519741  0.338096  1
  O  O16  1  0.332046  0.166028  0.099452  1
  O  O17  1  0.669151  0.834597  0.611017  1
  O  O18  1  0.532309  0.480761  0.838908  1
  O  O19  1  0.532314  0.051572  0.838905  1
  O  O20  1  0.666499  0.333259  0.595475  1
  O  O21  1  0.836671  0.666760  0.105792  1
  O  O22  1  0.942447  0.471247  0.828360  1
  O  O23  1  0.836678  0.169928  0.105792  1
