# generated using pymatgen
data_Li4Ti3(NiO4)3
_symmetry_space_group_name_H-M   'P 1'
_cell_length_a   5.32754777
_cell_length_b   7.73794010
_cell_length_c   5.63410667
_cell_angle_alpha   68.76729044
_cell_angle_beta   90.03121295
_cell_angle_gamma   96.48190160
_symmetry_Int_Tables_number   1
_chemical_formula_structural   Li4Ti3(NiO4)3
_chemical_formula_sum   'Li4 Ti3 Ni3 O12'
_cell_volume   214.90714991
_cell_formula_units_Z   1
loop_
 _symmetry_equiv_pos_site_id
 _symmetry_equiv_pos_as_xyz
  1  'x, y, z'
loop_
 _atom_site_type_symbol
 _atom_site_label
 _atom_site_symmetry_multiplicity
 _atom_site_fract_x
 _atom_site_fract_y
 _atom_site_fract_z
 _atom_site_occupancy
  Li  Li0  1  0.669500  0.664954  0.172016  1
  Li  Li1  1  0.335633  0.328565  0.834406  1
  Li  Li2  1  0.166525  0.667336  0.916613  1
  Li  Li3  1  0.995562  0.006143  0.495209  1
  Ti  Ti4  1  0.820816  0.323809  0.086766  1
  Ti  Ti5  1  0.512959  0.010546  0.738460  1
  Ti  Ti6  1  0.165089  0.664776  0.409999  1
  Ni  Ni7  1  0.667171  0.667129  0.664925  1
  Ni  Ni8  1  0.329313  0.332549  0.335288  1
  Ni  Ni9  1  0.002836  0.000147  0.002448  1
  O  O10  1  0.969403  0.521895  0.744431  1
  O  O11  1  0.878331  0.813255  0.347537  1
  O  O12  1  0.795262  0.851333  0.825753  1
  O  O13  1  0.695401  0.152846  0.922268  1
  O  O14  1  0.646462  0.176888  0.410539  1
  O  O15  1  0.538521  0.479688  0.007904  1
  O  O16  1  0.453698  0.522515  0.490527  1
  O  O17  1  0.365962  0.813377  0.602156  1
  O  O18  1  0.299518  0.842211  0.077345  1
  O  O19  1  0.216151  0.139811  0.681152  1
  O  O20  1  0.118742  0.193404  0.152440  1
  O  O21  1  0.023815  0.493490  0.248485  1
