# generated using pymatgen
data_Cs4Zr3Mn(PO4)6
_symmetry_space_group_name_H-M   'P 1'
_cell_length_a   10.50957865
_cell_length_b   10.51429855
_cell_length_c   10.50685906
_cell_angle_alpha   90.00000000
_cell_angle_beta   90.00000000
_cell_angle_gamma   90.00927994
_symmetry_Int_Tables_number   1
_chemical_formula_structural   Cs4Zr3Mn(PO4)6
_chemical_formula_sum   'Cs8 Zr6 Mn2 P12 O48'
_cell_volume   1161.01681709
_cell_formula_units_Z   2
loop_
 _symmetry_equiv_pos_site_id
 _symmetry_equiv_pos_as_xyz
  1  'x, y, z'
loop_
 _atom_site_type_symbol
 _atom_site_label
 _atom_site_symmetry_multiplicity
 _atom_site_fract_x
 _atom_site_fract_y
 _atom_site_fract_z
 _atom_site_occupancy
  Cs  Cs0  1  0.064537  0.066343  0.067142  1
  Cs  Cs1  1  0.205547  0.717112  0.789479  1
  Cs  Cs2  1  0.294453  0.282888  0.289479  1
  Cs  Cs3  1  0.435463  0.933657  0.567142  1
  Cs  Cs4  1  0.573435  0.428011  0.928812  1
  Cs  Cs5  1  0.714438  0.797574  0.209953  1
  Cs  Cs6  1  0.785562  0.202426  0.709953  1
  Cs  Cs7  1  0.926565  0.571989  0.428812  1
  Zr  Zr8  1  0.083017  0.914013  0.414321  1
  Zr  Zr9  1  0.139854  0.357252  0.640587  1
  Zr  Zr10  1  0.360146  0.642748  0.140587  1
  Zr  Zr11  1  0.416983  0.085987  0.914321  1
  Zr  Zr12  1  0.590147  0.587830  0.587433  1
  Zr  Zr13  1  0.909853  0.412170  0.087433  1
  Mn  Mn14  1  0.645552  0.142068  0.356067  1
  Mn  Mn15  1  0.854448  0.857932  0.856067  1
  P  P16  1  0.041678  0.727738  0.125061  1
  P  P17  1  0.126260  0.041664  0.729180  1
  P  P18  1  0.227983  0.374740  0.957779  1
  P  P19  1  0.272017  0.625260  0.457779  1
  P  P20  1  0.373740  0.958336  0.229180  1
  P  P21  1  0.458322  0.272262  0.625061  1
  P  P22  1  0.543865  0.769950  0.875899  1
  P  P23  1  0.622781  0.456282  0.271168  1
  P  P24  1  0.730634  0.122827  0.043595  1
  P  P25  1  0.769366  0.877173  0.543595  1
  P  P26  1  0.877219  0.543718  0.771168  1
  P  P27  1  0.956135  0.230050  0.375899  1
  O  O28  1  0.009922  0.092317  0.359174  1
  O  O29  1  0.028766  0.797745  0.256534  1
  O  O30  1  0.026324  0.965504  0.799678  1
  O  O31  1  0.043790  0.298118  0.476302  1
  O  O32  1  0.089072  0.185683  0.725433  1
  O  O33  1  0.090386  0.359130  0.008686  1
  O  O34  1  0.143087  0.992645  0.589278  1
  O  O35  1  0.185849  0.723617  0.089139  1
  O  O36  1  0.202029  0.521542  0.536745  1
  O  O37  1  0.198373  0.752445  0.474913  1
  O  O38  1  0.227399  0.414925  0.815885  1
  O  O39  1  0.257424  0.029513  0.799050  1
  O  O40  1  0.242576  0.970487  0.299050  1
  O  O41  1  0.272601  0.585075  0.315885  1
  O  O42  1  0.301627  0.247555  0.974913  1
  O  O43  1  0.297971  0.478458  0.036745  1
  O  O44  1  0.314151  0.276383  0.589139  1
  O  O45  1  0.356913  0.007355  0.089278  1
  O  O46  1  0.409614  0.640870  0.508686  1
  O  O47  1  0.410928  0.814317  0.225433  1
  O  O48  1  0.456210  0.701882  0.976302  1
  O  O49  1  0.473676  0.034496  0.299678  1
  O  O50  1  0.471234  0.202255  0.756534  1
  O  O51  1  0.490078  0.907683  0.859174  1
  O  O52  1  0.507953  0.411395  0.642368  1
  O  O53  1  0.524514  0.697122  0.747100  1
  O  O54  1  0.522156  0.543008  0.202387  1
  O  O55  1  0.533271  0.200959  0.524521  1
  O  O56  1  0.578785  0.318810  0.266866  1
  O  O57  1  0.590253  0.142109  0.990855  1
  O  O58  1  0.640032  0.510308  0.408556  1
  O  O59  1  0.681059  0.765005  0.920901  1
  O  O60  1  0.700089  0.971484  0.458753  1
  O  O61  1  0.700918  0.742719  0.528872  1
  O  O62  1  0.731287  0.083065  0.182895  1
  O  O63  1  0.752081  0.476056  0.198633  1
  O  O64  1  0.747919  0.523944  0.698633  1
  O  O65  1  0.768713  0.916935  0.682895  1
  O  O66  1  0.799082  0.257281  0.028872  1
  O  O67  1  0.799911  0.028516  0.958753  1
  O  O68  1  0.818941  0.234995  0.420901  1
  O  O69  1  0.859968  0.489692  0.908556  1
  O  O70  1  0.909747  0.857891  0.490855  1
  O  O71  1  0.921215  0.681190  0.766866  1
  O  O72  1  0.966729  0.799041  0.024521  1
  O  O73  1  0.977844  0.456992  0.702387  1
  O  O74  1  0.975486  0.302878  0.247100  1
  O  O75  1  0.992047  0.588605  0.142368  1
