# generated using pymatgen
data_Li4Cu3Ni3(WO8)2
_symmetry_space_group_name_H-M   'P 1'
_cell_length_a   5.93719733
_cell_length_b   5.77878735
_cell_length_c   9.86205711
_cell_angle_alpha   89.99618386
_cell_angle_beta   86.67937982
_cell_angle_gamma   119.12543662
_symmetry_Int_Tables_number   1
_chemical_formula_structural   Li4Cu3Ni3(WO8)2
_chemical_formula_sum   'Li4 Cu3 Ni3 W2 O16'
_cell_volume   294.92980709
_cell_formula_units_Z   1
loop_
 _symmetry_equiv_pos_site_id
 _symmetry_equiv_pos_as_xyz
  1  'x, y, z'
loop_
 _atom_site_type_symbol
 _atom_site_label
 _atom_site_symmetry_multiplicity
 _atom_site_fract_x
 _atom_site_fract_y
 _atom_site_fract_z
 _atom_site_occupancy
  Li  Li0  1  0.326782  0.663218  0.908188  1
  Li  Li1  1  0.997693  0.999080  0.986585  1
  Li  Li2  1  0.014401  0.007256  0.487805  1
  Li  Li3  1  0.686969  0.343372  0.413601  1
  Cu  Cu4  1  0.175348  0.838122  0.211396  1
  Cu  Cu5  1  0.175124  0.337250  0.211487  1
  Cu  Cu6  1  0.336879  0.168206  0.712534  1
  Ni  Ni7  1  0.658895  0.829428  0.215475  1
  Ni  Ni8  1  0.832186  0.662514  0.712498  1
  Ni  Ni9  1  0.832209  0.169870  0.712512  1
  W  W10  1  0.374795  0.687454  0.489160  1
  W  W11  1  0.677382  0.338728  0.978780  1
  O  O12  1  0.163560  0.823473  0.584247  1
  O  O13  1  0.061892  0.531047  0.333380  1
  O  O14  1  0.326292  0.663122  0.118026  1
  O  O15  1  0.004437  0.002195  0.298036  1
  O  O16  1  0.007435  0.004111  0.798885  1
  O  O17  1  0.162576  0.340375  0.583993  1
  O  O18  1  0.509048  0.980606  0.364765  1
  O  O19  1  0.508953  0.528338  0.364954  1
  O  O20  1  0.306534  0.153180  0.092992  1
  O  O21  1  0.655548  0.827627  0.599214  1
  O  O22  1  0.502792  0.468983  0.850877  1
  O  O23  1  0.504110  0.033408  0.850820  1
  O  O24  1  0.659721  0.329593  0.618358  1
  O  O25  1  0.784830  0.641567  0.078686  1
  O  O26  1  0.968769  0.484634  0.851719  1
  O  O27  1  0.784841  0.143542  0.078867  1
