# generated using pymatgen
data_LiSnPO4
_symmetry_space_group_name_H-M   'P 1'
_cell_length_a   9.45668127
_cell_length_b   7.07595373
_cell_length_c   16.46878876
_cell_angle_alpha   90.00000000
_cell_angle_beta   89.88522692
_cell_angle_gamma   90.00000000
_symmetry_Int_Tables_number   1
_chemical_formula_structural   LiSnPO4
_chemical_formula_sum   'Li12 Sn12 P12 O48'
_cell_volume   1102.00743278
_cell_formula_units_Z   12
loop_
 _symmetry_equiv_pos_site_id
 _symmetry_equiv_pos_as_xyz
  1  'x, y, z'
loop_
 _atom_site_type_symbol
 _atom_site_label
 _atom_site_symmetry_multiplicity
 _atom_site_fract_x
 _atom_site_fract_y
 _atom_site_fract_z
 _atom_site_occupancy
  Li  Li0  1  0.240099  0.016485  0.920163  1
  Li  Li1  1  0.240913  0.973139  0.588711  1
  Li  Li2  1  0.251544  0.986544  0.232079  1
  Li  Li3  1  0.248456  0.486544  0.267921  1
  Li  Li4  1  0.259087  0.473139  0.911289  1
  Li  Li5  1  0.259901  0.516485  0.579837  1
  Li  Li6  1  0.740099  0.483515  0.420163  1
  Li  Li7  1  0.740913  0.526861  0.088711  1
  Li  Li8  1  0.751544  0.513456  0.732079  1
  Li  Li9  1  0.748456  0.013456  0.767921  1
  Li  Li10  1  0.759087  0.026861  0.411289  1
  Li  Li11  1  0.759901  0.983515  0.079837  1
  Sn  Sn12  1  0.035934  0.752518  0.401288  1
  Sn  Sn13  1  0.086239  0.738204  0.780374  1
  Sn  Sn14  1  0.129326  0.741500  0.065385  1
  Sn  Sn15  1  0.370674  0.241500  0.434615  1
  Sn  Sn16  1  0.413761  0.238204  0.719626  1
  Sn  Sn17  1  0.464066  0.252518  0.098712  1
  Sn  Sn18  1  0.535934  0.747482  0.901288  1
  Sn  Sn19  1  0.586239  0.761796  0.280374  1
  Sn  Sn20  1  0.629326  0.758500  0.565385  1
  Sn  Sn21  1  0.870674  0.258500  0.934615  1
  Sn  Sn22  1  0.913761  0.261796  0.219626  1
  Sn  Sn23  1  0.964066  0.247482  0.598712  1
  P  P24  1  0.051462  0.262609  0.410698  1
  P  P25  1  0.086758  0.236073  0.769089  1
  P  P26  1  0.107199  0.246442  0.072344  1
  P  P27  1  0.392801  0.746442  0.427656  1
  P  P28  1  0.413242  0.736073  0.730911  1
  P  P29  1  0.448538  0.762609  0.089302  1
  P  P30  1  0.551462  0.237391  0.910698  1
  P  P31  1  0.586758  0.263927  0.269089  1
  P  P32  1  0.607199  0.253558  0.572344  1
  P  P33  1  0.892801  0.753558  0.927656  1
  P  P34  1  0.913242  0.763927  0.230911  1
  P  P35  1  0.948538  0.737391  0.589302  1
  O  O36  1  0.944202  0.426391  0.415519  1
  O  O37  1  0.033482  0.922375  0.601226  1
  O  O38  1  0.137297  0.407258  0.819232  1
  O  O39  1  0.144693  0.245345  0.491415  1
  O  O40  1  0.061825  0.741638  0.922534  1
  O  O41  1  0.074037  0.755972  0.252077  1
  O  O42  1  0.153298  0.246581  0.163289  1
  O  O43  1  0.126139  0.055843  0.817435  1
  O  O44  1  0.167083  0.415593  0.023471  1
  O  O45  1  0.153304  0.064432  0.027409  1
  O  O46  1  0.162190  0.236354  0.681805  1
  O  O47  1  0.164269  0.296955  0.343193  1
  O  O48  1  0.335731  0.796955  0.156807  1
  O  O49  1  0.346696  0.564432  0.472591  1
  O  O50  1  0.337810  0.736354  0.818195  1
  O  O51  1  0.332917  0.915593  0.476529  1
  O  O52  1  0.373861  0.555843  0.682565  1
  O  O53  1  0.346702  0.746581  0.336711  1
  O  O54  1  0.425963  0.255972  0.247923  1
  O  O55  1  0.355307  0.745345  0.008585  1
  O  O56  1  0.438175  0.241638  0.577466  1
  O  O57  1  0.362703  0.907258  0.680768  1
  O  O58  1  0.466518  0.422375  0.898774  1
  O  O59  1  0.555798  0.926391  0.084481  1
  O  O60  1  0.444202  0.073609  0.915519  1
  O  O61  1  0.533482  0.577625  0.101226  1
  O  O62  1  0.637297  0.092742  0.319232  1
  O  O63  1  0.644693  0.254655  0.991415  1
  O  O64  1  0.561825  0.758362  0.422534  1
  O  O65  1  0.574037  0.744028  0.752077  1
  O  O66  1  0.653298  0.253419  0.663289  1
  O  O67  1  0.626139  0.444157  0.317435  1
  O  O68  1  0.667083  0.084407  0.523471  1
  O  O69  1  0.662190  0.263646  0.181805  1
  O  O70  1  0.653304  0.435568  0.527409  1
  O  O71  1  0.664269  0.203045  0.843193  1
  O  O72  1  0.835731  0.703045  0.656807  1
  O  O73  1  0.837810  0.763646  0.318195  1
  O  O74  1  0.846696  0.935568  0.972591  1
  O  O75  1  0.832917  0.584407  0.976529  1
  O  O76  1  0.873861  0.944157  0.182565  1
  O  O77  1  0.846702  0.753419  0.836711  1
  O  O78  1  0.925963  0.244028  0.747923  1
  O  O79  1  0.938175  0.258362  0.077466  1
  O  O80  1  0.855307  0.754655  0.508585  1
  O  O81  1  0.862703  0.592742  0.180768  1
  O  O82  1  0.966518  0.077625  0.398774  1
  O  O83  1  0.055798  0.573609  0.584481  1
