# generated using pymatgen
data_LiVFe(P2O7)2
_symmetry_space_group_name_H-M   'P 1'
_cell_length_a   9.76212540
_cell_length_b   8.09231511
_cell_length_c   13.32471531
_cell_angle_alpha   90.13985001
_cell_angle_beta   88.04609753
_cell_angle_gamma   89.99921622
_symmetry_Int_Tables_number   1
_chemical_formula_structural   LiVFe(P2O7)2
_chemical_formula_sum   'Li4 V4 Fe4 P16 O56'
_cell_volume   1052.01330000
_cell_formula_units_Z   4
loop_
 _symmetry_equiv_pos_site_id
 _symmetry_equiv_pos_as_xyz
  1  'x, y, z'
loop_
 _atom_site_type_symbol
 _atom_site_label
 _atom_site_symmetry_multiplicity
 _atom_site_fract_x
 _atom_site_fract_y
 _atom_site_fract_z
 _atom_site_occupancy
  Li  Li0  1  0.168020  0.864358  0.836135  1
  Li  Li1  1  0.418230  0.864252  0.336569  1
  Li  Li2  1  0.580938  0.360760  0.664993  1
  Li  Li3  1  0.830843  0.361327  0.164647  1
  V  V4  1  0.173599  0.494618  0.860781  1
  V  V5  1  0.422170  0.495941  0.361399  1
  V  V6  1  0.676318  0.507851  0.863950  1
  V  V7  1  0.927767  0.506131  0.363161  1
  Fe  Fe8  1  0.072558  0.009420  0.632905  1
  Fe  Fe9  1  0.324066  0.010527  0.132396  1
  Fe  Fe10  1  0.578096  0.994318  0.637518  1
  Fe  Fe11  1  0.826496  0.993536  0.137970  1
  P  P12  1  0.069664  0.177576  0.259847  1
  P  P13  1  0.087867  0.779057  0.043754  1
  P  P14  1  0.160998  0.283612  0.456868  1
  P  P15  1  0.183077  0.678576  0.239778  1
  P  P16  1  0.321539  0.180426  0.761560  1
  P  P17  1  0.335860  0.780680  0.543861  1
  P  P18  1  0.414388  0.285492  0.956716  1
  P  P19  1  0.429361  0.681719  0.738497  1
  P  P20  1  0.571159  0.180527  0.262055  1
  P  P21  1  0.585579  0.781725  0.043157  1
  P  P22  1  0.664437  0.285772  0.455706  1
  P  P23  1  0.678955  0.681622  0.238828  1
  P  P24  1  0.819115  0.177668  0.760281  1
  P  P25  1  0.837714  0.779647  0.542850  1
  P  P26  1  0.911128  0.283565  0.955951  1
  P  P27  1  0.932771  0.678443  0.739961  1
  O  O28  1  0.000644  0.847507  0.748257  1
  O  O29  1  0.030729  0.537920  0.765616  1
  O  O30  1  0.047427  0.666169  0.303082  1
  O  O31  1  0.067503  0.436862  0.454791  1
  O  O32  1  0.059553  0.331652  0.925371  1
  O  O33  1  0.111848  0.151254  0.375670  1
  O  O34  1  0.101699  0.684698  0.943049  1
  O  O35  1  0.142498  0.647712  0.125344  1
  O  O36  1  0.160699  0.190948  0.554762  1
  O  O37  1  0.179641  0.931919  0.039715  1
  O  O38  1  0.188606  0.823105  0.572927  1
  O  O39  1  0.200767  0.179234  0.196008  1
  O  O40  1  0.221190  0.040713  0.742327  1
  O  O41  1  0.250794  0.847485  0.247070  1
  O  O42  1  0.252009  0.351618  0.760161  1
  O  O43  1  0.280523  0.537470  0.264872  1
  O  O44  1  0.295306  0.673643  0.803556  1
  O  O45  1  0.309440  0.336172  0.426512  1
  O  O46  1  0.317208  0.435742  0.951732  1
  O  O47  1  0.348578  0.687429  0.442468  1
  O  O48  1  0.365416  0.149596  0.876098  1
  O  O49  1  0.411906  0.194326  0.054815  1
  O  O50  1  0.390389  0.644612  0.623796  1
  O  O51  1  0.438331  0.826029  0.071526  1
  O  O52  1  0.431798  0.930310  0.540994  1
  O  O53  1  0.450864  0.183577  0.694263  1
  O  O54  1  0.471374  0.040847  0.242586  1
  O  O55  1  0.501384  0.351303  0.261628  1
  O  O56  1  0.492273  0.851812  0.744135  1
  O  O57  1  0.529650  0.540215  0.760506  1
  O  O58  1  0.544842  0.672716  0.304344  1
  O  O59  1  0.567696  0.436844  0.453140  1
  O  O60  1  0.560701  0.340521  0.924359  1
  O  O61  1  0.614760  0.148317  0.377327  1
  O  O62  1  0.594218  0.681064  0.945062  1
  O  O63  1  0.638965  0.645535  0.124900  1
  O  O64  1  0.656360  0.202991  0.557855  1
  O  O65  1  0.682074  0.929747  0.043796  1
  O  O66  1  0.688517  0.820415  0.568844  1
  O  O67  1  0.700773  0.184489  0.195147  1
  O  O68  1  0.719726  0.040192  0.737443  1
  O  O69  1  0.742036  0.851672  0.245777  1
  O  O70  1  0.744390  0.347841  0.759607  1
  O  O71  1  0.779431  0.540076  0.260863  1
  O  O72  1  0.797559  0.665226  0.803968  1
  O  O73  1  0.810909  0.337192  0.423513  1
  O  O74  1  0.817875  0.438088  0.955931  1
  O  O75  1  0.846667  0.677910  0.445683  1
  O  O76  1  0.860407  0.149954  0.876908  1
  O  O77  1  0.904374  0.200147  0.057912  1
  O  O78  1  0.891162  0.648348  0.626425  1
  O  O79  1  0.938630  0.817625  0.070070  1
  O  O80  1  0.930241  0.930956  0.542408  1
  O  O81  1  0.950867  0.180042  0.696991  1
  O  O82  1  0.969345  0.040512  0.237344  1
  O  O83  1  0.994842  0.348190  0.258502  1
