# generated using pymatgen
data_Fe6O5F7
_symmetry_space_group_name_H-M   'P 1'
_cell_length_a   7.40923659
_cell_length_b   5.70557459
_cell_length_c   5.66615173
_cell_angle_alpha   73.37659836
_cell_angle_beta   71.99228029
_cell_angle_gamma   72.75917235
_symmetry_Int_Tables_number   1
_chemical_formula_structural   Fe6O5F7
_chemical_formula_sum   'Fe6 O5 F7'
_cell_volume   212.51736209
_cell_formula_units_Z   1
loop_
 _symmetry_equiv_pos_site_id
 _symmetry_equiv_pos_as_xyz
  1  'x, y, z'
loop_
 _atom_site_type_symbol
 _atom_site_label
 _atom_site_symmetry_multiplicity
 _atom_site_fract_x
 _atom_site_fract_y
 _atom_site_fract_z
 _atom_site_occupancy
  Fe  Fe0  1  0.837260  0.699312  0.679713  1
  Fe  Fe1  1  0.667764  0.309805  0.362172  1
  Fe  Fe2  1  0.309214  0.678510  0.623939  1
  Fe  Fe3  1  0.178906  0.307316  0.329222  1
  Fe  Fe4  1  0.498077  0.998687  0.997481  1
  Fe  Fe5  1  0.005296  0.007388  0.007667  1
  O  O6  1  0.669275  0.022370  0.640414  1
  O  O7  1  0.964835  0.229148  0.231326  1
  O  O8  1  0.029641  0.780285  0.782054  1
  O  O9  1  0.373987  0.427698  0.424074  1
  O  O10  1  0.330658  0.971104  0.354376  1
  F  F11  1  0.325065  0.385869  0.956198  1
  F  F12  1  0.291144  0.893554  0.888775  1
  F  F13  1  0.632850  0.567765  0.572865  1
  F  F14  1  0.713040  0.099616  0.101672  1
  F  F15  1  0.677275  0.611902  0.037248  1
  F  F16  1  0.996881  0.316533  0.695859  1
  F  F17  1  0.998833  0.693138  0.314943  1
