# generated using pymatgen
data_Li4Co5CuO12
_symmetry_space_group_name_H-M   'P 1'
_cell_length_a   4.93338354
_cell_length_b   4.92044452
_cell_length_c   9.92282363
_cell_angle_alpha   90.46992730
_cell_angle_beta   90.92771645
_cell_angle_gamma   59.92831250
_symmetry_Int_Tables_number   1
_chemical_formula_structural   Li4Co5CuO12
_chemical_formula_sum   'Li4 Co5 Cu1 O12'
_cell_volume   208.42221830
_cell_formula_units_Z   1
loop_
 _symmetry_equiv_pos_site_id
 _symmetry_equiv_pos_as_xyz
  1  'x, y, z'
loop_
 _atom_site_type_symbol
 _atom_site_label
 _atom_site_symmetry_multiplicity
 _atom_site_fract_x
 _atom_site_fract_y
 _atom_site_fract_z
 _atom_site_occupancy
  Li  Li0  1  0.169271  0.490804  0.748071  1
  Li  Li1  1  0.334623  0.504270  0.251342  1
  Li  Li2  1  0.667156  0.494907  0.748659  1
  Li  Li3  1  0.837363  0.498729  0.251459  1
  Co  Co4  1  0.167753  0.668874  0.500338  1
  Co  Co5  1  0.664380  0.670119  0.999649  1
  Co  Co6  1  0.334677  0.329836  0.999947  1
  Co  Co7  1  0.838131  0.328275  0.499973  1
  Co  Co8  1  0.503048  0.998459  0.499981  1
  Cu  Cu9  1  0.999535  0.999770  0.999610  1
  O  O10  1  0.008931  0.650659  0.104656  1
  O  O11  1  0.340039  0.649494  0.894720  1
  O  O12  1  0.168231  0.334414  0.398326  1
  O  O13  1  0.503471  0.663215  0.398376  1
  O  O14  1  0.502326  0.333536  0.601746  1
  O  O15  1  0.179622  0.999179  0.597325  1
  O  O16  1  0.837429  0.662789  0.601869  1
  O  O17  1  0.659364  0.349965  0.104712  1
  O  O18  1  0.333765  0.999640  0.097202  1
  O  O19  1  0.990386  0.349119  0.894990  1
  O  O20  1  0.664834  0.000447  0.902182  1
  O  O21  1  0.826734  0.998055  0.402899  1
