# generated using pymatgen
data_Fe4O7F
_symmetry_space_group_name_H-M   'P 1'
_cell_length_a   6.00754469
_cell_length_b   6.43377439
_cell_length_c   7.32424361
_cell_angle_alpha   90.00000000
_cell_angle_beta   114.21197484
_cell_angle_gamma   90.00000000
_symmetry_Int_Tables_number   1
_chemical_formula_structural   Fe4O7F
_chemical_formula_sum   'Fe8 O14 F2'
_cell_volume   258.18847261
_cell_formula_units_Z   2
loop_
 _symmetry_equiv_pos_site_id
 _symmetry_equiv_pos_as_xyz
  1  'x, y, z'
loop_
 _atom_site_type_symbol
 _atom_site_label
 _atom_site_symmetry_multiplicity
 _atom_site_fract_x
 _atom_site_fract_y
 _atom_site_fract_z
 _atom_site_occupancy
  Fe  Fe0  1  0.498674  0.000000  0.008465  1
  Fe  Fe1  1  0.009790  0.000000  0.008465  1
  Fe  Fe2  1  0.752666  0.500000  0.005333  1
  Fe  Fe3  1  0.241668  0.500000  0.983336  1
  Fe  Fe4  1  0.493129  0.000000  0.486257  1
  Fe  Fe5  1  0.000376  0.000000  0.500753  1
  Fe  Fe6  1  0.758691  0.500000  0.507821  1
  Fe  Fe7  1  0.249130  0.500000  0.507821  1
  O  O8  1  0.348243  0.000000  0.196484  1
  O  O9  1  0.843020  0.000000  0.186042  1
  O  O10  1  0.503301  0.307917  0.000008  1
  O  O11  1  0.996707  0.307917  0.000008  1
  O  O12  1  0.503301  0.692083  0.000008  1
  O  O13  1  0.746911  0.193673  0.499507  1
  O  O14  1  0.252596  0.193673  0.499507  1
  O  O15  1  0.996707  0.692083  0.000008  1
  O  O16  1  0.157418  0.000000  0.814835  1
  O  O17  1  0.907292  0.500000  0.314585  1
  O  O18  1  0.097747  0.500000  0.695495  1
  O  O19  1  0.593407  0.500000  0.686815  1
  O  O20  1  0.746911  0.806327  0.499507  1
  O  O21  1  0.252596  0.806327  0.499507  1
  F  F22  1  0.650856  0.000000  0.801712  1
  F  F23  1  0.398861  0.500000  0.297722  1
