# generated using pymatgen
data_PrAsO4
_symmetry_space_group_name_H-M   'P 1'
_cell_length_a   6.96266830
_cell_length_b   6.96266830
_cell_length_c   6.96266830
_cell_angle_alpha   136.09456667
_cell_angle_beta   136.09456667
_cell_angle_gamma   63.83416752
_symmetry_Int_Tables_number   1
_chemical_formula_structural   PrAsO4
_chemical_formula_sum   'Pr2 As2 O8'
_cell_volume   160.16744986
_cell_formula_units_Z   2
loop_
 _symmetry_equiv_pos_site_id
 _symmetry_equiv_pos_as_xyz
  1  'x, y, z'
loop_
 _atom_site_type_symbol
 _atom_site_label
 _atom_site_symmetry_multiplicity
 _atom_site_fract_x
 _atom_site_fract_y
 _atom_site_fract_z
 _atom_site_occupancy
  Pr  Pr0  1  0.500000  0.500000  0.000000  1
  Pr  Pr1  1  0.250000  0.750000  0.500000  1
  As  As2  1  0.000000  0.000000  0.000000  1
  As  As3  1  0.750000  0.250000  0.500000  1
  O  O4  1  0.676767  0.061253  0.893258  1
  O  O5  1  0.582005  0.466491  0.393258  1
  O  O6  1  0.811253  0.417995  0.884485  1
  O  O7  1  0.216491  0.323233  0.384485  1
  O  O8  1  0.938747  0.832005  0.615515  1
  O  O9  1  0.533509  0.926767  0.115515  1
  O  O10  1  0.073233  0.188747  0.606742  1
  O  O11  1  0.167995  0.783509  0.106742  1
