# generated using pymatgen
data_Hg(SbO3)2
_symmetry_space_group_name_H-M   'P 1'
_cell_length_a   4.92532817
_cell_length_b   4.92532609
_cell_length_c   9.80720441
_cell_angle_alpha   89.99999201
_cell_angle_beta   89.99993885
_cell_angle_gamma   89.99998709
_symmetry_Int_Tables_number   1
_chemical_formula_structural   Hg(SbO3)2
_chemical_formula_sum   'Hg2 Sb4 O12'
_cell_volume   237.91147459
_cell_formula_units_Z   2
loop_
 _symmetry_equiv_pos_site_id
 _symmetry_equiv_pos_as_xyz
  1  'x, y, z'
loop_
 _atom_site_type_symbol
 _atom_site_label
 _atom_site_symmetry_multiplicity
 _atom_site_fract_x
 _atom_site_fract_y
 _atom_site_fract_z
 _atom_site_occupancy
  Hg  Hg0  1  0.000000  -0.000001  -0.000000  1
  Hg  Hg1  1  0.500000  0.500000  0.500000  1
  Sb  Sb2  1  -0.000000  0.000000  0.331489  1
  Sb  Sb3  1  -0.000000  1.000000  0.668511  1
  Sb  Sb4  1  0.500000  0.499999  0.168511  1
  Sb  Sb5  1  0.500001  0.500000  0.831488  1
  O  O6  1  0.174711  0.825290  0.500000  1
  O  O7  1  0.209905  0.790097  0.812738  1
  O  O8  1  0.209904  0.790096  0.187262  1
  O  O9  1  0.290097  0.290097  0.312739  1
  O  O10  1  0.290094  0.290096  0.687261  1
  O  O11  1  0.325289  0.325289  0.000000  1
  O  O12  1  0.674710  0.674711  0.000000  1
  O  O13  1  0.709905  0.709903  0.312739  1
  O  O14  1  0.709904  0.709905  0.687262  1
  O  O15  1  0.790096  0.209902  0.187262  1
  O  O16  1  0.790094  0.209906  0.812738  1
  O  O17  1  0.825289  0.174710  0.500000  1
