# generated using pymatgen
data_Li2VF4
_symmetry_space_group_name_H-M   'P 1'
_cell_length_a   12.24803046
_cell_length_b   6.01107300
_cell_length_c   9.03566379
_cell_angle_alpha   89.99997537
_cell_angle_beta   90.00000236
_cell_angle_gamma   90.00000576
_symmetry_Int_Tables_number   1
_chemical_formula_structural   Li2VF4
_chemical_formula_sum   'Li16 V8 F32'
_cell_volume   665.23995074
_cell_formula_units_Z   8
loop_
 _symmetry_equiv_pos_site_id
 _symmetry_equiv_pos_as_xyz
  1  'x, y, z'
loop_
 _atom_site_type_symbol
 _atom_site_label
 _atom_site_symmetry_multiplicity
 _atom_site_fract_x
 _atom_site_fract_y
 _atom_site_fract_z
 _atom_site_occupancy
  Li  Li0  1  0.044945  0.623713  0.755118  1
  Li  Li1  1  0.110680  0.222441  0.952505  1
  Li  Li2  1  0.133618  0.784786  0.470822  1
  Li  Li3  1  0.224802  0.256053  0.692857  1
  Li  Li4  1  0.275198  0.756053  0.192857  1
  Li  Li5  1  0.366382  0.284786  0.970822  1
  Li  Li6  1  0.389320  0.722441  0.452505  1
  Li  Li7  1  0.455055  0.123713  0.255118  1
  Li  Li8  1  0.544945  0.876288  0.755118  1
  Li  Li9  1  0.610679  0.277560  0.952505  1
  Li  Li10  1  0.633618  0.715215  0.470822  1
  Li  Li11  1  0.724802  0.243948  0.692857  1
  Li  Li12  1  0.775198  0.743947  0.192857  1
  Li  Li13  1  0.866382  0.215215  0.970822  1
  Li  Li14  1  0.889320  0.777560  0.452505  1
  Li  Li15  1  0.955054  0.376288  0.255118  1
  V  V16  1  0.052107  0.748310  0.096241  1
  V  V17  1  0.193360  0.288062  0.316373  1
  V  V18  1  0.306641  0.788067  0.816370  1
  V  V19  1  0.447888  0.248298  0.596243  1
  V  V20  1  0.552112  0.751686  0.096245  1
  V  V21  1  0.693360  0.211932  0.316371  1
  V  V22  1  0.806644  0.711936  0.816366  1
  V  V23  1  0.947890  0.251690  0.596244  1
  F  F24  1  0.004677  0.957519  0.503564  1
  F  F25  1  0.046234  0.401498  0.431496  1
  F  F26  1  0.079694  0.309985  0.744811  1
  F  F27  1  0.090960  0.402206  0.142485  1
  F  F28  1  0.149823  0.943866  0.251617  1
  F  F29  1  0.170088  0.752869  0.678962  1
  F  F30  1  0.212408  0.690781  0.000265  1
  F  F31  1  0.249782  0.108704  0.881687  1
  F  F32  1  0.250218  0.608704  0.381687  1
  F  F33  1  0.287592  0.190781  0.500265  1
  F  F34  1  0.329912  0.252869  0.178962  1
  F  F35  1  0.350177  0.443867  0.751617  1
  F  F36  1  0.409040  0.902205  0.642485  1
  F  F37  1  0.420306  0.809984  0.244811  1
  F  F38  1  0.453766  0.901498  0.931496  1
  F  F39  1  0.495323  0.457520  0.003564  1
  F  F40  1  0.504677  0.542480  0.503564  1
  F  F41  1  0.546234  0.098502  0.431496  1
  F  F42  1  0.579694  0.190016  0.744811  1
  F  F43  1  0.590960  0.097795  0.142485  1
  F  F44  1  0.649823  0.556135  0.251617  1
  F  F45  1  0.670088  0.747132  0.678961  1
  F  F46  1  0.712408  0.809220  0.000265  1
  F  F47  1  0.749782  0.391296  0.881686  1
  F  F48  1  0.750219  0.891297  0.381686  1
  F  F49  1  0.787592  0.309220  0.500265  1
  F  F50  1  0.829912  0.247131  0.178961  1
  F  F51  1  0.850177  0.056134  0.751616  1
  F  F52  1  0.909040  0.597796  0.642485  1
  F  F53  1  0.920306  0.690016  0.244811  1
  F  F54  1  0.953766  0.598503  0.931496  1
  F  F55  1  0.995323  0.042483  0.003563  1
