# generated using pymatgen
data_Li3FePCO7
_symmetry_space_group_name_H-M   'P 1'
_cell_length_a   8.57823238
_cell_length_b   9.77688834
_cell_length_c   6.44075556
_cell_angle_alpha   90.00000000
_cell_angle_beta   90.00000000
_cell_angle_gamma   84.96403284
_symmetry_Int_Tables_number   1
_chemical_formula_structural   Li3FePCO7
_chemical_formula_sum   'Li12 Fe4 P4 C4 O28'
_cell_volume   538.09080096
_cell_formula_units_Z   4
loop_
 _symmetry_equiv_pos_site_id
 _symmetry_equiv_pos_as_xyz
  1  'x, y, z'
loop_
 _atom_site_type_symbol
 _atom_site_label
 _atom_site_symmetry_multiplicity
 _atom_site_fract_x
 _atom_site_fract_y
 _atom_site_fract_z
 _atom_site_occupancy
  Li  Li0  1  0.103031  0.386759  0.250429  1
  Li  Li1  1  0.103031  0.886759  0.249571  1
  Li  Li2  1  0.285767  0.117607  0.013755  1
  Li  Li3  1  0.285767  0.617607  0.486245  1
  Li  Li4  1  0.353708  0.390890  0.744103  1
  Li  Li5  1  0.353708  0.890890  0.755897  1
  Li  Li6  1  0.646292  0.109110  0.244103  1
  Li  Li7  1  0.646292  0.609110  0.255897  1
  Li  Li8  1  0.714233  0.382393  0.513755  1
  Li  Li9  1  0.714233  0.882393  0.986245  1
  Li  Li10  1  0.896969  0.113241  0.750429  1
  Li  Li11  1  0.896969  0.613241  0.749571  1
  Fe  Fe12  1  0.266604  0.128772  0.500612  1
  Fe  Fe13  1  0.266604  0.628772  0.999388  1
  Fe  Fe14  1  0.733396  0.371228  0.000612  1
  Fe  Fe15  1  0.733396  0.871228  0.499388  1
  P  P16  1  0.408020  0.360200  0.251806  1
  P  P17  1  0.408020  0.860200  0.248194  1
  P  P18  1  0.591980  0.139800  0.751806  1
  P  P19  1  0.591980  0.639800  0.748194  1
  C  C20  1  0.041047  0.350870  0.746148  1
  C  C21  1  0.041047  0.850870  0.753852  1
  C  C22  1  0.958953  0.149130  0.246148  1
  C  C23  1  0.958953  0.649130  0.253852  1
  O  O24  1  0.070362  0.476599  0.756855  1
  O  O25  1  0.104691  0.183294  0.253741  1
  O  O26  1  0.070362  0.976599  0.743145  1
  O  O27  1  0.152913  0.252150  0.730084  1
  O  O28  1  0.104691  0.683294  0.246259  1
  O  O29  1  0.152913  0.752150  0.769916  1
  O  O30  1  0.312813  0.418348  0.058245  1
  O  O31  1  0.307648  0.411438  0.439944  1
  O  O32  1  0.307648  0.911438  0.060056  1
  O  O33  1  0.312813  0.918348  0.441755  1
  O  O34  1  0.424383  0.091821  0.755299  1
  O  O35  1  0.420132  0.199708  0.247512  1
  O  O36  1  0.424383  0.591821  0.744701  1
  O  O37  1  0.420132  0.699708  0.252488  1
  O  O38  1  0.579868  0.300292  0.747512  1
  O  O39  1  0.575617  0.408179  0.255299  1
  O  O40  1  0.579868  0.800292  0.752488  1
  O  O41  1  0.575617  0.908179  0.244701  1
  O  O42  1  0.692352  0.088562  0.939944  1
  O  O43  1  0.687187  0.081652  0.558245  1
  O  O44  1  0.692352  0.588562  0.560056  1
  O  O45  1  0.687187  0.581652  0.941755  1
  O  O46  1  0.847087  0.247850  0.230084  1
  O  O47  1  0.895309  0.316706  0.753741  1
  O  O48  1  0.847087  0.747850  0.269916  1
  O  O49  1  0.929638  0.023401  0.256855  1
  O  O50  1  0.895309  0.816706  0.746259  1
  O  O51  1  0.929638  0.523401  0.243145  1
