# generated using pymatgen
data_LiMnVP2(HO5)2
_symmetry_space_group_name_H-M   'P 1'
_cell_length_a   10.12545207
_cell_length_b   7.35176152
_cell_length_c   5.24430383
_cell_angle_alpha   76.07217041
_cell_angle_beta   80.67992196
_cell_angle_gamma   103.31880866
_symmetry_Int_Tables_number   1
_chemical_formula_structural   LiMnVP2(HO5)2
_chemical_formula_sum   'Li2 Mn2 V2 P4 H4 O20'
_cell_volume   358.81629964
_cell_formula_units_Z   2
loop_
 _symmetry_equiv_pos_site_id
 _symmetry_equiv_pos_as_xyz
  1  'x, y, z'
loop_
 _atom_site_type_symbol
 _atom_site_label
 _atom_site_symmetry_multiplicity
 _atom_site_fract_x
 _atom_site_fract_y
 _atom_site_fract_z
 _atom_site_occupancy
  Li  Li0  1  0.278669  0.129233  0.646098  1
  Li  Li1  1  0.721331  0.870767  0.353902  1
  Mn  Mn2  1  0.000000  0.000000  0.000000  1
  Mn  Mn3  1  0.500000  0.500000  0.500000  1
  V  V4  1  0.249869  0.743450  0.251710  1
  V  V5  1  0.750131  0.256550  0.748290  1
  P  P6  1  0.062423  0.287582  0.382421  1
  P  P7  1  0.436603  0.204569  0.112098  1
  P  P8  1  0.563397  0.795431  0.887902  1
  P  P9  1  0.937577  0.712418  0.617579  1
  H  H10  1  0.141517  0.794938  0.849638  1
  H  H11  1  0.346953  0.679033  0.671075  1
  H  H12  1  0.653047  0.320967  0.328925  1
  H  H13  1  0.858483  0.205062  0.150362  1
  O  O14  1  0.088751  0.159145  0.198505  1
  O  O15  1  0.111505  0.222936  0.640470  1
  O  O16  1  0.095446  0.720047  0.563545  1
  O  O17  1  0.149875  0.503583  0.223064  1
  O  O18  1  0.393593  0.259946  0.845974  1
  O  O19  1  0.163141  0.880611  0.967636  1
  O  O20  1  0.408596  0.336077  0.292575  1
  O  O21  1  0.344600  0.620634  0.518575  1
  O  O22  1  0.654169  0.005100  0.710938  1
  O  O23  1  0.404334  0.784540  0.934550  1
  O  O24  1  0.595666  0.215460  0.065450  1
  O  O25  1  0.345831  0.994900  0.289062  1
  O  O26  1  0.655400  0.379366  0.481425  1
  O  O27  1  0.591404  0.663923  0.707425  1
  O  O28  1  0.836859  0.119389  0.032364  1
  O  O29  1  0.606407  0.740054  0.154026  1
  O  O30  1  0.850125  0.496417  0.776936  1
  O  O31  1  0.904554  0.279953  0.436455  1
  O  O32  1  0.888495  0.777064  0.359530  1
  O  O33  1  0.911249  0.840855  0.801495  1
