# generated using pymatgen
data_Mn12O5F19
_symmetry_space_group_name_H-M   'P 1'
_cell_length_a   4.85909613
_cell_length_b   5.86007751
_cell_length_c   15.91089527
_cell_angle_alpha   90.21032137
_cell_angle_beta   90.23930208
_cell_angle_gamma   90.98166198
_symmetry_Int_Tables_number   1
_chemical_formula_structural   Mn12O5F19
_chemical_formula_sum   'Mn12 O5 F19'
_cell_volume   452.98403192
_cell_formula_units_Z   1
loop_
 _symmetry_equiv_pos_site_id
 _symmetry_equiv_pos_as_xyz
  1  'x, y, z'
loop_
 _atom_site_type_symbol
 _atom_site_label
 _atom_site_symmetry_multiplicity
 _atom_site_fract_x
 _atom_site_fract_y
 _atom_site_fract_z
 _atom_site_occupancy
  Mn  Mn0  1  0.993636  0.175015  0.405707  1
  Mn  Mn1  1  0.018775  0.853143  0.248098  1
  Mn  Mn2  1  0.973122  0.190175  0.078248  1
  Mn  Mn3  1  0.035810  0.170946  0.750513  1
  Mn  Mn4  1  0.010343  0.859958  0.585649  1
  Mn  Mn5  1  0.998971  0.836152  0.918270  1
  Mn  Mn6  1  0.488083  0.317028  0.586647  1
  Mn  Mn7  1  0.500075  0.342346  0.914511  1
  Mn  Mn8  1  0.496631  0.325553  0.260790  1
  Mn  Mn9  1  0.511585  0.640780  0.082869  1
  Mn  Mn10  1  0.514560  0.648571  0.417738  1
  Mn  Mn11  1  0.488810  0.647547  0.750024  1
  O  O12  1  0.214219  0.125093  0.305564  1
  O  O13  1  0.216622  0.109059  0.644415  1
  O  O14  1  0.296113  0.376123  0.808165  1
  O  O15  1  0.701700  0.392355  0.019824  1
  O  O16  1  0.714112  0.376847  0.361783  1
  F  F17  1  0.234530  0.118310  0.971722  1
  F  F18  1  0.237137  0.877717  0.132514  1
  F  F19  1  0.229727  0.898863  0.469573  1
  F  F20  1  0.238502  0.879991  0.809862  1
  F  F21  1  0.272460  0.378971  0.149139  1
  F  F22  1  0.266280  0.620001  0.307566  1
  F  F23  1  0.261894  0.394017  0.476033  1
  F  F24  1  0.265311  0.611713  0.637221  1
  F  F25  1  0.260755  0.606680  0.974711  1
  F  F26  1  0.733340  0.598369  0.197761  1
  F  F27  1  0.737120  0.620047  0.534098  1
  F  F28  1  0.728402  0.607853  0.860826  1
  F  F29  1  0.738871  0.390734  0.691961  1
  F  F30  1  0.760582  0.105008  0.190660  1
  F  F31  1  0.775697  0.117222  0.517656  1
  F  F32  1  0.765693  0.880211  0.357126  1
  F  F33  1  0.762498  0.892673  0.027463  1
  F  F34  1  0.790372  0.122647  0.855988  1
  F  F35  1  0.767666  0.892275  0.699307  1
