# generated using pymatgen
data_Li2MnF4
_symmetry_space_group_name_H-M   'P 1'
_cell_length_a   8.75286690
_cell_length_b   8.76855311
_cell_length_c   3.28623634
_cell_angle_alpha   90.00000000
_cell_angle_beta   90.00000000
_cell_angle_gamma   90.00000000
_symmetry_Int_Tables_number   1
_chemical_formula_structural   Li2MnF4
_chemical_formula_sum   'Li4 Mn2 F8'
_cell_volume   252.21856771
_cell_formula_units_Z   2
loop_
 _symmetry_equiv_pos_site_id
 _symmetry_equiv_pos_as_xyz
  1  'x, y, z'
loop_
 _atom_site_type_symbol
 _atom_site_label
 _atom_site_symmetry_multiplicity
 _atom_site_fract_x
 _atom_site_fract_y
 _atom_site_fract_z
 _atom_site_occupancy
  Li  Li0  1  0.254199  0.768721  0.000000  1
  Li  Li1  1  0.231068  0.254426  0.000000  1
  Li  Li2  1  0.754199  0.731279  0.000000  1
  Li  Li3  1  0.731068  0.245574  0.000000  1
  Mn  Mn4  1  0.999805  0.500694  0.500000  1
  Mn  Mn5  1  0.499805  0.999306  0.500000  1
  F  F6  1  0.111312  0.615488  0.000000  1
  F  F7  1  0.168990  0.325527  0.500000  1
  F  F8  1  0.324545  0.830122  0.500000  1
  F  F9  1  0.384231  0.111327  0.000000  1
  F  F10  1  0.611312  0.884512  0.000000  1
  F  F11  1  0.668990  0.174473  0.500000  1
  F  F12  1  0.824545  0.669878  0.500000  1
  F  F13  1  0.884231  0.388673  0.000000  1
