# generated using pymatgen
data_Li2H2BrN
_symmetry_space_group_name_H-M   'P 1'
_cell_length_a   12.66459118
_cell_length_b   7.79716049
_cell_length_c   7.93726534
_cell_angle_alpha   90.00000000
_cell_angle_beta   90.00000000
_cell_angle_gamma   90.00000000
_symmetry_Int_Tables_number   1
_chemical_formula_structural   Li2H2BrN
_chemical_formula_sum   'Li16 H16 Br8 N8'
_cell_volume   783.78788697
_cell_formula_units_Z   8
loop_
 _symmetry_equiv_pos_site_id
 _symmetry_equiv_pos_as_xyz
  1  'x, y, z'
loop_
 _atom_site_type_symbol
 _atom_site_label
 _atom_site_symmetry_multiplicity
 _atom_site_fract_x
 _atom_site_fract_y
 _atom_site_fract_z
 _atom_site_occupancy
  Li  Li0  1  0.874353  0.250000  0.186591  1
  Li  Li1  1  0.374353  0.250000  0.313409  1
  Li  Li2  1  0.125647  0.750000  0.813409  1
  Li  Li3  1  0.625647  0.750000  0.686591  1
  Li  Li4  1  0.571584  0.250000  0.659921  1
  Li  Li5  1  0.071584  0.250000  0.840079  1
  Li  Li6  1  0.428416  0.750000  0.340079  1
  Li  Li7  1  0.928416  0.750000  0.159921  1
  Li  Li8  1  0.546070  0.010871  0.191388  1
  Li  Li9  1  0.046070  0.489129  0.308612  1
  Li  Li10  1  0.453930  0.510871  0.808612  1
  Li  Li11  1  0.953930  0.989129  0.691388  1
  Li  Li12  1  0.453930  0.989129  0.808612  1
  Li  Li13  1  0.953930  0.510871  0.691388  1
  Li  Li14  1  0.546070  0.489129  0.191388  1
  Li  Li15  1  0.046070  0.010871  0.308612  1
  H  H16  1  0.660022  0.994583  0.370751  1
  H  H17  1  0.160022  0.505417  0.129249  1
  H  H18  1  0.339978  0.494583  0.629249  1
  H  H19  1  0.839978  0.005417  0.870751  1
  H  H20  1  0.339978  0.005417  0.629249  1
  H  H21  1  0.839978  0.494583  0.870751  1
  H  H22  1  0.660022  0.505417  0.370751  1
  H  H23  1  0.160022  0.994583  0.129249  1
  H  H24  1  0.913371  0.991032  0.227492  1
  H  H25  1  0.413371  0.508968  0.272508  1
  H  H26  1  0.086629  0.491032  0.772508  1
  H  H27  1  0.586629  0.008968  0.727492  1
  H  H28  1  0.086629  0.008968  0.772508  1
  H  H29  1  0.586629  0.491032  0.727492  1
  H  H30  1  0.913371  0.508968  0.227492  1
  H  H31  1  0.413371  0.991032  0.272508  1
  Br  Br32  1  0.847789  0.250000  0.860565  1
  Br  Br33  1  0.347789  0.250000  0.639435  1
  Br  Br34  1  0.152211  0.750000  0.139435  1
  Br  Br35  1  0.652211  0.750000  0.360565  1
  Br  Br36  1  0.659806  0.250000  0.363842  1
  Br  Br37  1  0.159806  0.250000  0.136158  1
  Br  Br38  1  0.340194  0.750000  0.636158  1
  Br  Br39  1  0.840194  0.750000  0.863842  1
  N  N40  1  0.484806  0.175886  0.996516  1
  N  N41  1  0.984806  0.324114  0.503484  1
  N  N42  1  0.515194  0.675886  0.003484  1
  N  N43  1  0.015194  0.824114  0.496516  1
  N  N44  1  0.515194  0.824114  0.003484  1
  N  N45  1  0.015194  0.675886  0.496516  1
  N  N46  1  0.484806  0.324114  0.996516  1
  N  N47  1  0.984806  0.175886  0.503484  1
