# generated using pymatgen
data_CdHSeNO6
_symmetry_space_group_name_H-M   'P 1'
_cell_length_a   6.10472132
_cell_length_b   9.10751372
_cell_length_c   20.18689268
_cell_angle_alpha   90.00000000
_cell_angle_beta   90.00000000
_cell_angle_gamma   90.00000000
_symmetry_Int_Tables_number   1
_chemical_formula_structural   CdHSeNO6
_chemical_formula_sum   'Cd8 H8 Se8 N8 O48'
_cell_volume   1122.36767851
_cell_formula_units_Z   8
loop_
 _symmetry_equiv_pos_site_id
 _symmetry_equiv_pos_as_xyz
  1  'x, y, z'
loop_
 _atom_site_type_symbol
 _atom_site_label
 _atom_site_symmetry_multiplicity
 _atom_site_fract_x
 _atom_site_fract_y
 _atom_site_fract_z
 _atom_site_occupancy
  Cd  Cd0  1  0.094518  0.320473  0.448316  1
  Cd  Cd1  1  0.594518  0.179527  0.551684  1
  Cd  Cd2  1  0.905482  0.820473  0.051684  1
  Cd  Cd3  1  0.405482  0.679527  0.948316  1
  Cd  Cd4  1  0.905482  0.679527  0.551684  1
  Cd  Cd5  1  0.405482  0.820473  0.448316  1
  Cd  Cd6  1  0.094518  0.179527  0.948316  1
  Cd  Cd7  1  0.594518  0.320473  0.051684  1
  H  H8  1  0.652937  0.815994  0.323198  1
  H  H9  1  0.152937  0.684006  0.676802  1
  H  H10  1  0.347063  0.315995  0.176802  1
  H  H11  1  0.847063  0.184005  0.823198  1
  H  H12  1  0.347063  0.184005  0.676802  1
  H  H13  1  0.847063  0.315995  0.323198  1
  H  H14  1  0.652937  0.684006  0.823198  1
  H  H15  1  0.152937  0.815994  0.176802  1
  Se  Se16  1  0.594136  0.429233  0.412607  1
  Se  Se17  1  0.094136  0.070767  0.587393  1
  Se  Se18  1  0.405864  0.929233  0.087393  1
  Se  Se19  1  0.905864  0.570767  0.912607  1
  Se  Se20  1  0.405864  0.570767  0.587393  1
  Se  Se21  1  0.905864  0.929233  0.412607  1
  Se  Se22  1  0.594136  0.070767  0.912607  1
  Se  Se23  1  0.094136  0.429233  0.087393  1
  N  N24  1  0.875160  0.119485  0.232011  1
  N  N25  1  0.375160  0.380515  0.767989  1
  N  N26  1  0.124840  0.619485  0.267989  1
  N  N27  1  0.624840  0.880515  0.732011  1
  N  N28  1  0.124840  0.880515  0.767989  1
  N  N29  1  0.624840  0.619485  0.232011  1
  N  N30  1  0.875160  0.380515  0.732011  1
  N  N31  1  0.375160  0.119485  0.267989  1
  O  O32  1  0.803089  0.486556  0.462473  1
  O  O33  1  0.303089  0.013444  0.537527  1
  O  O34  1  0.196911  0.986556  0.037527  1
  O  O35  1  0.696911  0.513444  0.962473  1
  O  O36  1  0.196911  0.513444  0.537527  1
  O  O37  1  0.696911  0.986556  0.462473  1
  O  O38  1  0.803089  0.013444  0.962473  1
  O  O39  1  0.303089  0.486556  0.037527  1
  O  O40  1  0.181937  0.777529  0.132531  1
  O  O41  1  0.681937  0.722471  0.867469  1
  O  O42  1  0.818063  0.277529  0.367469  1
  O  O43  1  0.318063  0.222471  0.632531  1
  O  O44  1  0.818063  0.222471  0.867469  1
  O  O45  1  0.318063  0.277529  0.132531  1
  O  O46  1  0.181937  0.722471  0.632531  1
  O  O47  1  0.681937  0.777529  0.367469  1
  O  O48  1  0.038831  0.789061  0.454889  1
  O  O49  1  0.538831  0.710939  0.545111  1
  O  O50  1  -0.038831  0.289061  0.045111  1
  O  O51  1  0.461169  0.210939  0.954889  1
  O  O52  1  -0.038831  0.210939  0.545111  1
  O  O53  1  0.461169  0.289061  0.454889  1
  O  O54  1  0.038831  0.710939  0.954889  1
  O  O55  1  0.538831  0.789061  0.045111  1
  O  O56  1  0.114164  0.056804  0.411666  1
  O  O57  1  0.614164  0.443196  0.588334  1
  O  O58  1  0.885836  0.556804  0.088334  1
  O  O59  1  0.385836  0.943196  0.911666  1
  O  O60  1  0.885836  0.943196  0.588334  1
  O  O61  1  0.385836  0.556804  0.411666  1
  O  O62  1  0.114164  0.443196  0.911666  1
  O  O63  1  0.614164  0.056804  0.088334  1
  O  O64  1  0.182485  0.736464  0.291599  1
  O  O65  1  0.682485  0.763536  0.708401  1
  O  O66  1  0.817515  0.236464  0.208401  1
  O  O67  1  0.317515  0.263536  0.791599  1
  O  O68  1  0.817515  0.263536  0.708401  1
  O  O69  1  0.317515  0.236464  0.291599  1
  O  O70  1  0.182485  0.763536  0.791599  1
  O  O71  1  0.682485  0.736464  0.208401  1
  O  O72  1  0.951385  0.010404  0.206910  1
  O  O73  1  0.451385  0.489596  0.793090  1
  O  O74  1  0.048615  0.510404  0.293090  1
  O  O75  1  0.548615  -0.010404  0.706910  1
  O  O76  1  0.048615  -0.010404  0.793090  1
  O  O77  1  0.548615  0.510404  0.206910  1
  O  O78  1  0.951385  0.489596  0.706910  1
  O  O79  1  0.451385  0.010404  0.293090  1
