# generated using pymatgen
data_Li2Cr3FeO8
_symmetry_space_group_name_H-M   'P 1'
_cell_length_a   5.98219632
_cell_length_b   5.90516804
_cell_length_c   5.84128382
_cell_angle_alpha   59.82395223
_cell_angle_beta   60.57323617
_cell_angle_gamma   90.02241758
_symmetry_Int_Tables_number   1
_chemical_formula_structural   Li2Cr3FeO8
_chemical_formula_sum   'Li2 Cr3 Fe1 O8'
_cell_volume   146.74767260
_cell_formula_units_Z   1
loop_
 _symmetry_equiv_pos_site_id
 _symmetry_equiv_pos_as_xyz
  1  'x, y, z'
loop_
 _atom_site_type_symbol
 _atom_site_label
 _atom_site_symmetry_multiplicity
 _atom_site_fract_x
 _atom_site_fract_y
 _atom_site_fract_z
 _atom_site_occupancy
  Li  Li0  1  0.499973  0.999972  0.000026  1
  Li  Li1  1  0.499990  0.500009  0.499959  1
  Cr  Cr2  1  -0.000066  -0.000147  0.500102  1
  Cr  Cr3  1  -0.000024  0.500033  0.999824  1
  Cr  Cr4  1  0.999901  0.500010  0.500175  1
  Fe  Fe5  1  0.999902  0.000020  0.000026  1
  O  O6  1  0.212375  0.231083  0.015598  1
  O  O7  1  0.202920  0.742067  0.037740  1
  O  O8  1  0.206617  0.233357  0.543535  1
  O  O9  1  0.210573  0.730393  0.515292  1
  O  O10  1  0.789427  0.269594  0.484676  1
  O  O11  1  0.793372  0.766638  0.456457  1
  O  O12  1  0.797260  0.258055  0.962233  1
  O  O13  1  0.787781  0.768916  0.984353  1
