# generated using pymatgen
data_LiFe2(BO3)2
_symmetry_space_group_name_H-M   'P 1'
_cell_length_a   5.28321326
_cell_length_b   8.93649808
_cell_length_c   10.34232976
_cell_angle_alpha   89.99999952
_cell_angle_beta   91.16383088
_cell_angle_gamma   90.00000478
_symmetry_Int_Tables_number   1
_chemical_formula_structural   LiFe2(BO3)2
_chemical_formula_sum   'Li4 Fe8 B8 O24'
_cell_volume   488.19607814
_cell_formula_units_Z   4
loop_
 _symmetry_equiv_pos_site_id
 _symmetry_equiv_pos_as_xyz
  1  'x, y, z'
loop_
 _atom_site_type_symbol
 _atom_site_label
 _atom_site_symmetry_multiplicity
 _atom_site_fract_x
 _atom_site_fract_y
 _atom_site_fract_z
 _atom_site_occupancy
  Li  Li0  1  0.341676  0.009213  0.836580  1
  Li  Li1  1  0.656987  0.004679  0.086147  1
  Li  Li2  1  0.341676  0.990787  0.336580  1
  Li  Li3  1  0.656987  0.995321  0.586147  1
  Fe  Fe4  1  0.148716  0.178211  0.118883  1
  Fe  Fe5  1  0.851629  0.175025  0.369707  1
  Fe  Fe6  1  0.333180  0.341239  0.866235  1
  Fe  Fe7  1  0.661235  0.336235  0.625255  1
  Fe  Fe8  1  0.333180  0.658761  0.366235  1
  Fe  Fe9  1  0.148716  0.821789  0.618883  1
  Fe  Fe10  1  0.661235  0.663765  0.125255  1
  Fe  Fe11  1  0.851629  0.824975  0.869707  1
  B  B12  1  0.171715  0.167485  0.631099  1
  B  B13  1  0.341493  0.325225  0.377100  1
  B  B14  1  0.823145  0.165119  0.869180  1
  B  B15  1  0.656470  0.329245  0.115805  1
  B  B16  1  0.341493  0.674775  0.877100  1
  B  B17  1  0.656470  0.670755  0.615805  1
  B  B18  1  0.171715  0.832515  0.131099  1
  B  B19  1  0.823145  0.834881  0.369180  1
  O  O20  1  0.301865  0.034025  0.633235  1
  O  O21  1  0.083926  0.173876  0.896703  1
  O  O22  1  0.695935  0.033840  0.890517  1
  O  O23  1  0.221416  0.196490  0.328991  1
  O  O24  1  0.297129  0.298315  0.669735  1
  O  O25  1  0.778535  0.198199  0.158975  1
  O  O26  1  0.917554  0.173884  0.593093  1
  O  O27  1  0.422110  0.310873  0.053303  1
  O  O28  1  0.229462  0.460605  0.363075  1
  O  O29  1  0.575767  0.306988  0.438467  1
  O  O30  1  0.692699  0.290550  0.823590  1
  O  O31  1  0.229462  0.539395  0.863075  1
  O  O32  1  0.763780  0.465673  0.135079  1
  O  O33  1  0.297129  0.701685  0.169735  1
  O  O34  1  0.422110  0.689127  0.553303  1
  O  O35  1  0.763780  0.534327  0.635079  1
  O  O36  1  0.575767  0.693012  0.938467  1
  O  O37  1  0.083926  0.826124  0.396703  1
  O  O38  1  0.221416  0.803510  0.828991  1
  O  O39  1  0.692699  0.709450  0.323590  1
  O  O40  1  0.778535  0.801801  0.658975  1
  O  O41  1  0.301865  0.965975  0.133235  1
  O  O42  1  0.917554  0.826116  0.093093  1
  O  O43  1  0.695935  0.966160  0.390517  1
