# generated using pymatgen
data_CuH4C2S2N2Cl
_symmetry_space_group_name_H-M   'P 1'
_cell_length_a   15.57342370
_cell_length_b   6.95099659
_cell_length_c   11.56708615
_cell_angle_alpha   90.00000000
_cell_angle_beta   90.00000000
_cell_angle_gamma   90.00000000
_symmetry_Int_Tables_number   1
_chemical_formula_structural   CuH4C2S2N2Cl
_chemical_formula_sum   'Cu8 H32 C16 S16 N16 Cl8'
_cell_volume   1252.14650330
_cell_formula_units_Z   8
loop_
 _symmetry_equiv_pos_site_id
 _symmetry_equiv_pos_as_xyz
  1  'x, y, z'
loop_
 _atom_site_type_symbol
 _atom_site_label
 _atom_site_symmetry_multiplicity
 _atom_site_fract_x
 _atom_site_fract_y
 _atom_site_fract_z
 _atom_site_occupancy
  Cu  Cu0  1  0.667989  0.114982  0.255744  1
  Cu  Cu1  1  0.167989  0.385018  0.744256  1
  Cu  Cu2  1  0.332011  0.614982  0.244256  1
  Cu  Cu3  1  0.832011  0.885018  0.755744  1
  Cu  Cu4  1  0.332011  0.885018  0.744256  1
  Cu  Cu5  1  0.832011  0.614982  0.255744  1
  Cu  Cu6  1  0.667989  0.385018  0.755744  1
  Cu  Cu7  1  0.167989  0.114982  0.244256  1
  H  H8  1  0.905987  0.021475  0.431852  1
  H  H9  1  0.405987  0.478525  0.568148  1
  H  H10  1  0.094013  0.521475  0.068148  1
  H  H11  1  0.594013  0.978525  0.931852  1
  H  H12  1  0.094013  0.978525  0.568148  1
  H  H13  1  0.594013  0.521475  0.431852  1
  H  H14  1  0.905987  0.478525  0.931852  1
  H  H15  1  0.405987  0.021475  0.068148  1
  H  H16  1  0.794871  0.073456  0.419423  1
  H  H17  1  0.294871  0.426544  0.580577  1
  H  H18  1  0.205129  0.573456  0.080577  1
  H  H19  1  0.705129  0.926544  0.919423  1
  H  H20  1  0.205129  0.926544  0.580577  1
  H  H21  1  0.705129  0.573456  0.419423  1
  H  H22  1  0.794871  0.426544  0.919423  1
  H  H23  1  0.294871  0.073456  0.080577  1
  H  H24  1  0.918641  0.157302  0.072773  1
  H  H25  1  0.418641  0.342698  0.927227  1
  H  H26  1  0.081359  0.657302  0.427227  1
  H  H27  1  0.581359  0.842698  0.572773  1
  H  H28  1  0.081359  0.842698  0.927227  1
  H  H29  1  0.581359  0.657302  0.072773  1
  H  H30  1  0.918641  0.342698  0.572773  1
  H  H31  1  0.418641  0.157302  0.427227  1
  H  H32  1  0.031965  0.158374  0.090802  1
  H  H33  1  0.531965  0.341626  0.909198  1
  H  H34  1  0.968035  0.658374  0.409198  1
  H  H35  1  0.468035  0.841626  0.590802  1
  H  H36  1  0.968035  0.841626  0.909198  1
  H  H37  1  0.468035  0.658374  0.090802  1
  H  H38  1  0.031965  0.341626  0.590802  1
  H  H39  1  0.531965  0.158374  0.409198  1
  C  C40  1  0.870607  0.158341  0.283733  1
  C  C41  1  0.370607  0.341659  0.716267  1
  C  C42  1  0.129393  0.658341  0.216267  1
  C  C43  1  0.629393  0.841659  0.783733  1
  C  C44  1  0.129393  0.841659  0.716267  1
  C  C45  1  0.629393  0.658341  0.283733  1
  C  C46  1  0.870607  0.341659  0.783733  1
  C  C47  1  0.370607  0.158341  0.216267  1
  C  C48  1  0.961000  0.161028  0.239315  1
  C  C49  1  0.461000  0.338972  0.760685  1
  C  C50  1  0.039000  0.661028  0.260685  1
  C  C51  1  0.539000  0.838972  0.739315  1
  C  C52  1  0.039000  0.838972  0.760685  1
  C  C53  1  0.539000  0.661028  0.239315  1
  C  C54  1  0.961000  0.338972  0.739315  1
  C  C55  1  0.461000  0.161028  0.260685  1
  S  S56  1  0.792362  0.254249  0.199087  1
  S  S57  1  0.292362  0.245751  0.800913  1
  S  S58  1  0.207638  0.754249  0.300913  1
  S  S59  1  0.707638  0.745751  0.699087  1
  S  S60  1  0.207638  0.745751  0.800913  1
  S  S61  1  0.707638  0.754249  0.199087  1
  S  S62  1  0.792362  0.245751  0.699087  1
  S  S63  1  0.292362  0.254249  0.300913  1
  S  S64  1  0.042869  0.161151  0.335287  1
  S  S65  1  0.542869  0.338849  0.664713  1
  S  S66  1  0.957131  0.661151  0.164713  1
  S  S67  1  0.457131  0.838849  0.835287  1
  S  S68  1  0.957131  0.838849  0.664713  1
  S  S69  1  0.457131  0.661151  0.335287  1
  S  S70  1  0.042869  0.338849  0.835287  1
  S  S71  1  0.542869  0.161151  0.164713  1
  N  N72  1  0.856425  0.079785  0.385808  1
  N  N73  1  0.356425  0.420215  0.614192  1
  N  N74  1  0.143575  0.579785  0.114192  1
  N  N75  1  0.643575  0.920215  0.885808  1
  N  N76  1  0.143575  0.920215  0.614192  1
  N  N77  1  0.643575  0.579785  0.385808  1
  N  N78  1  0.856425  0.420215  0.885808  1
  N  N79  1  0.356425  0.079785  0.114192  1
  N  N80  1  0.971056  0.168819  0.126017  1
  N  N81  1  0.471056  0.331181  0.873983  1
  N  N82  1  0.028944  0.668819  0.373983  1
  N  N83  1  0.528944  0.831181  0.626017  1
  N  N84  1  0.028944  0.831181  0.873983  1
  N  N85  1  0.528944  0.668819  0.126017  1
  N  N86  1  0.971056  0.331181  0.626017  1
  N  N87  1  0.471056  0.168819  0.373983  1
  Cl  Cl88  1  0.660859  0.085096  0.455936  1
  Cl  Cl89  1  0.160859  0.414904  0.544064  1
  Cl  Cl90  1  0.339141  0.585096  0.044064  1
  Cl  Cl91  1  0.839141  0.914904  0.955936  1
  Cl  Cl92  1  0.339141  0.914904  0.544064  1
  Cl  Cl93  1  0.839141  0.585096  0.455936  1
  Cl  Cl94  1  0.660859  0.414904  0.955936  1
  Cl  Cl95  1  0.160859  0.085096  0.044064  1
