# generated using pymatgen
data_Li3Ti2FeO6
_symmetry_space_group_name_H-M   'P 1'
_cell_length_a   15.70630038
_cell_length_b   10.05600159
_cell_length_c   10.05600164
_cell_angle_alpha   16.94294694
_cell_angle_beta   16.60229155
_cell_angle_gamma   16.60229177
_symmetry_Int_Tables_number   1
_chemical_formula_structural   Li3Ti2FeO6
_chemical_formula_sum   'Li3 Ti2 Fe1 O6'
_cell_volume   114.56620095
_cell_formula_units_Z   1
loop_
 _symmetry_equiv_pos_site_id
 _symmetry_equiv_pos_as_xyz
  1  'x, y, z'
loop_
 _atom_site_type_symbol
 _atom_site_label
 _atom_site_symmetry_multiplicity
 _atom_site_fract_x
 _atom_site_fract_y
 _atom_site_fract_z
 _atom_site_occupancy
  Li  Li0  1  0.166667  0.500000  0.500000  1
  Li  Li1  1  0.501807  0.499351  0.499351  1
  Li  Li2  1  0.831526  0.500649  0.500649  1
  Ti  Ti3  1  0.015776  0.988937  0.988937  1
  Ti  Ti4  1  0.317557  0.011063  0.011063  1
  Fe  Fe5  1  0.666667  0.000000  0.000000  1
  O  O6  1  0.220381  0.275501  0.275501  1
  O  O7  1  0.582802  0.257938  0.257938  1
  O  O8  1  0.112952  0.724499  0.724499  1
  O  O9  1  0.944464  0.232352  0.232352  1
  O  O10  1  0.388870  0.767648  0.767648  1
  O  O11  1  0.750531  0.742062  0.742062  1
