# generated using pymatgen
data_AlH18CS2N3O14
_symmetry_space_group_name_H-M   'P 1'
_cell_length_a   11.82631342
_cell_length_b   11.82630314
_cell_length_c   9.08027334
_cell_angle_alpha   89.99992068
_cell_angle_beta   90.00003963
_cell_angle_gamma   119.99997370
_symmetry_Int_Tables_number   1
_chemical_formula_structural   AlH18CS2N3O14
_chemical_formula_sum   'Al3 H54 C3 S6 N9 O42'
_cell_volume   1099.83632792
_cell_formula_units_Z   3
loop_
 _symmetry_equiv_pos_site_id
 _symmetry_equiv_pos_as_xyz
  1  'x, y, z'
loop_
 _atom_site_type_symbol
 _atom_site_label
 _atom_site_symmetry_multiplicity
 _atom_site_fract_x
 _atom_site_fract_y
 _atom_site_fract_z
 _atom_site_occupancy
  Al  Al0  1  0.000000  1.000000  0.997377  1
  Al  Al1  1  0.666663  0.333332  0.058143  1
  Al  Al2  1  0.333337  0.666669  0.058143  1
  H  H3  1  0.801073  0.886721  0.502390  1
  H  H4  1  0.085648  0.198927  0.502390  1
  H  H5  1  0.113279  0.914352  0.502390  1
  H  H6  1  0.198927  0.085648  0.502390  1
  H  H7  1  0.886721  0.801073  0.502390  1
  H  H8  1  0.914352  0.113279  0.502390  1
  H  H9  1  0.434639  0.866544  0.551945  1
  H  H10  1  0.431912  0.565366  0.551946  1
  H  H11  1  0.133455  0.568093  0.551946  1
  H  H12  1  0.565361  0.431904  0.551945  1
  H  H13  1  0.866545  0.434638  0.551946  1
  H  H14  1  0.568088  0.133454  0.551946  1
  H  H15  1  0.531246  0.793847  0.555543  1
  H  H16  1  0.262607  0.468756  0.555543  1
  H  H17  1  0.206155  0.737400  0.555543  1
  H  H18  1  0.468754  0.262602  0.555543  1
  H  H19  1  0.793845  0.531246  0.555543  1
  H  H20  1  0.737393  0.206149  0.555543  1
  H  H21  1  0.790617  0.918140  0.840838  1
  H  H22  1  0.127523  0.209384  0.840839  1
  H  H23  1  0.081861  0.872477  0.840838  1
  H  H24  1  0.209383  0.127523  0.840838  1
  H  H25  1  0.918139  0.790616  0.840838  1
  H  H26  1  0.872477  0.081861  0.840839  1
  H  H27  1  0.795057  0.874725  0.165727  1
  H  H28  1  0.079668  0.204943  0.165727  1
  H  H29  1  0.125275  0.920331  0.165727  1
  H  H30  1  0.204943  0.079668  0.165727  1
  H  H31  1  0.874725  0.795056  0.165727  1
  H  H32  1  0.920332  0.125276  0.165727  1
  H  H33  1  0.535154  0.790839  0.890991  1
  H  H34  1  0.255689  0.464850  0.890992  1
  H  H35  1  0.209162  0.744312  0.890991  1
  H  H36  1  0.464846  0.255685  0.890991  1
  H  H37  1  0.790838  0.535150  0.890991  1
  H  H38  1  0.744311  0.209161  0.890992  1
  H  H39  1  0.460891  0.877567  0.897518  1
  H  H40  1  0.416678  0.539112  0.897517  1
  H  H41  1  0.122435  0.583325  0.897517  1
  H  H42  1  0.539109  0.416676  0.897518  1
  H  H43  1  0.877565  0.460889  0.897517  1
  H  H44  1  0.583322  0.122434  0.897517  1
  H  H45  1  0.543729  0.744911  0.212075  1
  H  H46  1  0.201183  0.456273  0.212075  1
  H  H47  1  0.255091  0.798817  0.212074  1
  H  H48  1  0.456271  0.201182  0.212075  1
  H  H49  1  0.744909  0.543726  0.212074  1
  H  H50  1  0.798817  0.255090  0.212075  1
  H  H51  1  0.455760  0.581498  0.217216  1
  H  H52  1  0.125739  0.544240  0.217214  1
  H  H53  1  0.418503  0.874262  0.217215  1
  H  H54  1  0.544240  0.125738  0.217216  1
  H  H55  1  0.581497  0.455759  0.217215  1
  H  H56  1  0.874261  0.418501  0.217214  1
  C  C57  1  0.000000  0.000001  0.506736  1
  C  C58  1  0.666654  0.333326  0.553589  1
  C  C59  1  0.333346  0.666673  0.553589  1
  S  S60  1  0.344852  -0.000001  0.756697  1
  S  S61  1  0.655148  0.655147  0.756697  1
  S  S62  1  0.000000  0.344853  0.756701  1
  S  S63  1  0.680759  0.000001  0.313856  1
  S  S64  1  0.319241  0.319242  0.313856  1
  S  S65  1  0.000000  0.680757  0.313853  1
  N  N66  1  0.112986  -0.000000  0.507524  1
  N  N67  1  0.887014  0.887014  0.507524  1
  N  N68  1  0.000000  0.112985  0.507524  1
  N  N69  1  0.216052  0.656929  0.553338  1
  N  N70  1  0.440862  0.783934  0.553339  1
  N  N71  1  0.343069  0.559132  0.553338  1
  N  N72  1  0.783948  0.440877  0.553338  1
  N  N73  1  0.656931  0.216063  0.553338  1
  N  N74  1  0.559138  0.343072  0.553339  1
  O  O75  1  0.451710  0.999999  0.847258  1
  O  O76  1  0.548290  0.548290  0.847258  1
  O  O77  1  1.000000  0.451712  0.847261  1
  O  O78  1  0.556164  1.000000  0.283985  1
  O  O79  1  0.443836  0.443835  0.283985  1
  O  O80  1  0.000000  0.556165  0.283984  1
  O  O81  1  0.373025  -0.000001  0.597494  1
  O  O82  1  0.626975  0.626974  0.597494  1
  O  O83  1  1.000000  0.373030  0.597495  1
  O  O84  1  0.703202  0.000002  0.474005  1
  O  O85  1  0.296798  0.296800  0.474005  1
  O  O86  1  1.000000  0.703199  0.474005  1
  O  O87  1  0.660867  0.780950  0.795649  1
  O  O88  1  0.120084  0.339136  0.795650  1
  O  O89  1  0.219049  0.879913  0.795650  1
  O  O90  1  0.339133  0.120083  0.795649  1
  O  O91  1  0.780951  0.660864  0.795650  1
  O  O92  1  0.879916  0.219052  0.795650  1
  O  O93  1  0.673442  0.881252  0.244456  1
  O  O94  1  0.207811  0.326562  0.244455  1
  O  O95  1  0.118749  0.792188  0.244457  1
  O  O96  1  0.326558  0.207811  0.244456  1
  O  O97  1  0.881251  0.673439  0.244457  1
  O  O98  1  0.792189  0.118750  0.244455  1
  O  O99  1  0.134124  -0.000000  0.115733  1
  O  O100  1  0.865876  0.865875  0.115733  1
  O  O101  1  0.000000  0.134124  0.115734  1
  O  O102  1  0.866985  0.000000  0.880706  1
  O  O103  1  0.133015  0.133015  0.880706  1
  O  O104  1  1.000000  0.866987  0.880704  1
  O  O105  1  0.197999  0.665026  0.941732  1
  O  O106  1  0.467033  0.802005  0.941735  1
  O  O107  1  0.334976  0.532972  0.941733  1
  O  O108  1  0.802001  0.467027  0.941732  1
  O  O109  1  0.665024  0.197996  0.941733  1
  O  O110  1  0.532967  0.334972  0.941735  1
  O  O111  1  0.336338  0.800270  0.176022  1
  O  O112  1  0.463935  0.663664  0.176023  1
  O  O113  1  0.199732  0.536068  0.176022  1
  O  O114  1  0.663662  0.463932  0.176022  1
  O  O115  1  0.800268  0.336336  0.176022  1
  O  O116  1  0.536065  0.199728  0.176023  1
