# generated using pymatgen
data_LiFe(SiO3)2
_symmetry_space_group_name_H-M   'P 1'
_cell_length_a   8.88891371
_cell_length_b   5.11468379
_cell_length_c   7.85830093
_cell_angle_alpha   89.24041715
_cell_angle_beta   114.71661476
_cell_angle_gamma   90.46515120
_symmetry_Int_Tables_number   1
_chemical_formula_structural   LiFe(SiO3)2
_chemical_formula_sum   'Li2 Fe2 Si4 O12'
_cell_volume   324.50927795
_cell_formula_units_Z   2
loop_
 _symmetry_equiv_pos_site_id
 _symmetry_equiv_pos_as_xyz
  1  'x, y, z'
loop_
 _atom_site_type_symbol
 _atom_site_label
 _atom_site_symmetry_multiplicity
 _atom_site_fract_x
 _atom_site_fract_y
 _atom_site_fract_z
 _atom_site_occupancy
  Li  Li0  1  0.300992  0.362783  0.129907  1
  Li  Li1  1  0.714027  0.863904  0.909277  1
  Fe  Fe2  1  0.377701  0.872777  0.936134  1
  Fe  Fe3  1  0.897447  0.353038  0.908832  1
  Si  Si4  1  0.096049  0.815595  0.502815  1
  Si  Si5  1  0.105640  0.853344  0.105204  1
  Si  Si6  1  0.620256  0.372321  0.072413  1
  Si  Si7  1  0.886084  0.312620  0.489098  1
  O  O8  1  0.038541  0.524588  0.543968  1
  O  O9  1  0.257530  0.914326  0.682176  1
  O  O10  1  0.143790  0.791592  0.323272  1
  O  O11  1  0.096882  0.170036  0.062100  1
  O  O12  1  0.565677  0.662870  0.974694  1
  O  O13  1  0.259154  0.725840  0.069167  1
  O  O14  1  0.724869  0.222826  0.972458  1
  O  O15  1  0.453732  0.205650  0.047475  1
  O  O16  1  0.824481  0.292813  0.656597  1
  O  O17  1  0.928422  0.716422  0.966218  1
  O  O18  1  0.732853  0.411581  0.296297  1
  O  O19  1  0.943375  0.023572  0.450899  1
