# generated using pymatgen
data_Hf2N2O
_symmetry_space_group_name_H-M   'P 1'
_cell_length_a   8.73081038
_cell_length_b   8.74603621
_cell_length_c   8.75013391
_cell_angle_alpha   109.60291578
_cell_angle_beta   109.54360509
_cell_angle_gamma   109.51806957
_symmetry_Int_Tables_number   1
_chemical_formula_structural   Hf2N2O
_chemical_formula_sum   'Hf16 N16 O8'
_cell_volume   512.75062937
_cell_formula_units_Z   8
loop_
 _symmetry_equiv_pos_site_id
 _symmetry_equiv_pos_as_xyz
  1  'x, y, z'
loop_
 _atom_site_type_symbol
 _atom_site_label
 _atom_site_symmetry_multiplicity
 _atom_site_fract_x
 _atom_site_fract_y
 _atom_site_fract_z
 _atom_site_occupancy
  Hf  Hf0  1  0.960036  0.241583  0.218831  1
  Hf  Hf1  1  0.507062  0.004533  0.995842  1
  Hf  Hf2  1  0.780950  0.031803  0.753186  1
  Hf  Hf3  1  0.713002  0.461343  0.244693  1
  Hf  Hf4  1  0.754788  0.286371  0.538489  1
  Hf  Hf5  1  0.756559  0.785712  0.038779  1
  Hf  Hf6  1  0.492772  0.506532  0.512192  1
  Hf  Hf7  1  0.466994  0.252247  0.722469  1
  Hf  Hf8  1  0.009397  0.997720  0.499529  1
  Hf  Hf9  1  0.535377  0.747449  0.289127  1
  Hf  Hf10  1  0.998649  0.505785  0.988965  1
  Hf  Hf11  1  0.256426  0.718398  0.466636  1
  Hf  Hf12  1  0.242644  0.211499  0.951689  1
  Hf  Hf13  1  0.211525  0.958542  0.250968  1
  Hf  Hf14  1  0.281808  0.534439  0.743353  1
  Hf  Hf15  1  0.038690  0.753920  0.785751  1
  N  N16  1  0.740981  0.228321  0.276491  1
  N  N17  1  0.768550  0.723426  0.260869  1
  N  N18  1  0.726325  0.256879  0.769976  1
  N  N19  1  0.013517  0.046722  0.275512  1
  N  N20  1  0.227481  0.456889  0.464040  1
  N  N21  1  0.509215  0.240241  0.970077  1
  N  N22  1  0.273151  0.733999  0.223174  1
  N  N23  1  0.987337  0.954956  0.729992  1
  N  N24  1  0.544737  0.534285  0.771255  1
  N  N25  1  0.957350  0.728599  0.989725  1
  N  N26  1  0.537636  0.770770  0.542228  1
  N  N27  1  0.223245  0.274362  0.741430  1
  N  N28  1  0.029343  0.486247  0.756282  1
  N  N29  1  0.726487  0.989114  0.954154  1
  N  N30  1  0.241625  0.968650  0.511165  1
  N  N31  1  0.263169  0.777262  0.730984  1
  O  O32  1  0.754802  0.031542  0.481737  1
  O  O33  1  0.275194  0.012432  0.050047  1
  O  O34  1  0.962601  0.509172  0.235234  1
  O  O35  1  0.466385  0.229484  0.447601  1
  O  O36  1  0.452884  0.462046  0.228611  1
  O  O37  1  0.053028  0.279294  0.019803  1
  O  O38  1  0.768824  0.542737  0.531900  1
  O  O39  1  0.489460  0.764696  0.037210  1
