# generated using pymatgen
data_Li24Ti7Cr5O36
_symmetry_space_group_name_H-M   'P 1'
_cell_length_a   5.06743830
_cell_length_b   5.07323130
_cell_length_c   29.40887273
_cell_angle_alpha   85.05711091
_cell_angle_beta   94.82407847
_cell_angle_gamma   59.90957921
_symmetry_Int_Tables_number   1
_chemical_formula_structural   Li24Ti7Cr5O36
_chemical_formula_sum   'Li24 Ti7 Cr5 O36'
_cell_volume   644.58453955
_cell_formula_units_Z   1
loop_
 _symmetry_equiv_pos_site_id
 _symmetry_equiv_pos_as_xyz
  1  'x, y, z'
loop_
 _atom_site_type_symbol
 _atom_site_label
 _atom_site_symmetry_multiplicity
 _atom_site_fract_x
 _atom_site_fract_y
 _atom_site_fract_z
 _atom_site_occupancy
  Li  Li0  1  0.996323  0.497331  0.666678  1
  Li  Li1  1  0.250160  0.250031  0.916735  1
  Li  Li2  1  0.157070  0.665095  0.833054  1
  Li  Li3  1  0.003169  0.497309  0.333335  1
  Li  Li4  1  0.248571  0.253296  0.583367  1
  Li  Li5  1  0.496367  0.000675  0.833216  1
  Li  Li6  1  0.159934  0.665191  0.499803  1
  Li  Li7  1  0.997225  0.499185  0.000202  1
  Li  Li8  1  0.246086  0.252514  0.249983  1
  Li  Li9  1  0.499096  0.994522  0.499851  1
  Li  Li10  1  0.334092  0.842675  0.999993  1
  Li  Li11  1  0.150767  0.668870  0.166461  1
  Li  Li12  1  0.500036  0.999953  0.166657  1
  Li  Li13  1  0.665057  0.162421  0.666845  1
  Li  Li14  1  0.336906  0.839061  0.666496  1
  Li  Li15  1  0.669727  0.154178  0.333677  1
  Li  Li16  1  0.327699  0.849399  0.333041  1
  Li  Li17  1  0.846378  0.334351  0.833289  1
  Li  Li18  1  0.668576  0.156700  0.000487  1
  Li  Li19  1  0.754078  0.747908  0.749988  1
  Li  Li20  1  0.839891  0.339428  0.500012  1
  Li  Li21  1  0.748410  0.753359  0.416666  1
  Li  Li22  1  0.849174  0.331214  0.166842  1
  Li  Li23  1  0.753858  0.747701  0.083358  1
  Ti  Ti24  1  0.412462  0.419494  0.749843  1
  Ti  Ti25  1  0.419725  0.412327  0.416749  1
  Ti  Ti26  1  0.582341  0.582247  0.916645  1
  Ti  Ti27  1  0.412698  0.419748  0.083208  1
  Ti  Ti28  1  0.586975  0.580413  0.250145  1
  Ti  Ti29  1  0.916797  0.917001  0.916698  1
  Ti  Ti30  1  0.918810  0.911803  0.583495  1
  Cr  Cr31  1  0.086274  0.081011  0.750092  1
  Cr  Cr32  1  0.081421  0.086063  0.416556  1
  Cr  Cr33  1  0.086525  0.081065  0.083539  1
  Cr  Cr34  1  0.580906  0.585327  0.583153  1
  Cr  Cr35  1  0.913548  0.918715  0.249846  1
  O  O36  1  0.146117  0.358033  0.788802  1
  O  O37  1  0.348614  0.141937  0.711848  1
  O  O38  1  0.142102  0.348741  0.454787  1
  O  O39  1  0.288132  0.566874  0.954651  1
  O  O40  1  0.068116  0.784878  0.711751  1
  O  O41  1  0.358693  0.146087  0.377825  1
  O  O42  1  0.212003  0.932781  0.878806  1
  O  O43  1  0.146442  0.357364  0.122288  1
  O  O44  1  0.283887  0.568417  0.621585  1
  O  O45  1  0.067773  0.792811  0.379480  1
  O  O46  1  0.567670  0.288486  0.878653  1
  O  O47  1  0.424345  0.722956  0.787313  1
  O  O48  1  0.348885  0.141805  0.045342  1
  O  O49  1  0.223015  0.924690  0.546004  1
  O  O50  1  0.282306  0.573688  0.287268  1
  O  O51  1  0.792470  0.068210  0.787185  1
  O  O52  1  0.068629  0.784267  0.045252  1
  O  O53  1  0.567723  0.293381  0.546033  1
  O  O54  1  0.426645  0.718324  0.453718  1
  O  O55  1  0.932867  0.211903  0.954527  1
  O  O56  1  0.207525  0.931687  0.212786  1
  O  O57  1  0.718331  0.426756  0.712890  1
  O  O58  1  0.784809  0.069375  0.454955  1
  O  O59  1  0.644020  0.855552  0.955257  1
  O  O60  1  0.576175  0.277265  0.212486  1
  O  O61  1  0.423820  0.722804  0.120883  1
  O  O62  1  0.926439  0.217894  0.620390  1
  O  O63  1  0.722983  0.424813  0.379243  1
  O  O64  1  0.855439  0.645110  0.878067  1
  O  O65  1  0.792623  0.068087  0.120540  1
  O  O66  1  0.641152  0.848541  0.621457  1
  O  O67  1  0.931674  0.215358  0.288068  1
  O  O68  1  0.718052  0.426874  0.046262  1
  O  O69  1  0.858003  0.646312  0.544414  1
  O  O70  1  0.651824  0.857678  0.288093  1
  O  O71  1  0.853564  0.642681  0.211093  1
