# generated using pymatgen
data_LiMnV(PO4)3
_symmetry_space_group_name_H-M   'P 1'
_cell_length_a   9.16171521
_cell_length_b   8.26536985
_cell_length_c   8.25922296
_cell_angle_alpha   61.11164427
_cell_angle_beta   61.98665366
_cell_angle_gamma   92.06450353
_symmetry_Int_Tables_number   1
_chemical_formula_structural   LiMnV(PO4)3
_chemical_formula_sum   'Li2 Mn2 V2 P6 O24'
_cell_volume   454.61764981
_cell_formula_units_Z   2
loop_
 _symmetry_equiv_pos_site_id
 _symmetry_equiv_pos_as_xyz
  1  'x, y, z'
loop_
 _atom_site_type_symbol
 _atom_site_label
 _atom_site_symmetry_multiplicity
 _atom_site_fract_x
 _atom_site_fract_y
 _atom_site_fract_z
 _atom_site_occupancy
  Li  Li0  1  0.368590  0.187972  0.376366  1
  Li  Li1  1  0.889285  0.932711  0.362567  1
  Mn  Mn2  1  0.570342  0.855124  0.279978  1
  Mn  Mn3  1  0.435554  0.138870  0.721382  1
  V  V4  1  0.047507  0.360192  0.303650  1
  V  V5  1  0.954888  0.643506  0.706853  1
  P  P6  1  0.248631  0.048142  0.209270  1
  P  P7  1  0.248640  0.467071  0.495541  1
  P  P8  1  0.253506  0.752710  0.780947  1
  P  P9  1  0.752254  0.241599  0.217559  1
  P  P10  1  0.754359  0.531518  0.507031  1
  P  P11  1  0.751998  0.956770  0.788184  1
  O  O12  1  0.096355  0.843098  0.381711  1
  O  O13  1  0.266652  0.122510  0.990440  1
  O  O14  1  0.182029  0.190880  0.281937  1
  O  O15  1  0.186136  0.487933  0.337708  1
  O  O16  1  0.103596  0.491498  0.672732  1
  O  O17  1  0.109929  0.781136  0.724417  1
  O  O18  1  0.411740  0.045176  0.214446  1
  O  O19  1  0.267235  0.266778  0.593025  1
  O  O20  1  0.422280  0.632524  0.348433  1
  O  O21  1  0.181932  0.538896  0.990526  1
  O  O22  1  0.270376  0.896914  0.840991  1
  O  O23  1  0.425279  0.785389  0.586525  1
  O  O24  1  0.574578  0.215634  0.402409  1
  O  O25  1  0.736349  0.103019  0.150656  1
  O  O26  1  0.821891  0.458993  0.011168  1
  O  O27  1  0.579959  0.369854  0.647679  1
  O  O28  1  0.746414  0.735748  0.389217  1
  O  O29  1  0.586211  0.967202  0.794570  1
  O  O30  1  0.890669  0.206463  0.277968  1
  O  O31  1  0.897697  0.505366  0.326771  1
  O  O32  1  0.818291  0.518057  0.659224  1
  O  O33  1  0.823845  0.819976  0.707878  1
  O  O34  1  0.736537  0.879712  0.006271  1
  O  O35  1  0.900540  0.167007  0.609659  1
