# generated using pymatgen
data_MnTeO4
_symmetry_space_group_name_H-M   'P 1'
_cell_length_a   5.16515480
_cell_length_b   9.93631360
_cell_length_c   9.43070288
_cell_angle_alpha   18.34752023
_cell_angle_beta   34.43237479
_cell_angle_gamma   38.48082176
_symmetry_Int_Tables_number   1
_chemical_formula_structural   MnTeO4
_chemical_formula_sum   'Mn1 Te1 O4'
_cell_volume   86.14712218
_cell_formula_units_Z   1
loop_
 _symmetry_equiv_pos_site_id
 _symmetry_equiv_pos_as_xyz
  1  'x, y, z'
loop_
 _atom_site_type_symbol
 _atom_site_label
 _atom_site_symmetry_multiplicity
 _atom_site_fract_x
 _atom_site_fract_y
 _atom_site_fract_z
 _atom_site_occupancy
  Mn  Mn0  1  0.500131  0.500015  0.499836  1
  Te  Te1  1  0.500095  0.999993  0.500032  1
  O  O2  1  0.130994  0.999978  0.266275  1
  O  O3  1  0.346827  0.499946  0.200256  1
  O  O4  1  0.869186  0.000019  0.733547  1
  O  O5  1  0.652766  0.500050  0.800055  1
