# generated using pymatgen
data_Li10Si(PS6)2
_symmetry_space_group_name_H-M   'P 1'
_cell_length_a   8.58317906
_cell_length_b   8.86409809
_cell_length_c   12.94160506
_cell_angle_alpha   91.86389874
_cell_angle_beta   90.63498024
_cell_angle_gamma   90.31028873
_symmetry_Int_Tables_number   1
_chemical_formula_structural   Li10Si(PS6)2
_chemical_formula_sum   'Li20 Si2 P4 S24'
_cell_volume   984.02719697
_cell_formula_units_Z   2
loop_
 _symmetry_equiv_pos_site_id
 _symmetry_equiv_pos_as_xyz
  1  'x, y, z'
loop_
 _atom_site_type_symbol
 _atom_site_label
 _atom_site_symmetry_multiplicity
 _atom_site_fract_x
 _atom_site_fract_y
 _atom_site_fract_z
 _atom_site_occupancy
  Li  Li0  1  0.988553  0.516951  0.952650  1
  Li  Li1  1  0.964960  0.516759  0.425294  1
  Li  Li2  1  0.510620  0.965101  0.549958  1
  Li  Li3  1  0.496231  0.996305  0.049380  1
  Li  Li4  1  0.258971  0.290157  0.157520  1
  Li  Li5  1  0.745084  0.746488  0.281703  1
  Li  Li6  1  0.217137  0.818553  0.753501  1
  Li  Li7  1  0.228570  0.755879  0.251486  1
  Li  Li8  1  0.754436  0.221267  0.350901  1
  Li  Li9  1  0.462409  0.517580  0.750789  1
  Li  Li10  1  0.229441  0.229051  0.365523  1
  Li  Li11  1  0.732658  0.255170  0.857169  1
  Li  Li12  1  0.244790  0.761414  0.005658  1
  Li  Li13  1  0.742014  0.264286  0.131739  1
  Li  Li14  1  0.763610  0.729254  0.690160  1
  Li  Li15  1  0.222237  0.258033  0.919445  1
  Li  Li16  1  0.748078  0.761473  0.008312  1
  Li  Li17  1  0.244163  0.720149  0.485187  1
  Li  Li18  1  0.783164  0.214161  0.625919  1
  Li  Li19  1  0.241723  0.211254  0.650329  1
  Si  Si20  1  0.997090  0.486974  0.183037  1
  Si  Si21  1  0.507704  0.991510  0.815436  1
  P  P22  1  0.993199  0.965036  0.501536  1
  P  P23  1  0.492360  0.515354  0.993165  1
  P  P24  1  0.008618  0.483227  0.684694  1
  P  P25  1  0.487857  0.008818  0.310379  1
  S  S26  1  0.988820  0.177040  0.443562  1
  S  S27  1  0.004612  0.794013  0.389588  1
  S  S28  1  0.295292  0.530565  0.901009  1
  S  S29  1  0.684120  0.529860  0.899252  1
  S  S30  1  0.495523  0.694908  0.097468  1
  S  S31  1  0.486828  0.309839  0.060126  1
  S  S32  1  0.196123  0.947991  0.588425  1
  S  S33  1  0.801293  0.945965  0.590263  1
  S  S34  1  0.006884  0.302862  0.069911  1
  S  S35  1  0.000526  0.700371  0.106994  1
  S  S36  1  0.212895  0.486461  0.601095  1
  S  S37  1  0.814524  0.491043  0.589462  1
  S  S38  1  0.484913  0.799840  0.375384  1
  S  S39  1  0.495863  0.179168  0.422334  1
  S  S40  1  0.293028  0.989502  0.902232  1
  S  S41  1  0.705300  0.996370  0.916347  1
  S  S42  1  0.993314  0.663833  0.787788  1
  S  S43  1  0.002894  0.281204  0.760917  1
  S  S44  1  0.787453  0.466652  0.269218  1
  S  S45  1  0.193024  0.478669  0.287433  1
  S  S46  1  0.516230  0.193540  0.725095  1
  S  S47  1  0.494348  0.800105  0.708409  1
  S  S48  1  0.686198  0.016060  0.221104  1
  S  S49  1  0.291726  0.031037  0.218920  1
