# generated using pymatgen
data_Pb(BrO3)2
_symmetry_space_group_name_H-M   'P 1'
_cell_length_a   7.62872382
_cell_length_b   7.62872382
_cell_length_c   8.37079335
_cell_angle_alpha   53.90761387
_cell_angle_beta   126.09238613
_cell_angle_gamma   117.67762935
_symmetry_Int_Tables_number   1
_chemical_formula_structural   Pb(BrO3)2
_chemical_formula_sum   'Pb2 Br4 O12'
_cell_volume   312.91210363
_cell_formula_units_Z   2
loop_
 _symmetry_equiv_pos_site_id
 _symmetry_equiv_pos_as_xyz
  1  'x, y, z'
loop_
 _atom_site_type_symbol
 _atom_site_label
 _atom_site_symmetry_multiplicity
 _atom_site_fract_x
 _atom_site_fract_y
 _atom_site_fract_z
 _atom_site_occupancy
  Pb  Pb0  1  0.844296  0.844296  0.750000  1
  Pb  Pb1  1  0.155704  0.155704  0.250000  1
  Br  Br2  1  0.319389  0.703771  0.805550  1
  Br  Br3  1  0.296229  0.680611  0.305550  1
  Br  Br4  1  0.703771  0.319389  0.694450  1
  Br  Br5  1  0.680611  0.296229  0.194450  1
  O  O6  1  0.083180  0.807298  0.627909  1
  O  O7  1  0.236463  0.427258  0.894528  1
  O  O8  1  0.411184  0.781978  0.625954  1
  O  O9  1  0.192702  0.916820  0.127909  1
  O  O10  1  0.572742  0.763537  0.394528  1
  O  O11  1  0.218022  0.588816  0.125954  1
  O  O12  1  0.781978  0.411184  0.874046  1
  O  O13  1  0.427258  0.236463  0.605472  1
  O  O14  1  0.807298  0.083180  0.872091  1
  O  O15  1  0.588816  0.218022  0.374046  1
  O  O16  1  0.763537  0.572742  0.105472  1
  O  O17  1  0.916820  0.192702  0.372091  1
