# generated using pymatgen
data_KH28S4N7O16
_symmetry_space_group_name_H-M   'P 1'
_cell_length_a   8.28254005
_cell_length_b   8.39588637
_cell_length_c   7.98971980
_cell_angle_alpha   90.50700415
_cell_angle_beta   90.28961049
_cell_angle_gamma   88.22598581
_symmetry_Int_Tables_number   1
_chemical_formula_structural   KH28S4N7O16
_chemical_formula_sum   'K1 H28 S4 N7 O16'
_cell_volume   555.30485252
_cell_formula_units_Z   1
loop_
 _symmetry_equiv_pos_site_id
 _symmetry_equiv_pos_as_xyz
  1  'x, y, z'
loop_
 _atom_site_type_symbol
 _atom_site_label
 _atom_site_symmetry_multiplicity
 _atom_site_fract_x
 _atom_site_fract_y
 _atom_site_fract_z
 _atom_site_occupancy
  K  K0  1  0.169293  0.613313  0.570720  1
  H  H1  1  0.828140  0.700840  0.497880  1
  H  H2  1  0.854659  0.146244  0.889251  1
  H  H3  1  0.983548  0.198983  0.730801  1
  H  H4  1  0.819145  0.696212  0.591105  1
  H  H5  1  0.623585  0.880988  0.216910  1
  H  H6  1  0.200797  0.988625  0.082781  1
  H  H7  1  0.210442  0.309440  0.553850  1
  H  H8  1  0.346192  0.127397  0.778615  1
  H  H9  1  0.217191  0.691379  0.930417  1
  H  H10  1  0.267768  0.332050  0.253748  1
  H  H11  1  0.465791  0.092457  0.636300  1
  H  H12  1  0.216774  0.861111  0.838635  1
  H  H13  1  0.619491  0.295571  0.768606  1
  H  H14  1  0.615761  0.734277  0.762887  1
  H  H15  1  0.691362  0.096678  0.038082  1
  H  H16  1  0.549174  0.670884  0.488512  1
  H  H17  1  0.413478  0.348078  0.442234  1
  H  H18  1  0.413591  0.872920  0.064797  1
  H  H19  1  0.468447  0.278801  0.462794  1
  H  H20  1  0.767748  0.301884  0.202703  1
  H  H21  1  0.563300  0.491368  0.510337  1
  H  H22  1  0.016075  0.326644  0.259799  1
  H  H23  1  0.170311  0.326164  0.946265  1
  H  H24  1  0.706951  0.878789  0.881083  1
  H  H25  1  0.045778  0.135052  0.503797  1
  H  H26  1  0.849683  0.700085  0.065082  1
  H  H27  1  0.185653  0.919551  0.139833  1
  H  H28  1  0.149840  0.336759  0.489661  1
  S  S29  1  0.214263  0.470683  0.166474  1
  S  S30  1  0.447061  0.175034  0.151362  1
  S  S31  1  0.854312  0.083536  0.042666  1
  S  S32  1  0.508614  0.746900  0.015978  1
  N  N33  1  0.277638  0.620985  0.233635  1
  N  N34  1  0.182685  0.922609  0.507972  1
  N  N35  1  0.069736  0.050769  0.410722  1
  N  N36  1  0.235706  0.424169  0.979556  1
  N  N37  1  0.601470  0.822311  0.852064  1
  N  N38  1  0.830510  0.405787  0.730182  1
  N  N39  1  0.798618  0.491633  0.855378  1
  O  O40  1  0.017615  0.440000  0.230810  1
  O  O41  1  0.949792  0.833648  0.315127  1
  O  O42  1  0.273833  0.753886  0.846382  1
  O  O43  1  0.721749  0.288868  0.700800  1
  O  O44  1  0.096733  -0.006668  0.747959  1
  O  O45  1  0.922541  0.970802  0.399289  1
  O  O46  1  0.551331  0.353366  0.142992  1
  O  O47  1  0.535829  0.068568  0.274155  1
  O  O48  1  0.449456  0.160814  0.735124  1
  O  O49  1  0.529857  0.588579  0.570317  1
  O  O50  1  0.640997  0.770844  0.169027  1
  O  O51  1  0.952831  0.676019  0.005538  1
  O  O52  1  0.678118  0.356193  0.266542  1
  O  O53  1  0.323718  0.949556  0.498198  1
  O  O54  1  0.096367  0.165064  0.754382  1
  O  O55  1  0.908649  0.618500  0.841884  1
