# generated using pymatgen
data_Li2VP2O7
_symmetry_space_group_name_H-M   'P 1'
_cell_length_a   9.95568267
_cell_length_b   9.90817453
_cell_length_c   11.29536981
_cell_angle_alpha   90.05205007
_cell_angle_beta   103.05772506
_cell_angle_gamma   89.90214347
_symmetry_Int_Tables_number   1
_chemical_formula_structural   Li2VP2O7
_chemical_formula_sum   'Li16 V8 P16 O56'
_cell_volume   1085.39329991
_cell_formula_units_Z   8
loop_
 _symmetry_equiv_pos_site_id
 _symmetry_equiv_pos_as_xyz
  1  'x, y, z'
loop_
 _atom_site_type_symbol
 _atom_site_label
 _atom_site_symmetry_multiplicity
 _atom_site_fract_x
 _atom_site_fract_y
 _atom_site_fract_z
 _atom_site_occupancy
  Li  Li0  1  0.112030  0.721017  0.448889  1
  Li  Li1  1  0.169127  0.421463  0.545413  1
  Li  Li2  1  0.085416  0.107088  0.029002  1
  Li  Li3  1  0.345114  0.910612  0.956866  1
  Li  Li4  1  0.154020  0.410176  0.043640  1
  Li  Li5  1  0.415216  0.607970  0.970560  1
  Li  Li6  1  0.330563  0.921046  0.454568  1
  Li  Li7  1  0.388073  0.221605  0.550461  1
  Li  Li8  1  0.611927  0.778395  0.449539  1
  Li  Li9  1  0.669437  0.078954  0.545432  1
  Li  Li10  1  0.584784  0.392030  0.029440  1
  Li  Li11  1  0.845980  0.589824  0.956360  1
  Li  Li12  1  0.654886  0.089388  0.043134  1
  Li  Li13  1  0.914584  0.892912  0.970998  1
  Li  Li14  1  0.830873  0.578537  0.454587  1
  Li  Li15  1  0.887970  0.278983  0.551111  1
  V  V16  1  0.202659  0.928319  0.672998  1
  V  V17  1  0.263696  0.218282  0.826764  1
  V  V18  1  0.236323  0.718518  0.172764  1
  V  V19  1  0.297158  0.428498  0.326828  1
  V  V20  1  0.702842  0.571502  0.673172  1
  V  V21  1  0.763677  0.281482  0.827236  1
  V  V22  1  0.736304  0.781718  0.173236  1
  V  V23  1  0.797341  0.071681  0.327002  1
  P  P24  1  0.026290  0.453152  0.761001  1
  P  P25  1  0.120486  0.703573  0.890130  1
  P  P26  1  0.059214  0.930276  0.245305  1
  P  P27  1  0.122034  0.149688  0.426982  1
  P  P28  1  0.377888  0.649358  0.572817  1
  P  P29  1  0.441326  0.430504  0.754663  1
  P  P30  1  0.526146  0.046854  0.760424  1
  P  P31  1  0.379483  0.203204  0.109738  1
  P  P32  1  0.620517  0.796796  0.890262  1
  P  P33  1  0.473854  0.953146  0.239576  1
  P  P34  1  0.558674  0.569496  0.245337  1
  P  P35  1  0.622112  0.350642  0.427183  1
  P  P36  1  0.877966  0.850312  0.573018  1
  P  P37  1  0.940786  0.069724  0.754695  1
  P  P38  1  0.879514  0.296427  0.109870  1
  P  P39  1  0.973710  0.546848  0.238999  1
  O  O40  1  0.022024  0.414134  0.630192  1
  O  O41  1  0.023719  0.839865  0.552426  1
  O  O42  1  0.087557  0.089848  0.734906  1
  O  O43  1  0.118136  0.364832  0.858091  1
  O  O44  1  0.093156  0.602568  0.773255  1
  O  O45  1  0.183077  0.829060  0.845296  1
  O  O46  1  0.226026  0.631001  0.993791  1
  O  O47  1  0.015886  0.276644  0.074202  1
  O  O48  1  0.110305  0.079670  0.294412  1
  O  O49  1  0.069066  0.927355  0.113009  1
  O  O50  1  0.119906  0.536335  0.210698  1
  O  O51  1  0.188341  0.287498  0.419248  1
  O  O52  1  0.165111  0.829654  0.319265  1
  O  O53  1  0.222885  0.061662  0.518645  1
  O  O54  1  0.276394  0.561751  0.481371  1
  O  O55  1  0.335360  0.329971  0.680914  1
  O  O56  1  0.312165  0.787684  0.580606  1
  O  O57  1  0.379834  0.036370  0.788404  1
  O  O58  1  0.389783  0.579897  0.705482  1
  O  O59  1  0.432056  0.428192  0.887039  1
  O  O60  1  0.483910  0.777637  0.925672  1
  O  O61  1  0.274377  0.130548  0.005807  1
  O  O62  1  0.316768  0.328999  0.154266  1
  O  O63  1  0.406362  0.102547  0.226739  1
  O  O64  1  0.412058  0.589954  0.265575  1
  O  O65  1  0.382466  0.864610  0.142445  1
  O  O66  1  0.521943  0.085501  0.629642  1
  O  O67  1  0.476514  0.341347  0.448151  1
  O  O68  1  0.523486  0.658653  0.551849  1
  O  O69  1  0.478057  0.914499  0.370358  1
  O  O70  1  0.617534  0.135390  0.857555  1
  O  O71  1  0.587942  0.410046  0.734425  1
  O  O72  1  0.593638  0.897453  0.773261  1
  O  O73  1  0.683232  0.671001  0.845734  1
  O  O74  1  0.725623  0.869452  0.994193  1
  O  O75  1  0.516090  0.222363  0.074328  1
  O  O76  1  0.567944  0.571808  0.112961  1
  O  O77  1  0.610217  0.420103  0.294518  1
  O  O78  1  0.620166  0.963630  0.211596  1
  O  O79  1  0.687835  0.212316  0.419394  1
  O  O80  1  0.664640  0.670029  0.319086  1
  O  O81  1  0.723606  0.438249  0.518629  1
  O  O82  1  0.777115  0.938338  0.481355  1
  O  O83  1  0.834889  0.170346  0.680735  1
  O  O84  1  0.811659  0.712502  0.580752  1
  O  O85  1  0.880094  0.463665  0.789302  1
  O  O86  1  0.930934  0.072645  0.886991  1
  O  O87  1  0.889695  0.920330  0.705588  1
  O  O88  1  0.984114  0.723356  0.925798  1
  O  O89  1  0.773974  0.368999  0.006209  1
  O  O90  1  0.816923  0.170940  0.154704  1
  O  O91  1  0.906844  0.397432  0.226745  1
  O  O92  1  0.881864  0.635168  0.141909  1
  O  O93  1  0.912443  0.910152  0.265094  1
  O  O94  1  0.976281  0.160135  0.447574  1
  O  O95  1  0.977976  0.585866  0.369808  1
