# generated using pymatgen
data_Sr2C2N3
_symmetry_space_group_name_H-M   'P 1'
_cell_length_a   10.18357391
_cell_length_b   10.19773515
_cell_length_c   6.93190151
_cell_angle_alpha   90.00000000
_cell_angle_beta   90.00000000
_cell_angle_gamma   119.95407399
_symmetry_Int_Tables_number   1
_chemical_formula_structural   Sr2C2N3
_chemical_formula_sum   'Sr8 C8 N12'
_cell_volume   623.71725752
_cell_formula_units_Z   4
loop_
 _symmetry_equiv_pos_site_id
 _symmetry_equiv_pos_as_xyz
  1  'x, y, z'
loop_
 _atom_site_type_symbol
 _atom_site_label
 _atom_site_symmetry_multiplicity
 _atom_site_fract_x
 _atom_site_fract_y
 _atom_site_fract_z
 _atom_site_occupancy
  Sr  Sr0  1  0.333182  0.666364  0.750000  1
  Sr  Sr1  1  0.666818  0.333636  0.250000  1
  Sr  Sr2  1  0.197139  0.801745  0.250000  1
  Sr  Sr3  1  0.197512  0.395024  0.250000  1
  Sr  Sr4  1  0.604607  0.801745  0.250000  1
  Sr  Sr5  1  0.802861  0.198255  0.750000  1
  Sr  Sr6  1  0.802488  0.604976  0.750000  1
  Sr  Sr7  1  0.395393  0.198255  0.750000  1
  C  C8  1  0.500000  0.500000  0.500000  1
  C  C9  1  0.500000  0.000000  0.500000  1
  C  C10  1  0.000000  0.500000  0.500000  1
  C  C11  1  0.500000  0.500000  0.000000  1
  C  C12  1  0.500000  0.000000  0.000000  1
  C  C13  1  0.000000  0.500000  0.000000  1
  C  C14  1  0.000038  0.000077  0.250000  1
  C  C15  1  0.999962  0.999923  0.750000  1
  N  N16  1  0.568925  0.430702  0.528958  1
  N  N17  1  0.569035  0.138070  0.528868  1
  N  N18  1  0.861778  0.430702  0.528958  1
  N  N19  1  0.431075  0.569298  0.471042  1
  N  N20  1  0.430965  0.861930  0.471132  1
  N  N21  1  0.138222  0.569298  0.471042  1
  N  N22  1  0.431075  0.569298  0.028958  1
  N  N23  1  0.430965  0.861930  0.028868  1
  N  N24  1  0.138222  0.569298  0.028958  1
  N  N25  1  0.568925  0.430702  0.971042  1
  N  N26  1  0.569035  0.138070  0.971132  1
  N  N27  1  0.861778  0.430702  0.971042  1
