# generated using pymatgen
data_Li3Sb2(PO4)3
_symmetry_space_group_name_H-M   'P 1'
_cell_length_a   8.49529728
_cell_length_b   9.37977278
_cell_length_c   12.83660545
_cell_angle_alpha   90.00000336
_cell_angle_beta   80.76599301
_cell_angle_gamma   90.00000229
_symmetry_Int_Tables_number   1
_chemical_formula_structural   Li3Sb2(PO4)3
_chemical_formula_sum   'Li12 Sb8 P12 O48'
_cell_volume   1009.61634054
_cell_formula_units_Z   4
loop_
 _symmetry_equiv_pos_site_id
 _symmetry_equiv_pos_as_xyz
  1  'x, y, z'
loop_
 _atom_site_type_symbol
 _atom_site_label
 _atom_site_symmetry_multiplicity
 _atom_site_fract_x
 _atom_site_fract_y
 _atom_site_fract_z
 _atom_site_occupancy
  Li  Li0  1  0.705434  0.183362  0.945412  1
  Li  Li1  1  0.500000  0.611455  0.750000  1
  Li  Li2  1  0.294566  0.183362  0.554588  1
  Li  Li3  1  0.500000  0.500000  0.500000  1
  Li  Li4  1  0.000000  0.000000  0.500000  1
  Li  Li5  1  0.705434  0.816638  0.445412  1
  Li  Li6  1  0.000000  0.882634  0.750000  1
  Li  Li7  1  0.500000  0.388545  0.250000  1
  Li  Li8  1  1.000000  0.117366  0.250000  1
  Li  Li9  1  0.000000  0.000000  0.000000  1
  Li  Li10  1  0.500000  0.500000  0.000000  1
  Li  Li11  1  0.294566  0.816638  0.054588  1
  Sb  Sb12  1  0.816160  0.503322  0.848007  1
  Sb  Sb13  1  0.688242  0.010349  0.656078  1
  Sb  Sb14  1  0.311758  0.010349  0.843922  1
  Sb  Sb15  1  0.183840  0.503322  0.651993  1
  Sb  Sb16  1  0.688242  0.989651  0.156078  1
  Sb  Sb17  1  0.311758  0.989651  0.343922  1
  Sb  Sb18  1  0.816160  0.496678  0.348007  1
  Sb  Sb19  1  0.183840  0.496678  0.151993  1
  P  P20  1  0.500000  0.329899  0.750000  1
  P  P21  1  0.674364  0.829970  0.922396  1
  P  P22  1  0.822588  0.666652  0.586655  1
  P  P23  1  0.000000  0.160528  0.750000  1
  P  P24  1  0.674364  0.170030  0.422396  1
  P  P25  1  0.177412  0.666652  0.913345  1
  P  P26  1  0.325636  0.829970  0.577604  1
  P  P27  1  0.822588  0.333348  0.086655  1
  P  P28  1  0.177412  0.333348  0.413345  1
  P  P29  1  0.325636  0.170030  0.077604  1
  P  P30  1  0.500000  0.670101  0.250000  1
  P  P31  1  1.000000  0.839472  0.250000  1
  O  O32  1  0.868613  0.243311  0.818952  1
  O  O33  1  0.008108  0.609850  0.918021  1
  O  O34  1  0.928242  0.056465  0.671095  1
  O  O35  1  0.568304  0.430621  0.830839  1
  O  O36  1  0.369581  0.238738  0.815350  1
  O  O37  1  0.677392  0.661951  0.934219  1
  O  O38  1  0.765631  0.907036  0.006025  1
  O  O39  1  0.630419  0.238738  0.684650  1
  O  O40  1  0.071758  0.056465  0.828905  1
  O  O41  1  0.260130  0.604223  0.007266  1
  O  O42  1  0.765631  0.092964  0.506025  1
  O  O43  1  0.713271  0.635706  0.689329  1
  O  O44  1  0.497175  0.869901  0.943190  1
  O  O45  1  0.008108  0.390150  0.418021  1
  O  O46  1  0.769089  0.876613  0.816266  1
  O  O47  1  0.431696  0.430621  0.669161  1
  O  O48  1  0.769089  0.123387  0.316266  1
  O  O49  1  0.286729  0.635706  0.810671  1
  O  O50  1  0.834073  0.832874  0.564362  1
  O  O51  1  0.739870  0.604223  0.492734  1
  O  O52  1  0.131387  0.243311  0.681048  1
  O  O53  1  0.497175  0.130099  0.443190  1
  O  O54  1  0.677392  0.338049  0.434219  1
  O  O55  1  0.165927  0.832874  0.935638  1
  O  O56  1  0.322608  0.661951  0.565781  1
  O  O57  1  0.834073  0.167126  0.064362  1
  O  O58  1  0.868613  0.756689  0.318952  1
  O  O59  1  0.502825  0.869901  0.556810  1
  O  O60  1  0.165927  0.167126  0.435638  1
  O  O61  1  0.260130  0.395777  0.507266  1
  O  O62  1  0.230911  0.876613  0.683734  1
  O  O63  1  0.713271  0.364294  0.189329  1
  O  O64  1  0.568304  0.569379  0.330839  1
  O  O65  1  0.230911  0.123387  0.183734  1
  O  O66  1  0.991892  0.609850  0.581979  1
  O  O67  1  0.502825  0.130099  0.056810  1
  O  O68  1  0.286729  0.364294  0.310671  1
  O  O69  1  0.739870  0.395777  0.992734  1
  O  O70  1  0.928242  0.943535  0.171095  1
  O  O71  1  0.234369  0.907036  0.493975  1
  O  O72  1  0.369581  0.761262  0.315350  1
  O  O73  1  0.322608  0.338049  0.065781  1
  O  O74  1  0.234369  0.092964  0.993975  1
  O  O75  1  0.630419  0.761262  0.184650  1
  O  O76  1  0.431696  0.569379  0.169161  1
  O  O77  1  0.071758  0.943535  0.328905  1
  O  O78  1  0.991892  0.390150  0.081979  1
  O  O79  1  0.131387  0.756689  0.181048  1
