# generated using pymatgen
data_Li4Cr(WO4)3
_symmetry_space_group_name_H-M   'P 1'
_cell_length_a   5.47844482
_cell_length_b   10.89552223
_cell_length_c   9.60979795
_cell_angle_alpha   28.39934284
_cell_angle_beta   51.19748252
_cell_angle_gamma   56.40916854
_symmetry_Int_Tables_number   1
_chemical_formula_structural   Li4Cr(WO4)3
_chemical_formula_sum   'Li4 Cr1 W3 O12'
_cell_volume   212.60735866
_cell_formula_units_Z   1
loop_
 _symmetry_equiv_pos_site_id
 _symmetry_equiv_pos_as_xyz
  1  'x, y, z'
loop_
 _atom_site_type_symbol
 _atom_site_label
 _atom_site_symmetry_multiplicity
 _atom_site_fract_x
 _atom_site_fract_y
 _atom_site_fract_z
 _atom_site_occupancy
  Li  Li0  1  0.255575  0.997590  0.305695  1
  Li  Li1  1  0.308422  0.504011  0.266354  1
  Li  Li2  1  0.768269  0.004594  0.742201  1
  Li  Li3  1  0.772464  0.492154  0.807806  1
  Cr  Cr4  1  0.003347  0.500780  0.997091  1
  W  W5  1  0.992557  0.997102  0.008638  1
  W  W6  1  0.492100  0.004059  0.501895  1
  W  W7  1  0.503612  0.500866  0.498470  1
  O  O8  1  0.369842  0.293308  0.142538  1
  O  O9  1  0.240666  0.124093  0.627692  1
  O  O10  1  0.117794  0.305605  0.752204  1
  O  O11  1  0.852750  0.193546  0.244082  1
  O  O12  1  0.370575  0.817951  0.111253  1
  O  O13  1  0.725464  0.386786  0.369644  1
  O  O14  1  0.248633  0.616056  0.624808  1
  O  O15  1  0.631343  0.175820  0.883584  1
  O  O16  1  0.146326  0.818437  0.728776  1
  O  O17  1  0.888077  0.695005  0.236115  1
  O  O18  1  0.750315  0.873463  0.371490  1
  O  O19  1  0.633068  0.698773  0.850865  1
