# generated using pymatgen
data_Li5V3P8O29
_symmetry_space_group_name_H-M   'P 1'
_cell_length_a   9.84600701
_cell_length_b   9.79909757
_cell_length_c   14.12671674
_cell_angle_alpha   89.92990178
_cell_angle_beta   89.69193083
_cell_angle_gamma   59.89301678
_symmetry_Int_Tables_number   1
_chemical_formula_structural   Li5V3P8O29
_chemical_formula_sum   'Li10 V6 P16 O58'
_cell_volume   1179.07651417
_cell_formula_units_Z   2
loop_
 _symmetry_equiv_pos_site_id
 _symmetry_equiv_pos_as_xyz
  1  'x, y, z'
loop_
 _atom_site_type_symbol
 _atom_site_label
 _atom_site_symmetry_multiplicity
 _atom_site_fract_x
 _atom_site_fract_y
 _atom_site_fract_z
 _atom_site_occupancy
  Li  Li0  1  0.913663  0.776338  0.062756  1
  Li  Li1  1  0.767752  0.897306  0.557395  1
  Li  Li2  1  0.902013  0.328664  0.557290  1
  Li  Li3  1  0.771584  0.317267  0.062140  1
  Li  Li4  1  0.324399  0.905978  0.059698  1
  Li  Li5  1  0.333334  0.766213  0.558757  1
  Li  Li6  1  0.337299  0.336125  0.607516  1
  Li  Li7  1  0.341196  0.331044  0.109596  1
  Li  Li8  1  0.081673  0.225147  0.939800  1
  Li  Li9  1  0.992051  0.001627  0.490530  1
  V  V10  1  0.566417  0.433605  0.255516  1
  V  V11  1  0.431563  0.570568  0.752251  1
  V  V12  1  0.572853  0.995654  0.752270  1
  V  V13  1  0.434809  0.002469  0.252916  1
  V  V14  1  0.001032  0.570255  0.252339  1
  V  V15  1  0.996285  0.433413  0.748551  1
  P  P16  1  0.915524  0.766418  0.843364  1
  P  P17  1  0.769987  0.917141  0.343690  1
  P  P18  1  0.914915  0.311923  0.341068  1
  P  P19  1  0.667421  0.666873  0.130255  1
  P  P20  1  0.663860  0.667783  0.627671  1
  P  P21  1  0.764021  0.320030  0.844220  1
  P  P22  1  0.689476  0.222819  0.661339  1
  P  P23  1  0.317855  0.914633  0.842562  1
  P  P24  1  0.682537  0.091462  0.161198  1
  P  P25  1  0.308320  0.775662  0.344063  1
  P  P26  1  0.230139  0.682651  0.160675  1
  P  P27  1  0.333745  0.334355  0.370018  1
  P  P28  1  0.329929  0.332371  0.868815  1
  P  P29  1  0.088876  0.688960  0.660919  1
  P  P30  1  0.226062  0.086631  0.659323  1
  P  P31  1  0.091308  0.230108  0.158768  1
  O  O32  1  0.993258  0.794047  0.582164  1
  O  O33  1  0.912344  0.748258  0.326737  1
  O  O34  1  0.773543  0.994010  0.079479  1
  O  O35  1  0.747368  0.913286  0.829703  1
  O  O36  1  0.904064  0.617719  0.817952  1
  O  O37  1  0.819710  0.660975  0.166687  1
  O  O38  1  0.914860  0.466322  0.329637  1
  O  O39  1  0.996938  0.248658  0.071310  1
  O  O40  1  0.915059  0.332682  0.834990  1
  O  O41  1  0.670426  0.815389  0.671862  1
  O  O42  1  0.618828  0.910360  0.332016  1
  O  O43  1  0.809623  0.514031  0.665701  1
  O  O44  1  0.661456  0.659918  0.025249  1
  O  O45  1  0.664101  0.679095  0.522449  1
  O  O46  1  0.658932  0.522655  0.176129  1
  O  O47  1  0.478824  0.903194  0.818739  1
  O  O48  1  0.522729  0.821887  0.171030  1
  O  O49  1  0.743900  0.341427  0.329061  1
  O  O50  1  0.778439  0.201292  0.761069  1
  O  O51  1  0.797263  0.209071  0.582608  1
  O  O52  1  0.751018  0.260378  0.937813  1
  O  O53  1  0.618155  0.481046  0.817463  1
  O  O54  1  0.510597  0.677673  0.666715  1
  O  O55  1  0.659696  0.261655  0.159572  1
  O  O56  1  0.465776  0.614964  0.326778  1
  O  O57  1  0.339306  0.911225  0.331570  1
  O  O58  1  0.779947  0.020223  0.258308  1
  O  O59  1  0.788697  0.981173  0.435503  1
  O  O60  1  0.215746  0.992840  0.579845  1
  O  O61  1  0.659765  0.079594  0.659528  1
  O  O62  1  0.527067  0.373983  0.666904  1
  O  O63  1  0.335780  0.750958  0.837423  1
  O  O64  1  0.485423  0.330572  0.325874  1
  O  O65  1  0.377153  0.514997  0.175839  1
  O  O66  1  0.243959  0.769728  0.079131  1
  O  O67  1  0.231643  0.779969  0.436268  1
  O  O68  1  0.200295  0.782475  0.257472  1
  O  O69  1  0.259807  0.660022  0.660305  1
  O  O70  1  0.476167  0.179563  0.821601  1
  O  O71  1  0.515791  0.113771  0.172961  1
  O  O72  1  0.333431  0.475750  0.826159  1
  O  O73  1  0.337657  0.322590  0.974333  1
  O  O74  1  0.341993  0.329429  0.475311  1
  O  O75  1  0.191255  0.481101  0.328639  1
  O  O76  1  0.378026  0.096863  0.667461  1
  O  O77  1  0.335824  0.185282  0.327090  1
  O  O78  1  0.085614  0.659484  0.156527  1
  O  O79  1  0.017841  0.781793  0.760335  1
  O  O80  1  0.983967  0.758039  0.936918  1
  O  O81  1  0.102834  0.524610  0.668118  1
  O  O82  1  0.180915  0.329238  0.832733  1
  O  O83  1  0.111329  0.375433  0.176087  1
  O  O84  1  0.255226  0.082277  0.155978  1
  O  O85  1  0.250909  0.001008  0.933712  1
  O  O86  1  0.202566  0.017357  0.758427  1
  O  O87  1  0.083971  0.259590  0.658217  1
  O  O88  1  0.980881  0.223903  0.431204  1
  O  O89  1  0.006025  0.204964  0.249836  1
