# generated using pymatgen
data_La2SiO5
_symmetry_space_group_name_H-M   'P 1'
_cell_length_a   7.13086229
_cell_length_b   8.36454426
_cell_length_c   10.23016086
_cell_angle_alpha   107.36353521
_cell_angle_beta   110.39691093
_cell_angle_gamma   64.76985559
_symmetry_Int_Tables_number   1
_chemical_formula_structural   La2SiO5
_chemical_formula_sum   'La8 Si4 O20'
_cell_volume   509.22619948
_cell_formula_units_Z   4
loop_
 _symmetry_equiv_pos_site_id
 _symmetry_equiv_pos_as_xyz
  1  'x, y, z'
loop_
 _atom_site_type_symbol
 _atom_site_label
 _atom_site_symmetry_multiplicity
 _atom_site_fract_x
 _atom_site_fract_y
 _atom_site_fract_z
 _atom_site_occupancy
  La  La0  1  0.233348  0.954453  0.664516  1
  La  La1  1  0.787637  0.888759  0.965438  1
  La  La2  1  0.710958  0.611241  0.534562  1
  La  La3  1  0.476715  0.454453  0.164516  1
  La  La4  1  0.523285  0.545547  0.835484  1
  La  La5  1  0.289042  0.388759  0.465438  1
  La  La6  1  0.212363  0.111241  0.034562  1
  La  La7  1  0.766652  0.045547  0.335484  1
  Si  Si8  1  0.271954  0.945743  0.306990  1
  Si  Si9  1  0.910708  0.554257  0.193010  1
  Si  Si10  1  0.089292  0.445743  0.806990  1
  Si  Si11  1  0.728046  0.054257  0.693010  1
  O  O12  1  0.098601  0.957403  0.148635  1
  O  O13  1  0.860582  0.966078  0.568758  1
  O  O14  1  0.599230  0.923067  0.682160  1
  O  O15  1  0.853292  0.759220  0.174680  1
  O  O16  1  0.437832  0.740780  0.325320  1
  O  O17  1  0.422926  0.863561  0.895311  1
  O  O18  1  0.391176  0.636439  0.604689  1
  O  O19  1  0.907369  0.542597  0.351365  1
  O  O20  1  0.742098  0.466078  0.068758  1
  O  O21  1  0.840137  0.576933  0.817840  1
  O  O22  1  0.159863  0.423067  0.182160  1
  O  O23  1  0.257902  0.533922  0.931242  1
  O  O24  1  0.092631  0.457403  0.648635  1
  O  O25  1  0.608824  0.363561  0.395311  1
  O  O26  1  0.577074  0.136439  0.104689  1
  O  O27  1  0.562168  0.259220  0.674680  1
  O  O28  1  0.146708  0.240780  0.825320  1
  O  O29  1  0.400770  0.076933  0.317840  1
  O  O30  1  0.139418  0.033922  0.431242  1
  O  O31  1  0.901399  0.042597  0.851365  1
