# generated using pymatgen
data_Zr3Zn3N
_symmetry_space_group_name_H-M   'P 1'
_cell_length_a   8.61689411
_cell_length_b   8.61689411
_cell_length_c   8.61689411
_cell_angle_alpha   60.00000000
_cell_angle_beta   60.00000000
_cell_angle_gamma   60.00000000
_symmetry_Int_Tables_number   1
_chemical_formula_structural   Zr3Zn3N
_chemical_formula_sum   'Zr12 Zn12 N4'
_cell_volume   452.41528664
_cell_formula_units_Z   4
loop_
 _symmetry_equiv_pos_site_id
 _symmetry_equiv_pos_as_xyz
  1  'x, y, z'
loop_
 _atom_site_type_symbol
 _atom_site_label
 _atom_site_symmetry_multiplicity
 _atom_site_fract_x
 _atom_site_fract_y
 _atom_site_fract_z
 _atom_site_occupancy
  Zr  Zr0  1  0.563836  0.936164  0.936164  1
  Zr  Zr1  1  0.563836  0.563836  0.936164  1
  Zr  Zr2  1  0.563836  0.936164  0.563836  1
  Zr  Zr3  1  0.936164  0.563836  0.563836  1
  Zr  Zr4  1  0.936164  0.936164  0.563836  1
  Zr  Zr5  1  0.936164  0.563836  0.936164  1
  Zr  Zr6  1  0.686164  0.313836  0.313836  1
  Zr  Zr7  1  0.686164  0.686164  0.313836  1
  Zr  Zr8  1  0.686164  0.313836  0.686164  1
  Zr  Zr9  1  0.313836  0.686164  0.686164  1
  Zr  Zr10  1  0.313836  0.313836  0.686164  1
  Zr  Zr11  1  0.313836  0.686164  0.313836  1
  Zn  Zn12  1  0.005341  0.331553  0.331553  1
  Zn  Zn13  1  0.331553  0.331553  0.005341  1
  Zn  Zn14  1  0.331553  0.005341  0.331553  1
  Zn  Zn15  1  0.331553  0.331553  0.331553  1
  Zn  Zn16  1  0.244659  0.918447  0.918447  1
  Zn  Zn17  1  0.918447  0.918447  0.244659  1
  Zn  Zn18  1  0.918447  0.244659  0.918447  1
  Zn  Zn19  1  0.918447  0.918447  0.918447  1
  Zn  Zn20  1  0.625000  0.125000  0.125000  1
  Zn  Zn21  1  0.125000  0.125000  0.625000  1
  Zn  Zn22  1  0.125000  0.625000  0.125000  1
  Zn  Zn23  1  0.125000  0.125000  0.125000  1
  N  N24  1  0.125000  0.625000  0.625000  1
  N  N25  1  0.625000  0.625000  0.125000  1
  N  N26  1  0.625000  0.125000  0.625000  1
  N  N27  1  0.625000  0.625000  0.625000  1
