# generated using pymatgen
data_MnOF
_symmetry_space_group_name_H-M   'P 1'
_cell_length_a   4.57069780
_cell_length_b   7.70059117
_cell_length_c   7.65846254
_cell_angle_alpha   94.85010081
_cell_angle_beta   90.18334123
_cell_angle_gamma   90.28558816
_symmetry_Int_Tables_number   1
_chemical_formula_structural   MnOF
_chemical_formula_sum   'Mn8 O8 F8'
_cell_volume   268.58517597
_cell_formula_units_Z   8
loop_
 _symmetry_equiv_pos_site_id
 _symmetry_equiv_pos_as_xyz
  1  'x, y, z'
loop_
 _atom_site_type_symbol
 _atom_site_label
 _atom_site_symmetry_multiplicity
 _atom_site_fract_x
 _atom_site_fract_y
 _atom_site_fract_z
 _atom_site_occupancy
  Mn  Mn0  1  0.510632  0.684375  0.049978  1
  Mn  Mn1  1  0.514291  0.281927  0.947779  1
  Mn  Mn2  1  0.483119  0.190878  0.537885  1
  Mn  Mn3  1  0.480092  0.790444  0.440286  1
  Mn  Mn4  1  0.002369  0.961080  0.814952  1
  Mn  Mn5  1  0.955282  0.568340  0.700538  1
  Mn  Mn6  1  0.964264  0.461898  0.296125  1
  Mn  Mn7  1  0.001247  0.060777  0.214432  1
  O  O8  1  0.797727  0.099986  0.996211  1
  O  O9  1  0.775812  0.743568  0.858230  1
  O  O10  1  0.770900  0.243319  0.352878  1
  O  O11  1  0.750558  0.609194  0.488729  1
  O  O12  1  0.726347  0.472004  0.076942  1
  O  O13  1  0.285488  0.144207  0.768008  1
  O  O14  1  0.268779  0.644604  0.255677  1
  O  O15  1  0.272630  0.012167  0.398321  1
  F  F16  1  0.728392  0.333173  0.712401  1
  F  F17  1  0.739049  0.964478  0.586022  1
  F  F18  1  0.759245  0.843146  0.231617  1
  F  F19  1  0.254918  0.502122  0.879240  1
  F  F20  1  0.210391  0.422137  0.524622  1
  F  F21  1  0.243230  0.278393  0.161638  1
  F  F22  1  0.266151  0.902574  0.036993  1
  F  F23  1  0.239090  0.785211  0.670495  1
