# generated using pymatgen
data_LiV2S2(O4F3)2
_symmetry_space_group_name_H-M   'P 1'
_cell_length_a   7.18146583
_cell_length_b   7.95278488
_cell_length_c   10.24832702
_cell_angle_alpha   87.09615651
_cell_angle_beta   90.00000000
_cell_angle_gamma   90.00000000
_symmetry_Int_Tables_number   1
_chemical_formula_structural   LiV2S2(O4F3)2
_chemical_formula_sum   'Li2 V4 S4 O16 F12'
_cell_volume   584.55758408
_cell_formula_units_Z   2
loop_
 _symmetry_equiv_pos_site_id
 _symmetry_equiv_pos_as_xyz
  1  'x, y, z'
loop_
 _atom_site_type_symbol
 _atom_site_label
 _atom_site_symmetry_multiplicity
 _atom_site_fract_x
 _atom_site_fract_y
 _atom_site_fract_z
 _atom_site_occupancy
  Li  Li0  1  0.641508  0.082706  0.278766  1
  Li  Li1  1  0.858492  0.582706  0.778766  1
  V  V2  1  0.996307  0.004104  0.000101  1
  V  V3  1  0.003774  0.501644  0.489326  1
  V  V4  1  0.496226  0.001644  0.989326  1
  V  V5  1  0.503693  0.504104  0.500101  1
  S  S6  1  0.266013  0.172529  0.500115  1
  S  S7  1  0.233987  0.672529  0.000115  1
  S  S8  1  0.738387  0.837236  0.513635  1
  S  S9  1  0.761613  0.337236  0.013635  1
  O  O10  1  0.108015  0.287711  0.445958  1
  O  O11  1  0.102165  0.805535  0.067909  1
  O  O12  1  0.128946  0.608659  0.892742  1
  O  O13  1  0.197018  0.058013  0.599838  1
  O  O14  1  0.371054  0.108659  0.392742  1
  O  O15  1  0.302982  0.558013  0.099838  1
  O  O16  1  0.391985  0.787711  0.945958  1
  O  O17  1  0.397835  0.305535  0.567909  1
  O  O18  1  0.605586  0.219633  0.058936  1
  O  O19  1  0.597678  0.710998  0.444393  1
  O  O20  1  0.704090  0.453941  0.908350  1
  O  O21  1  0.645568  0.903770  0.623539  1
  O  O22  1  0.854432  0.403770  0.123539  1
  O  O23  1  0.795910  0.953941  0.408350  1
  O  O24  1  0.894414  0.719633  0.558936  1
  O  O25  1  0.902322  0.210998  0.944393  1
  F  F26  1  0.009003  0.447835  0.665219  1
  F  F27  1  0.016402  0.937994  0.838243  1
  F  F28  1  0.258942  0.599883  0.499183  1
  F  F29  1  0.241058  0.099883  0.999183  1
  F  F30  1  0.490997  0.947835  0.165219  1
  F  F31  1  0.483598  0.437994  0.338243  1
  F  F32  1  0.521966  0.090520  0.830083  1
  F  F33  1  0.570309  0.548325  0.664134  1
  F  F34  1  0.753594  0.402124  0.488500  1
  F  F35  1  0.746406  0.902124  0.988500  1
  F  F36  1  0.929691  0.048325  0.164134  1
  F  F37  1  0.978034  0.590520  0.330083  1
