# generated using pymatgen
data_Li3V3P8O29
_symmetry_space_group_name_H-M   'P 1'
_cell_length_a   9.76259785
_cell_length_b   9.74721495
_cell_length_c   14.24304061
_cell_angle_alpha   89.92920186
_cell_angle_beta   90.44771888
_cell_angle_gamma   60.04614194
_symmetry_Int_Tables_number   1
_chemical_formula_structural   Li3V3P8O29
_chemical_formula_sum   'Li6 V6 P16 O58'
_cell_volume   1174.24882398
_cell_formula_units_Z   2
loop_
 _symmetry_equiv_pos_site_id
 _symmetry_equiv_pos_as_xyz
  1  'x, y, z'
loop_
 _atom_site_type_symbol
 _atom_site_label
 _atom_site_symmetry_multiplicity
 _atom_site_fract_x
 _atom_site_fract_y
 _atom_site_fract_z
 _atom_site_occupancy
  Li  Li0  1  0.677013  0.666149  0.393246  1
  Li  Li1  1  0.307400  0.772547  0.554484  1
  Li  Li2  1  0.677424  0.091178  0.943149  1
  Li  Li3  1  0.229245  0.680075  0.950180  1
  Li  Li4  1  0.024568  0.028894  0.006520  1
  Li  Li5  1  0.944388  0.040043  0.486931  1
  V  V6  1  0.571723  0.427965  0.249533  1
  V  V7  1  0.437912  0.559326  0.749017  1
  V  V8  1  0.562818  0.996132  0.747420  1
  V  V9  1  0.430390  0.002731  0.247891  1
  V  V10  1  0.001247  0.565172  0.249114  1
  V  V11  1  0.002169  0.435647  0.748373  1
  P  P12  1  0.917674  0.776312  0.838951  1
  P  P13  1  0.782673  0.908933  0.339494  1
  P  P14  1  0.914643  0.304296  0.344835  1
  P  P15  1  0.664631  0.667440  0.132311  1
  P  P16  1  0.664703  0.664937  0.631280  1
  P  P17  1  0.781446  0.306334  0.838338  1
  P  P18  1  0.691404  0.220659  0.656201  1
  P  P19  1  0.308373  0.913089  0.844340  1
  P  P20  1  0.690709  0.082869  0.157163  1
  P  P21  1  0.318118  0.776191  0.341424  1
  P  P22  1  0.224913  0.689103  0.161454  1
  P  P23  1  0.335838  0.332350  0.369047  1
  P  P24  1  0.335205  0.332442  0.866987  1
  P  P25  1  0.082420  0.694981  0.654396  1
  P  P26  1  0.220069  0.084908  0.660706  1
  P  P27  1  0.078863  0.223491  0.160119  1
  O  O28  1  0.009987  0.786164  0.567681  1
  O  O29  1  0.918805  0.731933  0.333894  1
  O  O30  1  0.768082  0.018057  0.065613  1
  O  O31  1  0.742787  0.914002  0.837470  1
  O  O32  1  0.919466  0.616725  0.825226  1
  O  O33  1  0.812795  0.663838  0.179773  1
  O  O34  1  0.906266  0.467353  0.334546  1
  O  O35  1  0.004019  0.202413  0.075207  1
  O  O36  1  0.915344  0.346701  0.831931  1
  O  O37  1  0.662488  0.814211  0.677184  1
  O  O38  1  0.627255  0.902377  0.331633  1
  O  O39  1  0.812320  0.519923  0.674776  1
  O  O40  1  0.661449  0.670509  0.028599  1
  O  O41  1  0.658426  0.672349  0.526750  1
  O  O42  1  0.662741  0.520464  0.177348  1
  O  O43  1  0.463493  0.919151  0.829383  1
  O  O44  1  0.520289  0.815963  0.179016  1
  O  O45  1  0.737659  0.344703  0.333794  1
  O  O46  1  0.800815  0.204153  0.745366  1
  O  O47  1  0.775997  0.205311  0.568563  1
  O  O48  1  0.789512  0.210137  0.921499  1
  O  O49  1  0.620103  0.464197  0.824959  1
  O  O50  1  0.512466  0.668725  0.670258  1
  O  O51  1  0.657744  0.255921  0.170225  1
  O  O52  1  0.481761  0.625249  0.329036  1
  O  O53  1  0.346627  0.919627  0.333271  1
  O  O54  1  0.804250  0.985582  0.242941  1
  O  O55  1  0.801713  0.992373  0.420325  1
  O  O56  1  0.218210  0.995451  0.577250  1
  O  O57  1  0.649933  0.086967  0.672578  1
  O  O58  1  0.534299  0.380918  0.672318  1
  O  O59  1  0.349180  0.736350  0.833862  1
  O  O60  1  0.475195  0.345803  0.323518  1
  O  O61  1  0.382546  0.533700  0.174577  1
  O  O62  1  0.209341  0.775332  0.071916  1
  O  O63  1  0.234714  0.782952  0.429551  1
  O  O64  1  0.207326  0.796654  0.251270  1
  O  O65  1  0.259071  0.656530  0.664985  1
  O  O66  1  0.487027  0.183309  0.830255  1
  O  O67  1  0.534066  0.083244  0.172835  1
  O  O68  1  0.332140  0.483918  0.820821  1
  O  O69  1  0.332647  0.349336  0.970699  1
  O  O70  1  0.335276  0.335205  0.472589  1
  O  O71  1  0.183140  0.470324  0.320770  1
  O  O72  1  0.380028  0.085290  0.675388  1
  O  O73  1  0.347913  0.180261  0.323098  1
  O  O74  1  0.085407  0.654891  0.170327  1
  O  O75  1  0.995307  0.800666  0.745453  1
  O  O76  1  0.007849  0.782856  0.921769  1
  O  O77  1  0.080291  0.537133  0.670752  1
  O  O78  1  0.188930  0.332938  0.820255  1
  O  O79  1  0.072576  0.384138  0.171422  1
  O  O80  1  0.256493  0.089303  0.169642  1
  O  O81  1  0.216136  0.984180  0.930097  1
  O  O82  1  0.200666  0.001680  0.753319  1
  O  O83  1  0.085259  0.258884  0.666450  1
  O  O84  1  0.989684  0.204797  0.428774  1
  O  O85  1  0.997778  0.202050  0.252236  1
