# generated using pymatgen
data_PNO
_symmetry_space_group_name_H-M   'P 1'
_cell_length_a   4.66745438
_cell_length_b   7.18403386
_cell_length_c   7.38132217
_cell_angle_alpha   105.58230079
_cell_angle_beta   71.54973017
_cell_angle_gamma   109.25030218
_symmetry_Int_Tables_number   1
_chemical_formula_structural   PNO
_chemical_formula_sum   'P6 N6 O6'
_cell_volume   217.89367568
_cell_formula_units_Z   6
loop_
 _symmetry_equiv_pos_site_id
 _symmetry_equiv_pos_as_xyz
  1  'x, y, z'
loop_
 _atom_site_type_symbol
 _atom_site_label
 _atom_site_symmetry_multiplicity
 _atom_site_fract_x
 _atom_site_fract_y
 _atom_site_fract_z
 _atom_site_occupancy
  P  P0  1  0.990365  0.242465  0.249711  1
  P  P1  1  0.604320  0.834988  0.147875  1
  P  P2  1  0.085895  0.339078  0.647783  1
  P  P3  1  0.922467  0.673912  0.350551  1
  P  P4  1  0.401088  0.178727  0.852028  1
  P  P5  1  0.005599  0.743115  0.749685  1
  N  N6  1  0.692056  0.064804  0.218510  1
  N  N7  1  0.281750  0.270737  0.064703  1
  N  N8  1  0.094596  0.243772  0.432756  1
  N  N9  1  0.162438  0.569116  0.717720  1
  N  N10  1  0.928147  0.767588  0.562955  1
  N  N11  1  0.719754  0.739556  0.933117  1
  O  O12  1  0.853883  0.439702  0.288487  1
  O  O13  1  0.224584  0.762117  0.191486  1
  O  O14  1  0.343957  0.267456  0.695529  1
  O  O15  1  0.649783  0.717653  0.297992  1
  O  O16  1  0.769983  0.220563  0.794555  1
  O  O17  1  0.294798  0.944504  0.791058  1
