# generated using pymatgen
data_YNb2NO5
_symmetry_space_group_name_H-M   'P 1'
_cell_length_a   15.02591625
_cell_length_b   5.93865893
_cell_length_c   5.29526535
_cell_angle_alpha   90.32835685
_cell_angle_beta   90.00000000
_cell_angle_gamma   90.00000000
_symmetry_Int_Tables_number   1
_chemical_formula_structural   YNb2NO5
_chemical_formula_sum   'Y4 Nb8 N4 O20'
_cell_volume   472.50884537
_cell_formula_units_Z   4
loop_
 _symmetry_equiv_pos_site_id
 _symmetry_equiv_pos_as_xyz
  1  'x, y, z'
loop_
 _atom_site_type_symbol
 _atom_site_label
 _atom_site_symmetry_multiplicity
 _atom_site_fract_x
 _atom_site_fract_y
 _atom_site_fract_z
 _atom_site_occupancy
  Y  Y0  1  0.000311  0.300322  0.257435  1
  Y  Y1  1  0.001923  0.707458  0.757527  1
  Y  Y2  1  0.498077  0.207458  0.757527  1
  Y  Y3  1  0.499689  0.800322  0.257435  1
  Nb  Nb4  1  0.162304  0.173330  0.743318  1
  Nb  Nb5  1  0.168033  0.824008  0.224347  1
  Nb  Nb6  1  0.331967  0.324008  0.224347  1
  Nb  Nb7  1  0.337696  0.673330  0.743318  1
  Nb  Nb8  1  0.663046  0.314875  0.275848  1
  Nb  Nb9  1  0.668617  0.685189  0.775065  1
  Nb  Nb10  1  0.831383  0.185189  0.775065  1
  Nb  Nb11  1  0.836954  0.814875  0.275848  1
  N  N12  1  0.098399  0.076328  0.032350  1
  N  N13  1  0.401601  0.576328  0.032350  1
  N  N14  1  0.581511  0.116192  0.395396  1
  N  N15  1  0.918489  0.616192  0.395396  1
  O  O16  1  0.086377  0.606447  0.104178  1
  O  O17  1  0.081689  0.386025  0.606283  1
  O  O18  1  0.100266  0.909132  0.534352  1
  O  O19  1  0.243729  0.127027  0.396334  1
  O  O20  1  0.245670  0.866398  0.902120  1
  O  O21  1  0.256272  0.627027  0.396334  1
  O  O22  1  0.254330  0.366398  0.902120  1
  O  O23  1  0.399734  0.409132  0.534352  1
  O  O24  1  0.413623  0.106447  0.104178  1
  O  O25  1  0.418311  0.886025  0.606283  1
  O  O26  1  0.582887  0.886216  0.896418  1
  O  O27  1  0.600766  0.418343  0.957437  1
  O  O28  1  0.602152  0.592205  0.463348  1
  O  O29  1  0.744155  0.371268  0.598258  1
  O  O30  1  0.745539  0.639237  0.079985  1
  O  O31  1  0.754461  0.139237  0.079985  1
  O  O32  1  0.755845  0.871268  0.598258  1
  O  O33  1  0.897848  0.092205  0.463348  1
  O  O34  1  0.899234  0.918343  0.957437  1
  O  O35  1  0.917113  0.386216  0.896418  1
