# generated using pymatgen
data_ZnGaP2H4NO8
_symmetry_space_group_name_H-M   'P 1'
_cell_length_a   9.16259799
_cell_length_b   9.47762092
_cell_length_c   9.48560583
_cell_angle_alpha   89.09767743
_cell_angle_beta   82.26276797
_cell_angle_gamma   83.07308714
_symmetry_Int_Tables_number   1
_chemical_formula_structural   ZnGaP2H4NO8
_chemical_formula_sum   'Zn4 Ga4 P8 H16 N4 O32'
_cell_volume   810.26933133
_cell_formula_units_Z   4
loop_
 _symmetry_equiv_pos_site_id
 _symmetry_equiv_pos_as_xyz
  1  'x, y, z'
loop_
 _atom_site_type_symbol
 _atom_site_label
 _atom_site_symmetry_multiplicity
 _atom_site_fract_x
 _atom_site_fract_y
 _atom_site_fract_z
 _atom_site_occupancy
  Zn  Zn0  1  0.072005  0.039584  0.795275  1
  Zn  Zn1  1  0.435908  0.199988  0.957218  1
  Zn  Zn2  1  0.562809  0.796490  0.041321  1
  Zn  Zn3  1  0.881059  0.427820  0.315245  1
  Ga  Ga4  1  0.114013  0.574324  0.686350  1
  Ga  Ga5  1  0.384811  0.313728  0.427475  1
  Ga  Ga6  1  0.615989  0.686020  0.566505  1
  Ga  Ga7  1  0.933540  0.958166  0.204121  1
  P  P8  1  0.080218  0.214274  0.083774  1
  P  P9  1  0.045224  0.287557  0.558582  1
  P  P10  1  0.453414  0.443819  0.710760  1
  P  P11  1  0.585246  0.086798  0.211723  1
  P  P12  1  0.419028  0.910988  0.783876  1
  P  P13  1  0.540538  0.555062  0.288099  1
  P  P14  1  0.955163  0.714329  0.438423  1
  P  P15  1  0.914891  0.787943  0.913166  1
  H  H16  1  0.130508  0.635757  0.107957  1
  H  H17  1  0.205433  0.468893  0.062885  1
  H  H18  1  0.230037  0.027458  0.391032  1
  H  H19  1  0.195694  0.861241  0.425151  1
  H  H20  1  0.307518  0.575878  0.137389  1
  H  H21  1  0.270643  0.610943  0.973078  1
  H  H22  1  0.293136  0.938428  0.532215  1
  H  H23  1  0.371096  0.896170  0.360852  1
  H  H24  1  0.630212  0.104061  0.641971  1
  H  H25  1  0.704957  0.062351  0.472497  1
  H  H26  1  0.729914  0.389098  0.029314  1
  H  H27  1  0.693745  0.422398  0.863798  1
  H  H28  1  0.806048  0.140950  0.575588  1
  H  H29  1  0.770706  0.973969  0.612080  1
  H  H30  1  0.793563  0.530174  0.939296  1
  H  H31  1  0.869794  0.360429  0.896360  1
  N  N32  1  0.227695  0.573157  0.070603  1
  N  N33  1  0.273871  0.930220  0.426509  1
  N  N34  1  0.727538  0.071215  0.575694  1
  N  N35  1  0.772716  0.425209  0.931048  1
  O  O36  1  0.071373  0.085496  0.192933  1
  O  O37  1  0.037071  0.138657  0.619396  1
  O  O38  1  0.020028  0.173354  0.947869  1
  O  O39  1  0.050304  0.397074  0.680740  1
  O  O40  1  0.025130  0.654422  0.856748  1
  O  O41  1  0.090651  0.682627  0.523936  1
  O  O42  1  0.186564  0.289724  0.445970  1
  O  O43  1  0.241249  0.249139  0.061382  1
  O  O44  1  0.265367  0.938665  0.732555  1
  O  O45  1  0.313705  0.554681  0.707719  1
  O  O46  1  0.394743  0.482728  0.332014  1
  O  O47  1  0.490989  0.148966  0.352554  1
  O  O48  1  0.453739  0.322003  0.602434  1
  O  O49  1  0.482183  0.048613  0.818333  1
  O  O50  1  0.586672  0.193440  0.089118  1
  O  O51  1  0.521663  0.619921  0.142475  1
  O  O52  1  0.468497  0.382289  0.857736  1
  O  O53  1  0.416808  0.804766  0.908449  1
  O  O54  1  0.521659  0.949308  0.181216  1
  O  O55  1  0.542809  0.679087  0.395421  1
  O  O56  1  0.524269  0.850847  0.647682  1
  O  O57  1  0.593346  0.523059  0.670120  1
  O  O58  1  0.673511  0.442042  0.290048  1
  O  O59  1  0.744955  0.051060  0.256524  1
  O  O60  1  0.762486  0.734899  0.945903  1
  O  O61  1  0.813942  0.715381  0.549492  1
  O  O62  1  0.904187  0.325740  0.488726  1
  O  O63  1  0.983276  0.349607  0.140656  1
  O  O64  1  0.960723  0.611448  0.315979  1
  O  O65  1  0.972947  0.829019  0.055144  1
  O  O66  1  0.969133  0.866727  0.376738  1
  O  O67  1  0.917334  0.910321  0.806758  1
