# generated using pymatgen
data_FeOF
_symmetry_space_group_name_H-M   'P 1'
_cell_length_a   14.22878611
_cell_length_b   9.48969465
_cell_length_c   3.09614525
_cell_angle_alpha   90.00000000
_cell_angle_beta   90.00000000
_cell_angle_gamma   90.33745062
_symmetry_Int_Tables_number   1
_chemical_formula_structural   FeOF
_chemical_formula_sum   'Fe12 O12 F12'
_cell_volume   418.05544433
_cell_formula_units_Z   12
loop_
 _symmetry_equiv_pos_site_id
 _symmetry_equiv_pos_as_xyz
  1  'x, y, z'
loop_
 _atom_site_type_symbol
 _atom_site_label
 _atom_site_symmetry_multiplicity
 _atom_site_fract_x
 _atom_site_fract_y
 _atom_site_fract_z
 _atom_site_occupancy
  Fe  Fe0  1  0.008430  0.989323  0.000000  1
  Fe  Fe1  1  0.006048  0.503421  0.000000  1
  Fe  Fe2  1  0.166376  0.278848  0.500000  1
  Fe  Fe3  1  0.152679  0.747225  0.500000  1
  Fe  Fe4  1  0.342909  0.995830  0.000000  1
  Fe  Fe5  1  0.335057  0.487355  0.000000  1
  Fe  Fe6  1  0.504287  0.774798  0.500000  1
  Fe  Fe7  1  0.482032  0.252753  0.500000  1
  Fe  Fe8  1  0.669183  0.998648  0.000000  1
  Fe  Fe9  1  0.678746  0.496600  0.000000  1
  Fe  Fe10  1  0.818696  0.243219  0.500000  1
  Fe  Fe11  1  0.835923  0.716743  0.500000  1
  O  O12  1  0.060874  0.397305  0.500000  1
  O  O13  1  0.065558  0.905186  0.500000  1
  O  O14  1  0.105223  0.653472  0.000000  1
  O  O15  1  0.233470  0.350816  0.000000  1
  O  O16  1  0.401388  0.413921  0.500000  1
  O  O17  1  0.396331  0.900461  0.500000  1
  O  O18  1  0.433323  0.154330  0.000000  1
  O  O19  1  0.571346  0.853866  0.000000  1
  O  O20  1  0.730553  0.400422  0.500000  1
  O  O21  1  0.766437  0.142266  0.000000  1
  O  O22  1  0.763473  0.657657  0.000000  1
  O  O23  1  0.936066  0.592629  0.500000  1
  F  F24  1  0.100136  0.152390  0.000000  1
  F  F25  1  0.231493  0.852031  0.000000  1
  F  F26  1  0.263245  0.093885  0.500000  1
  F  F27  1  0.273046  0.607511  0.500000  1
  F  F28  1  0.438241  0.658918  0.000000  1
  F  F29  1  0.564950  0.346617  0.000000  1
  F  F30  1  0.603617  0.100269  0.500000  1
  F  F31  1  0.597261  0.594626  0.500000  1
  F  F32  1  0.735358  0.904228  0.500000  1
  F  F33  1  0.894691  0.333510  0.000000  1
  F  F34  1  0.897352  0.852090  0.000000  1
  F  F35  1  0.936204  0.096833  0.500000  1
