# generated using pymatgen
data_Li5Mn8(BO3)8
_symmetry_space_group_name_H-M   'P 1'
_cell_length_a   5.33506817
_cell_length_b   9.02482197
_cell_length_c   11.51976581
_cell_angle_alpha   67.55612179
_cell_angle_beta   78.67381323
_cell_angle_gamma   90.50815643
_symmetry_Int_Tables_number   1
_chemical_formula_structural   Li5Mn8(BO3)8
_chemical_formula_sum   'Li5 Mn8 B8 O24'
_cell_volume   500.50153461
_cell_formula_units_Z   1
loop_
 _symmetry_equiv_pos_site_id
 _symmetry_equiv_pos_as_xyz
  1  'x, y, z'
loop_
 _atom_site_type_symbol
 _atom_site_label
 _atom_site_symmetry_multiplicity
 _atom_site_fract_x
 _atom_site_fract_y
 _atom_site_fract_z
 _atom_site_occupancy
  Li  Li0  1  0.067790  0.936565  0.165184  1
  Li  Li1  1  0.127601  0.291997  0.422176  1
  Li  Li2  1  0.302798  0.150985  0.662910  1
  Li  Li3  1  0.407399  0.544338  0.922526  1
  Li  Li4  1  0.646595  0.780337  0.406510  1
  Mn  Mn5  1  0.085280  0.288712  0.128412  1
  Mn  Mn6  1  0.152424  0.646973  0.377984  1
  Mn  Mn7  1  0.345796  0.823896  0.625450  1
  Mn  Mn8  1  0.594322  0.766710  0.126966  1
  Mn  Mn9  1  0.395955  0.206334  0.890078  1
  Mn  Mn10  1  0.646895  0.135485  0.383117  1
  Mn  Mn11  1  0.825389  0.375391  0.632719  1
  Mn  Mn12  1  0.915140  0.753477  0.868707  1
  B  B13  1  0.121575  0.632747  0.112525  1
  B  B14  1  0.134135  0.985976  0.377631  1
  B  B15  1  0.368854  0.503363  0.617204  1
  B  B16  1  0.587233  0.097494  0.146540  1
  B  B17  1  0.396170  0.879319  0.863347  1
  B  B18  1  0.634268  0.469650  0.386569  1
  B  B19  1  0.853347  0.025872  0.623022  1
  B  B20  1  0.901559  0.407140  0.870719  1
  O  O21  1  0.003614  0.865500  0.363308  1
  O  O22  1  0.039273  0.137088  0.351537  1
  O  O23  1  0.190228  0.728774  0.174421  1
  O  O24  1  0.246921  0.504428  0.109189  1
  O  O25  1  0.132355  0.521203  0.583050  1
  O  O26  1  0.360557  0.125820  0.099994  1
  O  O27  1  0.124671  0.366343  0.918593  1
  O  O28  1  0.367253  0.958185  0.418577  1
  O  O29  1  0.298455  0.759600  0.827112  1
  O  O30  1  0.288347  0.019062  0.842839  1
  O  O31  1  0.496503  0.337852  0.393471  1
  O  O32  1  0.555917  0.624043  0.335574  1
  O  O33  1  0.449288  0.348402  0.665076  1
  O  O34  1  0.681479  0.203868  0.196949  1
  O  O35  1  0.523474  0.636398  0.594665  1
  O  O36  1  0.724174  0.973084  0.142518  1
  O  O37  1  0.626975  0.028061  0.573822  1
  O  O38  1  0.917728  0.682447  0.051393  1
  O  O39  1  0.601481  0.841943  0.922420  1
  O  O40  1  0.862151  0.454657  0.434919  1
  O  O41  1  0.774346  0.533764  0.876956  1
  O  O42  1  0.798539  0.305622  0.818147  1
  O  O43  1  0.946540  0.876649  0.680084  1
  O  O44  1  0.978673  0.164880  0.610375  1
