# generated using pymatgen
data_Li7Mn8(BO3)8
_symmetry_space_group_name_H-M   'P 1'
_cell_length_a   5.28533091
_cell_length_b   9.10165178
_cell_length_c   10.46373069
_cell_angle_alpha   89.59258666
_cell_angle_beta   91.72067656
_cell_angle_gamma   90.49625742
_symmetry_Int_Tables_number   1
_chemical_formula_structural   Li7Mn8(BO3)8
_chemical_formula_sum   'Li7 Mn8 B8 O24'
_cell_volume   503.10263226
_cell_formula_units_Z   1
loop_
 _symmetry_equiv_pos_site_id
 _symmetry_equiv_pos_as_xyz
  1  'x, y, z'
loop_
 _atom_site_type_symbol
 _atom_site_label
 _atom_site_symmetry_multiplicity
 _atom_site_fract_x
 _atom_site_fract_y
 _atom_site_fract_z
 _atom_site_occupancy
  Li  Li0  1  0.165645  0.984876  0.675895  1
  Li  Li1  1  0.156266  0.019170  0.160140  1
  Li  Li2  1  0.339317  0.499711  0.409685  1
  Li  Li3  1  0.659992  0.483148  0.662585  1
  Li  Li4  1  0.660247  0.515255  0.169774  1
  Li  Li5  1  0.846461  0.995847  0.916092  1
  Li  Li6  1  0.841948  0.991466  0.413418  1
  Mn  Mn7  1  0.165094  0.663074  0.638547  1
  Mn  Mn8  1  0.161354  0.351876  0.125601  1
  Mn  Mn9  1  0.348373  0.185373  0.880153  1
  Mn  Mn10  1  0.334457  0.837310  0.382677  1
  Mn  Mn11  1  0.657164  0.150704  0.626650  1
  Mn  Mn12  1  0.652358  0.836154  0.129642  1
  Mn  Mn13  1  0.827221  0.654164  0.885084  1
  Mn  Mn14  1  0.841204  0.331227  0.380882  1
  B  B15  1  0.167270  0.330219  0.628504  1
  B  B16  1  0.161420  0.677005  0.131306  1
  B  B17  1  0.331067  0.836198  0.876303  1
  B  B18  1  0.331397  0.171159  0.370694  1
  B  B19  1  0.671397  0.826038  0.623238  1
  B  B20  1  0.673188  0.176945  0.118224  1
  B  B21  1  0.828314  0.315154  0.870123  1
  B  B22  1  0.834664  0.669161  0.377469  1
  O  O23  1  0.069756  0.310028  0.926019  1
  O  O24  1  0.086403  0.665001  0.420108  1
  O  O25  1  0.204645  0.969802  0.867674  1
  O  O26  1  0.203993  0.709487  0.839194  1
  O  O27  1  0.182161  0.047206  0.355139  1
  O  O28  1  0.232380  0.308180  0.336598  1
  O  O29  1  0.277508  0.201937  0.685462  1
  O  O30  1  0.261149  0.815199  0.164476  1
  O  O31  1  0.313119  0.451767  0.606286  1
  O  O32  1  0.312698  0.556390  0.136486  1
  O  O33  1  0.411685  0.843784  0.595274  1
  O  O34  1  0.415932  0.179086  0.074077  1
  O  O35  1  0.585606  0.833140  0.917784  1
  O  O36  1  0.580478  0.159192  0.418317  1
  O  O37  1  0.704828  0.441584  0.847759  1
  O  O38  1  0.713318  0.177315  0.838844  1
  O  O39  1  0.694547  0.541322  0.364389  1
  O  O40  1  0.722090  0.804142  0.343677  1
  O  O41  1  0.766048  0.690843  0.661196  1
  O  O42  1  0.776881  0.306089  0.167253  1
  O  O43  1  0.829780  0.947551  0.608505  1
  O  O44  1  0.807861  0.049506  0.109320  1
  O  O45  1  0.911894  0.325639  0.592197  1
  O  O46  1  0.903844  0.662654  0.095310  1
