# generated using pymatgen
data_Fe6O7F5
_symmetry_space_group_name_H-M   'P 1'
_cell_length_a   4.69503709
_cell_length_b   7.77444666
_cell_length_c   5.61679051
_cell_angle_alpha   94.91744615
_cell_angle_beta   92.31521121
_cell_angle_gamma   88.08746928
_symmetry_Int_Tables_number   1
_chemical_formula_structural   Fe6O7F5
_chemical_formula_sum   'Fe6 O7 F5'
_cell_volume   204.00672397
_cell_formula_units_Z   1
loop_
 _symmetry_equiv_pos_site_id
 _symmetry_equiv_pos_as_xyz
  1  'x, y, z'
loop_
 _atom_site_type_symbol
 _atom_site_label
 _atom_site_symmetry_multiplicity
 _atom_site_fract_x
 _atom_site_fract_y
 _atom_site_fract_z
 _atom_site_occupancy
  Fe  Fe0  1  0.515011  0.651133  0.171571  1
  Fe  Fe1  1  0.511685  0.001426  0.512151  1
  Fe  Fe2  1  0.495617  0.340148  0.829600  1
  Fe  Fe3  1  0.022548  0.685256  0.658217  1
  Fe  Fe4  1  0.977838  0.311126  0.342868  1
  Fe  Fe5  1  0.981766  0.007675  0.988507  1
  O  O6  1  0.807518  0.092098  0.292100  1
  O  O7  1  0.697290  0.121512  0.798475  1
  O  O8  1  0.689874  0.762655  0.462817  1
  O  O9  1  0.698038  0.425025  0.122873  1
  O  O10  1  0.309260  0.561968  0.863554  1
  O  O11  1  0.304194  0.241168  0.546286  1
  O  O12  1  0.190635  0.905800  0.711688  1
  F  F13  1  0.809391  0.444529  0.626946  1
  F  F14  1  0.801129  0.768638  0.964906  1
  F  F15  1  0.295388  0.891533  0.199633  1
  F  F16  1  0.204514  0.228036  0.047308  1
  F  F17  1  0.188305  0.560271  0.360501  1
