# generated using pymatgen
data_Fe5O3F7
_symmetry_space_group_name_H-M   'P 1'
_cell_length_a   4.81551990
_cell_length_b   4.81551990
_cell_length_c   15.71467193
_cell_angle_alpha   89.92120776
_cell_angle_beta   89.92120776
_cell_angle_gamma   88.63876626
_symmetry_Int_Tables_number   1
_chemical_formula_structural   Fe5O3F7
_chemical_formula_sum   'Fe10 O6 F14'
_cell_volume   364.30765862
_cell_formula_units_Z   2
loop_
 _symmetry_equiv_pos_site_id
 _symmetry_equiv_pos_as_xyz
  1  'x, y, z'
loop_
 _atom_site_type_symbol
 _atom_site_label
 _atom_site_symmetry_multiplicity
 _atom_site_fract_x
 _atom_site_fract_y
 _atom_site_fract_z
 _atom_site_occupancy
  Fe  Fe0  1  0.980722  0.966325  0.995330  1
  Fe  Fe1  1  0.033675  0.019278  0.204670  1
  Fe  Fe2  1  0.020386  0.971971  0.399717  1
  Fe  Fe3  1  0.024654  0.975346  0.600000  1
  Fe  Fe4  1  0.028029  0.979614  0.800283  1
  Fe  Fe5  1  0.502519  0.497481  0.100000  1
  Fe  Fe6  1  0.489109  0.512275  0.498361  1
  Fe  Fe7  1  0.470032  0.508632  0.292378  1
  Fe  Fe8  1  0.487725  0.510891  0.701639  1
  Fe  Fe9  1  0.491368  0.529968  0.907622  1
  O  O10  1  0.200836  0.804853  0.305137  1
  O  O11  1  0.185581  0.812237  0.500030  1
  O  O12  1  0.187763  0.814419  0.699970  1
  O  O13  1  0.195147  0.799164  0.894863  1
  O  O14  1  0.329076  0.321092  0.196252  1
  O  O15  1  0.678908  0.670924  0.003748  1
  F  F16  1  0.206022  0.793978  0.100000  1
  F  F17  1  0.298117  0.299218  0.000673  1
  F  F18  1  0.296806  0.300610  0.395127  1
  F  F19  1  0.292422  0.296012  0.599788  1
  F  F20  1  0.300181  0.302169  0.805727  1
  F  F21  1  0.700782  0.701883  0.199327  1
  F  F22  1  0.697831  0.699819  0.394273  1
  F  F23  1  0.703988  0.707578  0.600212  1
  F  F24  1  0.699390  0.703194  0.804872  1
  F  F25  1  0.806882  0.193118  0.100000  1
  F  F26  1  0.804206  0.194389  0.500531  1
  F  F27  1  0.794573  0.212338  0.310343  1
  F  F28  1  0.787662  0.205427  0.889657  1
  F  F29  1  0.805611  0.195794  0.699469  1
