# generated using pymatgen
data_Li32Mn3Cr13O48
_symmetry_space_group_name_H-M   'P 1'
_cell_length_a   5.04152664
_cell_length_b   8.70984629
_cell_length_c   19.52362422
_cell_angle_alpha   97.98546288
_cell_angle_beta   94.99144228
_cell_angle_gamma   89.60270930
_symmetry_Int_Tables_number   1
_chemical_formula_structural   Li32Mn3Cr13O48
_chemical_formula_sum   'Li32 Mn3 Cr13 O48'
_cell_volume   845.75625062
_cell_formula_units_Z   1
loop_
 _symmetry_equiv_pos_site_id
 _symmetry_equiv_pos_as_xyz
  1  'x, y, z'
loop_
 _atom_site_type_symbol
 _atom_site_label
 _atom_site_symmetry_multiplicity
 _atom_site_fract_x
 _atom_site_fract_y
 _atom_site_fract_z
 _atom_site_occupancy
  Li  Li0  1  0.992644  0.168811  0.249619  1
  Li  Li1  1  0.876440  0.376533  0.374886  1
  Li  Li2  1  0.750058  0.248408  0.999590  1
  Li  Li3  1  0.741989  0.920218  0.999911  1
  Li  Li4  1  0.991905  0.167224  0.749024  1
  Li  Li5  1  0.758111  0.579986  0.499428  1
  Li  Li6  1  0.875272  0.375474  0.875066  1
  Li  Li7  1  0.752011  0.249933  0.500531  1
  Li  Li8  1  0.741578  0.919304  0.499360  1
  Li  Li9  1  0.625833  0.123853  0.125158  1
  Li  Li10  1  0.756346  0.579756  0.999823  1
  Li  Li11  1  0.507343  0.330678  0.250429  1
  Li  Li12  1  0.624686  0.123733  0.625137  1
  Li  Li13  1  0.498881  0.998024  0.249633  1
  Li  Li14  1  0.493012  0.670246  0.249965  1
  Li  Li15  1  0.505570  0.330188  0.749869  1
  Li  Li16  1  0.374913  0.874616  0.375198  1
  Li  Li17  1  0.500950  0.000391  0.749885  1
  Li  Li18  1  0.247429  0.749394  0.000201  1
  Li  Li19  1  0.495031  0.669866  0.750435  1
  Li  Li20  1  0.243360  0.420865  -0.000084  1
  Li  Li21  1  0.376740  0.876590  0.874978  1
  Li  Li22  1  0.257695  0.079387  0.500600  1
  Li  Li23  1  0.247759  0.751101  0.499464  1
  Li  Li24  1  0.127025  0.626631  0.125051  1
  Li  Li25  1  0.241734  0.420609  0.500531  1
  Li  Li26  1  0.009278  0.832148  0.250650  1
  Li  Li27  1  0.259515  0.080596  0.999929  1
  Li  Li28  1  0.125324  0.623808  0.624802  1
  Li  Li29  1  0.999626  0.500224  0.250880  1
  Li  Li30  1  0.006356  0.832698  0.750527  1
  Li  Li31  1  0.999453  0.499627  0.750077  1
  Mn  Mn32  1  0.876463  0.709694  0.375800  1
  Mn  Mn33  1  0.872522  0.707442  0.874343  1
  Mn  Mn34  1  0.124253  0.291166  0.624936  1
  Cr  Cr35  1  0.872820  0.046142  0.374922  1
  Cr  Cr36  1  0.880803  0.039078  0.874697  1
  Cr  Cr37  1  0.631510  0.788531  0.125186  1
  Cr  Cr38  1  0.620768  0.452386  0.123891  1
  Cr  Cr39  1  0.631685  0.789054  0.624999  1
  Cr  Cr40  1  0.618390  0.454764  0.624179  1
  Cr  Cr41  1  0.382281  0.542206  0.375578  1
  Cr  Cr42  1  0.369372  0.203248  0.373670  1
  Cr  Cr43  1  0.376904  0.546377  0.875128  1
  Cr  Cr44  1  0.374187  0.212005  0.875444  1
  Cr  Cr45  1  0.124258  0.962628  0.125443  1
  Cr  Cr46  1  0.125295  0.297906  0.125247  1
  Cr  Cr47  1  0.123510  0.959186  0.626070  1
  O  O48  1  0.966843  0.108537  0.069269  1
  O  O49  1  0.919774  0.786181  0.068918  1
  O  O50  1  0.933122  0.424159  0.067033  1
  O  O51  1  0.965976  0.107031  0.569186  1
  O  O52  1  0.832261  0.965132  0.181570  1
  O  O53  1  0.815981  0.326693  0.182699  1
  O  O54  1  0.923021  0.787679  0.569206  1
  O  O55  1  0.931351  0.427107  0.567699  1
  O  O56  1  0.782387  0.642940  0.180384  1
  O  O57  1  0.715347  0.856865  0.319471  1
  O  O58  1  0.824913  0.966872  0.681496  1
  O  O59  1  0.824015  0.324454  0.681662  1
  O  O60  1  0.678495  0.537131  0.319301  1
  O  O61  1  0.682330  0.173605  0.317052  1
  O  O62  1  0.781257  0.644675  0.680917  1
  O  O63  1  0.710126  0.853543  0.818534  1
  O  O64  1  0.463993  0.602819  0.068622  1
  O  O65  1  0.575375  0.716525  0.431013  1
  O  O66  1  0.566357  0.077541  0.432674  1
  O  O67  1  0.683107  0.535799  0.818764  1
  O  O68  1  0.672730  0.174884  0.818193  1
  O  O69  1  0.422442  0.925495  0.067975  1
  O  O70  1  0.435760  0.287201  0.068582  1
  O  O71  1  0.529384  0.394557  0.430726  1
  O  O72  1  0.468221  0.602376  0.568584  1
  O  O73  1  0.572580  0.713369  0.930432  1
  O  O74  1  0.576454  0.071435  0.932441  1
  O  O75  1  0.327268  0.821756  0.182469  1
  O  O76  1  0.314136  0.461443  0.181347  1
  O  O77  1  0.428039  0.926089  0.567915  1
  O  O78  1  0.425789  0.284695  0.569207  1
  O  O79  1  0.532902  0.395549  0.931162  1
  O  O80  1  0.285356  0.145574  0.180699  1
  O  O81  1  0.216222  0.354599  0.318687  1
  O  O82  1  0.324064  0.825152  0.682144  1
  O  O83  1  0.318553  0.463700  0.680929  1
  O  O84  1  0.175913  0.675955  0.318474  1
  O  O85  1  0.184907  0.037105  0.318569  1
  O  O86  1  0.287300  0.145147  0.681462  1
  O  O87  1  0.218330  0.358530  0.819217  1
  O  O88  1  0.070141  0.572647  0.432360  1
  O  O89  1  0.064128  0.209569  0.431090  1
  O  O90  1  0.175650  0.676933  0.818081  1
  O  O91  1  0.169829  0.035798  0.818895  1
  O  O92  1  0.036275  0.892584  0.430728  1
  O  O93  1  0.068249  0.573206  0.932162  1
  O  O94  1  0.080981  0.213956  0.931215  1
  O  O95  1  0.033473  0.892671  0.930693  1
