# generated using pymatgen
data_Li4Nb2Fe3Te3O16
_symmetry_space_group_name_H-M   'P 1'
_cell_length_a   6.38756104
_cell_length_b   6.48191934
_cell_length_c   10.13643274
_cell_angle_alpha   89.80675053
_cell_angle_beta   89.49693081
_cell_angle_gamma   120.74635485
_symmetry_Int_Tables_number   1
_chemical_formula_structural   Li4Nb2Fe3Te3O16
_chemical_formula_sum   'Li4 Nb2 Fe3 Te3 O16'
_cell_volume   360.66495346
_cell_formula_units_Z   1
loop_
 _symmetry_equiv_pos_site_id
 _symmetry_equiv_pos_as_xyz
  1  'x, y, z'
loop_
 _atom_site_type_symbol
 _atom_site_label
 _atom_site_symmetry_multiplicity
 _atom_site_fract_x
 _atom_site_fract_y
 _atom_site_fract_z
 _atom_site_occupancy
  Li  Li0  1  0.336701  0.671008  0.896081  1
  Li  Li1  1  0.948331  0.976773  0.982045  1
  Li  Li2  1  0.982294  0.989401  0.508138  1
  Li  Li3  1  0.676227  0.331333  0.415903  1
  Nb  Nb4  1  0.330632  0.662743  0.506780  1
  Nb  Nb5  1  0.710388  0.353051  0.984675  1
  Fe  Fe6  1  0.681654  0.826776  0.212094  1
  Fe  Fe7  1  0.838625  0.663602  0.713643  1
  Fe  Fe8  1  0.840693  0.174302  0.715169  1
  Te  Te9  1  0.226153  0.863286  0.202028  1
  Te  Te10  1  0.171200  0.340512  0.235584  1
  Te  Te11  1  0.360539  0.179437  0.723504  1
  O  O12  1  0.151634  0.798711  0.574898  1
  O  O13  1  0.041322  0.494222  0.347655  1
  O  O14  1  0.369487  0.716223  0.098838  1
  O  O15  1  0.985961  0.031518  0.325212  1
  O  O16  1  0.979825  0.987856  0.801936  1
  O  O17  1  0.168076  0.362452  0.589681  1
  O  O18  1  0.475966  0.959553  0.336219  1
  O  O19  1  0.462911  0.502588  0.348138  1
  O  O20  1  0.358637  0.148612  0.090603  1
  O  O21  1  0.642882  0.823317  0.583722  1
  O  O22  1  0.500479  0.455698  0.843679  1
  O  O23  1  0.507864  0.046350  0.844372  1
  O  O24  1  0.683554  0.343674  0.617151  1
  O  O25  1  0.787717  0.638305  0.076336  1
  O  O26  1  0.962414  0.488525  0.854222  1
  O  O27  1  0.817834  0.170469  0.079534  1
