# generated using pymatgen
data_Na3NiO2
_symmetry_space_group_name_H-M   'P 1'
_cell_length_a   9.47573279
_cell_length_b   9.47561014
_cell_length_c   4.61184506
_cell_angle_alpha   89.99948553
_cell_angle_beta   90.00109633
_cell_angle_gamma   89.97399597
_symmetry_Int_Tables_number   1
_chemical_formula_structural   Na3NiO2
_chemical_formula_sum   'Na12 Ni4 O8'
_cell_volume   414.08991470
_cell_formula_units_Z   4
loop_
 _symmetry_equiv_pos_site_id
 _symmetry_equiv_pos_as_xyz
  1  'x, y, z'
loop_
 _atom_site_type_symbol
 _atom_site_label
 _atom_site_symmetry_multiplicity
 _atom_site_fract_x
 _atom_site_fract_y
 _atom_site_fract_z
 _atom_site_occupancy
  Na  Na0  1  0.978482  0.654966  0.500004  1
  Na  Na1  1  0.154897  0.521472  0.000001  1
  Na  Na2  1  0.143545  0.856403  0.999995  1
  Na  Na3  1  0.356590  0.356620  0.499998  1
  Na  Na4  1  0.344926  0.021544  0.499998  1
  Na  Na5  1  0.521447  0.154911  0.999998  1
  Na  Na6  1  0.478494  0.845115  0.999997  1
  Na  Na7  1  0.654941  0.978491  0.499996  1
  Na  Na8  1  0.643335  0.643366  0.499998  1
  Na  Na9  1  0.856393  0.143540  0.999999  1
  Na  Na10  1  0.845115  0.478504  0.000002  1
  Na  Na11  1  0.021532  0.344966  0.499999  1
  Ni  Ni12  1  0.172416  0.172426  0.000010  1
  Ni  Ni13  1  0.327459  0.672478  0.499996  1
  Ni  Ni14  1  0.672455  0.327507  0.500005  1
  Ni  Ni15  1  0.827623  0.827542  0.000000  1
  O  O16  1  0.035828  0.303140  0.000002  1
  O  O17  1  0.196489  0.535584  0.500002  1
  O  O18  1  0.303126  0.035824  0.999999  1
  O  O19  1  0.464511  0.803724  0.499999  1
  O  O20  1  0.535552  0.196502  0.499997  1
  O  O21  1  0.696965  0.964015  0.999998  1
  O  O22  1  0.803690  0.464535  0.500001  1
  O  O23  1  0.964189  0.696828  0.000005  1
