# generated using pymatgen
data_LiFe2(BO3)2
_symmetry_space_group_name_H-M   'P 1'
_cell_length_a   5.21643627
_cell_length_b   9.14071685
_cell_length_c   10.17925138
_cell_angle_alpha   91.15782870
_cell_angle_beta   91.11396010
_cell_angle_gamma   89.54309416
_symmetry_Int_Tables_number   1
_chemical_formula_structural   LiFe2(BO3)2
_chemical_formula_sum   'Li4 Fe8 B8 O24'
_cell_volume   485.16196003
_cell_formula_units_Z   4
loop_
 _symmetry_equiv_pos_site_id
 _symmetry_equiv_pos_as_xyz
  1  'x, y, z'
loop_
 _atom_site_type_symbol
 _atom_site_label
 _atom_site_symmetry_multiplicity
 _atom_site_fract_x
 _atom_site_fract_y
 _atom_site_fract_z
 _atom_site_occupancy
  Li  Li0  1  0.847755  0.826816  0.651110  1
  Li  Li1  1  0.667805  0.670073  0.400340  1
  Li  Li2  1  0.667989  0.684283  0.925140  1
  Li  Li3  1  0.339143  0.324831  0.654905  1
  Fe  Fe4  1  0.839222  0.162660  0.629530  1
  Fe  Fe5  1  0.823917  0.496890  0.137831  1
  Fe  Fe6  1  0.685906  0.010590  0.881704  1
  Fe  Fe7  1  0.665157  0.328079  0.371255  1
  Fe  Fe8  1  0.337139  0.657969  0.628118  1
  Fe  Fe9  1  0.329702  0.996755  0.125931  1
  Fe  Fe10  1  0.156374  0.849098  0.372688  1
  Fe  Fe11  1  0.170908  0.500187  0.888832  1
  B  B12  1  0.838757  0.494947  0.623865  1
  B  B13  1  0.834209  0.163420  0.131909  1
  B  B14  1  0.655874  0.998808  0.384311  1
  B  B15  1  0.674649  0.343108  0.864462  1
  B  B16  1  0.334986  -0.000118  0.631857  1
  B  B17  1  0.331270  0.672088  0.123421  1
  B  B18  1  0.172742  0.505052  0.382378  1
  B  B19  1  0.172591  0.824522  0.878163  1
  O  O20  1  0.904320  0.501069  0.355806  1
  O  O21  1  0.911120  0.828796  0.857367  1
  O  O22  1  0.800947  0.217197  0.822201  1
  O  O23  1  0.763819  0.131583  0.432604  1
  O  O24  1  0.784136  0.869698  0.402613  1
  O  O25  1  0.808508  0.463840  0.915627  1
  O  O26  1  0.714768  0.627481  0.613509  1
  O  O27  1  0.676356  0.053791  0.081202  1
  O  O28  1  0.710471  0.364622  0.586028  1
  O  O29  1  0.718135  0.290389  0.183816  1
  O  O30  1  0.592332  0.665303  0.118126  1
  O  O31  1  0.600551  0.999062  0.662845  1
  O  O32  1  0.416304  0.005464  0.324539  1
  O  O33  1  0.414041  0.352584  0.849895  1
  O  O34  1  0.308632  0.692913  0.844757  1
  O  O35  1  0.285226  0.638649  0.415575  1
  O  O36  1  0.315328  0.379762  0.381147  1
  O  O37  1  0.316391  0.939545  0.926730  1
  O  O38  1  0.185330  0.551004  0.079894  1
  O  O39  1  0.203138  0.131050  0.632858  1
  O  O40  1  0.212436  0.870497  0.599960  1
  O  O41  1  0.203525  0.798690  0.164101  1
  O  O42  1  0.091784  0.151242  0.127791  1
  O  O43  1  0.089340  0.486128  0.671751  1
