# generated using pymatgen
data_TiV4CuO12
_symmetry_space_group_name_H-M   'P 1'
_cell_length_a   6.79262752
_cell_length_b   6.79262704
_cell_length_c   5.81758578
_cell_angle_alpha   75.04498010
_cell_angle_beta   104.95501693
_cell_angle_gamma   95.50595880
_symmetry_Int_Tables_number   1
_chemical_formula_structural   TiV4CuO12
_chemical_formula_sum   'Ti1 V4 Cu1 O12'
_cell_volume   250.42258165
_cell_formula_units_Z   1
loop_
 _symmetry_equiv_pos_site_id
 _symmetry_equiv_pos_as_xyz
  1  'x, y, z'
loop_
 _atom_site_type_symbol
 _atom_site_label
 _atom_site_symmetry_multiplicity
 _atom_site_fract_x
 _atom_site_fract_y
 _atom_site_fract_z
 _atom_site_occupancy
  Ti  Ti0  1  0.908525  0.908525  0.250000  1
  V  V1  1  0.201493  0.611883  0.756567  1
  V  V2  1  0.390138  0.794229  0.266765  1
  V  V3  1  0.611883  0.201493  0.743433  1
  V  V4  1  0.794229  0.390138  0.233235  1
  Cu  Cu5  1  0.094817  0.094817  0.750000  1
  O  O6  1  0.028054  0.809611  0.613211  1
  O  O7  1  0.084717  0.381005  0.789970  1
  O  O8  1  0.190883  0.963857  0.159869  1
  O  O9  1  0.369769  0.634287  0.555103  1
  O  O10  1  0.381005  0.084717  0.710030  1
  O  O11  1  0.347975  0.640880  0.052365  1
  O  O12  1  0.634287  0.369769  0.944897  1
  O  O13  1  0.638322  0.909556  0.282848  1
  O  O14  1  0.640880  0.347975  0.447635  1
  O  O15  1  0.809611  0.028054  0.886789  1
  O  O16  1  0.909556  0.638322  0.217152  1
  O  O17  1  0.963857  0.190883  0.340131  1
