# generated using pymatgen
data_LiZrPCO7
_symmetry_space_group_name_H-M   'P 1'
_cell_length_a   8.89924143
_cell_length_b   6.63093014
_cell_length_c   5.68270669
_cell_angle_alpha   90.00000000
_cell_angle_beta   88.38631804
_cell_angle_gamma   90.00000000
_symmetry_Int_Tables_number   1
_chemical_formula_structural   LiZrPCO7
_chemical_formula_sum   'Li2 Zr2 P2 C2 O14'
_cell_volume   335.20494346
_cell_formula_units_Z   2
loop_
 _symmetry_equiv_pos_site_id
 _symmetry_equiv_pos_as_xyz
  1  'x, y, z'
loop_
 _atom_site_type_symbol
 _atom_site_label
 _atom_site_symmetry_multiplicity
 _atom_site_fract_x
 _atom_site_fract_y
 _atom_site_fract_z
 _atom_site_occupancy
  Li  Li0  1  0.156441  0.567617  0.254129  1
  Li  Li1  1  0.843559  0.067617  0.745871  1
  Zr  Zr2  1  0.341624  0.745362  0.796073  1
  Zr  Zr3  1  0.658376  0.245362  0.203927  1
  P  P4  1  0.448174  0.241767  0.721359  1
  P  P5  1  0.551826  0.741767  0.278641  1
  C  C6  1  0.052450  0.743948  0.738354  1
  C  C7  1  0.947550  0.243948  0.261646  1
  O  O8  1  0.078819  0.293343  0.294015  1
  O  O9  1  0.115402  0.726393  0.948570  1
  O  O10  1  0.156342  0.714653  0.563695  1
  O  O11  1  0.349673  0.057652  0.786208  1
  O  O12  1  0.363751  0.431961  0.802207  1
  O  O13  1  0.399208  0.726452  0.150858  1
  O  O14  1  0.483157  0.248704  0.453860  1
  O  O15  1  0.516843  0.748704  0.546140  1
  O  O16  1  0.600792  0.226452  0.849142  1
  O  O17  1  0.636249  0.931961  0.197793  1
  O  O18  1  0.650327  0.557652  0.213792  1
  O  O19  1  0.843658  0.214653  0.436305  1
  O  O20  1  0.884598  0.226393  0.051430  1
  O  O21  1  0.921181  0.793343  0.705985  1
