# generated using pymatgen
data_H16AuC6S2N4ClO4
_symmetry_space_group_name_H-M   'P 1'
_cell_length_a   14.17913158
_cell_length_b   16.85131478
_cell_length_c   6.55121885
_cell_angle_alpha   90.00000000
_cell_angle_beta   90.00000000
_cell_angle_gamma   90.00000000
_symmetry_Int_Tables_number   1
_chemical_formula_structural   H16AuC6S2N4ClO4
_chemical_formula_sum   'H64 Au4 C24 S8 N16 Cl4 O16'
_cell_volume   1565.32864100
_cell_formula_units_Z   4
loop_
 _symmetry_equiv_pos_site_id
 _symmetry_equiv_pos_as_xyz
  1  'x, y, z'
loop_
 _atom_site_type_symbol
 _atom_site_label
 _atom_site_symmetry_multiplicity
 _atom_site_fract_x
 _atom_site_fract_y
 _atom_site_fract_z
 _atom_site_occupancy
  H  H0  1  0.677125  0.858793  0.065699  1
  H  H1  1  0.822875  0.641207  0.565699  1
  H  H2  1  0.177125  0.641207  0.934301  1
  H  H3  1  0.322875  0.858793  0.434301  1
  H  H4  1  0.322875  0.141207  0.934301  1
  H  H5  1  0.177125  0.358793  0.434301  1
  H  H6  1  0.822875  0.358793  0.065699  1
  H  H7  1  0.677125  0.141207  0.565699  1
  H  H8  1  0.919416  0.842820  0.985000  1
  H  H9  1  0.580584  0.657180  0.484999  1
  H  H10  1  0.419416  0.657180  0.015000  1
  H  H11  1  0.080584  0.842820  0.515000  1
  H  H12  1  0.080584  0.157180  0.015000  1
  H  H13  1  0.419416  0.342820  0.515000  1
  H  H14  1  0.580584  0.342820  0.985000  1
  H  H15  1  0.919416  0.157180  0.484999  1
  H  H16  1  0.562707  0.928598  0.906025  1
  H  H17  1  0.937293  0.571402  0.406025  1
  H  H18  1  0.062707  0.571402  0.093975  1
  H  H19  1  0.437293  0.928598  0.593975  1
  H  H20  1  0.437293  0.071402  0.093975  1
  H  H21  1  0.062707  0.428598  0.593975  1
  H  H22  1  0.937293  0.428598  0.906025  1
  H  H23  1  0.562707  0.071402  0.406025  1
  H  H24  1  0.647997  0.003132  0.848933  1
  H  H25  1  0.852003  0.496868  0.348933  1
  H  H26  1  0.147997  0.496868  0.151067  1
  H  H27  1  0.352003  0.003132  0.651067  1
  H  H28  1  0.352003  0.996868  0.151067  1
  H  H29  1  0.147997  0.503132  0.651067  1
  H  H30  1  0.852003  0.503132  0.848933  1
  H  H31  1  0.647997  0.996868  0.348933  1
  H  H32  1  0.628992  0.922168  0.675794  1
  H  H33  1  0.871008  0.577832  0.175794  1
  H  H34  1  0.128992  0.577832  0.324206  1
  H  H35  1  0.371008  0.922168  0.824206  1
  H  H36  1  0.371008  0.077832  0.324206  1
  H  H37  1  0.128992  0.422168  0.824206  1
  H  H38  1  0.871008  0.422168  0.675794  1
  H  H39  1  0.628992  0.077832  0.175794  1
  H  H40  1  0.878310  0.764332  0.256541  1
  H  H41  1  0.621690  0.735668  0.756541  1
  H  H42  1  0.378310  0.735668  0.743459  1
  H  H43  1  0.121690  0.764332  0.243459  1
  H  H44  1  0.121690  0.235668  0.743459  1
  H  H45  1  0.378310  0.264332  0.243459  1
  H  H46  1  0.621690  0.264332  0.256541  1
  H  H47  1  0.878310  0.235668  0.756541  1
  H  H48  1  0.786384  0.832222  0.313560  1
  H  H49  1  0.713616  0.667778  0.813560  1
  H  H50  1  0.286384  0.667778  0.686440  1
  H  H51  1  0.213616  0.832222  0.186440  1
  H  H52  1  0.213616  0.167778  0.686440  1
  H  H53  1  0.286384  0.332222  0.186440  1
  H  H54  1  0.713616  0.332222  0.313560  1
  H  H55  1  0.786384  0.167778  0.813560  1
  H  H56  1  0.765925  0.750807  0.141890  1
  H  H57  1  0.734075  0.749193  0.641890  1
  H  H58  1  0.265925  0.749193  0.858110  1
  H  H59  1  0.234075  0.750807  0.358110  1
  H  H60  1  0.234075  0.249193  0.858110  1
  H  H61  1  0.265925  0.250807  0.358110  1
  H  H62  1  0.734075  0.250807  0.141890  1
  H  H63  1  0.765925  0.249193  0.641890  1
  Au  Au64  1  0.000000  0.949146  0.750000  1
  Au  Au65  1  0.500000  0.550854  0.250000  1
  Au  Au66  1  0.000000  0.050854  0.250000  1
  Au  Au67  1  0.500000  0.449146  0.750000  1
  C  C68  1  0.794091  0.890683  0.907443  1
  C  C69  1  0.705909  0.609317  0.407443  1
  C  C70  1  0.294091  0.609317  0.092557  1
  C  C71  1  0.205909  0.890683  0.592557  1
  C  C72  1  0.205909  0.109317  0.092557  1
  C  C73  1  0.294091  0.390683  0.592557  1
  C  C74  1  0.705909  0.390683  0.907443  1
  C  C75  1  0.794091  0.109317  0.407443  1
  C  C76  1  0.631966  0.939484  0.837359  1
  C  C77  1  0.868034  0.560516  0.337359  1
  C  C78  1  0.131966  0.560516  0.162641  1
  C  C79  1  0.368034  0.939484  0.662641  1
  C  C80  1  0.368034  0.060516  0.162641  1
  C  C81  1  0.131966  0.439484  0.662641  1
  C  C82  1  0.868034  0.439484  0.837359  1
  C  C83  1  0.631966  0.060516  0.337359  1
  C  C84  1  0.817601  0.795558  0.192041  1
  C  C85  1  0.682399  0.704442  0.692041  1
  C  C86  1  0.317601  0.704442  0.807959  1
  C  C87  1  0.182399  0.795558  0.307959  1
  C  C88  1  0.182399  0.204442  0.807959  1
  C  C89  1  0.317601  0.295558  0.307959  1
  C  C90  1  0.682399  0.295558  0.192041  1
  C  C91  1  0.817601  0.204442  0.692041  1
  S  S92  1  0.837593  0.947598  0.707216  1
  S  S93  1  0.662407  0.552402  0.207216  1
  S  S94  1  0.337593  0.552402  0.292784  1
  S  S95  1  0.162407  0.947598  0.792784  1
  S  S96  1  0.162407  0.052402  0.292784  1
  S  S97  1  0.337593  0.447598  0.792784  1
  S  S98  1  0.662407  0.447598  0.707216  1
  S  S99  1  0.837593  0.052402  0.207216  1
  N  N100  1  0.701471  0.891938  0.946157  1
  N  N101  1  0.798529  0.608062  0.446157  1
  N  N102  1  0.201471  0.608062  0.053843  1
  N  N103  1  0.298529  0.891938  0.553843  1
  N  N104  1  0.298529  0.108062  0.053843  1
  N  N105  1  0.201471  0.391938  0.553843  1
  N  N106  1  0.798529  0.391938  0.946157  1
  N  N107  1  0.701471  0.108062  0.446157  1
  N  N108  1  0.849725  0.844401  0.022571  1
  N  N109  1  0.650275  0.655599  0.522571  1
  N  N110  1  0.349725  0.655599  0.977429  1
  N  N111  1  0.150275  0.844401  0.477429  1
  N  N112  1  0.150275  0.155599  0.977429  1
  N  N113  1  0.349725  0.344401  0.477429  1
  N  N114  1  0.650275  0.344401  0.022571  1
  N  N115  1  0.849725  0.155599  0.522571  1
  Cl  Cl116  1  0.500000  0.805147  0.250000  1
  Cl  Cl117  1  0.000000  0.694853  0.750000  1
  Cl  Cl118  1  0.500000  0.194853  0.750000  1
  Cl  Cl119  1  0.000000  0.305147  0.250000  1
  O  O120  1  0.421505  0.855374  0.182619  1
  O  O121  1  0.078495  0.644626  0.682619  1
  O  O122  1  0.921505  0.644626  0.817381  1
  O  O123  1  0.578495  0.855374  0.317381  1
  O  O124  1  0.578495  0.144626  0.817381  1
  O  O125  1  0.921505  0.355374  0.317381  1
  O  O126  1  0.078495  0.355374  0.182619  1
  O  O127  1  0.421505  0.144626  0.682619  1
  O  O128  1  0.531932  0.755580  0.080488  1
  O  O129  1  0.968068  0.744420  0.580488  1
  O  O130  1  0.031932  0.744420  0.919512  1
  O  O131  1  0.468068  0.755580  0.419512  1
  O  O132  1  0.468068  0.244420  0.919512  1
  O  O133  1  0.031932  0.255580  0.419512  1
  O  O134  1  0.968068  0.255580  0.080488  1
  O  O135  1  0.531932  0.244420  0.580488  1
