# generated using pymatgen
data_H10S(NO)4
_symmetry_space_group_name_H-M   'P 1'
_cell_length_a   5.20025057
_cell_length_b   11.08310250
_cell_length_c   11.05765428
_cell_angle_alpha   90.00000000
_cell_angle_beta   100.19363044
_cell_angle_gamma   90.00000000
_symmetry_Int_Tables_number   1
_chemical_formula_structural   H10S(NO)4
_chemical_formula_sum   'H40 S4 N16 O16'
_cell_volume   627.24720445
_cell_formula_units_Z   4
loop_
 _symmetry_equiv_pos_site_id
 _symmetry_equiv_pos_as_xyz
  1  'x, y, z'
loop_
 _atom_site_type_symbol
 _atom_site_label
 _atom_site_symmetry_multiplicity
 _atom_site_fract_x
 _atom_site_fract_y
 _atom_site_fract_z
 _atom_site_occupancy
  H  H0  1  0.252169  0.106723  0.834352  1
  H  H1  1  0.747831  0.606723  0.665648  1
  H  H2  1  0.747831  0.893277  0.165648  1
  H  H3  1  0.252169  0.393277  0.334352  1
  H  H4  1  0.314751  0.962493  0.879045  1
  H  H5  1  0.685249  0.462493  0.620955  1
  H  H6  1  0.685249  0.037507  0.120955  1
  H  H7  1  0.314751  0.537507  0.379045  1
  H  H8  1  0.402830  0.010649  0.747734  1
  H  H9  1  0.597170  0.510649  0.752266  1
  H  H10  1  0.597170  0.989351  0.252266  1
  H  H11  1  0.402830  0.489351  0.247734  1
  H  H12  1  0.235264  0.501722  0.606503  1
  H  H13  1  0.764736  0.001722  0.893497  1
  H  H14  1  0.764736  0.498278  0.393497  1
  H  H15  1  0.235264  0.998278  0.106503  1
  H  H16  1  0.301648  0.644663  0.630322  1
  H  H17  1  0.698352  0.144663  0.869678  1
  H  H18  1  0.698352  0.355337  0.369678  1
  H  H19  1  0.301648  0.855337  0.130322  1
  H  H20  1  0.170888  0.570912  0.917974  1
  H  H21  1  0.829112  0.070912  0.582026  1
  H  H22  1  0.829112  0.429088  0.082026  1
  H  H23  1  0.170888  0.929088  0.417974  1
  H  H24  1  0.324606  0.641705  0.047919  1
  H  H25  1  0.675394  0.141705  0.452081  1
  H  H26  1  0.675394  0.358295  0.952081  1
  H  H27  1  0.324606  0.858295  0.547919  1
  H  H28  1  0.133938  0.723574  0.933748  1
  H  H29  1  0.866062  0.223574  0.566252  1
  H  H30  1  0.866062  0.276426  0.066252  1
  H  H31  1  0.133938  0.776426  0.433748  1
  H  H32  1  0.437674  0.733091  0.827471  1
  H  H33  1  0.562326  0.233091  0.672529  1
  H  H34  1  0.562326  0.266909  0.172529  1
  H  H35  1  0.437674  0.766909  0.327471  1
  H  H36  1  0.631131  0.709921  0.959222  1
  H  H37  1  0.368869  0.209921  0.540778  1
  H  H38  1  0.368869  0.290079  0.040778  1
  H  H39  1  0.631131  0.790079  0.459222  1
  S  S40  1  0.128640  0.341714  0.788438  1
  S  S41  1  0.871360  0.841714  0.711562  1
  S  S42  1  0.871360  0.658286  0.211562  1
  S  S43  1  0.128640  0.158286  0.288438  1
  N  N44  1  0.387824  0.034960  0.836764  1
  N  N45  1  0.612176  0.534960  0.663236  1
  N  N46  1  0.612176  0.965040  0.163236  1
  N  N47  1  0.387824  0.465040  0.336764  1
  N  N48  1  0.263250  0.651019  0.953111  1
  N  N49  1  0.736750  0.151019  0.546889  1
  N  N50  1  0.736750  0.348981  0.046889  1
  N  N51  1  0.263250  0.848981  0.453111  1
  N  N52  1  0.363321  0.568447  0.590770  1
  N  N53  1  0.636679  0.068447  0.909230  1
  N  N54  1  0.636679  0.431553  0.409230  1
  N  N55  1  0.363321  0.931553  0.090770  1
  N  N56  1  0.490114  0.669848  0.895298  1
  N  N57  1  0.509886  0.169848  0.604702  1
  N  N58  1  0.509886  0.330152  0.104702  1
  N  N59  1  0.490114  0.830152  0.395298  1
  O  O60  1  0.420453  0.346600  0.809094  1
  O  O61  1  0.579547  0.846600  0.690906  1
  O  O62  1  0.579547  0.653400  0.190906  1
  O  O63  1  0.420453  0.153400  0.309094  1
  O  O64  1  0.025520  0.354145  0.652924  1
  O  O65  1  0.974480  0.854145  0.847076  1
  O  O66  1  0.974480  0.645855  0.347076  1
  O  O67  1  0.025520  0.145855  0.152924  1
  O  O68  1  0.042722  0.222888  0.832515  1
  O  O69  1  0.957278  0.722888  0.667485  1
  O  O70  1  0.957278  0.777112  0.167485  1
  O  O71  1  0.042722  0.277112  0.332515  1
  O  O72  1  0.022760  0.440772  0.856608  1
  O  O73  1  0.977240  0.940772  0.643392  1
  O  O74  1  0.977240  0.559228  0.143392  1
  O  O75  1  0.022760  0.059228  0.356608  1
