# generated using pymatgen
data_Li2Mg2(WO4)3
_symmetry_space_group_name_H-M   'P 1'
_cell_length_a   5.21146438
_cell_length_b   10.66440292
_cell_length_c   17.90278377
_cell_angle_alpha   90.27415091
_cell_angle_beta   90.00000000
_cell_angle_gamma   90.00000000
_symmetry_Int_Tables_number   1
_chemical_formula_structural   Li2Mg2(WO4)3
_chemical_formula_sum   'Li8 Mg8 W12 O48'
_cell_volume   994.97441575
_cell_formula_units_Z   4
loop_
 _symmetry_equiv_pos_site_id
 _symmetry_equiv_pos_as_xyz
  1  'x, y, z'
loop_
 _atom_site_type_symbol
 _atom_site_label
 _atom_site_symmetry_multiplicity
 _atom_site_fract_x
 _atom_site_fract_y
 _atom_site_fract_z
 _atom_site_occupancy
  Li  Li0  1  0.246647  0.753770  0.300796  1
  Li  Li1  1  0.246758  0.423052  0.970155  1
  Li  Li2  1  0.253242  0.923052  0.470155  1
  Li  Li3  1  0.253353  0.253770  0.800796  1
  Li  Li4  1  0.605767  0.249058  0.249111  1
  Li  Li5  1  0.745345  0.749922  0.200973  1
  Li  Li6  1  0.754655  0.249922  0.700973  1
  Li  Li7  1  0.894233  0.749058  0.749111  1
  Mg  Mg8  1  0.105028  0.249220  0.250312  1
  Mg  Mg9  1  0.247964  0.078195  0.972526  1
  Mg  Mg10  1  0.252036  0.578195  0.472526  1
  Mg  Mg11  1  0.394972  0.749220  0.750312  1
  Mg  Mg12  1  0.747410  0.070875  0.527074  1
  Mg  Mg13  1  0.748045  0.424345  0.527889  1
  Mg  Mg14  1  0.752590  0.570875  0.027074  1
  Mg  Mg15  1  0.751955  0.924345  0.027889  1
  W  W16  1  0.217432  0.749230  0.942252  1
  W  W17  1  0.221759  0.027385  0.656721  1
  W  W18  1  0.219256  0.471605  0.657122  1
  W  W19  1  0.278241  0.527385  0.156721  1
  W  W20  1  0.280744  0.971605  0.157122  1
  W  W21  1  0.282568  0.249230  0.442252  1
  W  W22  1  0.717849  0.750218  0.558487  1
  W  W23  1  0.722323  0.473817  0.842938  1
  W  W24  1  0.720342  0.026859  0.842803  1
  W  W25  1  0.779658  0.526859  0.342803  1
  W  W26  1  0.777677  0.973817  0.342938  1
  W  W27  1  0.782151  0.250218  0.058487  1
  O  O28  1  0.061117  0.613190  0.375432  1
  O  O29  1  0.054033  0.885759  0.373384  1
  O  O30  1  0.060181  0.244975  0.996248  1
  O  O31  1  0.079222  0.624114  0.215113  1
  O  O32  1  0.077782  0.875441  0.213031  1
  O  O33  1  0.081780  0.007590  0.073678  1
  O  O34  1  0.076452  0.491700  0.075733  1
  O  O35  1  0.077254  0.118838  0.463748  1
  O  O36  1  0.084163  0.387118  0.463743  1
  O  O37  1  0.147924  0.617927  0.705015  1
  O  O38  1  0.149960  0.881532  0.705379  1
  O  O39  1  0.147522  0.750422  0.843627  1
  O  O40  1  0.352478  0.250422  0.343627  1
  O  O41  1  0.352076  0.117927  0.205015  1
  O  O42  1  0.350040  0.381532  0.205378  1
  O  O43  1  0.415837  0.887118  0.963743  1
  O  O44  1  0.422746  0.618838  0.963748  1
  O  O45  1  0.418220  0.507590  0.573678  1
  O  O46  1  0.423548  0.991700  0.575733  1
  O  O47  1  0.420778  0.124114  0.715113  1
  O  O48  1  0.422218  0.375441  0.713031  1
  O  O49  1  0.439819  0.744975  0.496248  1
  O  O50  1  0.438883  0.113190  0.875432  1
  O  O51  1  0.445967  0.385759  0.873384  1
  O  O52  1  0.561636  0.614133  0.124348  1
  O  O53  1  0.563790  0.885769  0.124410  1
  O  O54  1  0.567754  0.250675  0.504937  1
  O  O55  1  0.578508  0.622526  0.285672  1
  O  O56  1  0.575065  0.876978  0.284386  1
  O  O57  1  0.584870  0.015294  0.426004  1
  O  O58  1  0.580374  0.489631  0.426321  1
  O  O59  1  0.580446  0.112256  0.036815  1
  O  O60  1  0.588948  0.386958  0.038409  1
  O  O61  1  0.637263  0.618305  0.794277  1
  O  O62  1  0.639406  0.882181  0.794869  1
  O  O63  1  0.633129  0.749137  0.656263  1
  O  O64  1  0.866871  0.249137  0.156263  1
  O  O65  1  0.862737  0.118305  0.294277  1
  O  O66  1  0.860594  0.382181  0.294869  1
  O  O67  1  0.919554  0.612256  0.536815  1
  O  O68  1  0.911052  0.886958  0.538409  1
  O  O69  1  0.915130  0.515294  0.926004  1
  O  O70  1  0.919626  0.989631  0.926321  1
  O  O71  1  0.921492  0.122526  0.785672  1
  O  O72  1  0.924935  0.376978  0.784386  1
  O  O73  1  0.932246  0.750675  0.004937  1
  O  O74  1  0.938364  0.114133  0.624348  1
  O  O75  1  0.936210  0.385769  0.624410  1
