# generated using pymatgen
data_Li3Bi2(PO4)3
_symmetry_space_group_name_H-M   'P 1'
_cell_length_a   5.15774928
_cell_length_b   5.15774928
_cell_length_c   20.74217313
_cell_angle_alpha   90.43928726
_cell_angle_beta   90.43928726
_cell_angle_gamma   66.26004894
_symmetry_Int_Tables_number   1
_chemical_formula_structural   Li3Bi2(PO4)3
_chemical_formula_sum   'Li6 Bi4 P6 O24'
_cell_volume   505.07854826
_cell_formula_units_Z   2
loop_
 _symmetry_equiv_pos_site_id
 _symmetry_equiv_pos_as_xyz
  1  'x, y, z'
loop_
 _atom_site_type_symbol
 _atom_site_label
 _atom_site_symmetry_multiplicity
 _atom_site_fract_x
 _atom_site_fract_y
 _atom_site_fract_z
 _atom_site_occupancy
  Li  Li0  1  0.000496  0.000496  0.826119  1
  Li  Li1  1  0.343778  0.343778  0.569254  1
  Li  Li2  1  0.338500  0.338500  0.895878  1
  Li  Li3  1  0.999504  0.999504  0.507215  1
  Li  Li4  1  0.661500  0.661500  0.437455  1
  Li  Li5  1  0.656222  0.656222  0.764080  1
  Bi  Bi6  1  0.000000  0.000000  0.166667  1
  Bi  Bi7  1  0.998399  0.998399  0.987253  1
  Bi  Bi8  1  0.001601  0.001601  0.346080  1
  Bi  Bi9  1  0.000000  0.000000  0.666667  1
  P  P10  1  0.354495  0.354495  0.428333  1
  P  P11  1  0.359343  0.359343  0.072566  1
  P  P12  1  0.354812  0.354812  0.750613  1
  P  P13  1  0.640657  0.640657  0.260767  1
  P  P14  1  0.645188  0.645188  0.582720  1
  P  P15  1  0.645505  0.645505  0.905000  1
  O  O16  1  0.238496  0.693245  0.077376  1
  O  O17  1  0.247121  0.689478  0.429748  1
  O  O18  1  0.246061  0.689075  0.752961  1
  O  O19  1  0.306755  0.761504  0.255957  1
  O  O20  1  0.310522  0.752879  0.903586  1
  O  O21  1  0.310925  0.753939  0.580373  1
  O  O22  1  0.748340  0.748340  0.202534  1
  O  O23  1  0.751151  0.751151  0.846785  1
  O  O24  1  0.754088  0.754088  0.525442  1
  O  O25  1  0.279437  0.279437  0.005534  1
  O  O26  1  0.263260  0.263260  0.364080  1
  O  O27  1  0.251660  0.251660  0.130800  1
  O  O28  1  0.248849  0.248849  0.486548  1
  O  O29  1  0.730595  0.730595  0.649097  1
  O  O30  1  0.720563  0.720563  0.327799  1
  O  O31  1  0.269405  0.269405  0.684236  1
  O  O32  1  0.245912  0.245912  0.807892  1
  O  O33  1  0.736740  0.736740  0.969254  1
  O  O34  1  0.761504  0.306755  0.255957  1
  O  O35  1  0.752879  0.310522  0.903586  1
  O  O36  1  0.753939  0.310925  0.580373  1
  O  O37  1  0.693245  0.238496  0.077376  1
  O  O38  1  0.689075  0.246061  0.752961  1
  O  O39  1  0.689478  0.247121  0.429748  1
