# generated using pymatgen
data_Ca2Bi10O17
_symmetry_space_group_name_H-M   'P 1'
_cell_length_a   8.09026791
_cell_length_b   7.87911167
_cell_length_c   9.87009885
_cell_angle_alpha   80.72100913
_cell_angle_beta   90.00000000
_cell_angle_gamma   59.10944820
_symmetry_Int_Tables_number   1
_chemical_formula_structural   Ca2Bi10O17
_chemical_formula_sum   'Ca2 Bi10 O17'
_cell_volume   530.29774526
_cell_formula_units_Z   1
loop_
 _symmetry_equiv_pos_site_id
 _symmetry_equiv_pos_as_xyz
  1  'x, y, z'
loop_
 _atom_site_type_symbol
 _atom_site_label
 _atom_site_symmetry_multiplicity
 _atom_site_fract_x
 _atom_site_fract_y
 _atom_site_fract_z
 _atom_site_occupancy
  Ca  Ca0  1  0.995434  0.009133  0.983397  1
  Ca  Ca1  1  0.496728  0.006544  0.979469  1
  Bi  Bi2  1  0.124256  0.751488  0.681610  1
  Bi  Bi3  1  0.622502  0.754996  0.679342  1
  Bi  Bi4  1  0.348646  0.774701  0.313965  1
  Bi  Bi5  1  0.876652  0.774701  0.313965  1
  Bi  Bi6  1  0.001427  0.499040  0.982666  1
  Bi  Bi7  1  0.499532  0.499040  0.982666  1
  Bi  Bi8  1  0.096097  0.272511  0.675428  1
  Bi  Bi9  1  0.631392  0.272511  0.675428  1
  Bi  Bi10  1  0.390534  0.218933  0.323556  1
  Bi  Bi11  1  0.852561  0.294877  0.317741  1
  O  O12  1  0.165816  0.668368  0.900771  1
  O  O13  1  0.661250  0.677501  0.902008  1
  O  O14  1  0.618230  0.763540  0.292613  1
  O  O15  1  0.954915  0.601438  0.731386  1
  O  O16  1  0.443648  0.601438  0.731386  1
  O  O17  1  0.310101  0.833628  0.101921  1
  O  O18  1  0.856271  0.833628  0.101921  1
  O  O19  1  0.777933  0.444134  0.604542  1
  O  O20  1  0.235950  0.528100  0.344392  1
  O  O21  1  0.129300  0.217211  0.894064  1
  O  O22  1  0.653490  0.217211  0.894064  1
  O  O23  1  0.458820  0.082362  0.724032  1
  O  O24  1  0.359964  0.280072  0.106886  1
  O  O25  1  0.850142  0.299715  0.106510  1
  O  O26  1  0.972938  0.054124  0.722389  1
  O  O27  1  0.739799  0.095828  0.357584  1
  O  O28  1  0.164372  0.095828  0.357584  1
