# generated using pymatgen
data_Li4MnV3(P2O7)4
_symmetry_space_group_name_H-M   'P 1'
_cell_length_a   4.87265731
_cell_length_b   8.27904912
_cell_length_c   26.71461865
_cell_angle_alpha   90.00000000
_cell_angle_beta   88.70705623
_cell_angle_gamma   90.00000000
_symmetry_Int_Tables_number   1
_chemical_formula_structural   Li4MnV3(P2O7)4
_chemical_formula_sum   'Li8 Mn2 V6 P16 O56'
_cell_volume   1077.41922235
_cell_formula_units_Z   2
loop_
 _symmetry_equiv_pos_site_id
 _symmetry_equiv_pos_as_xyz
  1  'x, y, z'
loop_
 _atom_site_type_symbol
 _atom_site_label
 _atom_site_symmetry_multiplicity
 _atom_site_fract_x
 _atom_site_fract_y
 _atom_site_fract_z
 _atom_site_occupancy
  Li  Li0  1  0.161981  0.362616  0.330921  1
  Li  Li1  1  0.161903  0.362693  0.830542  1
  Li  Li2  1  0.338030  0.862768  0.419345  1
  Li  Li3  1  0.336782  0.862494  0.918716  1
  Li  Li4  1  0.661970  0.362768  0.080655  1
  Li  Li5  1  0.663218  0.362494  0.581284  1
  Li  Li6  1  0.838019  0.862616  0.169078  1
  Li  Li7  1  0.838097  0.862693  0.669458  1
  Mn  Mn8  1  0.149321  0.999212  0.817446  1
  Mn  Mn9  1  0.850679  0.499212  0.682554  1
  V  V10  1  0.148691  0.999741  0.317829  1
  V  V11  1  0.351234  0.499760  0.432221  1
  V  V12  1  0.351654  0.499388  0.932091  1
  V  V13  1  0.648766  0.999760  0.067779  1
  V  V14  1  0.648346  0.999388  0.567909  1
  V  V15  1  0.851309  0.499741  0.182171  1
  P  P16  1  0.139393  0.180292  0.130531  1
  P  P17  1  0.169767  0.783367  0.021422  1
  P  P18  1  0.138886  0.180036  0.629770  1
  P  P19  1  0.169376  0.784146  0.521542  1
  P  P20  1  0.330420  0.283856  0.228530  1
  P  P21  1  0.360753  0.680373  0.119488  1
  P  P22  1  0.332203  0.285749  0.727908  1
  P  P23  1  0.359516  0.678695  0.619675  1
  P  P24  1  0.639247  0.180373  0.380512  1
  P  P25  1  0.669580  0.783856  0.271470  1
  P  P26  1  0.640484  0.178695  0.880325  1
  P  P27  1  0.667797  0.785749  0.772092  1
  P  P28  1  0.830233  0.283367  0.478578  1
  P  P29  1  0.860607  0.680292  0.369469  1
  P  P30  1  0.830624  0.284146  0.978458  1
  P  P31  1  0.861114  0.680036  0.870230  1
  O  O32  1  0.005033  0.843849  0.373451  1
  O  O33  1  0.054280  0.538295  0.379435  1
  O  O34  1  0.094374  0.677770  0.151412  1
  O  O35  1  0.002327  0.842355  0.875647  1
  O  O36  1  0.053055  0.536181  0.879415  1
  O  O37  1  0.143750  0.433645  0.229338  1
  O  O38  1  0.093201  0.677168  0.651916  1
  O  O39  1  0.124563  0.323749  0.462696  1
  O  O40  1  0.218865  0.152801  0.188289  1
  O  O41  1  0.143576  0.435454  0.728811  1
  O  O42  1  0.188220  0.696337  0.471301  1
  O  O43  1  0.124513  0.324406  0.962964  1
  O  O44  1  0.281202  0.652612  0.061912  1
  O  O45  1  0.219849  0.154513  0.687915  1
  O  O46  1  0.188668  0.695359  0.971570  1
  O  O47  1  0.311966  0.196220  0.278628  1
  O  O48  1  0.355662  0.933550  0.020745  1
  O  O49  1  0.280668  0.652344  0.561696  1
  O  O50  1  0.375386  0.824102  0.287135  1
  O  O51  1  0.318146  0.200922  0.778332  1
  O  O52  1  0.405575  0.178106  0.098739  1
  O  O53  1  0.356682  0.933326  0.520650  1
  O  O54  1  0.369740  0.826006  0.787222  1
  O  O55  1  0.408240  0.175422  0.598606  1
  O  O56  1  0.445711  0.038115  0.370457  1
  O  O57  1  0.504947  0.843813  0.123567  1
  O  O58  1  0.495053  0.343813  0.376433  1
  O  O59  1  0.446003  0.036780  0.870397  1
  O  O60  1  0.554289  0.538115  0.129543  1
  O  O61  1  0.503367  0.842771  0.623498  1
  O  O62  1  0.496633  0.342771  0.876502  1
  O  O63  1  0.553997  0.536780  0.629603  1
  O  O64  1  0.594425  0.678106  0.401261  1
  O  O65  1  0.624614  0.324102  0.212865  1
  O  O66  1  0.644338  0.433550  0.479255  1
  O  O67  1  0.591760  0.675422  0.901394  1
  O  O68  1  0.688034  0.696220  0.221372  1
  O  O69  1  0.630260  0.326006  0.712778  1
  O  O70  1  0.718798  0.152612  0.438088  1
  O  O71  1  0.643318  0.433326  0.979350  1
  O  O72  1  0.681854  0.700922  0.721668  1
  O  O73  1  0.811780  0.196337  0.028699  1
  O  O74  1  0.781135  0.652801  0.311711  1
  O  O75  1  0.719332  0.152344  0.938304  1
  O  O76  1  0.875437  0.823749  0.037304  1
  O  O77  1  0.811332  0.195359  0.528430  1
  O  O78  1  0.856250  0.933645  0.270662  1
  O  O79  1  0.780151  0.654513  0.812085  1
  O  O80  1  0.875487  0.824406  0.537036  1
  O  O81  1  0.905626  0.177770  0.348588  1
  O  O82  1  0.856424  0.935454  0.771189  1
  O  O83  1  0.945720  0.038295  0.120565  1
  O  O84  1  0.994967  0.343849  0.126549  1
  O  O85  1  0.906799  0.177168  0.848084  1
  O  O86  1  0.946945  0.036181  0.620585  1
  O  O87  1  0.997673  0.342355  0.624353  1
