# generated using pymatgen
data_Li4Fe3Co3(WO8)2
_symmetry_space_group_name_H-M   'P 1'
_cell_length_a   5.94053146
_cell_length_b   5.96072588
_cell_length_c   9.78823397
_cell_angle_alpha   90.07911750
_cell_angle_beta   90.89234431
_cell_angle_gamma   120.13700831
_symmetry_Int_Tables_number   1
_chemical_formula_structural   Li4Fe3Co3(WO8)2
_chemical_formula_sum   'Li4 Fe3 Co3 W2 O16'
_cell_volume   299.69598967
_cell_formula_units_Z   1
loop_
 _symmetry_equiv_pos_site_id
 _symmetry_equiv_pos_as_xyz
  1  'x, y, z'
loop_
 _atom_site_type_symbol
 _atom_site_label
 _atom_site_symmetry_multiplicity
 _atom_site_fract_x
 _atom_site_fract_y
 _atom_site_fract_z
 _atom_site_occupancy
  Li  Li0  1  0.329756  0.663958  0.910623  1
  Li  Li1  1  0.003547  0.003359  0.989043  1
  Li  Li2  1  0.008803  0.002634  0.485692  1
  Li  Li3  1  0.651601  0.326874  0.408166  1
  Fe  Fe4  1  0.657931  0.824944  0.219335  1
  Fe  Fe5  1  0.823902  0.657767  0.715635  1
  Fe  Fe6  1  0.824413  0.166695  0.714096  1
  Co  Co7  1  0.165806  0.822423  0.212662  1
  Co  Co8  1  0.168277  0.340285  0.211370  1
  Co  Co9  1  0.341255  0.170124  0.713764  1
  W  W10  1  0.315452  0.655612  0.485005  1
  W  W11  1  0.665352  0.329175  0.987419  1
  O  O12  1  0.173239  0.826258  0.588136  1
  O  O13  1  0.025740  0.519353  0.357795  1
  O  O14  1  0.325848  0.668287  0.115132  1
  O  O15  1  0.012640  0.001348  0.296754  1
  O  O16  1  -0.002198  -0.000539  0.801077  1
  O  O17  1  0.168054  0.345850  0.587435  1
  O  O18  1  0.472320  0.957024  0.343488  1
  O  O19  1  0.478138  0.521568  0.349351  1
  O  O20  1  0.353677  0.175012  0.081055  1
  O  O21  1  0.657219  0.831183  0.585388  1
  O  O22  1  0.532161  0.493009  0.855459  1
  O  O23  1  0.532588  0.037622  0.854424  1
  O  O24  1  0.674221  0.338085  0.608502  1
  O  O25  1  0.839353  0.661998  0.092505  1
  O  O26  1  0.963975  0.482549  0.847185  1
  O  O27  1  0.836931  0.177842  0.091346  1
