# generated using pymatgen
data_LaBi5O9
_symmetry_space_group_name_H-M   'P 1'
_cell_length_a   3.96593480
_cell_length_b   9.59980284
_cell_length_c   6.99842083
_cell_angle_alpha   81.57218441
_cell_angle_beta   89.98190832
_cell_angle_gamma   101.93226522
_symmetry_Int_Tables_number   1
_chemical_formula_structural   LaBi5O9
_chemical_formula_sum   'La1 Bi5 O9'
_cell_volume   257.74389133
_cell_formula_units_Z   1
loop_
 _symmetry_equiv_pos_site_id
 _symmetry_equiv_pos_as_xyz
  1  'x, y, z'
loop_
 _atom_site_type_symbol
 _atom_site_label
 _atom_site_symmetry_multiplicity
 _atom_site_fract_x
 _atom_site_fract_y
 _atom_site_fract_z
 _atom_site_occupancy
  La  La0  1  0.508191  0.015820  0.489529  1
  Bi  Bi1  1  0.664511  0.329505  0.087472  1
  Bi  Bi2  1  0.837558  0.675020  0.402306  1
  Bi  Bi3  1  0.330676  0.661842  0.874466  1
  Bi  Bi4  1  0.174269  0.348181  0.614839  1
  Bi  Bi5  1  0.997327  0.994071  0.981787  1
  O  O6  1  0.640034  0.280001  0.410432  1
  O  O7  1  0.955271  0.910220  0.360501  1
  O  O8  1  0.845522  0.691563  0.040684  1
  O  O9  1  0.549487  0.099247  0.109691  1
  O  O10  1  0.745162  0.490282  0.690723  1
  O  O11  1  0.357503  0.715247  0.539203  1
  O  O12  1  0.446192  0.892584  0.836190  1
  O  O13  1  0.053511  0.107257  0.668225  1
  O  O14  1  0.150286  0.300858  0.940651  1
