# generated using pymatgen
data_Tl3(SbO3)8
_symmetry_space_group_name_H-M   'P 1'
_cell_length_a   7.37677692
_cell_length_b   7.38493398
_cell_length_c   12.74496792
_cell_angle_alpha   106.38999056
_cell_angle_beta   73.67048094
_cell_angle_gamma   119.55686972
_symmetry_Int_Tables_number   1
_chemical_formula_structural   Tl3(SbO3)8
_chemical_formula_sum   'Tl3 Sb8 O24'
_cell_volume   570.96639352
_cell_formula_units_Z   1
loop_
 _symmetry_equiv_pos_site_id
 _symmetry_equiv_pos_as_xyz
  1  'x, y, z'
loop_
 _atom_site_type_symbol
 _atom_site_label
 _atom_site_symmetry_multiplicity
 _atom_site_fract_x
 _atom_site_fract_y
 _atom_site_fract_z
 _atom_site_occupancy
  Tl  Tl0  1  0.026955  0.379839  0.324868  1
  Tl  Tl1  1  0.764878  0.105271  0.829785  1
  Tl  Tl2  1  0.394603  0.733964  0.829267  1
  Sb  Sb3  1  0.995952  0.504542  0.012521  1
  Sb  Sb4  1  0.001594  0.000403  0.000629  1
  Sb  Sb5  1  0.499334  0.498473  0.000682  1
  Sb  Sb6  1  0.747551  0.749920  0.250938  1
  Sb  Sb7  1  0.997070  0.997132  0.499902  1
  Sb  Sb8  1  0.499969  0.501138  0.499683  1
  Sb  Sb9  1  0.499437  0.996623  0.499694  1
  Sb  Sb10  1  0.263364  0.236049  0.746167  1
  O  O11  1  0.298073  0.619894  0.021940  1
  O  O12  1  0.286728  0.213448  0.031123  1
  O  O13  1  0.514087  0.586712  0.161509  1
  O  O14  1  0.210531  0.889942  0.466567  1
  O  O15  1  0.912304  0.983973  0.161250  1
  O  O16  1  0.592307  0.917259  0.338239  1
  O  O17  1  0.911181  0.588542  0.169428  1
  O  O18  1  0.982708  0.917911  0.338927  1
  O  O19  1  0.585736  0.516259  0.339054  1
  O  O20  1  0.880948  0.202818  0.022657  1
  O  O21  1  0.390051  0.712111  0.537315  1
  O  O22  1  0.211822  0.285914  0.465512  1
  O  O23  1  0.782662  0.715183  0.539247  1
  O  O24  1  0.607108  0.287150  0.467055  1
  O  O25  1  0.016515  0.094013  0.663598  1
  O  O26  1  0.107198  0.779830  0.958676  1
  O  O27  1  0.404933  0.481818  0.663382  1
  O  O28  1  0.090779  0.408508  0.839481  1
  O  O29  1  0.420859  0.079286  0.663572  1
  O  O30  1  0.067930  0.015261  0.838331  1
  O  O31  1  0.484617  0.431620  0.838255  1
  O  O32  1  0.787630  0.109799  0.535518  1
  O  O33  1  0.716327  0.783583  0.964838  1
  O  O34  1  0.720116  0.392796  0.958821  1
