# generated using pymatgen
data_Li4Mn7(OF7)2
_symmetry_space_group_name_H-M   'P 1'
_cell_length_a   6.42080099
_cell_length_b   6.20564119
_cell_length_c   11.13634496
_cell_angle_alpha   107.18711935
_cell_angle_beta   90.00000000
_cell_angle_gamma   58.84628715
_symmetry_Int_Tables_number   1
_chemical_formula_structural   Li4Mn7(OF7)2
_chemical_formula_sum   'Li4 Mn7 O2 F14'
_cell_volume   356.38084074
_cell_formula_units_Z   1
loop_
 _symmetry_equiv_pos_site_id
 _symmetry_equiv_pos_as_xyz
  1  'x, y, z'
loop_
 _atom_site_type_symbol
 _atom_site_label
 _atom_site_symmetry_multiplicity
 _atom_site_fract_x
 _atom_site_fract_y
 _atom_site_fract_z
 _atom_site_occupancy
  Li  Li0  1  0.641674  0.716652  0.099810  1
  Li  Li1  1  0.982756  0.034486  0.015334  1
  Li  Li2  1  0.142244  0.715514  0.609666  1
  Li  Li3  1  0.483326  0.033348  0.525190  1
  Mn  Mn4  1  0.291886  0.416229  0.073166  1
  Mn  Mn5  1  0.562500  0.375000  0.312500  1
  Mn  Mn6  1  0.062500  0.375000  0.312500  1
  Mn  Mn7  1  0.562500  0.875000  0.812500  1
  Mn  Mn8  1  0.833114  0.333771  0.551834  1
  Mn  Mn9  1  0.062500  0.375000  0.812500  1
  Mn  Mn10  1  0.562500  0.375000  0.812500  1
  O  O11  1  0.424261  0.151477  0.721885  1
  O  O12  1  0.700739  0.598523  0.903115  1
  F  F13  1  0.942583  0.596735  0.182689  1
  F  F14  1  0.460681  0.596735  0.182689  1
  F  F15  1  0.696191  0.607616  0.438427  1
  F  F16  1  0.428809  0.142384  0.186573  1
  F  F17  1  0.203169  0.593663  0.425557  1
  F  F18  1  0.921831  0.156337  0.199442  1
  F  F19  1  0.664319  0.153265  0.442311  1
  F  F20  1  0.182417  0.153265  0.442311  1
  F  F21  1  0.458012  0.606160  0.673719  1
  F  F22  1  0.935828  0.606160  0.673719  1
  F  F23  1  0.947753  0.104494  0.674971  1
  F  F24  1  0.177247  0.645506  0.950029  1
  F  F25  1  0.189172  0.143840  0.951281  1
  F  F26  1  0.666988  0.143840  0.951281  1
