# generated using pymatgen
data_ErBiO3
_symmetry_space_group_name_H-M   'P 1'
_cell_length_a   5.98566562
_cell_length_b   5.98585248
_cell_length_c   6.11545757
_cell_angle_alpha   60.70012815
_cell_angle_beta   119.30224312
_cell_angle_gamma   120.00355183
_symmetry_Int_Tables_number   1
_chemical_formula_structural   ErBiO3
_chemical_formula_sum   'Er2 Bi2 O6'
_cell_volume   156.54843844
_cell_formula_units_Z   2
loop_
 _symmetry_equiv_pos_site_id
 _symmetry_equiv_pos_as_xyz
  1  'x, y, z'
loop_
 _atom_site_type_symbol
 _atom_site_label
 _atom_site_symmetry_multiplicity
 _atom_site_fract_x
 _atom_site_fract_y
 _atom_site_fract_z
 _atom_site_occupancy
  Er  Er0  1  0.857678  0.142378  0.572965  1
  Er  Er1  1  0.142325  0.857611  0.427051  1
  Bi  Bi2  1  0.643018  0.356988  0.929071  1
  Bi  Bi3  1  0.356978  0.643002  0.070932  1
  O  O4  1  0.988322  0.782748  0.750224  1
  O  O5  1  0.544618  0.011704  0.750210  1
  O  O6  1  0.217269  0.455335  0.750223  1
  O  O7  1  0.782739  0.544659  0.249774  1
  O  O8  1  0.455372  0.988303  0.249787  1
  O  O9  1  0.011682  0.217273  0.249762  1
