# generated using pymatgen
data_CeNbO4
_symmetry_space_group_name_H-M   'P 1'
_cell_length_a   5.20801439
_cell_length_b   5.53409873
_cell_length_c   6.71146013
_cell_angle_alpha   111.40221142
_cell_angle_beta   109.73204826
_cell_angle_gamma   97.01325405
_symmetry_Int_Tables_number   1
_chemical_formula_structural   CeNbO4
_chemical_formula_sum   'Ce2 Nb2 O8'
_cell_volume   162.74536792
_cell_formula_units_Z   2
loop_
 _symmetry_equiv_pos_site_id
 _symmetry_equiv_pos_as_xyz
  1  'x, y, z'
loop_
 _atom_site_type_symbol
 _atom_site_label
 _atom_site_symmetry_multiplicity
 _atom_site_fract_x
 _atom_site_fract_y
 _atom_site_fract_z
 _atom_site_occupancy
  O  O0  1  0.293610  0.145991  0.083175  1
  O  O1  1  0.790553  0.438534  0.084300  1
  O  O2  1  0.706292  0.854265  0.915734  1
  O  O3  1  0.210430  0.562823  0.916787  1
  O  O4  1  0.494532  0.709167  0.440017  1
  O  O5  1  0.944848  0.230320  0.440306  1
  O  O6  1  0.054503  0.769118  0.559993  1
  O  O7  1  0.504522  0.289978  0.559682  1
  Nb  Nb8  1  0.345123  0.595112  0.690748  1
  Nb  Nb9  1  0.654376  0.404348  0.309248  1
  Ce  Ce10  1  0.883694  0.133250  0.766169  1
  Ce  Ce11  1  0.117518  0.867089  0.233838  1
