# generated using pymatgen
data_Li4CrTe2WO12
_symmetry_space_group_name_H-M   'P 1'
_cell_length_a   5.46787667
_cell_length_b   10.92915933
_cell_length_c   9.62615998
_cell_angle_alpha   28.33770329
_cell_angle_beta   51.19063501
_cell_angle_gamma   56.44605805
_symmetry_Int_Tables_number   1
_chemical_formula_structural   Li4CrTe2WO12
_chemical_formula_sum   'Li4 Cr1 Te2 W1 O12'
_cell_volume   212.77220196
_cell_formula_units_Z   1
loop_
 _symmetry_equiv_pos_site_id
 _symmetry_equiv_pos_as_xyz
  1  'x, y, z'
loop_
 _atom_site_type_symbol
 _atom_site_label
 _atom_site_symmetry_multiplicity
 _atom_site_fract_x
 _atom_site_fract_y
 _atom_site_fract_z
 _atom_site_occupancy
  Li  Li0  1  0.253325  0.995434  0.309028  1
  Li  Li1  1  0.318881  0.498360  0.268154  1
  Li  Li2  1  0.774064  0.009454  0.739893  1
  Li  Li3  1  0.785803  0.495223  0.814002  1
  Cr  Cr4  1  0.008689  0.500440  0.999351  1
  Te  Te5  1  0.496260  0.002984  0.499934  1
  Te  Te6  1  0.511743  0.499953  0.500473  1
  W  W7  1  0.995999  0.000586  0.004310  1
  O  O8  1  0.385106  0.292639  0.133820  1
  O  O9  1  0.229149  0.128776  0.624248  1
  O  O10  1  0.098297  0.312832  0.747737  1
  O  O11  1  0.860839  0.193107  0.237345  1
  O  O12  1  0.373261  0.826604  0.103934  1
  O  O13  1  0.713166  0.378966  0.374593  1
  O  O14  1  0.236152  0.625245  0.621114  1
  O  O15  1  0.617775  0.159132  0.899237  1
  O  O16  1  0.139246  0.827913  0.722126  1
  O  O17  1  0.897809  0.686571  0.240777  1
  O  O18  1  0.750682  0.869630  0.374899  1
  O  O19  1  0.624957  0.696151  0.856223  1
