# generated using pymatgen
data_Li24TiCr11O36
_symmetry_space_group_name_H-M   'P 1'
_cell_length_a   8.74595381
_cell_length_b   8.71535597
_cell_length_c   9.75834019
_cell_angle_alpha   89.99999994
_cell_angle_beta   98.18293602
_cell_angle_gamma   60.11565877
_symmetry_Int_Tables_number   1
_chemical_formula_structural   Li24TiCr11O36
_chemical_formula_sum   'Li24 Ti1 Cr11 O36'
_cell_volume   636.16768965
_cell_formula_units_Z   1
loop_
 _symmetry_equiv_pos_site_id
 _symmetry_equiv_pos_as_xyz
  1  'x, y, z'
loop_
 _atom_site_type_symbol
 _atom_site_label
 _atom_site_symmetry_multiplicity
 _atom_site_fract_x
 _atom_site_fract_y
 _atom_site_fract_z
 _atom_site_occupancy
  Li  Li0  1  0.164549  0.006980  0.000667  1
  Li  Li1  1  0.000000  0.250079  0.750000  1
  Li  Li2  1  0.167591  0.164439  0.500163  1
  Li  Li3  1  0.332385  0.083472  0.249978  1
  Li  Li4  1  0.169225  0.327225  0.000219  1
  Li  Li5  1  0.501263  0.999379  0.999729  1
  Li  Li6  1  0.496777  0.163570  0.499384  1
  Li  Li7  1  0.169114  0.505858  0.500485  1
  Li  Li8  1  1.000000  0.750497  0.250000  1
  Li  Li9  1  0.500467  0.337834  0.998607  1
  Li  Li10  1  0.165105  0.665543  0.000785  1
  Li  Li11  1  0.334027  0.582923  0.750259  1
  Li  Li12  1  0.167470  0.827155  0.499483  1
  Li  Li13  1  0.498737  0.500642  0.500271  1
  Li  Li14  1  0.835451  0.171530  0.499333  1
  Li  Li15  1  0.667615  0.415856  0.250022  1
  Li  Li16  1  0.503223  0.660346  0.000616  1
  Li  Li17  1  0.832409  0.332032  0.999837  1
  Li  Li18  1  0.830775  0.496449  0.499781  1
  Li  Li19  1  0.499533  0.838301  0.501393  1
  Li  Li20  1  0.830886  0.674972  0.999515  1
  Li  Li21  1  0.665973  0.916950  0.749741  1
  Li  Li22  1  0.834895  0.830648  0.499215  1
  Li  Li23  1  0.832530  0.994626  0.000517  1
  Ti  Ti24  1  0.000000  0.417320  0.250000  1
  Cr  Cr25  1  0.000000  0.078046  0.250000  1
  Cr  Cr26  1  0.000000  0.575907  0.750000  1
  Cr  Cr27  1  0.338379  0.251826  0.748636  1
  Cr  Cr28  1  0.334647  0.418440  0.251511  1
  Cr  Cr29  1  0.661732  0.088855  0.244717  1
  Cr  Cr30  1  0.000000  0.910910  0.750000  1
  Cr  Cr31  1  0.673259  0.247659  0.750612  1
  Cr  Cr32  1  0.338268  0.750586  0.255283  1
  Cr  Cr33  1  0.326741  0.920917  0.749388  1
  Cr  Cr34  1  0.661621  0.590204  0.751364  1
  Cr  Cr35  1  0.665353  0.753087  0.248489  1
  O  O36  1  0.098224  0.022506  0.638037  1
  O  O37  1  0.069275  0.213316  0.134635  1
  O  O38  1  0.266373  0.114505  0.863483  1
  O  O39  1  0.401774  0.052853  0.634757  1
  O  O40  1  0.091511  0.386042  0.636843  1
  O  O41  1  0.241476  0.308050  0.362791  1
  O  O42  1  0.242489  0.445036  0.862530  1
  O  O43  1  0.098139  0.523594  0.137330  1
  O  O44  1  0.573807  0.145011  0.861105  1
  O  O45  1  0.429648  0.211496  0.136807  1
  O  O46  1  0.068569  0.713739  0.636382  1
  O  O47  1  0.429104  0.355801  0.637876  1
  O  O48  1  0.767961  0.044813  0.636977  1
  O  O49  1  0.566494  0.288472  0.361240  1
  O  O50  1  0.261866  0.620129  0.367239  1
  O  O51  1  0.901776  0.120730  0.861963  1
  O  O52  1  0.399965  0.550215  0.137855  1
  O  O53  1  0.757700  0.190029  0.136372  1
  O  O54  1  0.232039  0.812774  0.863023  1
  O  O55  1  0.598226  0.454627  0.865243  1
  O  O56  1  0.093626  0.884861  0.139050  1
  O  O57  1  0.733627  0.380878  0.636517  1
  O  O58  1  0.426193  0.718818  0.638895  1
  O  O59  1  0.242300  0.947729  0.363628  1
  O  O60  1  0.570352  0.641145  0.363193  1
  O  O61  1  0.930725  0.282590  0.365365  1
  O  O62  1  0.570896  0.784905  0.862124  1
  O  O63  1  0.433506  0.854965  0.138760  1
  O  O64  1  0.908489  0.477553  0.863157  1
  O  O65  1  0.758524  0.549527  0.137209  1
  O  O66  1  0.757511  0.687525  0.637470  1
  O  O67  1  0.901861  0.621734  0.362669  1
  O  O68  1  0.600035  0.950179  0.362145  1
  O  O69  1  0.738134  0.881994  0.132761  1
  O  O70  1  0.931431  0.782307  0.863618  1
  O  O71  1  0.906374  0.978487  0.360950  1
