# generated using pymatgen
data_Fe5O3F7
_symmetry_space_group_name_H-M   'P 1'
_cell_length_a   4.81066029
_cell_length_b   4.81974678
_cell_length_c   15.57649945
_cell_angle_alpha   90.13187316
_cell_angle_beta   89.77314286
_cell_angle_gamma   88.97879859
_symmetry_Int_Tables_number   1
_chemical_formula_structural   Fe5O3F7
_chemical_formula_sum   'Fe10 O6 F14'
_cell_volume   361.09806705
_cell_formula_units_Z   2
loop_
 _symmetry_equiv_pos_site_id
 _symmetry_equiv_pos_as_xyz
  1  'x, y, z'
loop_
 _atom_site_type_symbol
 _atom_site_label
 _atom_site_symmetry_multiplicity
 _atom_site_fract_x
 _atom_site_fract_y
 _atom_site_fract_z
 _atom_site_occupancy
  Fe  Fe0  1  0.958886  0.972291  0.003927  1
  Fe  Fe1  1  0.002899  0.005394  0.199991  1
  Fe  Fe2  1  0.021731  0.977311  0.400496  1
  Fe  Fe3  1  0.021540  0.974450  0.599720  1
  Fe  Fe4  1  0.044819  0.027552  0.795449  1
  Fe  Fe5  1  0.539626  0.474250  0.093632  1
  Fe  Fe6  1  0.486614  0.511637  0.501242  1
  Fe  Fe7  1  0.475351  0.525692  0.298142  1
  Fe  Fe8  1  0.477449  0.513468  0.705915  1
  Fe  Fe9  1  0.499514  0.498008  0.898672  1
  O  O10  1  0.178059  0.824154  0.296993  1
  O  O11  1  0.187248  0.809239  0.499054  1
  O  O12  1  0.188228  0.820653  0.700024  1
  O  O13  1  0.308496  0.307977  0.809451  1
  O  O14  1  0.677425  0.666892  -0.003440  1
  O  O15  1  0.809666  0.188863  0.108546  1
  F  F16  1  0.213601  0.784501  0.107209  1
  F  F17  1  0.198098  0.804156  0.896976  1
  F  F18  1  0.299720  0.287747  -0.000062  1
  F  F19  1  0.304421  0.300900  0.192579  1
  F  F20  1  0.288664  0.294232  0.398672  1
  F  F21  1  0.286550  0.290504  0.600516  1
  F  F22  1  0.704531  0.698807  0.193434  1
  F  F23  1  0.704892  0.710627  0.399139  1
  F  F24  1  0.706884  0.708271  0.602129  1
  F  F25  1  0.713571  0.713342  0.808938  1
  F  F26  1  0.799080  0.198266  0.499755  1
  F  F27  1  0.793640  0.209178  0.301260  1
  F  F28  1  0.803591  0.195947  0.893096  1
  F  F29  1  0.805206  0.205692  0.698545  1
