# generated using pymatgen
data_LiV3O5F3
_symmetry_space_group_name_H-M   'P 1'
_cell_length_a   6.66311893
_cell_length_b   3.79006378
_cell_length_c   12.24968704
_cell_angle_alpha   90.00000000
_cell_angle_beta   75.88490282
_cell_angle_gamma   90.00000000
_symmetry_Int_Tables_number   1
_chemical_formula_structural   LiV3O5F3
_chemical_formula_sum   'Li2 V6 O10 F6'
_cell_volume   300.00931893
_cell_formula_units_Z   2
loop_
 _symmetry_equiv_pos_site_id
 _symmetry_equiv_pos_as_xyz
  1  'x, y, z'
loop_
 _atom_site_type_symbol
 _atom_site_label
 _atom_site_symmetry_multiplicity
 _atom_site_fract_x
 _atom_site_fract_y
 _atom_site_fract_z
 _atom_site_occupancy
  Li  Li0  1  0.185877  0.750000  0.300806  1
  Li  Li1  1  0.809020  0.250000  0.687598  1
  V  V2  1  0.135480  0.250000  0.059151  1
  V  V3  1  0.316275  0.250000  0.538001  1
  V  V4  1  0.244223  0.250000  0.811913  1
  V  V5  1  0.735041  0.750000  0.201126  1
  V  V6  1  0.683818  0.750000  0.461220  1
  V  V7  1  0.889918  0.750000  0.915937  1
  O  O8  1  0.038669  0.750000  0.080365  1
  O  O9  1  0.143715  0.250000  0.673565  1
  O  O10  1  0.194110  0.750000  0.826929  1
  O  O11  1  0.494657  0.750000  0.278376  1
  O  O12  1  0.384392  0.750000  0.517560  1
  O  O13  1  0.351511  0.250000  0.950011  1
  O  O14  1  0.614121  0.250000  0.480869  1
  O  O15  1  0.864160  0.750000  0.329818  1
  O  O16  1  0.775690  0.750000  0.811013  1
  O  O17  1  0.969568  0.250000  0.935050  1
  F  F18  1  0.209289  0.250000  0.198063  1
  F  F19  1  0.173041  0.250000  0.425495  1
  F  F20  1  0.658045  0.750000  0.051948  1
  F  F21  1  0.507410  0.250000  0.714237  1
  F  F22  1  0.796922  0.250000  0.175283  1
  F  F23  1  0.825046  0.750000  0.575666  1
