# generated using pymatgen
data_LiFe4(BO3)4
_symmetry_space_group_name_H-M   'P 1'
_cell_length_a   5.32426558
_cell_length_b   9.02162972
_cell_length_c   11.33264268
_cell_angle_alpha   113.67090987
_cell_angle_beta   77.18193878
_cell_angle_gamma   90.10499696
_symmetry_Int_Tables_number   1
_chemical_formula_structural   LiFe4(BO3)4
_chemical_formula_sum   'Li2 Fe8 B8 O24'
_cell_volume   483.80012449
_cell_formula_units_Z   2
loop_
 _symmetry_equiv_pos_site_id
 _symmetry_equiv_pos_as_xyz
  1  'x, y, z'
loop_
 _atom_site_type_symbol
 _atom_site_label
 _atom_site_symmetry_multiplicity
 _atom_site_fract_x
 _atom_site_fract_y
 _atom_site_fract_z
 _atom_site_occupancy
  Li  Li0  1  0.601015  0.056303  0.097886  1
  Li  Li1  1  0.930451  0.432516  0.840619  1
  Fe  Fe2  1  0.403210  0.265468  0.874423  1
  Fe  Fe3  1  0.099058  0.226445  0.124454  1
  Fe  Fe4  1  0.842621  0.140891  0.617307  1
  Fe  Fe5  1  0.653613  0.354496  0.371784  1
  Fe  Fe6  1  0.349701  0.645416  0.625987  1
  Fe  Fe7  1  0.151003  0.848797  0.368553  1
  Fe  Fe8  1  0.904042  0.782776  0.867234  1
  Fe  Fe9  1  0.602193  0.721938  0.120871  1
  B  B10  1  0.644331  0.013560  0.366855  1
  B  B11  1  0.886965  0.114995  0.876859  1
  B  B12  1  0.143741  0.518178  0.376527  1
  B  B13  1  0.402948  0.596089  0.870584  1
  B  B14  1  0.851353  0.483183  0.623617  1
  B  B15  1  0.604675  0.393524  0.121971  1
  B  B16  1  0.351204  0.980832  0.623082  1
  B  B17  1  0.109403  0.892135  0.122915  1
  O  O18  1  0.118832  0.149725  0.913388  1
  O  O19  1  0.468452  0.126612  0.669828  1
  O  O20  1  0.236621  0.019804  0.117473  1
  O  O21  1  0.557165  0.146523  0.355692  1
  O  O22  1  0.857553  0.016474  0.422077  1
  O  O23  1  0.793566  0.217055  0.823441  1
  O  O24  1  0.281060  0.460645  0.868539  1
  O  O25  1  0.023932  0.375559  0.334979  1
  O  O26  1  0.692795  0.290204  0.172908  1
  O  O27  1  0.636737  0.476106  0.571069  1
  O  O28  1  0.930725  0.354122  0.645707  1
  O  O29  1  0.396780  0.346583  0.064189  1
  O  O30  1  0.631170  0.628487  0.917661  1
  O  O31  1  0.363768  0.518656  0.425578  1
  O  O32  1  0.303376  0.697346  0.823693  1
  O  O33  1  0.973554  0.624762  0.661457  1
  O  O34  1  0.719974  0.528116  0.124265  1
  O  O35  1  0.216615  0.783554  0.164414  1
  O  O36  1  0.138277  0.982903  0.569328  1
  O  O37  1  0.442666  0.846221  0.628635  1
  O  O38  1  0.052945  0.653202  0.369259  1
  O  O39  1  0.751083  0.999468  0.898465  1
  O  O40  1  0.528966  0.867766  0.324085  1
  O  O41  1  0.868704  0.864380  0.088414  1
