# generated using pymatgen
data_Mn2V3Cr(PO4)6
_symmetry_space_group_name_H-M   'P 1'
_cell_length_a   8.62868128
_cell_length_b   8.61557818
_cell_length_c   8.61557817
_cell_angle_alpha   60.00000162
_cell_angle_beta   60.05021967
_cell_angle_gamma   60.05021656
_symmetry_Int_Tables_number   1
_chemical_formula_structural   Mn2V3Cr(PO4)6
_chemical_formula_sum   'Mn2 V3 Cr1 P6 O24'
_cell_volume   453.23926139
_cell_formula_units_Z   1
loop_
 _symmetry_equiv_pos_site_id
 _symmetry_equiv_pos_as_xyz
  1  'x, y, z'
loop_
 _atom_site_type_symbol
 _atom_site_label
 _atom_site_symmetry_multiplicity
 _atom_site_fract_x
 _atom_site_fract_y
 _atom_site_fract_z
 _atom_site_occupancy
  Mn  Mn0  1  0.999253  0.000249  0.000249  1
  Mn  Mn1  1  0.498568  0.500477  0.500477  1
  V  V2  1  0.067219  0.644260  0.644260  1
  V  V3  1  0.430242  0.856586  0.856586  1
  V  V4  1  0.932583  0.355805  0.355805  1
  Cr  Cr5  1  0.571894  0.142702  0.142702  1
  P  P6  1  0.251473  0.249757  0.539774  1
  P  P7  1  0.251473  0.958996  0.249757  1
  P  P8  1  0.251473  0.539774  0.958996  1
  P  P9  1  0.749841  0.458195  0.041705  1
  P  P10  1  0.749841  0.041705  0.750259  1
  P  P11  1  0.749841  0.750259  0.458195  1
  O  O12  1  0.068305  0.119793  0.306831  1
  O  O13  1  0.068305  0.505071  0.119793  1
  O  O14  1  0.068305  0.306831  0.505071  1
  O  O15  1  0.237206  0.085538  0.735759  1
  O  O16  1  0.431694  0.196143  0.381797  1
  O  O17  1  0.258053  0.416060  0.561614  1
  O  O18  1  0.237206  0.941497  0.085538  1
  O  O19  1  0.258053  0.764273  0.416060  1
  O  O20  1  0.568983  0.619459  0.005389  1
  O  O21  1  0.258053  0.561614  0.764273  1
  O  O22  1  0.765194  0.264721  0.056475  1
  O  O23  1  0.568983  0.005389  0.806170  1
  O  O24  1  0.431694  0.990365  0.196143  1
  O  O25  1  0.237206  0.735759  0.941497  1
  O  O26  1  0.738671  0.441631  0.235725  1
  O  O27  1  0.431694  0.381797  0.990365  1
  O  O28  1  0.738671  0.235725  0.583972  1
  O  O29  1  0.765194  0.056475  0.913609  1
  O  O30  1  0.738671  0.583972  0.441631  1
  O  O31  1  0.568983  0.806170  0.619459  1
  O  O32  1  0.765194  0.913609  0.264721  1
  O  O33  1  0.930660  0.690025  0.497669  1
  O  O34  1  0.930660  0.497669  0.881646  1
  O  O35  1  0.930660  0.881646  0.690025  1
