# generated using pymatgen
data_Dy3Co29(Si2B5)2
_symmetry_space_group_name_H-M   'P 1'
_cell_length_a   11.13242993
_cell_length_b   11.13242993
_cell_length_c   7.81722581
_cell_angle_alpha   90.00000000
_cell_angle_beta   90.00000000
_cell_angle_gamma   90.00000000
_symmetry_Int_Tables_number   1
_chemical_formula_structural   Dy3Co29(Si2B5)2
_chemical_formula_sum   'Dy6 Co58 Si8 B20'
_cell_volume   968.79658173
_cell_formula_units_Z   2
loop_
 _symmetry_equiv_pos_site_id
 _symmetry_equiv_pos_as_xyz
  1  'x, y, z'
loop_
 _atom_site_type_symbol
 _atom_site_label
 _atom_site_symmetry_multiplicity
 _atom_site_fract_x
 _atom_site_fract_y
 _atom_site_fract_z
 _atom_site_occupancy
  Dy  Dy0  1  0.000000  0.000000  0.000000  1
  Dy  Dy1  1  0.000000  0.500000  0.000000  1
  Dy  Dy2  1  0.250000  0.750000  0.500000  1
  Dy  Dy3  1  0.500000  0.000000  0.000000  1
  Dy  Dy4  1  0.500000  0.500000  0.000000  1
  Dy  Dy5  1  0.750000  0.250000  0.500000  1
  Co  Co6  1  0.021886  0.250000  0.473994  1
  Co  Co7  1  0.075847  0.588362  0.335778  1
  Co  Co8  1  0.075847  0.911638  0.335778  1
  Co  Co9  1  0.085443  0.250000  0.971179  1
  Co  Co10  1  0.088362  0.575847  0.664222  1
  Co  Co11  1  0.088362  0.924153  0.664222  1
  Co  Co12  1  0.134390  0.134390  0.249808  1
  Co  Co13  1  0.134390  0.365610  0.249808  1
  Co  Co14  1  0.139777  0.750000  0.111618  1
  Co  Co15  1  0.139711  0.139711  0.699251  1
  Co  Co16  1  0.139711  0.360289  0.699251  1
  Co  Co17  1  0.250000  0.085443  0.971179  1
  Co  Co18  1  0.250000  0.021886  0.473994  1
  Co  Co19  1  0.250000  0.250000  0.467411  1
  Co  Co20  1  0.250000  0.639777  0.888382  1
  Co  Co21  1  0.250000  0.860223  0.888382  1
  Co  Co22  1  0.250000  0.414557  0.971179  1
  Co  Co23  1  0.250000  0.478114  0.473994  1
  Co  Co24  1  0.360289  0.139711  0.699251  1
  Co  Co25  1  0.360289  0.360289  0.699251  1
  Co  Co26  1  0.360223  0.750000  0.111618  1
  Co  Co27  1  0.365610  0.134390  0.249808  1
  Co  Co28  1  0.365610  0.365610  0.249808  1
  Co  Co29  1  0.411638  0.575847  0.664222  1
  Co  Co30  1  0.411638  0.924153  0.664222  1
  Co  Co31  1  0.414557  0.250000  0.971179  1
  Co  Co32  1  0.424153  0.588362  0.335778  1
  Co  Co33  1  0.424153  0.911638  0.335778  1
  Co  Co34  1  0.478114  0.250000  0.473994  1
  Co  Co35  1  0.521886  0.750000  0.526006  1
  Co  Co36  1  0.575847  0.088362  0.664222  1
  Co  Co37  1  0.575847  0.411638  0.664222  1
  Co  Co38  1  0.585443  0.750000  0.028821  1
  Co  Co39  1  0.588362  0.075847  0.335778  1
  Co  Co40  1  0.588362  0.424153  0.335778  1
  Co  Co41  1  0.634390  0.634390  0.750192  1
  Co  Co42  1  0.634390  0.865610  0.750192  1
  Co  Co43  1  0.639777  0.250000  0.888382  1
  Co  Co44  1  0.639711  0.639711  0.300749  1
  Co  Co45  1  0.639711  0.860289  0.300749  1
  Co  Co46  1  0.750000  0.914557  0.028821  1
  Co  Co47  1  0.750000  0.978114  0.526006  1
  Co  Co48  1  0.750000  0.139777  0.111618  1
  Co  Co49  1  0.750000  0.360223  0.111618  1
  Co  Co50  1  0.750000  0.521886  0.526006  1
  Co  Co51  1  0.750000  0.585443  0.028821  1
  Co  Co52  1  0.750000  0.750000  0.532589  1
  Co  Co53  1  0.860289  0.639711  0.300749  1
  Co  Co54  1  0.860289  0.860289  0.300749  1
  Co  Co55  1  0.860223  0.250000  0.888382  1
  Co  Co56  1  0.865610  0.634390  0.750192  1
  Co  Co57  1  0.865610  0.865610  0.750192  1
  Co  Co58  1  0.911638  0.075847  0.335778  1
  Co  Co59  1  0.911638  0.424153  0.335778  1
  Co  Co60  1  0.914557  0.750000  0.028821  1
  Co  Co61  1  0.924153  0.088362  0.664222  1
  Co  Co62  1  0.924153  0.411638  0.664222  1
  Co  Co63  1  0.978114  0.750000  0.526006  1
  Si  Si64  1  0.067795  0.750000  0.825050  1
  Si  Si65  1  0.250000  0.567795  0.174950  1
  Si  Si66  1  0.250000  0.932205  0.174950  1
  Si  Si67  1  0.432205  0.750000  0.825050  1
  Si  Si68  1  0.567795  0.250000  0.174950  1
  Si  Si69  1  0.750000  0.067795  0.825050  1
  Si  Si70  1  0.750000  0.432205  0.825050  1
  Si  Si71  1  0.932205  0.250000  0.174950  1
  B  B72  1  0.063667  0.063667  0.482395  1
  B  B73  1  0.063667  0.436333  0.482395  1
  B  B74  1  0.005828  0.750000  0.263410  1
  B  B75  1  0.250000  0.250000  0.108569  1
  B  B76  1  0.250000  0.250000  0.851186  1
  B  B77  1  0.250000  0.505828  0.736590  1
  B  B78  1  0.250000  0.994172  0.736590  1
  B  B79  1  0.494172  0.750000  0.263410  1
  B  B80  1  0.436333  0.063667  0.482395  1
  B  B81  1  0.436333  0.436333  0.482395  1
  B  B82  1  0.563667  0.563667  0.517605  1
  B  B83  1  0.563667  0.936333  0.517605  1
  B  B84  1  0.505828  0.250000  0.736590  1
  B  B85  1  0.750000  0.005828  0.263410  1
  B  B86  1  0.750000  0.494172  0.263410  1
  B  B87  1  0.750000  0.750000  0.148814  1
  B  B88  1  0.750000  0.750000  0.891431  1
  B  B89  1  0.994172  0.250000  0.736590  1
  B  B90  1  0.936333  0.936333  0.517605  1
  B  B91  1  0.936333  0.563667  0.517605  1
