# generated using pymatgen
data_Na3BiBAsO7
_symmetry_space_group_name_H-M   'P 1'
_cell_length_a   9.48213221
_cell_length_b   7.33367991
_cell_length_c   5.40328265
_cell_angle_alpha   90.00000000
_cell_angle_beta   91.04410211
_cell_angle_gamma   90.00000000
_symmetry_Int_Tables_number   1
_chemical_formula_structural   Na3BiBAsO7
_chemical_formula_sum   'Na6 Bi2 B2 As2 O14'
_cell_volume   375.67606775
_cell_formula_units_Z   2
loop_
 _symmetry_equiv_pos_site_id
 _symmetry_equiv_pos_as_xyz
  1  'x, y, z'
loop_
 _atom_site_type_symbol
 _atom_site_label
 _atom_site_symmetry_multiplicity
 _atom_site_fract_x
 _atom_site_fract_y
 _atom_site_fract_z
 _atom_site_occupancy
  Na  Na0  1  0.066155  0.250000  0.758042  1
  Na  Na1  1  0.235623  0.009971  0.245252  1
  Na  Na2  1  0.235623  0.490029  0.245252  1
  Na  Na3  1  0.764377  0.509971  0.754749  1
  Na  Na4  1  0.764377  0.990029  0.754749  1
  Na  Na5  1  0.933845  0.750000  0.241958  1
  Bi  Bi6  1  0.338146  0.750000  0.768246  1
  Bi  Bi7  1  0.661854  0.250000  0.231754  1
  B  B8  1  0.053323  0.750000  0.729726  1
  B  B9  1  0.946677  0.250000  0.270274  1
  As  As10  1  0.402764  0.250000  0.703314  1
  As  As11  1  0.597236  0.750000  0.296686  1
  O  O12  1  0.088306  0.250000  0.287510  1
  O  O13  1  0.129049  0.750000  0.959929  1
  O  O14  1  0.140522  0.750000  0.519300  1
  O  O15  1  0.306862  0.067129  0.815585  1
  O  O16  1  0.306862  0.432871  0.815585  1
  O  O17  1  0.399511  0.250000  0.387033  1
  O  O18  1  0.420109  0.750000  0.207473  1
  O  O19  1  0.579891  0.250000  0.792527  1
  O  O20  1  0.600489  0.750000  0.612967  1
  O  O21  1  0.693138  0.567129  0.184415  1
  O  O22  1  0.693138  0.932871  0.184415  1
  O  O23  1  0.859478  0.250000  0.480700  1
  O  O24  1  0.870951  0.250000  0.040071  1
  O  O25  1  0.911694  0.750000  0.712490  1
