# generated using pymatgen
data_Na2In2P4H6O17
_symmetry_space_group_name_H-M   'P 1'
_cell_length_a   9.41861529
_cell_length_b   9.60377478
_cell_length_c   9.36900758
_cell_angle_alpha   90.00588379
_cell_angle_beta   99.19942010
_cell_angle_gamma   60.90855781
_symmetry_Int_Tables_number   1
_chemical_formula_structural   Na2In2P4H6O17
_chemical_formula_sum   'Na4 In4 P8 H12 O34'
_cell_volume   728.06312111
_cell_formula_units_Z   2
loop_
 _symmetry_equiv_pos_site_id
 _symmetry_equiv_pos_as_xyz
  1  'x, y, z'
loop_
 _atom_site_type_symbol
 _atom_site_label
 _atom_site_symmetry_multiplicity
 _atom_site_fract_x
 _atom_site_fract_y
 _atom_site_fract_z
 _atom_site_occupancy
  Na  Na0  1  0.889691  0.198976  0.250980  1
  Na  Na1  1  0.520248  0.702051  0.693750  1
  Na  Na2  1  0.479752  0.297949  0.306250  1
  Na  Na3  1  0.110309  0.801024  0.749020  1
  In  In4  1  0.752417  0.709912  0.132936  1
  In  In5  1  0.739387  0.218553  0.631610  1
  In  In6  1  0.260613  0.781447  0.368390  1
  In  In7  1  0.247583  0.290088  0.867064  1
  P  P8  1  0.848202  0.915575  0.404823  1
  P  P9  1  0.837355  0.418162  0.889145  1
  P  P10  1  0.693630  0.548024  0.420766  1
  P  P11  1  0.338917  0.994393  0.138585  1
  P  P12  1  0.661083  0.005607  0.861415  1
  P  P13  1  0.306370  0.451976  0.579234  1
  P  P14  1  0.162645  0.581838  0.110855  1
  P  P15  1  0.151798  0.084425  0.595177  1
  H  H16  1  0.959908  0.799250  0.990024  1
  H  H17  1  0.876354  0.730077  0.558434  1
  H  H18  1  0.879053  0.495138  0.631343  1
  H  H19  1  0.458953  0.010583  0.707623  1
  H  H20  1  0.600479  0.396907  0.090413  1
  H  H21  1  0.591076  0.243902  0.042498  1
  H  H22  1  0.408924  0.756098  0.957502  1
  H  H23  1  0.399521  0.603093  0.909587  1
  H  H24  1  0.541047  0.989417  0.292377  1
  H  H25  1  0.120947  0.504862  0.368657  1
  H  H26  1  0.123646  0.269923  0.441566  1
  H  H27  1  0.040092  0.200750  0.009976  1
  O  O28  1  0.987044  0.912717  0.336567  1
  O  O29  1  0.932350  0.793800  0.549444  1
  O  O30  1  0.738663  0.860240  0.309826  1
  O  O31  1  0.976566  0.411205  0.815793  1
  O  O32  1  0.918393  0.275274  0.014470  1
  O  O33  1  0.770321  0.877847  0.990326  1
  O  O34  1  0.811755  0.578994  0.548765  1
  O  O35  1  0.760395  0.534082  0.279059  1
  O  O36  1  0.577495  0.928542  0.749598  1
  O  O37  1  0.478199  0.843184  0.089485  1
  O  O38  1  0.738960  0.576838  0.952982  1
  O  O39  1  0.700641  0.389145  0.457442  1
  O  O40  1  0.524777  0.696586  0.419353  1
  O  O41  1  0.709450  0.401486  0.775129  1
  O  O42  1  0.626502  0.291275  0.126802  1
  O  O43  1  0.733604  0.084677  0.443956  1
  O  O44  1  0.780382  0.037635  0.791403  1
  O  O45  1  0.219618  0.962365  0.208597  1
  O  O46  1  0.266396  0.915323  0.556044  1
  O  O47  1  0.373498  0.708725  0.873198  1
  O  O48  1  0.290550  0.598514  0.224871  1
  O  O49  1  0.475223  0.303414  0.580647  1
  O  O50  1  0.299359  0.610855  0.542559  1
  O  O51  1  0.261040  0.423162  0.047018  1
  O  O52  1  0.521801  0.156816  0.910515  1
  O  O53  1  0.422505  0.071458  0.250402  1
  O  O54  1  0.239605  0.465918  0.720941  1
  O  O55  1  0.188245  0.421006  0.451235  1
  O  O56  1  0.229679  0.122153  0.009674  1
  O  O57  1  0.081607  0.724726  0.985530  1
  O  O58  1  0.023434  0.588795  0.184207  1
  O  O59  1  0.261337  0.139760  0.690174  1
  O  O60  1  0.067650  0.206200  0.450556  1
  O  O61  1  0.012956  0.087283  0.663433  1
