# generated using pymatgen
data_CaMgB6H12O17
_symmetry_space_group_name_H-M   'P 1'
_cell_length_a   11.80535636
_cell_length_b   6.70067825
_cell_length_c   8.33751949
_cell_angle_alpha   90.00000000
_cell_angle_beta   102.11185436
_cell_angle_gamma   90.00000000
_symmetry_Int_Tables_number   1
_chemical_formula_structural   CaMgB6H12O17
_chemical_formula_sum   'Ca2 Mg2 B12 H24 O34'
_cell_volume   644.84901773
_cell_formula_units_Z   2
loop_
 _symmetry_equiv_pos_site_id
 _symmetry_equiv_pos_as_xyz
  1  'x, y, z'
loop_
 _atom_site_type_symbol
 _atom_site_label
 _atom_site_symmetry_multiplicity
 _atom_site_fract_x
 _atom_site_fract_y
 _atom_site_fract_z
 _atom_site_occupancy
  Ca  Ca0  1  0.500000  0.520890  0.750000  1
  Ca  Ca1  1  0.500000  0.479110  0.250000  1
  Mg  Mg2  1  0.000000  0.000000  0.500000  1
  Mg  Mg3  1  0.000000  0.000000  0.000000  1
  B  B4  1  0.231392  0.493774  0.844933  1
  B  B5  1  0.224222  0.710985  0.593726  1
  B  B6  1  0.231392  0.506226  0.344933  1
  B  B7  1  0.224222  0.289015  0.093726  1
  B  B8  1  0.384188  0.235213  0.950848  1
  B  B9  1  0.384188  0.764787  0.450848  1
  B  B10  1  0.615812  0.235213  0.549152  1
  B  B11  1  0.615812  0.764787  0.049152  1
  B  B12  1  0.775778  0.710985  0.906274  1
  B  B13  1  0.768608  0.493774  0.655067  1
  B  B14  1  0.775778  0.289015  0.406274  1
  B  B15  1  0.768608  0.506226  0.155067  1
  H  H16  1  0.026453  0.349011  0.909323  1
  H  H17  1  0.069582  0.789826  0.760562  1
  H  H18  1  0.026453  0.650989  0.409323  1
  H  H19  1  0.099143  0.370666  0.548213  1
  H  H20  1  0.069582  0.210174  0.260562  1
  H  H21  1  0.220796  0.028126  0.975370  1
  H  H22  1  0.099143  0.629334  0.048213  1
  H  H23  1  0.220796  0.971874  0.475370  1
  H  H24  1  0.349815  0.987867  0.790881  1
  H  H25  1  0.440340  0.836659  0.996146  1
  H  H26  1  0.349815  0.012133  0.290881  1
  H  H27  1  0.440340  0.163341  0.496146  1
  H  H28  1  0.559660  0.836659  0.503854  1
  H  H29  1  0.650185  0.987867  0.709119  1
  H  H30  1  0.559660  0.163341  0.003854  1
  H  H31  1  0.650185  0.012133  0.209119  1
  H  H32  1  0.779204  0.028126  0.524630  1
  H  H33  1  0.900857  0.370666  0.951787  1
  H  H34  1  0.779204  0.971874  0.024630  1
  H  H35  1  0.930418  0.789826  0.739438  1
  H  H36  1  0.900857  0.629334  0.451787  1
  H  H37  1  0.973547  0.349011  0.590677  1
  H  H38  1  0.930418  0.210174  0.239438  1
  H  H39  1  0.973547  0.650989  0.090677  1
  O  O40  1  0.000000  0.879999  0.750000  1
  O  O41  1  0.046716  0.277089  0.591387  1
  O  O42  1  0.000000  0.120001  0.250000  1
  O  O43  1  0.175518  0.451691  0.971379  1
  O  O44  1  0.046716  0.722911  0.091387  1
  O  O45  1  0.190848  0.656734  0.748334  1
  O  O46  1  0.167728  0.904368  0.536150  1
  O  O47  1  0.175518  0.548309  0.471379  1
  O  O48  1  0.190848  0.343266  0.248334  1
  O  O49  1  0.167728  0.095632  0.036150  1
  O  O50  1  0.324147  0.380176  0.821955  1
  O  O51  1  0.354848  0.023728  0.905219  1
  O  O52  1  0.349045  0.728308  0.607938  1
  O  O53  1  0.324147  0.619824  0.321954  1
  O  O54  1  0.354848  0.976272  0.405219  1
  O  O55  1  0.349045  0.271692  0.107938  1
  O  O56  1  0.508511  0.281488  0.968821  1
  O  O57  1  0.491489  0.281488  0.531179  1
  O  O58  1  0.508511  0.718512  0.468821  1
  O  O59  1  0.491489  0.718512  0.031179  1
  O  O60  1  0.650955  0.728308  0.892062  1
  O  O61  1  0.645152  0.023728  0.594781  1
  O  O62  1  0.675853  0.380176  0.678045  1
  O  O63  1  0.650955  0.271692  0.392062  1
  O  O64  1  0.645152  0.976272  0.094781  1
  O  O65  1  0.675853  0.619824  0.178045  1
  O  O66  1  0.832272  0.904368  0.963850  1
  O  O67  1  0.809152  0.656734  0.751666  1
  O  O68  1  0.824482  0.451691  0.528621  1
  O  O69  1  0.832272  0.095632  0.463850  1
  O  O70  1  0.809152  0.343266  0.251666  1
  O  O71  1  0.953284  0.277089  0.908613  1
  O  O72  1  0.824482  0.548309  0.028621  1
  O  O73  1  0.953284  0.722911  0.408613  1
