# generated using pymatgen
data_Li2MnO2F
_symmetry_space_group_name_H-M   'P 1'
_cell_length_a   5.17934116
_cell_length_b   5.20670239
_cell_length_c   9.78543704
_cell_angle_alpha   85.32313101
_cell_angle_beta   99.43529116
_cell_angle_gamma   119.82631119
_symmetry_Int_Tables_number   1
_chemical_formula_structural   Li2MnO2F
_chemical_formula_sum   'Li8 Mn4 O8 F4'
_cell_volume   225.83438404
_cell_formula_units_Z   4
loop_
 _symmetry_equiv_pos_site_id
 _symmetry_equiv_pos_as_xyz
  1  'x, y, z'
loop_
 _atom_site_type_symbol
 _atom_site_label
 _atom_site_symmetry_multiplicity
 _atom_site_fract_x
 _atom_site_fract_y
 _atom_site_fract_z
 _atom_site_occupancy
  Li  Li0  1  0.163708  0.823211  0.495438  1
  Li  Li1  1  0.999295  0.493239  0.999938  1
  Li  Li2  1  0.090952  0.181904  0.250000  1
  Li  Li3  1  0.659503  0.823211  0.004562  1
  Li  Li4  1  0.493945  0.493239  0.500062  1
  Li  Li5  1  0.329474  0.186592  0.005496  1
  Li  Li6  1  0.748761  0.497522  0.250000  1
  Li  Li7  1  0.857117  0.186592  0.494504  1
  Mn  Mn8  1  0.251129  0.502257  0.750000  1
  Mn  Mn9  1  0.395468  0.790938  0.250000  1
  Mn  Mn10  1  0.587497  0.174993  0.750000  1
  Mn  Mn11  1  0.922802  0.845602  0.750000  1
  O  O12  1  0.283893  0.868677  0.860117  1
  O  O13  1  0.145171  0.514013  0.368972  1
  O  O14  1  0.239591  0.158898  0.630137  1
  O  O15  1  0.584783  0.868677  0.639883  1
  O  O16  1  0.368841  0.514013  0.131028  1
  O  O17  1  0.630550  0.481867  0.867616  1
  O  O18  1  0.851316  0.481867  0.632384  1
  O  O19  1  0.919307  0.158898  0.869863  1
  F  F20  1  0.027882  0.838574  0.122178  1
  F  F21  1  0.461342  0.138323  0.365574  1
  F  F22  1  0.810693  0.838574  0.377822  1
  F  F23  1  0.676981  0.138323  0.134426  1
