# generated using pymatgen
data_Li4Ti2Nb3Ni3O16
_symmetry_space_group_name_H-M   'P 1'
_cell_length_a   6.03142167
_cell_length_b   5.99186937
_cell_length_c   9.77231610
_cell_angle_alpha   90.00040235
_cell_angle_beta   90.66587798
_cell_angle_gamma   119.78904999
_symmetry_Int_Tables_number   1
_chemical_formula_structural   Li4Ti2Nb3Ni3O16
_chemical_formula_sum   'Li4 Ti2 Nb3 Ni3 O16'
_cell_volume   306.47175106
_cell_formula_units_Z   1
loop_
 _symmetry_equiv_pos_site_id
 _symmetry_equiv_pos_as_xyz
  1  'x, y, z'
loop_
 _atom_site_type_symbol
 _atom_site_label
 _atom_site_symmetry_multiplicity
 _atom_site_fract_x
 _atom_site_fract_y
 _atom_site_fract_z
 _atom_site_occupancy
  Li  Li0  1  0.332879  0.666455  0.892155  1
  Li  Li1  1  0.969304  0.984606  0.985172  1
  Li  Li2  1  0.982538  0.991249  0.501747  1
  Li  Li3  1  0.668182  0.334149  0.403875  1
  Ti  Ti4  1  0.339795  0.669890  0.507521  1
  Ti  Ti5  1  0.716134  0.357989  0.981065  1
  Nb  Nb6  1  0.182211  0.839975  0.217124  1
  Nb  Nb7  1  0.182218  0.342288  0.217117  1
  Nb  Nb8  1  0.354021  0.177115  0.725679  1
  Ni  Ni9  1  0.659937  0.830012  0.208849  1
  Ni  Ni10  1  0.830891  0.660603  0.708541  1
  Ni  Ni11  1  0.830933  0.170158  0.708591  1
  O  O12  1  0.182061  0.838302  0.594200  1
  O  O13  1  0.027709  0.513839  0.340804  1
  O  O14  1  0.326116  0.663095  0.094358  1
  O  O15  1  0.989646  0.994827  0.314612  1
  O  O16  1  0.007413  0.003627  0.800537  1
  O  O17  1  0.181908  0.343741  0.594306  1
  O  O18  1  0.468272  0.958947  0.343685  1
  O  O19  1  0.468222  0.509412  0.343700  1
  O  O20  1  0.332500  0.166271  0.095266  1
  O  O21  1  0.652518  0.826424  0.592120  1
  O  O22  1  0.511185  0.474154  0.849337  1
  O  O23  1  0.511254  0.037092  0.849232  1
  O  O24  1  0.647967  0.324103  0.601621  1
  O  O25  1  0.842389  0.664988  0.093854  1
  O  O26  1  0.959402  0.479619  0.848946  1
  O  O27  1  0.842396  0.177367  0.093826  1
