# generated using pymatgen
data_Li4Ti3Mn6O18
_symmetry_space_group_name_H-M   'P 1'
_cell_length_a   9.04317292
_cell_length_b   25.92411410
_cell_length_c   2.90935316
_cell_angle_alpha   90.00003034
_cell_angle_beta   90.00008551
_cell_angle_gamma   90.01342959
_symmetry_Int_Tables_number   1
_chemical_formula_structural   Li4Ti3Mn6O18
_chemical_formula_sum   'Li8 Ti6 Mn12 O36'
_cell_volume   682.05781576
_cell_formula_units_Z   2
loop_
 _symmetry_equiv_pos_site_id
 _symmetry_equiv_pos_as_xyz
  1  'x, y, z'
loop_
 _atom_site_type_symbol
 _atom_site_label
 _atom_site_symmetry_multiplicity
 _atom_site_fract_x
 _atom_site_fract_y
 _atom_site_fract_z
 _atom_site_occupancy
  Li  Li0  1  0.194657  0.987511  0.999998  1
  Li  Li1  1  0.205672  0.202276  0.000000  1
  Li  Li2  1  0.293922  0.702338  0.999999  1
  Li  Li3  1  0.304936  0.487476  0.000001  1
  Li  Li4  1  0.695023  0.517694  0.999999  1
  Li  Li5  1  0.697071  0.304876  0.000000  1
  Li  Li6  1  0.803018  0.804870  0.999998  1
  Li  Li7  1  0.805383  0.017633  0.999999  1
  Ti  Ti8  1  0.000132  0.102979  0.999998  1
  Ti  Ti9  1  0.500024  0.603036  0.999999  1
  Ti  Ti10  1  0.497460  0.396373  0.999999  1
  Ti  Ti11  1  0.645537  0.693147  0.500001  1
  Ti  Ti12  1  0.854334  0.192985  0.500000  1
  Ti  Ti13  1  0.002510  0.896445  0.000001  1
  Mn  Mn14  1  0.998084  0.500350  0.000006  1
  Mn  Mn15  1  0.023475  0.308143  0.000001  1
  Mn  Mn16  1  0.149846  0.587048  0.500003  1
  Mn  Mn17  1  0.147820  0.807232  0.500001  1
  Mn  Mn18  1  0.352183  0.307086  0.500000  1
  Mn  Mn19  1  0.350234  0.086987  0.500003  1
  Mn  Mn20  1  0.476468  0.808323  0.000001  1
  Mn  Mn21  1  0.501834  0.000338  -0.000002  1
  Mn  Mn22  1  0.515078  0.192380  0.000001  1
  Mn  Mn23  1  0.650224  0.912791  0.499987  1
  Mn  Mn24  1  0.849844  0.412691  0.499999  1
  Mn  Mn25  1  0.984816  0.692468  -0.000002  1
  O  O26  1  0.988137  0.425847  0.000003  1
  O  O27  1  0.009435  0.575103  0.000004  1
  O  O28  1  0.060434  0.939604  0.500002  1
  O  O29  1  0.051457  0.156952  0.500001  1
  O  O30  1  0.110983  0.667726  0.500003  1
  O  O31  1  0.104184  0.761563  0.000002  1
  O  O32  1  0.142163  0.500069  0.500005  1
  O  O33  1  0.150307  0.282356  0.500003  1
  O  O34  1  0.189603  0.855082  0.000002  1
  O  O35  1  0.205672  0.082649  0.000003  1
  O  O36  1  0.294403  0.582736  0.000002  1
  O  O37  1  0.310482  0.354906  0.000000  1
  O  O38  1  0.349634  0.782506  0.500002  1
  O  O39  1  0.357813  0.000029  0.499998  1
  O  O40  1  0.395740  0.261388  -0.000000  1
  O  O41  1  0.389020  0.167589  0.499999  1
  O  O42  1  0.448626  0.657004  0.499999  1
  O  O43  1  0.439652  0.439543  0.500000  1
  O  O44  1  0.490648  0.075073  0.000000  1
  O  O45  1  0.511826  0.925849  0.999990  1
  O  O46  1  0.557527  0.558806  0.499999  1
  O  O47  1  0.547911  0.340723  0.500001  1
  O  O48  1  0.602396  0.833528  0.500000  1
  O  O49  1  0.599733  0.738594  0.000001  1
  O  O50  1  0.646712  0.999940  0.499997  1
  O  O51  1  0.645916  0.213751  0.500000  1
  O  O52  1  0.685793  0.642525  0.000000  1
  O  O53  1  0.703594  0.412745  1.000000  1
  O  O54  1  0.796460  0.912873  0.999990  1
  O  O55  1  0.814186  0.142359  -0.000000  1
  O  O56  1  0.854083  0.713875  0.500002  1
  O  O57  1  0.853277  0.499926  0.500002  1
  O  O58  1  0.900453  0.238398  0.000001  1
  O  O59  1  0.897558  0.333371  0.500002  1
  O  O60  1  0.952049  0.840798  0.500000  1
  O  O61  1  0.942549  0.058745  0.499999  1
