# generated using pymatgen
data_LiCo2OF3
_symmetry_space_group_name_H-M   'P 1'
_cell_length_a   8.14518772
_cell_length_b   8.14518772
_cell_length_c   5.92102487
_cell_angle_alpha   68.68669268
_cell_angle_beta   111.31330732
_cell_angle_gamma   115.43095961
_symmetry_Int_Tables_number   1
_chemical_formula_structural   LiCo2OF3
_chemical_formula_sum   'Li4 Co8 O4 F12'
_cell_volume   320.30038093
_cell_formula_units_Z   4
loop_
 _symmetry_equiv_pos_site_id
 _symmetry_equiv_pos_as_xyz
  1  'x, y, z'
loop_
 _atom_site_type_symbol
 _atom_site_label
 _atom_site_symmetry_multiplicity
 _atom_site_fract_x
 _atom_site_fract_y
 _atom_site_fract_z
 _atom_site_occupancy
  Li  Li0  1  0.763573  0.532212  0.115680  1
  Li  Li1  1  0.032212  0.263573  0.384320  1
  Li  Li2  1  0.978615  0.743570  0.617522  1
  Li  Li3  1  0.243570  0.478615  0.882478  1
  Co  Co4  1  0.979576  0.986294  0.996641  1
  Co  Co5  1  0.380638  0.115713  0.392355  1
  Co  Co6  1  0.615713  0.880638  0.107645  1
  Co  Co7  1  0.232726  0.732726  0.250000  1
  Co  Co8  1  0.486294  0.479576  0.503359  1
  Co  Co9  1  0.777361  0.277361  0.750000  1
  Co  Co10  1  0.380638  0.115713  0.872569  1
  Co  Co11  1  0.615713  0.880638  0.627431  1
  O  O12  1  0.739852  0.781944  0.978955  1
  O  O13  1  0.281944  0.239852  0.521045  1
  O  O14  1  0.467354  0.967354  0.250000  1
  O  O15  1  0.543159  0.043159  0.750000  1
  F  F16  1  0.882386  0.134110  0.116946  1
  F  F17  1  0.007590  0.507590  0.250000  1
  F  F18  1  0.634110  0.382386  0.383054  1
  F  F19  1  0.373225  0.617769  0.138730  1
  F  F20  1  0.882386  0.134110  0.631332  1
  F  F21  1  0.713840  0.739418  0.487211  1
  F  F22  1  0.117769  0.873225  0.361270  1
  F  F23  1  0.373225  0.617769  0.616726  1
  F  F24  1  0.634110  0.382386  0.868668  1
  F  F25  1  0.005235  0.505235  0.750000  1
  F  F26  1  0.239419  0.213840  0.012789  1
  F  F27  1  0.117769  0.873225  0.883274  1
