# generated using pymatgen
data_Zr2N2O
_symmetry_space_group_name_H-M   'P 1'
_cell_length_a   8.88022006
_cell_length_b   8.89369873
_cell_length_c   8.87849084
_cell_angle_alpha   109.61925198
_cell_angle_beta   109.47510430
_cell_angle_gamma   109.50774556
_symmetry_Int_Tables_number   1
_chemical_formula_structural   Zr2N2O
_chemical_formula_sum   'Zr16 N16 O8'
_cell_volume   538.52852711
_cell_formula_units_Z   8
loop_
 _symmetry_equiv_pos_site_id
 _symmetry_equiv_pos_as_xyz
  1  'x, y, z'
loop_
 _atom_site_type_symbol
 _atom_site_label
 _atom_site_symmetry_multiplicity
 _atom_site_fract_x
 _atom_site_fract_y
 _atom_site_fract_z
 _atom_site_occupancy
  Zr  Zr0  1  0.494155  0.010451  0.001904  1
  Zr  Zr1  1  0.960171  0.241026  0.213462  1
  Zr  Zr2  1  0.786295  0.036785  0.750228  1
  Zr  Zr3  1  0.704750  0.460704  0.242993  1
  Zr  Zr4  1  0.751618  0.781649  0.042258  1
  Zr  Zr5  1  0.757442  0.288816  0.541114  1
  Zr  Zr6  1  0.001658  0.488412  0.991551  1
  Zr  Zr7  1  0.501972  0.509867  0.504020  1
  Zr  Zr8  1  0.529218  0.739703  0.286749  1
  Zr  Zr9  1  0.010826  0.000487  0.503122  1
  Zr  Zr10  1  0.465167  0.255162  0.720380  1
  Zr  Zr11  1  0.255580  0.726948  0.465389  1
  Zr  Zr12  1  0.243046  0.211935  0.959859  1
  Zr  Zr13  1  0.214433  0.962848  0.248875  1
  Zr  Zr14  1  0.288353  0.537459  0.751243  1
  Zr  Zr15  1  0.048815  0.758956  0.787861  1
  N  N16  1  0.011440  0.045552  0.269243  1
  N  N17  1  0.740787  0.227887  0.274388  1
  N  N18  1  0.455702  0.465569  0.232066  1
  N  N19  1  0.770384  0.723874  0.256306  1
  N  N20  1  0.726936  0.259367  0.768365  1
  N  N21  1  0.272536  0.737286  0.222168  1
  N  N22  1  0.513043  0.239449  0.966355  1
  N  N23  1  0.534461  0.772055  0.547126  1
  N  N24  1  0.223195  0.273907  0.737278  1
  N  N25  1  0.272810  0.008095  0.045355  1
  N  N26  1  0.545974  0.537748  0.771292  1
  N  N27  1  0.241480  0.969146  0.511553  1
  N  N28  1  0.041759  0.271777  0.014553  1
  N  N29  1  0.263499  0.771940  0.727617  1
  N  N30  1  0.031473  0.489070  0.760135  1
  N  N31  1  0.982331  0.947085  0.720478  1
  O  O32  1  0.970493  0.515252  0.244499  1
  O  O33  1  0.953462  0.725805  0.991864  1
  O  O34  1  0.760432  0.033957  0.488661  1
  O  O35  1  0.724352  0.986709  0.953462  1
  O  O36  1  0.464913  0.229575  0.452471  1
  O  O37  1  0.492345  0.763640  0.034036  1
  O  O38  1  0.765972  0.540317  0.536560  1
  O  O39  1  0.226719  0.453731  0.463155  1
