# generated using pymatgen
data_Li2Mn2OF6
_symmetry_space_group_name_H-M   'P 1'
_cell_length_a   5.28011319
_cell_length_b   5.28011319
_cell_length_c   10.94530171
_cell_angle_alpha   78.68117794
_cell_angle_beta   101.31882206
_cell_angle_gamma   78.96795722
_symmetry_Int_Tables_number   1
_chemical_formula_structural   Li2Mn2OF6
_chemical_formula_sum   'Li4 Mn4 O2 F12'
_cell_volume   284.88662501
_cell_formula_units_Z   2
loop_
 _symmetry_equiv_pos_site_id
 _symmetry_equiv_pos_as_xyz
  1  'x, y, z'
loop_
 _atom_site_type_symbol
 _atom_site_label
 _atom_site_symmetry_multiplicity
 _atom_site_fract_x
 _atom_site_fract_y
 _atom_site_fract_z
 _atom_site_occupancy
  Li  Li0  1  0.502350  0.949239  0.710319  1
  Li  Li1  1  0.050761  0.497650  0.210319  1
  Li  Li2  1  0.048691  0.448554  0.787703  1
  Li  Li3  1  0.551446  0.951309  0.287703  1
  Mn  Mn4  1  0.141435  0.650750  0.496932  1
  Mn  Mn5  1  0.627083  0.366746  0.937929  1
  Mn  Mn6  1  0.349250  0.858565  0.996932  1
  Mn  Mn7  1  0.633254  0.372917  0.437929  1
  O  O8  1  0.299071  0.595361  0.910801  1
  O  O9  1  0.404639  0.700929  0.410801  1
  F  F10  1  0.262784  0.772215  0.639256  1
  F  F11  1  0.928114  0.465944  0.592686  1
  F  F12  1  0.734058  0.633928  0.813863  1
  F  F13  1  0.227785  0.737216  0.139256  1
  F  F14  1  0.534056  0.071886  0.092686  1
  F  F15  1  0.416693  0.110208  0.849671  1
  F  F16  1  0.474281  0.253361  0.583400  1
  F  F17  1  0.955799  0.144056  0.927442  1
  F  F18  1  0.366072  0.265942  0.313863  1
  F  F19  1  0.889792  0.583307  0.349671  1
  F  F20  1  0.746639  0.525719  0.083400  1
  F  F21  1  0.855944  0.044201  0.427442  1
