# generated using pymatgen
data_CdRe2H8C2(N2O5)2
_symmetry_space_group_name_H-M   'P 1'
_cell_length_a   15.79618660
_cell_length_b   10.51898120
_cell_length_c   8.30276896
_cell_angle_alpha   90.00000000
_cell_angle_beta   94.64047295
_cell_angle_gamma   90.00000000
_symmetry_Int_Tables_number   1
_chemical_formula_structural   CdRe2H8C2(N2O5)2
_chemical_formula_sum   'Cd4 Re8 H32 C8 N16 O40'
_cell_volume   1375.06403171
_cell_formula_units_Z   4
loop_
 _symmetry_equiv_pos_site_id
 _symmetry_equiv_pos_as_xyz
  1  'x, y, z'
loop_
 _atom_site_type_symbol
 _atom_site_label
 _atom_site_symmetry_multiplicity
 _atom_site_fract_x
 _atom_site_fract_y
 _atom_site_fract_z
 _atom_site_occupancy
  Cd  Cd0  1  0.252225  0.428975  0.122106  1
  Cd  Cd1  1  0.747775  0.928975  0.377894  1
  Cd  Cd2  1  0.747775  0.571025  0.877894  1
  Cd  Cd3  1  0.252225  0.071025  0.622106  1
  Re  Re4  1  0.150397  0.095363  0.031336  1
  Re  Re5  1  0.849603  0.595363  0.468664  1
  Re  Re6  1  0.849603  0.904637  0.968664  1
  Re  Re7  1  0.150397  0.404637  0.531336  1
  Re  Re8  1  0.414245  0.314881  0.812612  1
  Re  Re9  1  0.585755  0.814881  0.687388  1
  Re  Re10  1  0.585755  0.685119  0.187388  1
  Re  Re11  1  0.414245  0.185119  0.312612  1
  H  H12  1  0.406784  0.653666  0.513233  1
  H  H13  1  0.593217  0.153666  0.986767  1
  H  H14  1  0.593217  0.346334  0.486767  1
  H  H15  1  0.406784  0.846334  0.013233  1
  H  H16  1  0.375018  0.515866  0.409166  1
  H  H17  1  0.624982  0.015866  0.090834  1
  H  H18  1  0.624982  0.484134  0.590834  1
  H  H19  1  0.375018  0.984134  0.909166  1
  H  H20  1  0.354635  0.850662  0.427392  1
  H  H21  1  0.645365  0.350662  0.072608  1
  H  H22  1  0.645365  0.149338  0.572608  1
  H  H23  1  0.354635  0.649338  0.927392  1
  H  H24  1  0.283949  0.860937  0.253191  1
  H  H25  1  0.716051  0.360937  0.246809  1
  H  H26  1  0.716051  0.139063  0.746809  1
  H  H27  1  0.283949  0.639063  0.753191  1
  H  H28  1  0.984522  0.655501  0.827469  1
  H  H29  1  0.015478  0.155501  0.672531  1
  H  H30  1  0.015478  0.344499  0.172531  1
  H  H31  1  0.984522  0.844499  0.327469  1
  H  H32  1  0.010391  0.504323  0.761136  1
  H  H33  1  0.989609  0.004323  0.738864  1
  H  H34  1  0.989609  0.495677  0.238864  1
  H  H35  1  0.010391  0.995677  0.261136  1
  H  H36  1  0.069689  0.755201  0.026390  1
  H  H37  1  0.930311  0.255201  0.473610  1
  H  H38  1  0.930311  0.244799  0.973610  1
  H  H39  1  0.069689  0.744799  0.526390  1
  H  H40  1  0.161967  0.683524  0.113246  1
  H  H41  1  0.838033  0.183524  0.386754  1
  H  H42  1  0.838033  0.316476  0.886754  1
  H  H43  1  0.161967  0.816476  0.613246  1
  C  C44  1  0.323096  0.681420  0.313663  1
  C  C45  1  0.676904  0.181420  0.186337  1
  C  C46  1  0.676904  0.318580  0.686337  1
  C  C47  1  0.323096  0.818580  0.813663  1
  C  C48  1  0.094429  0.576798  0.938633  1
  C  C49  1  0.905571  0.076798  0.561367  1
  C  C50  1  0.905571  0.423202  0.061367  1
  C  C51  1  0.094429  0.923202  0.438633  1
  N  N52  1  0.369036  0.611283  0.423771  1
  N  N53  1  0.630964  0.111283  0.076229  1
  N  N54  1  0.630964  0.388717  0.576229  1
  N  N55  1  0.369036  0.888717  0.923771  1
  N  N56  1  0.324100  0.808706  0.328882  1
  N  N57  1  0.675900  0.308706  0.171118  1
  N  N58  1  0.675900  0.191294  0.671118  1
  N  N59  1  0.324100  0.691294  0.828882  1
  N  N60  1  0.025839  0.581552  0.830143  1
  N  N61  1  0.974161  0.081552  0.669857  1
  N  N62  1  0.974161  0.418448  0.169857  1
  N  N63  1  0.025839  0.918448  0.330143  1
  N  N64  1  0.107539  0.677436  0.038260  1
  N  N65  1  0.892461  0.177436  0.461740  1
  N  N66  1  0.892461  0.322564  0.961740  1
  N  N67  1  0.107539  0.822564  0.538260  1
  O  O68  1  0.224599  0.209483  0.108053  1
  O  O69  1  0.775401  0.709483  0.391947  1
  O  O70  1  0.775401  0.790517  0.891947  1
  O  O71  1  0.224599  0.290517  0.608053  1
  O  O72  1  0.150621  0.090629  0.818484  1
  O  O73  1  0.849379  0.590629  0.681516  1
  O  O74  1  0.849379  0.909371  0.181516  1
  O  O75  1  0.150621  0.409371  0.318484  1
  O  O76  1  0.047835  0.134664  0.081976  1
  O  O77  1  0.952165  0.634664  0.418024  1
  O  O78  1  0.952165  0.865336  0.918024  1
  O  O79  1  0.047835  0.365336  0.581976  1
  O  O80  1  0.180357  0.946539  0.107245  1
  O  O81  1  0.819643  0.446539  0.392755  1
  O  O82  1  0.819643  0.053461  0.892755  1
  O  O83  1  0.180357  0.553461  0.607245  1
  O  O84  1  0.350957  0.411095  0.930318  1
  O  O85  1  0.649043  0.911095  0.569682  1
  O  O86  1  0.649043  0.588905  0.069682  1
  O  O87  1  0.350957  0.088905  0.430318  1
  O  O88  1  0.370400  0.161078  0.783847  1
  O  O89  1  0.629600  0.661078  0.716153  1
  O  O90  1  0.629600  0.838922  0.216153  1
  O  O91  1  0.370400  0.338922  0.283847  1
  O  O92  1  0.516590  0.304109  0.909468  1
  O  O93  1  0.483410  0.804109  0.590532  1
  O  O94  1  0.483410  0.695891  0.090532  1
  O  O95  1  0.516590  0.195891  0.409468  1
  O  O96  1  0.422369  0.386977  0.626307  1
  O  O97  1  0.577631  0.886977  0.873693  1
  O  O98  1  0.577631  0.613023  0.373693  1
  O  O99  1  0.422369  0.113023  0.126307  1
  O  O100  1  0.277903  0.631429  0.193720  1
  O  O101  1  0.722097  0.131429  0.306280  1
  O  O102  1  0.722097  0.368571  0.806280  1
  O  O103  1  0.277903  0.868571  0.693720  1
  O  O104  1  0.142702  0.479156  0.942818  1
  O  O105  1  0.857298  0.979156  0.557182  1
  O  O106  1  0.857298  0.520844  0.057182  1
  O  O107  1  0.142702  0.020844  0.442818  1
