# generated using pymatgen
data_Li3FeBAsO7
_symmetry_space_group_name_H-M   'P 1'
_cell_length_a   8.57681369
_cell_length_b   6.59841847
_cell_length_c   5.09451204
_cell_angle_alpha   90.00000000
_cell_angle_beta   86.18171424
_cell_angle_gamma   90.00000000
_symmetry_Int_Tables_number   1
_chemical_formula_structural   Li3FeBAsO7
_chemical_formula_sum   'Li6 Fe2 B2 As2 O14'
_cell_volume   287.67580360
_cell_formula_units_Z   2
loop_
 _symmetry_equiv_pos_site_id
 _symmetry_equiv_pos_as_xyz
  1  'x, y, z'
loop_
 _atom_site_type_symbol
 _atom_site_label
 _atom_site_symmetry_multiplicity
 _atom_site_fract_x
 _atom_site_fract_y
 _atom_site_fract_z
 _atom_site_occupancy
  Li  Li0  1  0.084927  0.250000  0.737808  1
  Li  Li1  1  0.221404  0.986170  0.236676  1
  Li  Li2  1  0.221404  0.513830  0.236676  1
  Li  Li3  1  0.778596  0.486170  0.763324  1
  Li  Li4  1  0.778596  0.013830  0.763324  1
  Li  Li5  1  0.915073  0.750000  0.262192  1
  Fe  Fe6  1  0.319019  0.750000  0.780583  1
  Fe  Fe7  1  0.680981  0.250000  0.219417  1
  B  B8  1  0.035881  0.750000  0.723091  1
  B  B9  1  0.964119  0.250000  0.276909  1
  As  As10  1  0.421187  0.250000  0.722515  1
  As  As11  1  0.578813  0.750000  0.277485  1
  O  O12  1  0.115598  0.250000  0.339135  1
  O  O13  1  0.089948  0.750000  0.977874  1
  O  O14  1  0.157572  0.750000  0.520492  1
  O  O15  1  0.298568  0.053451  0.817792  1
  O  O16  1  0.298568  0.446549  0.817792  1
  O  O17  1  0.461785  0.250000  0.386587  1
  O  O18  1  0.399102  0.750000  0.148680  1
  O  O19  1  0.600898  0.250000  0.851320  1
  O  O20  1  0.538215  0.750000  0.613413  1
  O  O21  1  0.701432  0.553451  0.182208  1
  O  O22  1  0.701432  0.946549  0.182208  1
  O  O23  1  0.842428  0.250000  0.479508  1
  O  O24  1  0.910052  0.250000  0.022126  1
  O  O25  1  0.884402  0.750000  0.660865  1
