# generated using pymatgen
data_Li5Fe8(BO3)8
_symmetry_space_group_name_H-M   'P 1'
_cell_length_a   5.26413425
_cell_length_b   9.10420465
_cell_length_c   11.36040909
_cell_angle_alpha   66.72489040
_cell_angle_beta   77.13392139
_cell_angle_gamma   90.06367615
_symmetry_Int_Tables_number   1
_chemical_formula_structural   Li5Fe8(BO3)8
_chemical_formula_sum   'Li5 Fe8 B8 O24'
_cell_volume   485.17101610
_cell_formula_units_Z   1
loop_
 _symmetry_equiv_pos_site_id
 _symmetry_equiv_pos_as_xyz
  1  'x, y, z'
loop_
 _atom_site_type_symbol
 _atom_site_label
 _atom_site_symmetry_multiplicity
 _atom_site_fract_x
 _atom_site_fract_y
 _atom_site_fract_z
 _atom_site_occupancy
  Li  Li0  1  0.974202  0.960168  0.402852  1
  Li  Li1  1  0.514659  0.490364  0.664653  1
  Li  Li2  1  0.730092  0.750355  0.167544  1
  Li  Li3  1  0.012610  0.987974  0.668205  1
  Li  Li4  1  0.229996  0.256617  0.158844  1
  Fe  Fe5  1  0.980931  0.640200  0.381491  1
  Fe  Fe6  1  0.727683  0.065846  0.881642  1
  Fe  Fe7  1  0.530750  0.842482  0.633158  1
  Fe  Fe8  1  0.750099  0.442578  0.126130  1
  Fe  Fe9  1  0.227452  0.564733  0.883383  1
  Fe  Fe10  1  0.479911  0.151676  0.382419  1
  Fe  Fe11  1  0.037135  0.343515  0.627605  1
  Fe  Fe12  1  0.250340  0.938736  0.128219  1
  B  B13  1  0.979515  0.306808  0.378569  1
  B  B14  1  0.735404  0.399382  0.874058  1
  B  B15  1  0.523451  0.183070  0.630983  1
  B  B16  1  0.758902  0.103222  0.131503  1
  B  B17  1  0.483805  0.824928  0.372864  1
  B  B18  1  0.234186  0.898988  0.876056  1
  B  B19  1  0.023548  0.683746  0.626347  1
  B  B20  1  0.267020  0.606883  0.126174  1
  O  O21  1  0.985682  0.925865  0.859034  1
  O  O22  1  0.857978  0.282498  0.839786  1
  O  O23  1  0.865218  0.487878  0.921572  1
  O  O24  1  0.918912  0.828678  0.609369  1
  O  O25  1  0.903512  0.571581  0.596828  1
  O  O26  1  0.754303  0.143148  0.674307  1
  O  O27  1  0.744820  0.320676  0.338371  1
  O  O28  1  0.485558  0.427577  0.859650  1
  O  O29  1  0.359405  0.782893  0.839791  1
  O  O30  1  0.577894  0.934015  0.419192  1
  O  O31  1  0.637220  0.713187  0.355905  1
  O  O32  1  0.363420  0.989019  0.921696  1
  O  O33  1  0.662606  0.999433  0.083067  1
  O  O34  1  0.407109  0.314145  0.633176  1
  O  O35  1  0.412788  0.079660  0.584914  1
  O  O36  1  0.587261  0.202782  0.171779  1
  O  O37  1  0.523642  0.612090  0.128182  1
  O  O38  1  0.253777  0.651860  0.672002  1
  O  O39  1  0.240521  0.840610  0.344079  1
  O  O40  1  0.064744  0.409226  0.424415  1
  O  O41  1  0.125092  0.182896  0.365354  1
  O  O42  1  0.163982  0.493996  0.085548  1
  O  O43  1  0.100999  0.707609  0.162472  1
  O  O44  1  0.010123  0.103407  0.143164  1
