# generated using pymatgen
data_CuPO3
_symmetry_space_group_name_H-M   'P 1'
_cell_length_a   11.50132736
_cell_length_b   4.73416719
_cell_length_c   10.85654206
_cell_angle_alpha   90.00000000
_cell_angle_beta   65.95016458
_cell_angle_gamma   90.00000000
_symmetry_Int_Tables_number   1
_chemical_formula_structural   CuPO3
_chemical_formula_sum   'Cu8 P8 O24'
_cell_volume   539.81488704
_cell_formula_units_Z   8
loop_
 _symmetry_equiv_pos_site_id
 _symmetry_equiv_pos_as_xyz
  1  'x, y, z'
loop_
 _atom_site_type_symbol
 _atom_site_label
 _atom_site_symmetry_multiplicity
 _atom_site_fract_x
 _atom_site_fract_y
 _atom_site_fract_z
 _atom_site_occupancy
  Cu  Cu0  1  0.165124  0.171488  0.291976  1
  Cu  Cu1  1  0.009736  0.530377  0.848705  1
  Cu  Cu2  1  0.334876  0.671488  0.208024  1
  Cu  Cu3  1  0.490264  0.030377  0.651295  1
  Cu  Cu4  1  0.509736  0.969623  0.348705  1
  Cu  Cu5  1  0.665124  0.328512  0.791976  1
  Cu  Cu6  1  0.990264  0.469623  0.151295  1
  Cu  Cu7  1  0.834876  0.828512  0.708024  1
  P  P8  1  0.201713  0.814310  0.005107  1
  P  P9  1  0.139052  0.812896  0.565681  1
  P  P10  1  0.298287  0.314310  0.494893  1
  P  P11  1  0.360948  0.312896  0.934319  1
  P  P12  1  0.639052  0.687104  0.065681  1
  P  P13  1  0.701713  0.685690  0.505107  1
  P  P14  1  0.860948  0.187104  0.434319  1
  P  P15  1  0.798287  0.185690  0.994893  1
  O  O16  1  0.201237  0.819710  0.143685  1
  O  O17  1  0.134858  0.811255  0.431082  1
  O  O18  1  0.020877  0.726264  0.689183  1
  O  O19  1  0.365142  0.311255  0.068918  1
  O  O20  1  0.183134  0.118239  0.599053  1
  O  O21  1  0.256251  0.616274  0.568361  1
  O  O22  1  0.079068  0.725507  0.994843  1
  O  O23  1  0.298763  0.319710  0.356315  1
  O  O24  1  0.420932  0.225507  0.505157  1
  O  O25  1  0.243749  0.116274  0.931639  1
  O  O26  1  0.316866  0.618239  0.900947  1
  O  O27  1  0.520877  0.773736  0.189183  1
  O  O28  1  0.479123  0.226264  0.810817  1
  O  O29  1  0.683134  0.381761  0.099053  1
  O  O30  1  0.756251  0.883726  0.068361  1
  O  O31  1  0.579068  0.774493  0.494843  1
  O  O32  1  0.701237  0.680290  0.643685  1
  O  O33  1  0.920932  0.274493  0.005157  1
  O  O34  1  0.743749  0.383726  0.431639  1
  O  O35  1  0.816866  0.881761  0.400947  1
  O  O36  1  0.634858  0.688745  0.931082  1
  O  O37  1  0.979123  0.273736  0.310817  1
  O  O38  1  0.865142  0.188745  0.568918  1
  O  O39  1  0.798763  0.180290  0.856315  1
