# generated using pymatgen
data_Li5FeNi3O8
_symmetry_space_group_name_H-M   'P 1'
_cell_length_a   5.92076289
_cell_length_b   5.91521644
_cell_length_c   9.74323355
_cell_angle_alpha   89.44368733
_cell_angle_beta   89.36770063
_cell_angle_gamma   119.17633697
_symmetry_Int_Tables_number   1
_chemical_formula_structural   Li5FeNi3O8
_chemical_formula_sum   'Li10 Fe2 Ni6 O16'
_cell_volume   297.87618072
_cell_formula_units_Z   2
loop_
 _symmetry_equiv_pos_site_id
 _symmetry_equiv_pos_as_xyz
  1  'x, y, z'
loop_
 _atom_site_type_symbol
 _atom_site_label
 _atom_site_symmetry_multiplicity
 _atom_site_fract_x
 _atom_site_fract_y
 _atom_site_fract_z
 _atom_site_occupancy
  Li  Li0  1  0.813693  0.197229  0.443163  1
  Li  Li1  1  0.683569  0.359438  0.224645  1
  Li  Li2  1  0.414334  0.215828  0.450063  1
  Li  Li3  1  0.022489  0.015414  0.515297  1
  Li  Li4  1  0.014621  0.022526  0.015690  1
  Li  Li5  1  0.814318  0.622977  0.448859  1
  Li  Li6  1  0.359545  0.683847  0.725634  1
  Li  Li7  1  0.623282  0.814551  0.949175  1
  Li  Li8  1  0.215530  0.413968  0.950014  1
  Li  Li9  1  0.196907  0.813419  0.943542  1
  Fe  Fe10  1  0.677568  0.345896  0.967213  1
  Fe  Fe11  1  0.345910  0.677200  0.467813  1
  Ni  Ni12  1  0.848371  0.179087  0.713398  1
  Ni  Ni13  1  0.354789  0.181391  0.714345  1
  Ni  Ni14  1  0.848172  0.673934  0.712582  1
  Ni  Ni15  1  0.181333  0.354631  0.214280  1
  Ni  Ni16  1  0.673767  0.847875  0.212697  1
  Ni  Ni17  1  0.179031  0.848172  0.213612  1
  O  O18  1  0.837634  0.183869  0.087392  1
  O  O19  1  0.518254  0.029719  0.839877  1
  O  O20  1  0.346213  0.194650  0.089648  1
  O  O21  1  0.679968  0.342973  0.601480  1
  O  O22  1  0.991830  0.499512  0.839929  1
  O  O23  1  0.525963  0.505672  0.839775  1
  O  O24  1  0.194793  0.347375  0.589297  1
  O  O25  1  0.843384  0.685815  0.086428  1
  O  O26  1  0.505967  0.525994  0.340064  1
  O  O27  1  0.686497  0.844125  0.586675  1
  O  O28  1  0.342573  0.678345  0.101542  1
  O  O29  1  0.010596  0.022723  0.319100  1
  O  O30  1  0.021391  0.010538  0.819159  1
  O  O31  1  0.030081  0.517827  0.339377  1
  O  O32  1  0.499214  0.990664  0.340525  1
  O  O33  1  0.184430  0.838857  0.587334  1
