# generated using pymatgen
data_Li4Ti2V3Cr3O16
_symmetry_space_group_name_H-M   'P 1'
_cell_length_a   5.90585014
_cell_length_b   5.90464807
_cell_length_c   9.54883049
_cell_angle_alpha   90.11073028
_cell_angle_beta   90.18591522
_cell_angle_gamma   120.08825917
_symmetry_Int_Tables_number   1
_chemical_formula_structural   Li4Ti2V3Cr3O16
_chemical_formula_sum   'Li4 Ti2 V3 Cr3 O16'
_cell_volume   288.11400176
_cell_formula_units_Z   1
loop_
 _symmetry_equiv_pos_site_id
 _symmetry_equiv_pos_as_xyz
  1  'x, y, z'
loop_
 _atom_site_type_symbol
 _atom_site_label
 _atom_site_symmetry_multiplicity
 _atom_site_fract_x
 _atom_site_fract_y
 _atom_site_fract_z
 _atom_site_occupancy
  Li  Li0  1  0.342194  0.671206  0.893878  1
  Li  Li1  1  0.997411  0.998619  0.993871  1
  Li  Li2  1  0.995607  0.997545  0.495098  1
  Li  Li3  1  0.672391  0.336340  0.390903  1
  Ti  Ti4  1  0.332556  0.666660  0.496437  1
  Ti  Ti5  1  0.662681  0.330709  0.997737  1
  V  V6  1  0.827929  0.647623  0.717221  1
  V  V7  1  0.651723  0.825938  0.220196  1
  V  V8  1  0.829461  0.181630  0.716819  1
  Cr  Cr9  1  0.169739  0.829273  0.214151  1
  Cr  Cr10  1  0.169723  0.340460  0.214142  1
  Cr  Cr11  1  0.336799  0.168365  0.713018  1
  O  O12  1  0.164640  0.829299  0.595000  1
  O  O13  1  0.044247  0.522213  0.340221  1
  O  O14  1  0.352216  0.675923  0.105448  1
  O  O15  1  0.986586  0.993479  0.306384  1
  O  O16  1  0.990249  0.994050  0.804994  1
  O  O17  1  0.164421  0.335022  0.595318  1
  O  O18  1  0.485548  0.961954  0.342358  1
  O  O19  1  0.485444  0.523700  0.342295  1
  O  O20  1  0.334403  0.167039  0.094949  1
  O  O21  1  0.658854  0.830584  0.595359  1
  O  O22  1  0.524315  0.481005  0.841094  1
  O  O23  1  0.523457  0.043214  0.840882  1
  O  O24  1  0.669438  0.335669  0.600778  1
  O  O25  1  0.829438  0.662841  0.095965  1
  O  O26  1  0.969138  0.483405  0.847183  1
  O  O27  1  0.829388  0.166535  0.096145  1
