# generated using pymatgen
data_Cr4H67C20(NO)16
_symmetry_space_group_name_H-M   'P 1'
_cell_length_a   10.89104934
_cell_length_b   10.88481566
_cell_length_c   10.90298545
_cell_angle_alpha   90.08909284
_cell_angle_beta   89.96281456
_cell_angle_gamma   89.85310370
_symmetry_Int_Tables_number   1
_chemical_formula_structural   Cr4H67C20(NO)16
_chemical_formula_sum   'Cr4 H67 C20 N16 O16'
_cell_volume   1292.51083171
_cell_formula_units_Z   1
loop_
 _symmetry_equiv_pos_site_id
 _symmetry_equiv_pos_as_xyz
  1  'x, y, z'
loop_
 _atom_site_type_symbol
 _atom_site_label
 _atom_site_symmetry_multiplicity
 _atom_site_fract_x
 _atom_site_fract_y
 _atom_site_fract_z
 _atom_site_occupancy
  Cr  Cr0  1  0.502317  0.502373  0.501825  1
  Cr  Cr1  1  0.002344  0.997620  0.497747  1
  Cr  Cr2  1  0.497816  0.002049  0.997704  1
  Cr  Cr3  1  0.997461  0.497514  0.002370  1
  H  H4  1  0.563889  0.054946  0.597527  1
  H  H5  1  0.612791  0.208542  0.561730  1
  H  H6  1  0.721202  0.081127  0.552320  1
  H  H7  1  0.730044  0.643507  0.499144  1
  H  H8  1  0.768700  0.140177  0.332217  1
  H  H9  1  0.838289  0.764532  0.499451  1
  H  H10  1  0.063776  0.445121  0.402536  1
  H  H11  1  0.112985  0.291374  0.438202  1
  H  H12  1  0.221134  0.418527  0.447639  1
  H  H13  1  0.229969  0.856772  0.500849  1
  H  H14  1  0.268620  0.359472  0.667852  1
  H  H15  1  0.289235  0.439589  0.114089  1
  H  H16  1  0.338386  0.735628  0.500666  1
  H  H17  1  0.353741  0.655846  0.265154  1
  H  H18  1  0.417864  0.449452  0.222523  1
  H  H19  1  0.442562  0.405679  0.065027  1
  H  H20  1  0.736049  0.500628  0.338327  1
  H  H21  1  0.790027  0.060353  0.886421  1
  H  H22  1  0.832507  0.731318  0.859555  1
  H  H23  1  0.842205  0.851192  0.729985  1
  H  H24  1  0.856827  0.500359  0.229280  1
  H  H25  1  0.904176  0.434986  0.556744  1
  H  H26  1  0.917862  0.051410  0.778323  1
  H  H27  1  0.943294  0.095741  0.934935  1
  H  H28  1  0.939798  0.386416  0.709832  1
  H  H29  1  0.948567  0.278141  0.582049  1
  H  H30  1  0.999424  0.770128  0.356496  1
  H  H31  1  0.000440  0.661724  0.235252  1
  H  H32  1  0.000659  0.161818  0.264024  1
  H  H33  1  0.000377  0.270423  0.143288  1
  H  H34  1  0.052841  0.778694  0.918973  1
  H  H35  1  0.061715  0.886876  0.791668  1
  H  H36  1  0.097612  0.935942  0.945266  1
  H  H37  1  0.143365  0.000559  0.269507  1
  H  H38  1  0.148861  0.229711  0.657953  1
  H  H39  1  0.264358  0.998753  0.161101  1
  H  H40  1  0.235571  0.999578  0.661951  1
  H  H41  1  0.356532  0.999618  0.770824  1
  H  H42  1  0.404269  0.065186  0.443261  1
  H  H43  1  0.439792  0.113548  0.290182  1
  H  H44  1  0.448154  0.221961  0.417941  1
  H  H45  1  0.499527  0.729797  0.643574  1
  H  H46  1  0.500341  0.838439  0.764734  1
  H  H47  1  0.500764  0.338186  0.736060  1
  H  H48  1  0.500567  0.229397  0.856707  1
  H  H49  1  0.551514  0.723397  0.082255  1
  H  H50  1  0.560279  0.613893  0.209945  1
  H  H51  1  0.556146  0.904379  0.434398  1
  H  H52  1  0.582108  0.948948  0.277623  1
  H  H53  1  0.594473  0.565859  0.056099  1
  H  H54  1  0.643378  0.498928  0.730210  1
  H  H55  1  0.648645  0.270112  0.342191  1
  H  H56  1  0.709418  0.938790  0.386158  1
  H  H57  1  0.764813  0.498986  0.838371  1
  H  H58  1  0.055958  0.595844  0.565654  1
  H  H59  1  0.082035  0.551169  0.722389  1
  H  H60  1  0.161382  0.264129  0.999607  1
  H  H61  1  0.209191  0.560836  0.613784  1
  H  H62  1  0.270542  0.143156  0.000282  1
  H  H63  1  0.278153  0.582266  0.947474  1
  H  H64  1  0.386004  0.709360  0.938266  1
  H  H65  1  0.435618  0.555463  0.902969  1
  H  H66  1  0.661740  0.235330  0.000270  1
  H  H67  1  0.770345  0.356332  0.999471  1
  H  H68  1  0.777604  0.918167  0.051127  1
  H  H69  1  0.886582  0.790728  0.060881  1
  H  H70  1  0.934486  0.943900  0.095766  1
  C  C71  1  0.625623  0.110829  0.541371  1
  C  C72  1  0.125631  0.389046  0.458600  1
  C  C73  1  0.386496  0.461346  0.127719  1
  C  C74  1  0.863292  0.637267  0.362361  1
  C  C75  1  0.887545  0.039238  0.873332  1
  C  C76  1  0.960782  0.373279  0.612407  1
  C  C77  1  0.041567  0.874154  0.889244  1
  C  C78  1  0.137868  0.137152  0.137045  1
  C  C79  1  0.174493  0.326555  0.660991  1
  C  C80  1  0.363153  0.863023  0.637715  1
  C  C81  1  0.460707  0.126820  0.387587  1
  C  C82  1  0.539092  0.628294  0.112759  1
  C  C83  1  0.612194  0.960582  0.372875  1
  C  C84  1  0.674410  0.173185  0.338955  1
  C  C85  1  0.111991  0.539341  0.627096  1
  C  C86  1  0.328187  0.672934  0.167996  1
  C  C87  1  0.373526  0.611853  0.958800  1
  C  C88  1  0.637303  0.362645  0.863115  1
  C  C89  1  0.839015  0.825561  0.826730  1
  C  C90  1  0.872977  0.887976  0.039305  1
  N  N91  1  0.808917  0.681692  0.464017  1
  N  N92  1  0.308825  0.818467  0.536186  1
  N  N93  1  0.818649  0.536014  0.308329  1
  N  N94  1  0.964182  0.690975  0.318126  1
  N  N95  1  0.035955  0.191589  0.181565  1
  N  N96  1  0.092796  0.407335  0.591852  1
  N  N97  1  0.182327  0.036389  0.191182  1
  N  N98  1  0.318572  0.964464  0.691371  1
  N  N99  1  0.464235  0.808930  0.681926  1
  N  N100  1  0.535953  0.308508  0.818739  1
  N  N101  1  0.592823  0.092630  0.408136  1
  N  N102  1  0.681599  0.463713  0.809370  1
  N  N103  1  0.191645  0.181802  0.036022  1
  N  N104  1  0.406065  0.594148  0.091502  1
  N  N105  1  0.691139  0.318241  0.964568  1
  N  N106  1  0.908156  0.907176  0.907436  1
  O  O107  1  0.878165  0.918931  0.540017  1
  O  O108  1  0.378234  0.581355  0.458708  1
  O  O109  1  0.581157  0.459642  0.377757  1
  O  O110  1  0.591282  0.591308  0.590992  1
  O  O111  1  0.959927  0.121545  0.418873  1
  O  O112  1  0.038572  0.621496  0.081199  1
  O  O113  1  0.081027  0.040232  0.621668  1
  O  O114  1  0.091534  0.908281  0.408792  1
  O  O115  1  0.408187  0.091702  0.908291  1
  O  O116  1  0.420013  0.959899  0.122328  1
  O  O117  1  0.459973  0.378845  0.580833  1
  O  O118  1  0.539685  0.877668  0.919086  1
  O  O119  1  0.908179  0.408240  0.091804  1
  O  O120  1  0.918135  0.539784  0.878334  1
  O  O121  1  0.122069  0.419311  0.960782  1
  O  O122  1  0.621755  0.080810  0.039025  1
