# generated using pymatgen
data_LiAlVO4
_symmetry_space_group_name_H-M   'P 1'
_cell_length_a   5.83926876
_cell_length_b   5.83926876
_cell_length_c   5.83926944
_cell_angle_alpha   59.02343452
_cell_angle_beta   90.07351018
_cell_angle_gamma   119.11705772
_symmetry_Int_Tables_number   1
_chemical_formula_structural   LiAlVO4
_chemical_formula_sum   'Li2 Al2 V2 O8'
_cell_volume   140.64019712
_cell_formula_units_Z   2
loop_
 _symmetry_equiv_pos_site_id
 _symmetry_equiv_pos_as_xyz
  1  'x, y, z'
loop_
 _atom_site_type_symbol
 _atom_site_label
 _atom_site_symmetry_multiplicity
 _atom_site_fract_x
 _atom_site_fract_y
 _atom_site_fract_z
 _atom_site_occupancy
  Li  Li0  1  0.118803  0.250000  0.131197  1
  Li  Li1  1  0.881197  0.750000  0.868803  1
  Al  Al2  1  0.500000  0.000000  0.000000  1
  Al  Al3  1  0.500000  0.500000  0.500000  1
  V  V4  1  0.500000  0.000000  0.500000  1
  V  V5  1  0.000000  0.500000  0.500000  1
  O  O6  1  0.297142  0.031042  0.733902  1
  O  O7  1  0.264944  0.531042  0.266098  1
  O  O8  1  0.266695  0.519242  0.714064  1
  O  O9  1  0.266695  0.980758  0.252547  1
  O  O10  1  0.733305  0.019242  0.747453  1
  O  O11  1  0.733305  0.480758  0.285936  1
  O  O12  1  0.735056  0.468958  0.733902  1
  O  O13  1  0.702858  0.968958  0.266098  1
