# generated using pymatgen
data_CoH14N5O9
_symmetry_space_group_name_H-M   'P 1'
_cell_length_a   9.68531523
_cell_length_b   9.91080529
_cell_length_c   11.26183332
_cell_angle_alpha   90.00000000
_cell_angle_beta   89.74199399
_cell_angle_gamma   90.00000000
_symmetry_Int_Tables_number   1
_chemical_formula_structural   CoH14N5O9
_chemical_formula_sum   'Co4 H56 N20 O36'
_cell_volume   1081.00423783
_cell_formula_units_Z   4
loop_
 _symmetry_equiv_pos_site_id
 _symmetry_equiv_pos_as_xyz
  1  'x, y, z'
loop_
 _atom_site_type_symbol
 _atom_site_label
 _atom_site_symmetry_multiplicity
 _atom_site_fract_x
 _atom_site_fract_y
 _atom_site_fract_z
 _atom_site_occupancy
  Co  Co0  1  0.999147  0.955298  0.872923  1
  Co  Co1  1  0.499147  0.544702  0.372923  1
  Co  Co2  1  0.000853  0.044702  0.127077  1
  Co  Co3  1  0.500853  0.455298  0.627077  1
  H  H4  1  0.819839  0.992685  0.693267  1
  H  H5  1  0.319839  0.507315  0.193267  1
  H  H6  1  0.180161  0.007315  0.306733  1
  H  H7  1  0.680161  0.492685  0.806733  1
  H  H8  1  0.976244  0.003372  0.638740  1
  H  H9  1  0.476244  0.496628  0.138740  1
  H  H10  1  0.023756  0.996628  0.361260  1
  H  H11  1  0.523756  0.503372  0.861260  1
  H  H12  1  0.911148  0.130661  0.717011  1
  H  H13  1  0.411148  0.369339  0.217011  1
  H  H14  1  0.088852  0.869339  0.282989  1
  H  H15  1  0.588852  0.630661  0.782989  1
  H  H16  1  0.123812  0.722677  0.850315  1
  H  H17  1  0.623812  0.777323  0.350315  1
  H  H18  1  0.876188  0.277323  0.149685  1
  H  H19  1  0.376188  0.222677  0.649685  1
  H  H20  1  0.166038  0.816434  0.733113  1
  H  H21  1  0.666038  0.683566  0.233113  1
  H  H22  1  0.833962  0.183566  0.266887  1
  H  H23  1  0.333962  0.316434  0.766887  1
  H  H24  1  0.015567  0.737409  0.735411  1
  H  H25  1  0.515567  0.762591  0.235411  1
  H  H26  1  0.984433  0.262591  0.264589  1
  H  H27  1  0.484433  0.237409  0.764589  1
  H  H28  1  0.209690  0.062887  0.747102  1
  H  H29  1  0.709690  0.437113  0.247102  1
  H  H30  1  0.790310  0.937113  0.252898  1
  H  H31  1  0.290310  0.562887  0.752898  1
  H  H32  1  0.166860  0.165432  0.859554  1
  H  H33  1  0.666860  0.334568  0.359554  1
  H  H34  1  0.833140  0.834568  0.140446  1
  H  H35  1  0.333140  0.665432  0.640446  1
  H  H36  1  0.260705  0.027495  0.884078  1
  H  H37  1  0.760705  0.472505  0.384078  1
  H  H38  1  0.739295  0.972505  0.115922  1
  H  H39  1  0.239295  0.527495  0.615922  1
  H  H40  1  0.106034  0.623673  0.185694  1
  H  H41  1  0.606034  0.876327  0.685694  1
  H  H42  1  0.893966  0.376327  0.814306  1
  H  H43  1  0.393966  0.123673  0.314306  1
  H  H44  1  0.029322  0.645042  0.310206  1
  H  H45  1  0.529322  0.854958  0.810206  1
  H  H46  1  0.970678  0.354958  0.689794  1
  H  H47  1  0.470678  0.145042  0.189794  1
  H  H48  1  0.841784  0.743498  0.924744  1
  H  H49  1  0.341784  0.756502  0.424744  1
  H  H50  1  0.158216  0.256502  0.075256  1
  H  H51  1  0.658216  0.243498  0.575256  1
  H  H52  1  0.745981  0.845638  0.849373  1
  H  H53  1  0.245981  0.654362  0.349373  1
  H  H54  1  0.254019  0.154362  0.150627  1
  H  H55  1  0.754019  0.345638  0.650627  1
  H  H56  1  0.829271  0.125559  0.951201  1
  H  H57  1  0.329271  0.374441  0.451201  1
  H  H58  1  0.170729  0.874441  0.048799  1
  H  H59  1  0.670729  0.625559  0.548799  1
  N  N60  1  0.917189  0.026814  0.711244  1
  N  N61  1  0.417189  0.473186  0.211244  1
  N  N62  1  0.082811  0.973186  0.288756  1
  N  N63  1  0.582811  0.526814  0.788756  1
  N  N64  1  0.085922  0.787489  0.787234  1
  N  N65  1  0.585922  0.712511  0.287234  1
  N  N66  1  0.914078  0.212511  0.212766  1
  N  N67  1  0.414078  0.287489  0.712766  1
  N  N68  1  0.181238  0.066839  0.834922  1
  N  N69  1  0.681238  0.433161  0.334922  1
  N  N70  1  0.818762  0.933161  0.165078  1
  N  N71  1  0.318762  0.566839  0.665078  1
  N  N72  1  0.814707  0.541566  0.040490  1
  N  N73  1  0.314707  0.958434  0.540490  1
  N  N74  1  0.185293  0.458434  0.959510  1
  N  N75  1  0.685293  0.041566  0.459510  1
  N  N76  1  0.426387  0.808517  0.013139  1
  N  N77  1  0.926387  0.691483  0.513139  1
  N  N78  1  0.573613  0.191483  0.986861  1
  N  N79  1  0.073613  0.308517  0.486861  1
  O  O80  1  0.113614  0.667413  0.263009  1
  O  O81  1  0.613614  0.832587  0.763009  1
  O  O82  1  0.886386  0.332587  0.736991  1
  O  O83  1  0.386386  0.167413  0.236991  1
  O  O84  1  0.827884  0.840842  0.904009  1
  O  O85  1  0.327884  0.659158  0.404009  1
  O  O86  1  0.172116  0.159158  0.095991  1
  O  O87  1  0.672116  0.340842  0.595991  1
  O  O88  1  0.926631  0.101952  0.966855  1
  O  O89  1  0.426631  0.398048  0.466855  1
  O  O90  1  0.073369  0.898048  0.033145  1
  O  O91  1  0.573369  0.601952  0.533145  1
  O  O92  1  0.856466  0.575259  0.936677  1
  O  O93  1  0.356466  0.924741  0.436677  1
  O  O94  1  0.143534  0.424741  0.063323  1
  O  O95  1  0.643534  0.075259  0.563323  1
  O  O96  1  0.760837  0.427429  0.056301  1
  O  O97  1  0.260837  0.072571  0.556301  1
  O  O98  1  0.239163  0.572571  0.943699  1
  O  O99  1  0.739163  0.927429  0.443699  1
  O  O100  1  0.827895  0.623412  0.126070  1
  O  O101  1  0.327895  0.876588  0.626070  1
  O  O102  1  0.172105  0.376588  0.873930  1
  O  O103  1  0.672105  0.123412  0.373930  1
  O  O104  1  0.352060  0.830858  0.104048  1
  O  O105  1  0.852060  0.669142  0.604048  1
  O  O106  1  0.647940  0.169142  0.895952  1
  O  O107  1  0.147940  0.330858  0.395952  1
  O  O108  1  0.396420  0.866799  0.915170  1
  O  O109  1  0.896420  0.633201  0.415170  1
  O  O110  1  0.603580  0.133201  0.084830  1
  O  O111  1  0.103580  0.366799  0.584830  1
  O  O112  1  0.528227  0.730098  0.018615  1
  O  O113  1  0.028227  0.769902  0.518615  1
  O  O114  1  0.471773  0.269902  0.981385  1
  O  O115  1  0.971773  0.230098  0.481385  1
