# generated using pymatgen
data_Ba3Y2Cl12
_symmetry_space_group_name_H-M   'P 1'
_cell_length_a   9.14687119
_cell_length_b   9.14687119
_cell_length_c   15.30034767
_cell_angle_alpha   77.97700812
_cell_angle_beta   102.02299188
_cell_angle_gamma   69.54817727
_symmetry_Int_Tables_number   1
_chemical_formula_structural   Ba3Y2Cl12
_chemical_formula_sum   'Ba6 Y4 Cl24'
_cell_volume   1116.56014244
_cell_formula_units_Z   2
loop_
 _symmetry_equiv_pos_site_id
 _symmetry_equiv_pos_as_xyz
  1  'x, y, z'
loop_
 _atom_site_type_symbol
 _atom_site_label
 _atom_site_symmetry_multiplicity
 _atom_site_fract_x
 _atom_site_fract_y
 _atom_site_fract_z
 _atom_site_occupancy
  Ba  Ba0  1  0.479266  0.786557  0.927644  1
  Ba  Ba1  1  0.880392  0.880392  0.750000  1
  Ba  Ba2  1  0.213443  0.520734  0.427644  1
  Ba  Ba3  1  0.786557  0.479266  0.572356  1
  Ba  Ba4  1  0.119608  0.119608  0.250000  1
  Ba  Ba5  1  0.520734  0.213443  0.072356  1
  Y  Y6  1  0.258826  0.968894  0.593379  1
  Y  Y7  1  0.031106  0.741174  0.093379  1
  Y  Y8  1  0.968894  0.258826  0.906621  1
  Y  Y9  1  0.741174  0.031106  0.406621  1
  Cl  Cl10  1  0.089395  0.934995  0.927530  1
  Cl  Cl11  1  0.243526  0.766320  0.745999  1
  Cl  Cl12  1  0.506977  0.949319  0.727902  1
  Cl  Cl13  1  0.065005  0.910605  0.427530  1
  Cl  Cl14  1  0.233680  0.756474  0.245999  1
  Cl  Cl15  1  0.706195  0.863020  0.558536  1
  Cl  Cl16  1  0.300624  0.161087  0.901353  1
  Cl  Cl17  1  0.672788  0.424984  0.932526  1
  Cl  Cl18  1  0.050681  0.493023  0.227902  1
  Cl  Cl19  1  0.424984  0.672788  0.567474  1
  Cl  Cl20  1  0.161087  0.300624  0.598647  1
  Cl  Cl21  1  0.863020  0.706195  0.941464  1
  Cl  Cl22  1  0.136980  0.293805  0.058536  1
  Cl  Cl23  1  0.838913  0.699376  0.401353  1
  Cl  Cl24  1  0.575016  0.327212  0.432526  1
  Cl  Cl25  1  0.949319  0.506977  0.772098  1
  Cl  Cl26  1  0.327212  0.575016  0.067474  1
  Cl  Cl27  1  0.699376  0.838913  0.098647  1
  Cl  Cl28  1  0.293805  0.136980  0.441464  1
  Cl  Cl29  1  0.766320  0.243526  0.754001  1
  Cl  Cl30  1  0.934995  0.089395  0.572470  1
  Cl  Cl31  1  0.493023  0.050681  0.272098  1
  Cl  Cl32  1  0.756474  0.233680  0.254001  1
  Cl  Cl33  1  0.910605  0.065005  0.072470  1
