# generated using pymatgen
data_Li4MnP6(H4O11)2
_symmetry_space_group_name_H-M   'P 1'
_cell_length_a   7.49344335
_cell_length_b   8.57368707
_cell_length_c   7.01120743
_cell_angle_alpha   103.67622452
_cell_angle_beta   93.99995174
_cell_angle_gamma   84.98040119
_symmetry_Int_Tables_number   1
_chemical_formula_structural   Li4MnP6(H4O11)2
_chemical_formula_sum   'Li4 Mn1 P6 H8 O22'
_cell_volume   435.43462001
_cell_formula_units_Z   1
loop_
 _symmetry_equiv_pos_site_id
 _symmetry_equiv_pos_as_xyz
  1  'x, y, z'
loop_
 _atom_site_type_symbol
 _atom_site_label
 _atom_site_symmetry_multiplicity
 _atom_site_fract_x
 _atom_site_fract_y
 _atom_site_fract_z
 _atom_site_occupancy
  Li  Li0  1  0.351379  0.584574  0.934976  1
  Li  Li1  1  0.441345  0.237799  0.678996  1
  Li  Li2  1  0.558655  0.762202  0.321005  1
  Li  Li3  1  0.648621  0.415427  0.065025  1
  Mn  Mn4  1  0.000002  0.999981  -0.000013  1
  P  P5  1  0.018272  0.309015  0.777988  1
  P  P6  1  0.214113  0.833326  0.556679  1
  P  P7  1  0.293035  0.506236  0.345339  1
  P  P8  1  0.706964  0.493765  0.654662  1
  P  P9  1  0.785890  0.166676  0.443320  1
  P  P10  1  0.981729  0.690986  0.222012  1
  H  H11  1  0.250535  0.189926  0.267232  1
  H  H12  1  0.278406  0.007758  0.277444  1
  H  H13  1  0.390416  0.884340  0.983127  1
  H  H14  1  0.412178  0.186385  0.036258  1
  H  H15  1  0.587822  0.813616  0.963743  1
  H  H16  1  0.609584  0.115662  0.016874  1
  H  H17  1  0.721592  0.992244  0.722556  1
  H  H18  1  0.749464  0.810073  0.732768  1
  O  O19  1  0.020770  0.812223  0.436715  1
  O  O20  1  0.089793  0.524581  0.253136  1
  O  O21  1  0.213360  0.338969  0.801643  1
  O  O22  1  0.068691  0.751303  0.068592  1
  O  O23  1  0.180929  0.913328  0.766423  1
  O  O24  1  0.235563  0.077659  0.185404  1
  O  O25  1  0.282494  0.645846  0.547966  1
  O  O26  1  0.322609  0.349252  0.402532  1
  O  O27  1  0.344468  0.902813  0.451991  1
  O  O28  1  0.524984  0.199249  0.980960  1
  O  O29  1  0.421164  0.546988  0.208890  1
  O  O30  1  0.578835  0.453011  0.791111  1
  O  O31  1  0.475017  0.800752  0.019040  1
  O  O32  1  0.655532  0.097190  0.548011  1
  O  O33  1  0.677390  0.650750  0.597470  1
  O  O34  1  0.717505  0.354156  0.452035  1
  O  O35  1  0.764436  0.922340  0.814596  1
  O  O36  1  0.819071  0.086674  0.233576  1
  O  O37  1  0.931310  0.248697  0.931409  1
  O  O38  1  0.786640  0.661033  0.198357  1
  O  O39  1  0.910207  0.475420  0.746865  1
  O  O40  1  0.979230  0.187777  0.563286  1
