# generated using pymatgen
data_Li2Fe2(Si2O5)3
_symmetry_space_group_name_H-M   'P 1'
_cell_length_a   11.51126895
_cell_length_b   11.51126895
_cell_length_c   10.27003864
_cell_angle_alpha   90.00000000
_cell_angle_beta   90.00000000
_cell_angle_gamma   79.53395232
_symmetry_Int_Tables_number   1
_chemical_formula_structural   Li2Fe2(Si2O5)3
_chemical_formula_sum   'Li8 Fe8 Si24 O60'
_cell_volume   1338.23449619
_cell_formula_units_Z   4
loop_
 _symmetry_equiv_pos_site_id
 _symmetry_equiv_pos_as_xyz
  1  'x, y, z'
loop_
 _atom_site_type_symbol
 _atom_site_label
 _atom_site_symmetry_multiplicity
 _atom_site_fract_x
 _atom_site_fract_y
 _atom_site_fract_z
 _atom_site_occupancy
  Li  Li0  1  0.508003  0.008003  0.250000  1
  Li  Li1  1  0.991997  0.491997  0.750000  1
  Li  Li2  1  0.605463  0.605463  0.745995  1
  Li  Li3  1  0.105463  0.105463  0.754005  1
  Li  Li4  1  0.894537  0.894537  0.245995  1
  Li  Li5  1  0.394537  0.394537  0.254005  1
  Li  Li6  1  0.008003  0.508003  0.250000  1
  Li  Li7  1  0.491997  0.991997  0.750000  1
  Fe  Fe8  1  0.247235  0.752765  0.000000  1
  Fe  Fe9  1  0.162689  0.662689  0.250000  1
  Fe  Fe10  1  0.337311  0.837311  0.750000  1
  Fe  Fe11  1  0.252765  0.747235  0.500000  1
  Fe  Fe12  1  0.747235  0.252765  0.500000  1
  Fe  Fe13  1  0.837311  0.337311  0.750000  1
  Fe  Fe14  1  0.662689  0.162689  0.250000  1
  Fe  Fe15  1  0.752765  0.247235  0.000000  1
  Si  Si16  1  0.180854  0.966853  0.189101  1
  Si  Si17  1  0.033147  0.819146  0.810899  1
  Si  Si18  1  0.199961  0.417394  0.455233  1
  Si  Si19  1  0.082606  0.300039  0.955233  1
  Si  Si20  1  0.582606  0.800039  0.544767  1
  Si  Si21  1  0.699961  0.917394  0.044767  1
  Si  Si22  1  0.319146  0.533147  0.689101  1
  Si  Si23  1  0.466853  0.680854  0.310899  1
  Si  Si24  1  0.525401  0.738048  0.013519  1
  Si  Si25  1  0.761952  0.974599  0.513519  1
  Si  Si26  1  0.025401  0.238048  0.486481  1
  Si  Si27  1  0.261952  0.474599  0.986481  1
  Si  Si28  1  0.974599  0.761952  0.513519  1
  Si  Si29  1  0.738048  0.525401  0.013519  1
  Si  Si30  1  0.238048  0.025401  0.486481  1
  Si  Si31  1  0.474599  0.261952  0.986481  1
  Si  Si32  1  0.680854  0.466853  0.310899  1
  Si  Si33  1  0.533147  0.319146  0.689101  1
  Si  Si34  1  0.417394  0.199961  0.455233  1
  Si  Si35  1  0.800039  0.582606  0.544767  1
  Si  Si36  1  0.917394  0.699961  0.044767  1
  Si  Si37  1  0.300039  0.082606  0.955233  1
  Si  Si38  1  0.966853  0.180854  0.189101  1
  Si  Si39  1  0.819146  0.033147  0.810899  1
  O  O40  1  0.007896  0.763865  0.668623  1
  O  O41  1  0.236135  0.992104  0.331377  1
  O  O42  1  0.167108  0.832724  0.161365  1
  O  O43  1  0.167276  0.832892  0.838635  1
  O  O44  1  0.090706  0.749931  0.425558  1
  O  O45  1  0.250069  0.909294  0.574442  1
  O  O46  1  0.249931  0.590706  0.074442  1
  O  O47  1  0.409294  0.750069  0.925558  1
  O  O48  1  0.332892  0.667276  0.661365  1
  O  O49  1  0.332724  0.667108  0.338635  1
  O  O50  1  0.160507  0.491685  0.326395  1
  O  O51  1  0.660507  0.991685  0.173605  1
  O  O52  1  0.008315  0.339493  0.826395  1
  O  O53  1  0.508315  0.839493  0.673605  1
  O  O54  1  0.005262  0.272830  0.082082  1
  O  O55  1  0.227170  0.494738  0.582082  1
  O  O56  1  0.505262  0.772830  0.417918  1
  O  O57  1  0.727170  0.994738  0.917918  1
  O  O58  1  0.153698  0.401977  0.008506  1
  O  O59  1  0.098023  0.346302  0.508506  1
  O  O60  1  0.653698  0.901977  0.491494  1
  O  O61  1  0.598023  0.846302  0.991494  1
  O  O62  1  0.492104  0.736135  0.168623  1
  O  O63  1  0.263865  0.507896  0.831377  1
  O  O64  1  0.951934  0.951934  0.822137  1
  O  O65  1  0.614718  0.614718  0.965655  1
  O  O66  1  0.175471  0.175471  0.917008  1
  O  O67  1  0.324529  0.324529  0.417008  1
  O  O68  1  0.048066  0.048066  0.177863  1
  O  O69  1  0.451934  0.451934  0.677863  1
  O  O70  1  0.114718  0.114718  0.534345  1
  O  O71  1  0.385282  0.385282  0.034345  1
  O  O72  1  0.824529  0.824529  0.082992  1
  O  O73  1  0.548066  0.548066  0.322137  1
  O  O74  1  0.885282  0.885282  0.465655  1
  O  O75  1  0.675471  0.675471  0.582992  1
  O  O76  1  0.736135  0.492104  0.168623  1
  O  O77  1  0.507896  0.263865  0.831377  1
  O  O78  1  0.401977  0.153698  0.008506  1
  O  O79  1  0.846302  0.598023  0.991494  1
  O  O80  1  0.901977  0.653698  0.491494  1
  O  O81  1  0.346302  0.098023  0.508506  1
  O  O82  1  0.994738  0.727170  0.917918  1
  O  O83  1  0.272830  0.005262  0.082082  1
  O  O84  1  0.772830  0.505262  0.417918  1
  O  O85  1  0.494738  0.227170  0.582082  1
  O  O86  1  0.839493  0.508315  0.673605  1
  O  O87  1  0.491685  0.160507  0.326395  1
  O  O88  1  0.339493  0.008315  0.826395  1
  O  O89  1  0.991685  0.660507  0.173605  1
  O  O90  1  0.667108  0.332724  0.338635  1
  O  O91  1  0.667276  0.332892  0.661365  1
  O  O92  1  0.590706  0.249931  0.074442  1
  O  O93  1  0.750069  0.409294  0.925558  1
  O  O94  1  0.749931  0.090706  0.425558  1
  O  O95  1  0.909294  0.250069  0.574442  1
  O  O96  1  0.832724  0.167108  0.161365  1
  O  O97  1  0.832892  0.167276  0.838635  1
  O  O98  1  0.992104  0.236135  0.331377  1
  O  O99  1  0.763865  0.007896  0.668623  1
