# generated using pymatgen
data_LiVCrP2(O4F)2
_symmetry_space_group_name_H-M   'P 1'
_cell_length_a   5.16306364
_cell_length_b   14.65600207
_cell_length_c   7.33087909
_cell_angle_alpha   87.95805776
_cell_angle_beta   106.09823789
_cell_angle_gamma   86.46795280
_symmetry_Int_Tables_number   1
_chemical_formula_structural   LiVCrP2(O4F)2
_chemical_formula_sum   'Li3 V3 Cr3 P6 O24 F6'
_cell_volume   531.15786278
_cell_formula_units_Z   3
loop_
 _symmetry_equiv_pos_site_id
 _symmetry_equiv_pos_as_xyz
  1  'x, y, z'
loop_
 _atom_site_type_symbol
 _atom_site_label
 _atom_site_symmetry_multiplicity
 _atom_site_fract_x
 _atom_site_fract_y
 _atom_site_fract_z
 _atom_site_occupancy
  Li  Li0  1  0.069538  0.854003  0.327430  1
  Li  Li1  1  0.401225  0.521851  0.658175  1
  Li  Li2  1  0.932327  0.146974  0.674120  1
  V  V3  1  0.999756  0.000230  0.000033  1
  V  V4  1  0.333423  0.665145  0.328113  1
  V  V5  1  0.666063  0.333626  0.666651  1
  Cr  Cr6  1  0.004656  0.499426  0.003156  1
  Cr  Cr7  1  0.326987  0.167932  0.329044  1
  Cr  Cr8  1  0.671627  0.832961  0.669875  1
  P  P9  1  0.270401  0.293317  0.945745  1
  P  P10  1  0.062141  0.373363  0.387067  1
  P  P11  1  0.400207  0.037098  0.716669  1
  P  P12  1  0.599055  0.963018  0.282841  1
  P  P13  1  0.932701  0.628833  0.614237  1
  P  P14  1  0.729892  0.705734  0.051385  1
  O  O15  1  0.092436  0.559984  0.776629  1
  O  O16  1  0.233024  0.045864  0.867431  1
  O  O17  1  0.251973  0.392980  0.995615  1
  O  O18  1  0.079212  0.273570  0.336929  1
  O  O19  1  0.106602  0.618065  0.467780  1
  O  O20  1  0.239481  0.107168  0.557600  1
  O  O21  1  0.011363  0.738087  0.163211  1
  O  O22  1  0.449560  0.286760  0.802364  1
  O  O23  1  0.343337  0.406332  0.496522  1
  O  O24  1  0.404032  0.938965  0.655727  1
  O  O25  1  0.583789  0.774118  0.889222  1
  O  O26  1  0.690644  0.067645  0.807485  1
  O  O27  1  0.308967  0.931981  0.192431  1
  O  O28  1  0.415656  0.226478  0.111789  1
  O  O29  1  0.594194  0.061036  0.343303  1
  O  O30  1  0.642961  0.597869  0.526076  1
  O  O31  1  0.556769  0.710766  0.199806  1
  O  O32  1  0.989527  0.259912  0.836734  1
  O  O33  1  0.759979  0.892835  0.442348  1
  O  O34  1  0.883761  0.379403  0.531123  1
  O  O35  1  0.928521  0.728346  0.665922  1
  O  O36  1  0.746015  0.607350  0.993206  1
  O  O37  1  0.767325  0.953629  0.132933  1
  O  O38  1  0.917280  0.440135  0.221340  1
  F  F39  1  0.035489  0.105451  0.154025  1
  F  F40  1  0.369893  0.775127  0.486297  1
  F  F41  1  0.298083  0.559737  0.177132  1
  F  F42  1  0.700742  0.442820  0.821524  1
  F  F43  1  0.630148  0.224044  0.511508  1
  F  F44  1  0.962816  0.894524  0.845903  1
