# generated using pymatgen
data_LiMn2(BO3)2
_symmetry_space_group_name_H-M   'P 1'
_cell_length_a   5.77864549
_cell_length_b   5.28782317
_cell_length_c   22.10295556
_cell_angle_alpha   89.32095411
_cell_angle_beta   90.69244928
_cell_angle_gamma   113.70688764
_symmetry_Int_Tables_number   1
_chemical_formula_structural   LiMn2(BO3)2
_chemical_formula_sum   'Li5 Mn10 B10 O30'
_cell_volume   618.33167384
_cell_formula_units_Z   5
loop_
 _symmetry_equiv_pos_site_id
 _symmetry_equiv_pos_as_xyz
  1  'x, y, z'
loop_
 _atom_site_type_symbol
 _atom_site_label
 _atom_site_symmetry_multiplicity
 _atom_site_fract_x
 _atom_site_fract_y
 _atom_site_fract_z
 _atom_site_occupancy
  Li  Li0  1  0.948053  0.384205  0.387634  1
  Li  Li1  1  0.853554  0.021127  0.812155  1
  Li  Li2  1  0.148906  0.985717  0.188371  1
  Li  Li3  1  0.347280  0.579596  0.988471  1
  Li  Li4  1  0.052647  0.617343  0.612651  1
  Mn  Mn5  1  0.866826  0.521736  0.878812  1
  Mn  Mn6  1  0.722486  0.272074  0.523540  1
  Mn  Mn7  1  0.933847  0.877557  0.322250  1
  Mn  Mn8  1  0.476311  0.328559  0.278861  1
  Mn  Mn9  1  0.677427  0.928936  0.077640  1
  Mn  Mn10  1  0.331673  0.075196  0.921177  1
  Mn  Mn11  1  0.522322  0.672291  0.723042  1
  Mn  Mn12  1  0.065403  0.123214  0.678273  1
  Mn  Mn13  1  0.276356  0.724384  0.477207  1
  Mn  Mn14  1  0.132750  0.478065  0.122955  1
  B  B15  1  0.999270  0.576217  0.747804  1
  B  B16  1  0.601908  0.223658  0.654342  1
  B  B17  1  0.805771  0.825798  0.450677  1
  B  B18  1  0.596977  0.376564  0.145954  1
  B  B19  1  0.795765  0.971628  0.944448  1
  B  B20  1  0.200350  0.023840  0.052452  1
  B  B21  1  0.403030  0.627674  0.856363  1
  B  B22  1  0.194020  0.173708  0.549617  1
  B  B23  1  0.397282  0.775263  0.346087  1
  B  B24  1  0.002376  0.423983  0.252184  1
  O  O25  1  0.877577  0.003834  0.401949  1
  O  O26  1  0.942561  0.402981  0.796042  1
  O  O27  1  0.878628  0.479802  0.301750  1
  O  O28  1  0.698974  0.027115  0.668225  1
  O  O29  1  0.881136  0.606901  0.457661  1
  O  O30  1  0.704023  0.174323  0.932624  1
  O  O31  1  0.931661  0.801269  0.743371  1
  O  O32  1  0.772502  0.351851  0.105086  1
  O  O33  1  0.957445  0.945759  0.898658  1
  O  O34  1  0.686539  0.401542  0.606299  1
  O  O35  1  0.512186  0.203050  0.193563  1
  O  O36  1  0.715305  0.796215  0.991549  1
  O  O37  1  0.428554  0.251171  0.694908  1
  O  O38  1  0.662009  0.876350  0.495032  1
  O  O39  1  0.484784  0.419238  0.867080  1
  O  O40  1  0.499105  0.573466  0.131306  1
  O  O41  1  0.344254  0.130022  0.505394  1
  O  O42  1  0.572109  0.750637  0.305241  1
  O  O43  1  0.257687  0.195822  0.003418  1
  O  O44  1  0.485714  0.803464  0.808820  1
  O  O45  1  0.312724  0.597373  0.393070  1
  O  O46  1  0.075978  0.077962  0.102320  1
  O  O47  1  0.250717  0.664207  0.902506  1
  O  O48  1  0.064649  0.196691  0.256415  1
  O  O49  1  0.267771  0.799343  0.057164  1
  O  O50  1  0.113004  0.390889  0.541950  1
  O  O51  1  0.300108  0.973076  0.332405  1
  O  O52  1  0.123891  0.524473  0.697517  1
  O  O53  1  0.068528  0.602283  0.203906  1
  O  O54  1  0.122515  0.997072  0.598059  1
