# generated using pymatgen
data_Li3ZnPCO7
_symmetry_space_group_name_H-M   'P 1'
_cell_length_a   8.47407743
_cell_length_b   6.45146261
_cell_length_c   4.93091814
_cell_angle_alpha   90.00000000
_cell_angle_beta   87.64658963
_cell_angle_gamma   90.00000000
_symmetry_Int_Tables_number   1
_chemical_formula_structural   Li3ZnPCO7
_chemical_formula_sum   'Li6 Zn2 P2 C2 O14'
_cell_volume   269.34687762
_cell_formula_units_Z   2
loop_
 _symmetry_equiv_pos_site_id
 _symmetry_equiv_pos_as_xyz
  1  'x, y, z'
loop_
 _atom_site_type_symbol
 _atom_site_label
 _atom_site_symmetry_multiplicity
 _atom_site_fract_x
 _atom_site_fract_y
 _atom_site_fract_z
 _atom_site_occupancy
  Li  Li0  1  0.086624  0.250000  0.744247  1
  Li  Li1  1  0.263633  0.017319  0.231268  1
  Li  Li2  1  0.263633  0.482681  0.231268  1
  Li  Li3  1  0.736367  0.517319  0.768732  1
  Li  Li4  1  0.736367  0.982681  0.768732  1
  Li  Li5  1  0.913376  0.750000  0.255753  1
  Zn  Zn6  1  0.353504  0.750000  0.774806  1
  Zn  Zn7  1  0.646496  0.250000  0.225194  1
  P  P8  1  0.410294  0.250000  0.712637  1
  P  P9  1  0.589706  0.750000  0.287363  1
  C  C10  1  0.042331  0.750000  0.729092  1
  C  C11  1  0.957669  0.250000  0.270908  1
  O  O12  1  0.082339  0.750000  0.979020  1
  O  O13  1  0.105704  0.250000  0.333735  1
  O  O14  1  0.150442  0.750000  0.533594  1
  O  O15  1  0.310541  0.062236  0.816328  1
  O  O16  1  0.310541  0.437764  0.816328  1
  O  O17  1  0.422723  0.250000  0.394551  1
  O  O18  1  0.418422  0.750000  0.186376  1
  O  O19  1  0.581578  0.250000  0.813624  1
  O  O20  1  0.577277  0.750000  0.605449  1
  O  O21  1  0.689459  0.562236  0.183672  1
  O  O22  1  0.689459  0.937764  0.183672  1
  O  O23  1  0.849558  0.250000  0.466406  1
  O  O24  1  0.894296  0.750000  0.666265  1
  O  O25  1  0.917661  0.250000  0.020980  1
