# generated using pymatgen
data_Li2FeNi3O8
_symmetry_space_group_name_H-M   'P 1'
_cell_length_a   5.84713637
_cell_length_b   5.89850581
_cell_length_c   5.85364682
_cell_angle_alpha   120.15962292
_cell_angle_beta   58.55363061
_cell_angle_gamma   91.60580688
_symmetry_Int_Tables_number   1
_chemical_formula_structural   Li2FeNi3O8
_chemical_formula_sum   'Li2 Fe1 Ni3 O8'
_cell_volume   141.22348865
_cell_formula_units_Z   1
loop_
 _symmetry_equiv_pos_site_id
 _symmetry_equiv_pos_as_xyz
  1  'x, y, z'
loop_
 _atom_site_type_symbol
 _atom_site_label
 _atom_site_symmetry_multiplicity
 _atom_site_fract_x
 _atom_site_fract_y
 _atom_site_fract_z
 _atom_site_occupancy
  Li  Li0  1  0.999996  0.500008  -0.000007  1
  Li  Li1  1  0.500032  0.499996  0.500008  1
  Fe  Fe2  1  0.000029  -0.000002  -0.000005  1
  Ni  Ni3  1  -0.000185  -0.000038  0.499996  1
  Ni  Ni4  1  0.499999  0.000043  0.000146  1
  Ni  Ni5  1  0.500069  -0.000023  0.499917  1
  O  O6  1  0.273729  0.203224  0.483426  1
  O  O7  1  0.251091  0.214547  0.961670  1
  O  O8  1  0.746588  0.215290  0.465434  1
  O  O9  1  0.775925  0.212900  0.984263  1
  O  O10  1  0.224089  0.787103  0.015733  1
  O  O11  1  0.253428  0.784714  0.534556  1
  O  O12  1  0.748932  0.785454  0.038313  1
  O  O13  1  0.726260  0.796774  0.516583  1
