# generated using pymatgen
data_LiVCrP2(HO5)2
_symmetry_space_group_name_H-M   'P 1'
_cell_length_a   5.30974981
_cell_length_b   10.37056387
_cell_length_c   7.36477292
_cell_angle_alpha   105.44666547
_cell_angle_beta   69.83138368
_cell_angle_gamma   83.02022692
_symmetry_Int_Tables_number   1
_chemical_formula_structural   LiVCrP2(HO5)2
_chemical_formula_sum   'Li2 V2 Cr2 P4 H4 O20'
_cell_volume   356.57752039
_cell_formula_units_Z   2
loop_
 _symmetry_equiv_pos_site_id
 _symmetry_equiv_pos_as_xyz
  1  'x, y, z'
loop_
 _atom_site_type_symbol
 _atom_site_label
 _atom_site_symmetry_multiplicity
 _atom_site_fract_x
 _atom_site_fract_y
 _atom_site_fract_z
 _atom_site_occupancy
  Li  Li0  1  0.404135  0.032188  0.183130  1
  Li  Li1  1  0.095865  0.467812  0.316870  1
  V  V2  1  0.750000  0.750000  0.250000  1
  V  V3  1  0.250000  0.250000  0.750000  1
  Cr  Cr4  1  0.498713  0.502228  0.505471  1
  Cr  Cr5  1  0.001287  0.997772  0.994529  1
  P  P6  1  0.901883  0.226120  0.450173  1
  P  P7  1  0.398353  0.724243  0.952311  1
  P  P8  1  0.598117  0.273880  0.049827  1
  P  P9  1  0.101647  0.775757  0.547689  1
  H  H10  1  0.788410  0.496160  0.151178  1
  H  H11  1  0.711590  0.003840  0.348822  1
  H  H12  1  0.315402  0.993321  0.653739  1
  H  H13  1  0.184598  0.506679  0.846261  1
  O  O14  1  0.977729  0.846355  0.778572  1
  O  O15  1  0.859036  0.324947  0.947035  1
  O  O16  1  0.881320  0.810625  0.460025  1
  O  O17  1  0.837019  0.381649  0.489330  1
  O  O18  1  0.662981  0.118351  0.010670  1
  O  O19  1  0.737855  0.936984  0.215918  1
  O  O20  1  0.762145  0.563016  0.284082  1
  O  O21  1  0.522271  0.653645  0.721428  1
  O  O22  1  0.640964  0.175053  0.552965  1
  O  O23  1  0.369598  0.314039  0.973562  1
  O  O24  1  0.618680  0.689375  0.039975  1
  O  O25  1  0.358764  0.832079  0.449270  1
  O  O26  1  0.466413  0.355229  0.280955  1
  O  O27  1  0.258671  0.430034  0.714344  1
  O  O28  1  0.241329  0.069966  0.785656  1
  O  O29  1  0.318143  0.882101  0.011619  1
  O  O30  1  0.181857  0.617899  0.488381  1
  O  O31  1  0.130402  0.185961  0.526438  1
  O  O32  1  0.141236  0.667921  0.050730  1
  O  O33  1  0.033587  0.144771  0.219045  1
