# generated using pymatgen
data_Co5O8
_symmetry_space_group_name_H-M   'P 1'
_cell_length_a   5.71419135
_cell_length_b   5.71419172
_cell_length_c   5.71419135
_cell_angle_alpha   90.00000527
_cell_angle_beta   59.99999994
_cell_angle_gamma   60.00000206
_symmetry_Int_Tables_number   1
_chemical_formula_structural   Co5O8
_chemical_formula_sum   'Co5 O8'
_cell_volume   131.93176161
_cell_formula_units_Z   1
loop_
 _symmetry_equiv_pos_site_id
 _symmetry_equiv_pos_as_xyz
  1  'x, y, z'
loop_
 _atom_site_type_symbol
 _atom_site_label
 _atom_site_symmetry_multiplicity
 _atom_site_fract_x
 _atom_site_fract_y
 _atom_site_fract_z
 _atom_site_occupancy
  Co  Co0  1  0.495967  0.497984  0.502016  1
  Co  Co1  1  0.495967  0.006049  0.502016  1
  Co  Co2  1  0.250000  0.875000  0.125000  1
  Co  Co3  1  0.004033  0.497984  0.502016  1
  Co  Co4  1  0.004033  0.497984  0.993951  1
  O  O5  1  0.975014  0.737507  0.262493  1
  O  O6  1  0.975014  0.287479  0.262493  1
  O  O7  1  0.524986  0.737507  0.712521  1
  O  O8  1  0.524986  0.737507  0.262493  1
  O  O9  1  0.465097  0.267452  0.732548  1
  O  O10  1  0.465097  0.267452  0.302355  1
  O  O11  1  0.034903  0.697645  0.732548  1
  O  O12  1  0.034903  0.267452  0.732548  1
