# generated using pymatgen
data_Li3Mn4(BO3)4
_symmetry_space_group_name_H-M   'P 1'
_cell_length_a   9.05916247
_cell_length_b   9.15737415
_cell_length_c   11.53486527
_cell_angle_alpha   89.77250392
_cell_angle_beta   68.32214056
_cell_angle_gamma   60.09859558
_symmetry_Int_Tables_number   1
_chemical_formula_structural   Li3Mn4(BO3)4
_chemical_formula_sum   'Li9 Mn12 B12 O36'
_cell_volume   751.33542638
_cell_formula_units_Z   3
loop_
 _symmetry_equiv_pos_site_id
 _symmetry_equiv_pos_as_xyz
  1  'x, y, z'
loop_
 _atom_site_type_symbol
 _atom_site_label
 _atom_site_symmetry_multiplicity
 _atom_site_fract_x
 _atom_site_fract_y
 _atom_site_fract_z
 _atom_site_occupancy
  Li  Li0  1  0.350213  0.348900  0.150333  1
  Li  Li1  1  0.290934  0.360837  0.911111  1
  Li  Li2  1  0.627705  0.183920  0.390287  1
  Li  Li3  1  0.659852  0.173449  0.666771  1
  Li  Li4  1  0.987479  0.014841  0.171769  1
  Li  Li5  1  0.301284  0.836270  0.408069  1
  Li  Li6  1  0.337075  0.806225  0.660813  1
  Li  Li7  1  0.668923  0.677909  0.169754  1
  Li  Li8  1  0.971215  0.504040  0.673106  1
  Mn  Mn9  1  0.038664  0.133277  0.637501  1
  Mn  Mn10  1  0.032969  0.325943  0.135076  1
  Mn  Mn11  1  0.287479  0.999685  0.892457  1
  Mn  Mn12  1  0.266765  0.206283  0.376355  1
  Mn  Mn13  1  0.343005  0.483301  0.628659  1
  Mn  Mn14  1  0.360183  0.666647  0.121938  1
  Mn  Mn15  1  0.666023  0.360725  0.879337  1
  Mn  Mn16  1  0.662758  0.507729  0.389674  1
  Mn  Mn17  1  0.661665  0.853748  0.629930  1
  Mn  Mn18  1  0.676460  0.998787  0.130412  1
  Mn  Mn19  1  0.947344  0.689053  0.885030  1
  Mn  Mn20  1  0.980009  0.832072  0.378616  1
  B  B21  1  0.359382  0.152317  0.606135  1
  B  B22  1  0.029037  0.658378  0.124017  1
  B  B23  1  0.625035  0.028603  0.869039  1
  B  B24  1  0.332642  0.506875  0.366306  1
  B  B25  1  0.023301  0.812235  0.624101  1
  B  B26  1  0.700739  0.325974  0.131444  1
  B  B27  1  0.307658  0.655204  0.866266  1
  B  B28  1  0.984063  0.168006  0.375670  1
  B  B29  1  0.683606  0.501454  0.641271  1
  B  B30  1  0.346827  0.993611  0.138243  1
  B  B31  1  0.989675  0.331122  0.874657  1
  B  B32  1  0.618434  0.865237  0.385364  1
  O  O33  1  0.203811  0.050147  0.096759  1
  O  O34  1  0.130937  0.085574  0.416492  1
  O  O35  1  0.374166  0.120460  0.180820  1
  O  O36  1  0.205375  0.246130  0.571478  1
  O  O37  1  0.144163  0.481409  0.105159  1
  O  O38  1  0.126321  0.266527  0.921081  1
  O  O39  1  0.562293  0.019985  0.345640  1
  O  O40  1  0.270547  0.408415  0.336609  1
  O  O41  1  0.469085  0.214483  0.605655  1
  O  O42  1  0.068232  0.769616  0.171134  1
  O  O43  1  0.059042  0.661770  0.665811  1
  O  O44  1  0.573371  0.394069  0.072488  1
  O  O45  1  0.760998  0.164366  0.154198  1
  O  O46  1  0.566147  0.196285  0.857595  1
  O  O47  1  0.459255  0.443398  0.420135  1
  O  O48  1  0.267739  0.668773  0.335801  1
  O  O49  1  0.243967  0.557496  0.834427  1
  O  O50  1  0.892277  0.089786  0.366953  1
  O  O51  1  0.142140  0.871619  0.603304  1
  O  O52  1  0.750524  0.432826  0.169066  1
  O  O53  1  0.748614  0.342366  0.684726  1
  O  O54  1  0.546480  0.548749  0.596511  1
  O  O55  1  0.453768  0.825451  0.138690  1
  O  O56  1  0.248843  0.816221  0.843946  1
  O  O57  1  0.433772  0.584395  0.923118  1
  O  O58  1  0.945887  0.324819  0.343956  1
  O  O59  1  0.935674  0.219370  0.843925  1
  O  O60  1  0.561966  0.757897  0.364817  1
  O  O61  1  0.755234  0.600227  0.641588  1
  O  O62  1  0.389394  0.997572  0.643101  1
  O  O63  1  0.873582  0.728326  0.095345  1
  O  O64  1  0.907455  0.492948  0.854031  1
  O  O65  1  0.744826  0.814303  0.443453  1
  O  O66  1  0.567410  0.938606  0.813104  1
  O  O67  1  0.866100  0.906305  0.596062  1
  O  O68  1  0.730841  0.945415  0.934495  1
