# generated using pymatgen
data_LiMn2(PO4)2
_symmetry_space_group_name_H-M   'P 1'
_cell_length_a   12.53307076
_cell_length_b   9.05059323
_cell_length_c   8.70266100
_cell_angle_alpha   104.95176104
_cell_angle_beta   80.64975343
_cell_angle_gamma   75.21580394
_symmetry_Int_Tables_number   1
_chemical_formula_structural   LiMn2(PO4)2
_chemical_formula_sum   'Li6 Mn12 P12 O48'
_cell_volume   894.19680619
_cell_formula_units_Z   6
loop_
 _symmetry_equiv_pos_site_id
 _symmetry_equiv_pos_as_xyz
  1  'x, y, z'
loop_
 _atom_site_type_symbol
 _atom_site_label
 _atom_site_symmetry_multiplicity
 _atom_site_fract_x
 _atom_site_fract_y
 _atom_site_fract_z
 _atom_site_occupancy
  Li  Li0  1  0.117365  0.871660  0.998052  1
  Li  Li1  1  0.018911  0.493422  0.502556  1
  Li  Li2  1  0.401324  0.615502  0.007031  1
  Li  Li3  1  0.480286  0.004670  0.495451  1
  Li  Li4  1  0.749456  0.751993  0.503400  1
  Li  Li5  1  0.863298  0.141443  0.987949  1
  Mn  Mn6  1  0.041270  0.893249  0.619150  1
  Mn  Mn7  1  0.241992  0.477125  0.279694  1
  Mn  Mn8  1  0.128134  0.487498  0.938079  1
  Mn  Mn9  1  0.373938  0.011879  0.059866  1
  Mn  Mn10  1  0.461720  0.602733  0.375828  1
  Mn  Mn11  1  0.259709  0.018685  0.718380  1
  Mn  Mn12  1  0.735259  0.993717  0.276479  1
  Mn  Mn13  1  0.536709  0.396078  0.614568  1
  Mn  Mn14  1  0.631826  0.989916  0.936188  1
  Mn  Mn15  1  0.866989  0.516561  0.064493  1
  Mn  Mn16  1  0.758916  0.506259  0.732561  1
  Mn  Mn17  1  0.965171  0.101427  0.383798  1
  P  P18  1  0.107576  0.233456  0.120619  1
  P  P19  1  0.255919  0.869570  0.333012  1
  P  P20  1  0.019471  0.277360  0.711546  1
  P  P21  1  0.244527  0.630367  0.665363  1
  P  P22  1  0.605608  0.739908  0.124849  1
  P  P23  1  0.479767  0.222778  0.288409  1
  P  P24  1  0.521859  0.771665  0.711388  1
  P  P25  1  0.391603  0.265898  0.875189  1
  P  P26  1  0.751356  0.379216  0.342797  1
  P  P27  1  0.978820  0.728025  0.288143  1
  P  P28  1  0.753639  0.115815  0.655121  1
  P  P29  1  0.890888  0.767894  0.880546  1
  O  O30  1  0.047149  0.355621  0.036816  1
  O  O31  1  0.124121  0.931177  0.390978  1
  O  O32  1  0.096539  0.635014  0.164910  1
  O  O33  1  0.029469  0.131163  0.159288  1
  O  O34  1  0.292200  0.882005  0.155336  1
  O  O35  1  0.998600  0.279241  0.539721  1
  O  O36  1  0.131755  0.331577  0.275138  1
  O  O37  1  0.310169  0.957805  0.457934  1
  O  O38  1  0.283900  0.386167  0.006053  1
  O  O39  1  0.200848  0.815600  0.693060  1
  O  O40  1  0.297796  0.685275  0.307862  1
  O  O41  1  0.188792  0.543201  0.542926  1
  O  O42  1  0.108906  0.366647  0.733279  1
  O  O43  1  0.551101  0.862335  0.036349  1
  O  O44  1  0.070200  0.110260  0.729871  1
  O  O45  1  0.207456  0.618519  0.843525  1
  O  O46  1  0.516857  0.656872  0.163687  1
  O  O47  1  0.427508  0.390953  0.274105  1
  O  O48  1  0.403681  0.865313  0.834295  1
  O  O49  1  0.375920  0.570205  0.606428  1
  O  O50  1  0.388758  0.135346  0.265594  1
  O  O51  1  0.505594  0.771298  0.540391  1
  O  O52  1  0.633984  0.833133  0.279188  1
  O  O53  1  0.784077  0.892038  0.010707  1
  O  O54  1  0.215858  0.111962  0.991907  1
  O  O55  1  0.365541  0.165122  0.723080  1
  O  O56  1  0.500175  0.220319  0.460393  1
  O  O57  1  0.618782  0.849962  0.730219  1
  O  O58  1  0.618037  0.428175  0.394914  1
  O  O59  1  0.599807  0.135152  0.168081  1
  O  O60  1  0.566326  0.602374  0.734460  1
  O  O61  1  0.464851  0.370506  0.831224  1
  O  O62  1  0.792547  0.386193  0.165359  1
  O  O63  1  0.934194  0.897662  0.265708  1
  O  O64  1  0.454769  0.146109  0.959182  1
  O  O65  1  0.881202  0.650501  0.270333  1
  O  O66  1  0.791455  0.489412  0.471510  1
  O  O67  1  0.700799  0.294752  0.669294  1
  O  O68  1  0.800282  0.197570  0.324753  1
  O  O69  1  0.713669  0.614952  0.999050  1
  O  O70  1  0.711865  0.003907  0.530535  1
  O  O71  1  0.862320  0.673837  0.727476  1
  O  O72  1  0.994810  0.725661  0.458592  1
  O  O73  1  0.728964  0.094893  0.828158  1
  O  O74  1  0.972749  0.864812  0.846239  1
  O  O75  1  0.899181  0.362416  0.834984  1
  O  O76  1  0.887287  0.070582  0.596849  1
  O  O77  1  0.948581  0.643373  0.964289  1
