# generated using pymatgen
data_Ti3CrCu2(PO4)6
_symmetry_space_group_name_H-M   'P 1'
_cell_length_a   8.61383604
_cell_length_b   8.61383604
_cell_length_c   8.61383629
_cell_angle_alpha   60.02523195
_cell_angle_beta   60.02523628
_cell_angle_gamma   60.02523876
_symmetry_Int_Tables_number   1
_chemical_formula_structural   Ti3CrCu2(PO4)6
_chemical_formula_sum   'Ti3 Cr1 Cu2 P6 O24'
_cell_volume   452.19232906
_cell_formula_units_Z   1
loop_
 _symmetry_equiv_pos_site_id
 _symmetry_equiv_pos_as_xyz
  1  'x, y, z'
loop_
 _atom_site_type_symbol
 _atom_site_label
 _atom_site_symmetry_multiplicity
 _atom_site_fract_x
 _atom_site_fract_y
 _atom_site_fract_z
 _atom_site_occupancy
  Ti  Ti0  1  0.142445  0.142445  0.142445  1
  Ti  Ti1  1  0.356903  0.356903  0.356903  1
  Ti  Ti2  1  0.643523  0.643523  0.643523  1
  Cr  Cr3  1  0.858261  0.858261  0.858261  1
  Cu  Cu4  1  0.998957  0.998957  0.998957  1
  Cu  Cu5  1  0.499737  0.499737  0.499737  1
  P  P6  1  0.248584  0.542675  0.958118  1
  P  P7  1  0.542675  0.958118  0.248584  1
  P  P8  1  0.958118  0.248584  0.542675  1
  P  P9  1  0.040856  0.750796  0.460737  1
  P  P10  1  0.460737  0.040856  0.750796  1
  P  P11  1  0.750796  0.460737  0.040856  1
  O  O12  1  0.122503  0.306613  0.498714  1
  O  O13  1  0.306613  0.498714  0.122503  1
  O  O14  1  0.057296  0.915610  0.266354  1
  O  O15  1  0.498714  0.122503  0.306613  1
  O  O16  1  0.008348  0.803162  0.620622  1
  O  O17  1  0.232923  0.583625  0.438551  1
  O  O18  1  0.266354  0.057296  0.915610  1
  O  O19  1  0.438551  0.232923  0.583625  1
  O  O20  1  0.194354  0.376264  0.999844  1
  O  O21  1  0.583625  0.438551  0.232923  1
  O  O22  1  0.084595  0.733913  0.944567  1
  O  O23  1  0.376264  0.999844  0.194354  1
  O  O24  1  0.620622  0.008348  0.803162  1
  O  O25  1  0.915610  0.266354  0.057296  1
  O  O26  1  0.416534  0.556101  0.767167  1
  O  O27  1  0.803162  0.620622  0.008348  1
  O  O28  1  0.556101  0.767167  0.416534  1
  O  O29  1  0.733913  0.944567  0.084595  1
  O  O30  1  0.767167  0.416534  0.556101  1
  O  O31  1  0.999844  0.194354  0.376264  1
  O  O32  1  0.499952  0.875851  0.694950  1
  O  O33  1  0.944567  0.084595  0.733913  1
  O  O34  1  0.694950  0.499952  0.875851  1
  O  O35  1  0.875851  0.694950  0.499952  1
