# generated using pymatgen
data_H6S2N2O3
_symmetry_space_group_name_H-M   'P 1'
_cell_length_a   6.16796077
_cell_length_b   6.16796077
_cell_length_c   8.81707384
_cell_angle_alpha   87.42116432
_cell_angle_beta   92.57883568
_cell_angle_gamma   114.34330041
_symmetry_Int_Tables_number   1
_chemical_formula_structural   H6S2N2O3
_chemical_formula_sum   'H12 S4 N4 O6'
_cell_volume   305.17324218
_cell_formula_units_Z   2
loop_
 _symmetry_equiv_pos_site_id
 _symmetry_equiv_pos_as_xyz
  1  'x, y, z'
loop_
 _atom_site_type_symbol
 _atom_site_label
 _atom_site_symmetry_multiplicity
 _atom_site_fract_x
 _atom_site_fract_y
 _atom_site_fract_z
 _atom_site_occupancy
  H  H0  1  0.335511  0.602177  0.762019  1
  H  H1  1  0.602177  0.335511  0.237981  1
  H  H2  1  0.199946  0.307625  0.722826  1
  H  H3  1  0.307625  0.199946  0.277174  1
  H  H4  1  0.166833  0.517728  0.603000  1
  H  H5  1  0.517728  0.166833  0.397000  1
  H  H6  1  0.037193  0.455730  0.776321  1
  H  H7  1  0.455730  0.037193  0.223679  1
  H  H8  1  0.110494  0.990723  0.936875  1
  H  H9  1  0.990723  0.110494  0.063125  1
  H  H10  1  0.818828  0.927962  0.923734  1
  H  H11  1  0.927962  0.818828  0.076266  1
  S  S12  1  0.669298  0.348141  0.907606  1
  S  S13  1  0.348141  0.669298  0.092394  1
  S  S14  1  0.526014  0.115814  0.733063  1
  S  S15  1  0.115814  0.526014  0.266937  1
  N  N16  1  0.183431  0.469315  0.716559  1
  N  N17  1  0.469315  0.183431  0.283441  1
  N  N18  1  0.814203  0.814203  0.500000  1
  N  N19  1  0.962314  0.962314  0.000000  1
  O  O20  1  0.598056  0.915793  0.769243  1
  O  O21  1  0.915793  0.598056  0.230757  1
  O  O22  1  0.262864  0.034449  0.738790  1
  O  O23  1  0.034449  0.262864  0.261210  1
  O  O24  1  0.621462  0.241596  0.589838  1
  O  O25  1  0.241596  0.621462  0.410162  1
