# generated using pymatgen
data_NaLi2MnPCO7
_symmetry_space_group_name_H-M   'P 1'
_cell_length_a   8.74180173
_cell_length_b   6.64771340
_cell_length_c   5.03820482
_cell_angle_alpha   90.27588021
_cell_angle_beta   88.71848588
_cell_angle_gamma   89.25673263
_symmetry_Int_Tables_number   1
_chemical_formula_structural   NaLi2MnPCO7
_chemical_formula_sum   'Na2 Li4 Mn2 P2 C2 O14'
_cell_volume   292.68348083
_cell_formula_units_Z   2
loop_
 _symmetry_equiv_pos_site_id
 _symmetry_equiv_pos_as_xyz
  1  'x, y, z'
loop_
 _atom_site_type_symbol
 _atom_site_label
 _atom_site_symmetry_multiplicity
 _atom_site_fract_x
 _atom_site_fract_y
 _atom_site_fract_z
 _atom_site_occupancy
  Na  Na0  1  0.085011  0.247305  0.754935  1
  Na  Na1  1  0.748547  0.501052  0.752651  1
  Li  Li2  1  0.267228  0.020451  0.229113  1
  Li  Li3  1  0.266308  0.480102  0.228476  1
  Li  Li4  1  0.731728  0.980206  0.771046  1
  Li  Li5  1  0.917074  0.763751  0.253661  1
  Mn  Mn6  1  0.356608  0.748443  0.777125  1
  Mn  Mn7  1  0.642723  0.244795  0.226106  1
  P  P8  1  0.410723  0.244001  0.708446  1
  P  P9  1  0.590052  0.753728  0.299972  1
  C  C10  1  0.044718  0.758808  0.727359  1
  C  C11  1  0.950857  0.247269  0.264069  1
  O  O12  1  0.099604  0.250047  0.277379  1
  O  O13  1  0.085947  0.752034  0.973232  1
  O  O14  1  0.146885  0.746344  0.535253  1
  O  O15  1  0.315671  0.063484  0.811229  1
  O  O16  1  0.325449  0.433835  0.819997  1
  O  O17  1  0.411926  0.247730  0.396579  1
  O  O18  1  0.422686  0.752606  0.199097  1
  O  O19  1  0.579078  0.232701  0.798775  1
  O  O20  1  0.580595  0.772590  0.608993  1
  O  O21  1  0.682806  0.560821  0.221303  1
  O  O22  1  0.686525  0.929142  0.183303  1
  O  O23  1  0.865772  0.242262  0.478854  1
  O  O24  1  0.884489  0.249052  0.036357  1
  O  O25  1  0.900991  0.777441  0.666689  1
