# generated using pymatgen
data_CdH6(SO4)4
_symmetry_space_group_name_H-M   'P 1'
_cell_length_a   5.54639367
_cell_length_b   16.04719547
_cell_length_c   9.00369639
_cell_angle_alpha   90.00000000
_cell_angle_beta   106.13849497
_cell_angle_gamma   90.00000000
_symmetry_Int_Tables_number   1
_chemical_formula_structural   CdH6(SO4)4
_chemical_formula_sum   'Cd2 H12 S8 O32'
_cell_volume   769.78584617
_cell_formula_units_Z   2
loop_
 _symmetry_equiv_pos_site_id
 _symmetry_equiv_pos_as_xyz
  1  'x, y, z'
loop_
 _atom_site_type_symbol
 _atom_site_label
 _atom_site_symmetry_multiplicity
 _atom_site_fract_x
 _atom_site_fract_y
 _atom_site_fract_z
 _atom_site_occupancy
  Cd  Cd0  1  0.000000  0.500000  0.500000  1
  Cd  Cd1  1  0.000000  0.000000  0.000000  1
  H  H2  1  0.478789  0.203596  0.672975  1
  H  H3  1  0.521211  0.703596  0.827025  1
  H  H4  1  0.521211  0.796404  0.327025  1
  H  H5  1  0.478789  0.296404  0.172975  1
  H  H6  1  0.822905  0.735306  0.725880  1
  H  H7  1  0.177095  0.235306  0.774120  1
  H  H8  1  0.177095  0.264694  0.274120  1
  H  H9  1  0.822905  0.764694  0.225880  1
  H  H10  1  0.232776  0.727625  0.486227  1
  H  H11  1  0.767224  0.227625  0.013773  1
  H  H12  1  0.767224  0.272375  0.513773  1
  H  H13  1  0.232776  0.772375  0.986227  1
  S  S14  1  0.416182  0.428713  0.263953  1
  S  S15  1  0.583818  0.928713  0.236047  1
  S  S16  1  0.583818  0.571287  0.736047  1
  S  S17  1  0.416182  0.071287  0.763953  1
  S  S18  1  0.147751  0.671571  0.261014  1
  S  S19  1  0.852249  0.171571  0.238986  1
  S  S20  1  0.852249  0.328429  0.738986  1
  S  S21  1  0.147751  0.828429  0.761014  1
  O  O22  1  0.396521  0.183742  0.750794  1
  O  O23  1  0.603479  0.683742  0.749206  1
  O  O24  1  0.603479  0.816258  0.249206  1
  O  O25  1  0.396521  0.316258  0.250794  1
  O  O26  1  0.159025  0.287294  0.559197  1
  O  O27  1  0.840975  0.787294  0.940803  1
  O  O28  1  0.840975  0.712706  0.440803  1
  O  O29  1  0.159025  0.212706  0.059197  1
  O  O30  1  0.303199  0.562028  0.684576  1
  O  O31  1  0.696801  0.062028  0.815424  1
  O  O32  1  0.696801  0.437972  0.315424  1
  O  O33  1  0.303199  0.937972  0.184576  1
  O  O34  1  0.695161  0.560782  0.605156  1
  O  O35  1  0.304839  0.060782  0.894844  1
  O  O36  1  0.304839  0.439218  0.394844  1
  O  O37  1  0.695161  0.939218  0.105156  1
  O  O38  1  0.987031  0.396875  0.692750  1
  O  O39  1  0.012969  0.896875  0.807250  1
  O  O40  1  0.012969  0.603125  0.307250  1
  O  O41  1  0.987031  0.103125  0.192750  1
  O  O42  1  0.302007  0.845795  0.660663  1
  O  O43  1  0.697993  0.345795  0.839337  1
  O  O44  1  0.697993  0.154205  0.339337  1
  O  O45  1  0.302007  0.654205  0.160663  1
  O  O46  1  0.963166  0.758828  0.679613  1
  O  O47  1  0.036834  0.258828  0.820387  1
  O  O48  1  0.036834  0.241172  0.320387  1
  O  O49  1  0.963166  0.741172  0.179613  1
  O  O50  1  0.673500  0.284305  0.590833  1
  O  O51  1  0.326500  0.784305  0.909167  1
  O  O52  1  0.326500  0.715695  0.409167  1
  O  O53  1  0.673500  0.215695  0.090833  1
