# generated using pymatgen
data_CsVH12(C2O7)2
_symmetry_space_group_name_H-M   'P 1'
_cell_length_a   5.97821481
_cell_length_b   5.98003446
_cell_length_c   10.33815767
_cell_angle_alpha   81.31326853
_cell_angle_beta   98.65424834
_cell_angle_gamma   101.89240748
_symmetry_Int_Tables_number   1
_chemical_formula_structural   CsVH12(C2O7)2
_chemical_formula_sum   'Cs1 V1 H12 C4 O14'
_cell_volume   354.77552526
_cell_formula_units_Z   1
loop_
 _symmetry_equiv_pos_site_id
 _symmetry_equiv_pos_as_xyz
  1  'x, y, z'
loop_
 _atom_site_type_symbol
 _atom_site_label
 _atom_site_symmetry_multiplicity
 _atom_site_fract_x
 _atom_site_fract_y
 _atom_site_fract_z
 _atom_site_occupancy
  Cs  Cs0  1  0.994842  0.994062  0.999680  1
  V  V1  1  0.499755  0.502228  0.498893  1
  H  H2  1  0.707345  0.297096  0.351381  1
  H  H3  1  0.294987  0.711637  0.648625  1
  H  H4  1  0.792517  0.211467  0.515981  1
  H  H5  1  0.207437  0.796763  0.486013  1
  H  H6  1  0.838138  0.374861  0.165392  1
  H  H7  1  0.625252  0.162973  0.167233  1
  H  H8  1  0.164946  0.621695  0.836089  1
  H  H9  1  0.377139  0.834539  0.838403  1
  H  H10  1  0.095312  0.112616  0.650809  1
  H  H11  1  0.881764  0.902924  0.651519  1
  H  H12  1  0.900708  0.886256  0.346633  1
  H  H13  1  0.113051  0.098183  0.344185  1
  C  C14  1  0.736948  0.470130  0.761224  1
  C  C15  1  0.528464  0.265598  0.761018  1
  C  C16  1  0.262304  0.533586  0.235782  1
  C  C17  1  0.469556  0.738612  0.235817  1
  O  O18  1  0.694228  0.302636  0.449218  1
  O  O19  1  0.304669  0.703114  0.551284  1
  O  O20  1  0.747004  0.603849  0.650163  1
  O  O21  1  0.394953  0.255637  0.649833  1
  O  O22  1  0.250098  0.401891  0.347417  1
  O  O23  1  0.604463  0.745619  0.346485  1
  O  O24  1  0.877455  0.495955  0.862130  1
  O  O25  1  0.503075  0.125549  0.862212  1
  O  O26  1  0.123655  0.507349  0.134135  1
  O  O27  1  0.495710  0.880391  0.135420  1
  O  O28  1  0.688299  0.314071  0.199999  1
  O  O29  1  0.316855  0.684494  0.804198  1
  O  O30  1  0.925952  0.072285  0.649584  1
  O  O31  1  0.070360  0.928779  0.347513  1
