# generated using pymatgen
data_Li7Cr7P6(O8F)3
_symmetry_space_group_name_H-M   'P 1'
_cell_length_a   13.58250148
_cell_length_b   13.57341271
_cell_length_c   6.61473661
_cell_angle_alpha   90.13958317
_cell_angle_beta   88.74399731
_cell_angle_gamma   60.10266950
_symmetry_Int_Tables_number   1
_chemical_formula_structural   Li7Cr7P6(O8F)3
_chemical_formula_sum   'Li14 Cr14 P12 O48 F6'
_cell_volume   1056.82822842
_cell_formula_units_Z   2
loop_
 _symmetry_equiv_pos_site_id
 _symmetry_equiv_pos_as_xyz
  1  'x, y, z'
loop_
 _atom_site_type_symbol
 _atom_site_label
 _atom_site_symmetry_multiplicity
 _atom_site_fract_x
 _atom_site_fract_y
 _atom_site_fract_z
 _atom_site_occupancy
  Li  Li0  1  0.260691  0.921809  0.257950  1
  Li  Li1  1  0.182413  0.739516  0.751204  1
  Li  Li2  1  0.505503  0.873920  0.757897  1
  Li  Li3  1  0.126193  0.378487  0.257284  1
  Li  Li4  1  0.079438  0.181303  0.758480  1
  Li  Li5  1  0.380537  0.494042  0.257088  1
  Li  Li6  1  0.332443  0.333394  0.442293  1
  Li  Li7  1  0.666049  0.666362  0.941996  1
  Li  Li8  1  0.620331  0.506178  0.755302  1
  Li  Li9  1  0.921238  0.818091  0.244667  1
  Li  Li10  1  0.874850  0.619479  0.755796  1
  Li  Li11  1  0.493496  0.125810  0.254919  1
  Li  Li12  1  0.819198  0.260701  0.251207  1
  Li  Li13  1  0.739155  0.079424  0.744227  1
  Cr  Cr14  1  0.124985  0.579468  0.011262  1
  Cr  Cr15  1  0.125318  0.578995  0.513508  1
  Cr  Cr16  1  0.421974  0.703595  0.512502  1
  Cr  Cr17  1  0.419826  0.705070  0.015109  1
  Cr  Cr18  1  0.705407  0.874656  0.010983  1
  Cr  Cr19  1  0.703174  0.874820  0.508178  1
  Cr  Cr20  1  0.000275  0.999973  0.003487  1
  Cr  Cr21  1  0.000653  0.999838  0.503499  1
  Cr  Cr22  1  0.297441  0.126190  0.011981  1
  Cr  Cr23  1  0.293799  0.124826  0.514404  1
  Cr  Cr24  1  0.581582  0.293033  0.509346  1
  Cr  Cr25  1  0.575838  0.297997  0.007540  1
  Cr  Cr26  1  0.874721  0.418072  0.011037  1
  Cr  Cr27  1  0.872986  0.425141  0.509728  1
  P  P28  1  0.246819  0.934541  0.765170  1
  P  P29  1  0.181440  0.753501  0.258753  1
  P  P30  1  0.487057  0.884828  0.266517  1
  P  P31  1  0.115153  0.371835  0.767243  1
  P  P32  1  0.371849  0.512431  0.763729  1
  P  P33  1  0.066231  0.180924  0.259772  1
  P  P34  1  0.934742  0.818326  0.745341  1
  P  P35  1  0.628744  0.487095  0.260945  1
  P  P36  1  0.883529  0.628442  0.261024  1
  P  P37  1  0.512243  0.116430  0.759744  1
  P  P38  1  0.818766  0.247085  0.744644  1
  P  P39  1  0.752763  0.065425  0.237735  1
  O  O40  1  0.113552  0.011827  0.780456  1
  O  O41  1  0.125375  0.886601  0.275849  1
  O  O42  1  0.003625  0.685260  0.735027  1
  O  O43  1  0.372335  0.999397  0.245247  1
  O  O44  1  0.276582  0.857603  0.574857  1
  O  O45  1  0.134285  0.725714  0.069352  1
  O  O46  1  0.283968  0.863723  0.960015  1
  O  O47  1  0.149048  0.713725  0.454738  1
  O  O48  1  0.314253  0.689454  0.239214  1
  O  O49  1  0.998982  0.373276  0.750343  1
  O  O50  1  0.547319  0.888264  0.460222  1
  O  O51  1  0.113507  0.435527  0.962402  1
  O  O52  1  0.457507  0.788983  0.285017  1
  O  O53  1  0.134543  0.424445  0.572776  1
  O  O54  1  0.560458  0.864928  0.071285  1
  O  O55  1  0.688743  0.996333  0.234888  1
  O  O56  1  0.246959  0.540994  0.783594  1
  O  O57  1  0.370336  0.627997  0.740285  1
  O  O58  1  0.989304  0.123481  0.258668  1
  O  O59  1  0.210039  0.246209  0.780355  1
  O  O60  1  0.135800  0.143750  0.455509  1
  O  O61  1  0.434845  0.453266  0.958350  1
  O  O62  1  0.144345  0.136623  0.069181  1
  O  O63  1  0.574849  0.559833  0.071619  1
  O  O64  1  0.427116  0.438253  0.570273  1
  O  O65  1  0.859476  0.863149  0.557971  1
  O  O66  1  0.566389  0.548538  0.460147  1
  O  O67  1  0.863491  0.852163  0.944437  1
  O  O68  1  0.786899  0.753193  0.279884  1
  O  O69  1  0.011260  0.875826  0.748170  1
  O  O70  1  0.627787  0.372295  0.240668  1
  O  O71  1  0.755101  0.456043  0.269918  1
  O  O72  1  0.310726  0.003204  0.745592  1
  O  O73  1  0.439035  0.134637  0.571537  1
  O  O74  1  0.865410  0.572802  0.070478  1
  O  O75  1  0.541593  0.212667  0.774352  1
  O  O76  1  0.887131  0.565557  0.458267  1
  O  O77  1  0.451918  0.113976  0.959247  1
  O  O78  1  0.997265  0.630807  0.236654  1
  O  O79  1  0.686321  0.310802  0.741853  1
  O  O80  1  0.856921  0.277859  0.943233  1
  O  O81  1  0.719520  0.135338  0.437923  1
  O  O82  1  0.861777  0.283349  0.557144  1
  O  O83  1  0.718325  0.143210  0.051739  1
  O  O84  1  0.627738  0.002077  0.735330  1
  O  O85  1  0.998375  0.312969  0.251229  1
  O  O86  1  0.875024  0.113828  0.730229  1
  O  O87  1  0.885786  0.988462  0.225499  1
  F  F88  1  0.248937  0.479059  0.298262  1
  F  F89  1  0.520769  0.727102  0.798900  1
  F  F90  1  0.728681  0.751216  0.797017  1
  F  F91  1  0.273488  0.247829  0.294389  1
  F  F92  1  0.478703  0.271952  0.291833  1
  F  F93  1  0.749726  0.523467  0.784869  1
