# generated using pymatgen
data_Rb3HoO3
_symmetry_space_group_name_H-M   'P 1'
_cell_length_a   11.76358553
_cell_length_b   7.38657076
_cell_length_c   7.99294514
_cell_angle_alpha   90.00000000
_cell_angle_beta   94.08056019
_cell_angle_gamma   90.00000000
_symmetry_Int_Tables_number   1
_chemical_formula_structural   Rb3HoO3
_chemical_formula_sum   'Rb12 Ho4 O12'
_cell_volume   692.76680166
_cell_formula_units_Z   4
loop_
 _symmetry_equiv_pos_site_id
 _symmetry_equiv_pos_as_xyz
  1  'x, y, z'
loop_
 _atom_site_type_symbol
 _atom_site_label
 _atom_site_symmetry_multiplicity
 _atom_site_fract_x
 _atom_site_fract_y
 _atom_site_fract_z
 _atom_site_occupancy
  Rb  Rb0  1  0.078788  0.330808  0.641663  1
  Rb  Rb1  1  0.154994  0.621964  0.067819  1
  Rb  Rb2  1  0.192314  0.803868  0.624956  1
  Rb  Rb3  1  0.307686  0.303868  0.375044  1
  Rb  Rb4  1  0.345006  0.121964  0.932181  1
  Rb  Rb5  1  0.421212  0.830808  0.358337  1
  Rb  Rb6  1  0.578788  0.169192  0.641663  1
  Rb  Rb7  1  0.654994  0.878036  0.067819  1
  Rb  Rb8  1  0.692314  0.696132  0.624956  1
  Rb  Rb9  1  0.807686  0.196132  0.375044  1
  Rb  Rb10  1  0.845006  0.378036  0.932181  1
  Rb  Rb11  1  0.921212  0.669192  0.358337  1
  Ho  Ho12  1  0.067081  0.088908  0.161615  1
  Ho  Ho13  1  0.432919  0.588908  0.838385  1
  Ho  Ho14  1  0.567081  0.411092  0.161615  1
  Ho  Ho15  1  0.932919  0.911092  0.838385  1
  O  O16  1  0.042764  0.354799  0.253309  1
  O  O17  1  0.096089  0.049383  0.893719  1
  O  O18  1  0.189150  0.940904  0.310597  1
  O  O19  1  0.310850  0.440904  0.689403  1
  O  O20  1  0.403911  0.549383  0.106281  1
  O  O21  1  0.457236  0.854799  0.746691  1
  O  O22  1  0.542764  0.145201  0.253309  1
  O  O23  1  0.596089  0.450617  0.893719  1
  O  O24  1  0.689150  0.559096  0.310597  1
  O  O25  1  0.810850  0.059096  0.689403  1
  O  O26  1  0.903911  0.950617  0.106281  1
  O  O27  1  0.957236  0.645201  0.746691  1
