# generated using pymatgen
data_V4O7F5
_symmetry_space_group_name_H-M   'P 1'
_cell_length_a   5.21823071
_cell_length_b   5.28666053
_cell_length_c   8.77785023
_cell_angle_alpha   75.06816181
_cell_angle_beta   90.00000000
_cell_angle_gamma   60.42726377
_symmetry_Int_Tables_number   1
_chemical_formula_structural   V4O7F5
_chemical_formula_sum   'V4 O7 F5'
_cell_volume   201.15408230
_cell_formula_units_Z   1
loop_
 _symmetry_equiv_pos_site_id
 _symmetry_equiv_pos_as_xyz
  1  'x, y, z'
loop_
 _atom_site_type_symbol
 _atom_site_label
 _atom_site_symmetry_multiplicity
 _atom_site_fract_x
 _atom_site_fract_y
 _atom_site_fract_z
 _atom_site_occupancy
  V  V0  1  0.772586  0.446485  0.255832  1
  V  V1  1  0.469071  0.053515  0.494168  1
  V  V2  1  0.264510  0.536901  0.745163  1
  V  V3  1  0.051411  0.963099  0.004837  1
  O  O4  1  0.945830  0.255761  0.119842  1
  O  O5  1  0.409577  0.754385  0.083055  1
  O  O6  1  0.413962  0.745615  0.666945  1
  O  O7  1  0.587802  0.245328  0.333429  1
  O  O8  1  0.451591  0.244239  0.630158  1
  O  O9  1  0.040045  0.750000  0.875000  1
  O  O10  1  0.083130  0.254672  0.416571  1
  F  F11  1  0.925622  0.738520  0.582393  1
  F  F12  1  0.914142  0.761480  0.167607  1
  F  F13  1  0.542952  0.750000  0.375000  1
  F  F14  1  0.562360  0.253047  0.919154  1
  F  F15  1  0.065408  0.246953  0.830846  1
