# generated using pymatgen
data_Li24Ti5Cr7O36
_symmetry_space_group_name_H-M   'P 1'
_cell_length_a   5.05055628
_cell_length_b   13.41770050
_cell_length_c   9.79533540
_cell_angle_alpha   97.45906229
_cell_angle_beta   94.62878341
_cell_angle_gamma   100.93523186
_symmetry_Int_Tables_number   1
_chemical_formula_structural   Li24Ti5Cr7O36
_chemical_formula_sum   'Li24 Ti5 Cr7 O36'
_cell_volume   642.43760492
_cell_formula_units_Z   1
loop_
 _symmetry_equiv_pos_site_id
 _symmetry_equiv_pos_as_xyz
  1  'x, y, z'
loop_
 _atom_site_type_symbol
 _atom_site_label
 _atom_site_symmetry_multiplicity
 _atom_site_fract_x
 _atom_site_fract_y
 _atom_site_fract_z
 _atom_site_occupancy
  Li  Li0  1  0.837728  0.167100  0.999448  1
  Li  Li1  1  0.945995  0.384158  0.999007  1
  Li  Li2  1  0.998765  0.750728  0.251225  1
  Li  Li3  1  0.665772  0.081489  0.249676  1
  Li  Li4  1  0.952349  0.888040  0.501480  1
  Li  Li5  1  0.623996  0.222205  0.501117  1
  Li  Li6  1  0.828149  0.667177  0.501776  1
  Li  Li7  1  0.499405  0.001406  0.498165  1
  Li  Li8  1  0.708278  0.443813  0.499253  1
  Li  Li9  1  0.665690  0.583476  0.749762  1
  Li  Li10  1  0.495807  0.500918  0.999661  1
  Li  Li11  1  0.715443  0.946819  0.999760  1
  Li  Li12  1  0.387331  0.282090  0.001471  1
  Li  Li13  1  0.620121  0.718932  0.998996  1
  Li  Li14  1  0.281409  0.051138  0.999853  1
  Li  Li15  1  0.332823  0.417078  0.249054  1
  Li  Li16  1  0.292127  0.554808  0.498861  1
  Li  Li17  1  0.167699  0.333854  0.499385  1
  Li  Li18  1  0.383430  0.778895  0.498048  1
  Li  Li19  1  0.041830  0.110654  0.500009  1
  Li  Li20  1  0.333899  0.917017  0.749416  1
  Li  Li21  1  0.165891  0.834415  0.000295  1
  Li  Li22  1  0.996997  0.248470  0.749948  1
  Li  Li23  1  0.049477  0.613239  0.001058  1
  Ti  Ti24  1  0.883752  0.525886  0.244967  1
  Ti  Ti25  1  0.449050  0.139992  0.752998  1
  Ti  Ti26  1  0.223058  0.192953  0.253134  1
  Ti  Ti27  1  0.226340  0.695191  0.753022  1
  Ti  Ti28  1  0.104877  0.471913  0.745204  1
  Cr  Cr29  1  0.885733  0.025619  0.746977  1
  Cr  Cr30  1  0.780891  0.305463  0.249807  1
  Cr  Cr31  1  0.784561  0.808060  0.751477  1
  Cr  Cr32  1  0.549267  0.360002  0.750504  1
  Cr  Cr33  1  0.563229  0.864189  0.251586  1
  Cr  Cr34  1  0.439319  0.641270  0.249708  1
  Cr  Cr35  1  0.111775  0.969769  0.250498  1
  O  O36  1  0.002579  0.069142  0.137545  1
  O  O37  1  0.930751  0.213925  0.366239  1
  O  O38  1  0.999830  0.571376  0.634781  1
  O  O39  1  0.852439  0.354909  0.638315  1
  O  O40  1  0.734179  0.118458  0.633194  1
  O  O41  1  0.661694  0.404419  0.136060  1
  O  O42  1  0.932626  0.715134  0.866985  1
  O  O43  1  0.805619  0.475363  0.861308  1
  O  O44  1  0.603097  0.047344  0.865749  1
  O  O45  1  0.863751  0.859535  0.138197  1
  O  O46  1  0.735474  0.619503  0.135780  1
  O  O47  1  0.529793  0.190644  0.138714  1
  O  O48  1  0.670938  0.261030  0.864691  1
  O  O49  1  0.805010  0.975150  0.362805  1
  O  O50  1  0.594847  0.550490  0.364437  1
  O  O51  1  0.480306  0.310872  0.362400  1
  O  O52  1  0.666501  0.765857  0.361798  1
  O  O53  1  0.332260  0.094065  0.363431  1
  O  O54  1  0.665919  0.908335  0.639631  1
  O  O55  1  0.335981  0.241043  0.638406  1
  O  O56  1  0.527680  0.692588  0.638201  1
  O  O57  1  0.401776  0.452801  0.633514  1
  O  O58  1  0.185312  0.022579  0.637872  1
  O  O59  1  0.334691  0.735846  0.139467  1
  O  O60  1  0.480981  0.811847  0.862634  1
  O  O61  1  0.269750  0.380385  0.863930  1
  O  O62  1  0.139805  0.141361  0.862545  1
  O  O63  1  0.407048  0.948102  0.135228  1
  O  O64  1  0.186664  0.522228  0.135692  1
  O  O65  1  0.065293  0.285357  0.135593  1
  O  O66  1  0.332330  0.595863  0.863956  1
  O  O67  1  0.259068  0.883993  0.363089  1
  O  O68  1  0.151896  0.644433  0.363051  1
  O  O69  1  0.997293  0.425630  0.361878  1
  O  O70  1  0.063533  0.786618  0.635158  1
  O  O71  1  0.001022  0.925550  0.861123  1
