# generated using pymatgen
data_FeOF
_symmetry_space_group_name_H-M   'P 1'
_cell_length_a   9.54797460
_cell_length_b   9.57587948
_cell_length_c   3.06703092
_cell_angle_alpha   90.00000000
_cell_angle_beta   90.00000000
_cell_angle_gamma   90.71210957
_symmetry_Int_Tables_number   1
_chemical_formula_structural   FeOF
_chemical_formula_sum   'Fe8 O8 F8'
_cell_volume   280.39775818
_cell_formula_units_Z   8
loop_
 _symmetry_equiv_pos_site_id
 _symmetry_equiv_pos_as_xyz
  1  'x, y, z'
loop_
 _atom_site_type_symbol
 _atom_site_label
 _atom_site_symmetry_multiplicity
 _atom_site_fract_x
 _atom_site_fract_y
 _atom_site_fract_z
 _atom_site_occupancy
  Fe  Fe0  1  0.000062  0.979661  0.000000  1
  Fe  Fe1  1  0.008903  0.507495  0.000000  1
  Fe  Fe2  1  0.279776  0.240001  0.500000  1
  Fe  Fe3  1  0.230054  0.748746  0.500000  1
  Fe  Fe4  1  0.501846  0.481759  0.000000  1
  Fe  Fe5  1  0.509468  0.009271  0.000000  1
  Fe  Fe6  1  0.730955  0.251875  0.500000  1
  Fe  Fe7  1  0.737156  0.783169  0.500000  1
  O  O8  1  0.099578  0.900586  0.500000  1
  O  O9  1  0.147332  0.645717  0.000000  1
  O  O10  1  0.345372  0.349993  0.000000  1
  O  O11  1  0.402809  0.090314  0.500000  1
  O  O12  1  0.604251  0.411063  0.500000  1
  O  O13  1  0.590106  0.903672  0.500000  1
  O  O14  1  0.661444  0.155310  0.000000  1
  O  O15  1  0.845946  0.850074  0.000000  1
  F  F16  1  0.090783  0.398463  0.500000  1
  F  F17  1  0.151322  0.155422  0.000000  1
  F  F18  1  0.343079  0.833496  0.000000  1
  F  F19  1  0.401171  0.600872  0.500000  1
  F  F20  1  0.650028  0.657142  0.000000  1
  F  F21  1  0.857088  0.352662  0.000000  1
  F  F22  1  0.911785  0.103611  0.500000  1
  F  F23  1  0.899687  0.589630  0.500000  1
