# generated using pymatgen
data_Ti17(NO4)6
_symmetry_space_group_name_H-M   'P 1'
_cell_length_a   7.64610924
_cell_length_b   14.64017068
_cell_length_c   10.04240762
_cell_angle_alpha   90.00000000
_cell_angle_beta   90.00000000
_cell_angle_gamma   97.51167275
_symmetry_Int_Tables_number   1
_chemical_formula_structural   Ti17(NO4)6
_chemical_formula_sum   'Ti34 N12 O48'
_cell_volume   1114.50338602
_cell_formula_units_Z   2
loop_
 _symmetry_equiv_pos_site_id
 _symmetry_equiv_pos_as_xyz
  1  'x, y, z'
loop_
 _atom_site_type_symbol
 _atom_site_label
 _atom_site_symmetry_multiplicity
 _atom_site_fract_x
 _atom_site_fract_y
 _atom_site_fract_z
 _atom_site_occupancy
  Ti  Ti0  1  0.061383  0.243546  0.429718  1
  Ti  Ti1  1  0.061383  0.243546  0.070282  1
  Ti  Ti2  1  0.052824  0.201932  0.750000  1
  Ti  Ti3  1  0.106262  0.425670  0.940333  1
  Ti  Ti4  1  0.106262  0.425670  0.559667  1
  Ti  Ti5  1  0.227071  0.907663  0.440333  1
  Ti  Ti6  1  0.227071  0.907663  0.059667  1
  Ti  Ti7  1  0.433453  0.760192  0.923727  1
  Ti  Ti8  1  0.386597  0.573138  0.423750  1
  Ti  Ti9  1  0.271950  0.089787  0.929718  1
  Ti  Ti10  1  0.271950  0.089787  0.570282  1
  Ti  Ti11  1  0.377868  0.536149  0.750000  1
  Ti  Ti12  1  0.386597  0.573138  0.076250  1
  Ti  Ti13  1  0.433453  0.760192  0.576273  1
  Ti  Ti14  1  0.280510  0.131402  0.250000  1
  Ti  Ti15  1  0.443125  0.797152  0.250000  1
  Ti  Ti16  1  0.716646  0.866573  0.750000  1
  Ti  Ti17  1  0.548034  0.203003  0.750000  1
  Ti  Ti18  1  0.559549  0.240733  0.072238  1
  Ti  Ti19  1  0.559549  0.240733  0.427762  1
  Ti  Ti20  1  0.616687  0.466760  0.250000  1
  Ti  Ti21  1  0.606999  0.428395  0.927832  1
  Ti  Ti22  1  0.726335  0.904938  0.072168  1
  Ti  Ti23  1  0.726335  0.904938  0.427832  1
  Ti  Ti24  1  0.606999  0.428395  0.572168  1
  Ti  Ti25  1  0.773785  0.092600  0.927762  1
  Ti  Ti26  1  0.890208  0.536181  0.750000  1
  Ti  Ti27  1  0.946736  0.760196  0.923750  1
  Ti  Ti28  1  0.899880  0.573141  0.076273  1
  Ti  Ti29  1  0.899880  0.573141  0.423727  1
  Ti  Ti30  1  0.773785  0.092600  0.572238  1
  Ti  Ti31  1  0.785300  0.130330  0.250000  1
  Ti  Ti32  1  0.955465  0.797185  0.250000  1
  Ti  Ti33  1  0.946736  0.760196  0.576250  1
  N  N34  1  0.122115  0.488658  0.750000  1
  N  N35  1  0.042961  0.177385  0.250000  1
  N  N36  1  0.211219  0.844675  0.250000  1
  N  N37  1  0.290372  0.155948  0.750000  1
  N  N38  1  0.471460  0.811702  0.750000  1
  N  N39  1  0.398982  0.521666  0.250000  1
  N  N40  1  0.621533  0.486249  0.750000  1
  N  N41  1  0.711800  0.847084  0.250000  1
  N  N42  1  0.546548  0.179900  0.250000  1
  N  N43  1  0.786785  0.153434  0.750000  1
  N  N44  1  0.934351  0.811667  0.750000  1
  N  N45  1  0.861873  0.521631  0.250000  1
  O  O46  1  0.030748  0.124102  0.567135  1
  O  O47  1  0.090203  0.362714  0.108920  1
  O  O48  1  0.075137  0.300364  0.878338  1
  O  O49  1  0.030748  0.124102  0.932865  1
  O  O50  1  0.075137  0.300364  0.621662  1
  O  O51  1  0.137088  0.548486  0.049961  1
  O  O52  1  0.196245  0.784847  0.549961  1
  O  O53  1  0.090203  0.362714  0.391080  1
  O  O54  1  0.137088  0.548486  0.450039  1
  O  O55  1  0.196245  0.784847  0.950039  1
  O  O56  1  0.243130  0.970619  0.891080  1
  O  O57  1  0.243130  0.970619  0.608920  1
  O  O58  1  0.467951  0.874795  0.435516  1
  O  O59  1  0.426225  0.698585  0.380275  1
  O  O60  1  0.258196  0.032969  0.378338  1
  O  O61  1  0.363706  0.458467  0.935501  1
  O  O62  1  0.258196  0.032969  0.121662  1
  O  O63  1  0.302585  0.209231  0.432865  1
  O  O64  1  0.302585  0.209231  0.067135  1
  O  O65  1  0.363706  0.458467  0.564499  1
  O  O66  1  0.426225  0.698585  0.119725  1
  O  O67  1  0.410418  0.634723  0.880284  1
  O  O68  1  0.410418  0.634723  0.619716  1
  O  O69  1  0.467951  0.874795  0.064484  1
  O  O70  1  0.698766  0.794877  0.940432  1
  O  O71  1  0.741804  0.968885  0.881929  1
  O  O72  1  0.575661  0.301643  0.881338  1
  O  O73  1  0.634567  0.538456  0.059568  1
  O  O74  1  0.591529  0.364449  0.118071  1
  O  O75  1  0.591529  0.364449  0.381929  1
  O  O76  1  0.698766  0.794877  0.559568  1
  O  O77  1  0.741804  0.968885  0.618071  1
  O  O78  1  0.531732  0.126424  0.935352  1
  O  O79  1  0.575661  0.301643  0.618662  1
  O  O80  1  0.531732  0.126424  0.564648  1
  O  O81  1  0.634567  0.538456  0.440432  1
  O  O82  1  0.907109  0.634749  0.880275  1
  O  O83  1  0.922916  0.698610  0.119716  1
  O  O84  1  0.757673  0.031690  0.118662  1
  O  O85  1  0.865383  0.458538  0.935516  1
  O  O86  1  0.969628  0.874866  0.064499  1
  O  O87  1  0.801601  0.206909  0.064648  1
  O  O88  1  0.865383  0.458538  0.564484  1
  O  O89  1  0.907109  0.634749  0.619725  1
  O  O90  1  0.969628  0.874866  0.435501  1
  O  O91  1  0.757673  0.031690  0.381338  1
  O  O92  1  0.922916  0.698610  0.380284  1
  O  O93  1  0.801601  0.206909  0.435352  1
