# generated using pymatgen
data_LiMnP2O7
_symmetry_space_group_name_H-M   'P 1'
_cell_length_a   9.74988272
_cell_length_b   9.73821047
_cell_length_c   11.12772647
_cell_angle_alpha   89.98134353
_cell_angle_beta   102.47443142
_cell_angle_gamma   89.20785868
_symmetry_Int_Tables_number   1
_chemical_formula_structural   LiMnP2O7
_chemical_formula_sum   'Li8 Mn8 P16 O56'
_cell_volume   1031.49093848
_cell_formula_units_Z   8
loop_
 _symmetry_equiv_pos_site_id
 _symmetry_equiv_pos_as_xyz
  1  'x, y, z'
loop_
 _atom_site_type_symbol
 _atom_site_label
 _atom_site_symmetry_multiplicity
 _atom_site_fract_x
 _atom_site_fract_y
 _atom_site_fract_z
 _atom_site_occupancy
  Li  Li0  1  0.166868  0.428342  0.538537  1
  Li  Li1  1  0.407422  0.609785  0.972069  1
  Li  Li2  1  0.362186  0.936011  0.476885  1
  Li  Li3  1  0.588273  0.394528  0.029874  1
  Li  Li4  1  0.648811  0.091279  0.045090  1
  Li  Li5  1  0.915288  0.902284  0.974805  1
  Li  Li6  1  0.825345  0.586608  0.453989  1
  Li  Li7  1  0.880024  0.280622  0.548836  1
  Mn  Mn8  1  0.199769  0.926192  0.671878  1
  Mn  Mn9  1  0.257932  0.211212  0.828970  1
  Mn  Mn10  1  0.225992  0.721706  0.168958  1
  Mn  Mn11  1  0.304989  0.426555  0.326907  1
  Mn  Mn12  1  0.702533  0.572637  0.677661  1
  Mn  Mn13  1  0.769740  0.278530  0.834249  1
  Mn  Mn14  1  0.734419  0.783689  0.169707  1
  Mn  Mn15  1  0.805148  0.069829  0.333851  1
  P  P16  1  0.025013  0.445757  0.757059  1
  P  P17  1  0.115077  0.714450  0.881801  1
  P  P18  1  0.066059  0.929402  0.244664  1
  P  P19  1  0.127173  0.148583  0.431667  1
  P  P20  1  0.381701  0.643818  0.574217  1
  P  P21  1  0.434611  0.424272  0.759475  1
  P  P22  1  0.522612  0.057151  0.749123  1
  P  P23  1  0.378863  0.208616  0.114913  1
  P  P24  1  0.615965  0.792121  0.885085  1
  P  P25  1  0.468521  0.938516  0.240539  1
  P  P26  1  0.564883  0.574149  0.240287  1
  P  P27  1  0.625125  0.347479  0.419696  1
  P  P28  1  0.877489  0.855584  0.572755  1
  P  P29  1  0.929849  0.074634  0.758803  1
  P  P30  1  0.889396  0.284692  0.115455  1
  P  P31  1  0.975820  0.554059  0.247441  1
  O  O32  1  0.017475  0.416677  0.622724  1
  O  O33  1  0.034276  0.847201  0.569995  1
  O  O34  1  0.077978  0.087792  0.733763  1
  O  O35  1  0.112416  0.343520  0.848070  1
  O  O36  1  0.098827  0.590053  0.782422  1
  O  O37  1  0.187517  0.825037  0.819092  1
  O  O38  1  0.222271  0.659069  0.997864  1
  O  O39  1  0.024693  0.255179  0.082858  1
  O  O40  1  0.124208  0.073903  0.300793  1
  O  O41  1  0.066601  0.919906  0.110425  1
  O  O42  1  0.126535  0.549651  0.216052  1
  O  O43  1  0.188449  0.288420  0.417471  1
  O  O44  1  0.172550  0.818047  0.310233  1
  O  O45  1  0.216819  0.053275  0.529422  1
  O  O46  1  0.294696  0.553837  0.471903  1
  O  O47  1  0.324360  0.316966  0.698822  1
  O  O48  1  0.323241  0.787118  0.583462  1
  O  O49  1  0.370571  0.048236  0.783930  1
  O  O50  1  0.369214  0.569045  0.700694  1
  O  O51  1  0.434792  0.432912  0.894849  1
  O  O52  1  0.479553  0.766524  0.919060  1
  O  O53  1  0.274601  0.158770  0.999591  1
  O  O54  1  0.317620  0.330373  0.176534  1
  O  O55  1  0.395880  0.088102  0.215959  1
  O  O56  1  0.420764  0.591995  0.271748  1
  O  O57  1  0.376457  0.841835  0.148225  1
  O  O58  1  0.517784  0.085250  0.618200  1
  O  O59  1  0.472701  0.338729  0.429438  1
  O  O60  1  0.538914  0.648291  0.570826  1
  O  O61  1  0.483025  0.909109  0.373020  1
  O  O62  1  0.611534  0.150054  0.850704  1
  O  O63  1  0.580476  0.406967  0.729189  1
  O  O64  1  0.595273  0.907769  0.779835  1
  O  O65  1  0.684870  0.671988  0.829594  1
  O  O66  1  0.724535  0.855934  0.998896  1
  O  O67  1  0.522761  0.231514  0.089243  1
  O  O68  1  0.566327  0.571133  0.105035  1
  O  O69  1  0.629816  0.428182  0.293516  1
  O  O70  1  0.615183  0.947208  0.198282  1
  O  O71  1  0.693926  0.208620  0.406657  1
  O  O72  1  0.675379  0.681340  0.302911  1
  O  O73  1  0.720301  0.432072  0.522243  1
  O  O74  1  0.790898  0.936843  0.463818  1
  O  O75  1  0.833538  0.195299  0.694402  1
  O  O76  1  0.820333  0.713070  0.586580  1
  O  O77  1  0.871695  0.456281  0.785098  1
  O  O78  1  0.912697  0.075240  0.890018  1
  O  O79  1  0.864456  0.935732  0.696797  1
  O  O80  1  0.974765  0.746038  0.906318  1
  O  O81  1  0.770076  0.335359  0.002580  1
  O  O82  1  0.815908  0.169193  0.176994  1
  O  O83  1  0.901241  0.408348  0.213725  1
  O  O84  1  0.886941  0.658820  0.157341  1
  O  O85  1  0.915681  0.918100  0.272690  1
  O  O86  1  0.976108  0.162740  0.447768  1
  O  O87  1  0.980957  0.571849  0.381608  1
