# generated using pymatgen
data_Li2CrSi7O16
_symmetry_space_group_name_H-M   'P 1'
_cell_length_a   7.63669229
_cell_length_b   7.69424721
_cell_length_c   7.31266538
_cell_angle_alpha   76.05190623
_cell_angle_beta   104.19884271
_cell_angle_gamma   62.86323252
_symmetry_Int_Tables_number   1
_chemical_formula_structural   Li2CrSi7O16
_chemical_formula_sum   'Li2 Cr1 Si7 O16'
_cell_volume   338.26501306
_cell_formula_units_Z   1
loop_
 _symmetry_equiv_pos_site_id
 _symmetry_equiv_pos_as_xyz
  1  'x, y, z'
loop_
 _atom_site_type_symbol
 _atom_site_label
 _atom_site_symmetry_multiplicity
 _atom_site_fract_x
 _atom_site_fract_y
 _atom_site_fract_z
 _atom_site_occupancy
  Li  Li0  1  0.418154  0.736924  0.670564  1
  Li  Li1  1  0.755528  0.337691  0.359166  1
  Cr  Cr2  1  0.838378  0.388399  0.859545  1
  Si  Si3  1  0.417530  0.799904  0.156150  1
  Si  Si4  1  0.191679  0.568583  0.160748  1
  Si  Si5  1  0.815797  0.832442  0.714123  1
  Si  Si6  1  0.178709  0.148388  0.713346  1
  Si  Si7  1  0.165838  0.176992  0.289916  1
  Si  Si8  1  0.812636  0.836374  0.277626  1
  Si  Si9  1  0.550839  0.213334  0.830178  1
  O  O10  1  0.057712  0.693171  0.910507  1
  O  O11  1  0.295616  0.914515  0.906330  1
  O  O12  1  0.286684  0.959848  0.249882  1
  O  O13  1  0.048227  0.677695  0.281830  1
  O  O14  1  0.307018  0.259526  0.771799  1
  O  O15  1  0.695076  0.710047  0.734712  1
  O  O16  1  0.411568  0.580935  0.224759  1
  O  O17  1  0.229331  0.062855  0.536352  1
  O  O18  1  0.850925  0.867911  0.494668  1
  O  O19  1  0.530527  0.436323  0.765867  1
  O  O20  1  0.669143  0.728033  0.243863  1
  O  O21  1  0.276490  0.314750  0.244315  1
  O  O22  1  0.922659  0.301098  0.637340  1
  O  O23  1  0.677246  0.069616  0.714643  1
  O  O24  1  0.688420  0.066596  0.084231  1
  O  O25  1  0.908271  0.318051  0.167541  1
