# generated using pymatgen
data_Li2MnCo3O8
_symmetry_space_group_name_H-M   'P 1'
_cell_length_a   5.66696578
_cell_length_b   5.68222083
_cell_length_c   5.86962950
_cell_angle_alpha   118.94931054
_cell_angle_beta   90.34641439
_cell_angle_gamma   59.91090835
_symmetry_Int_Tables_number   1
_chemical_formula_structural   Li2MnCo3O8
_chemical_formula_sum   'Li2 Mn1 Co3 O8'
_cell_volume   135.93572719
_cell_formula_units_Z   1
loop_
 _symmetry_equiv_pos_site_id
 _symmetry_equiv_pos_as_xyz
  1  'x, y, z'
loop_
 _atom_site_type_symbol
 _atom_site_label
 _atom_site_symmetry_multiplicity
 _atom_site_fract_x
 _atom_site_fract_y
 _atom_site_fract_z
 _atom_site_occupancy
  Li  Li0  1  0.500000  0.000000  0.500000  1
  Li  Li1  1  0.500000  0.500000  0.500000  1
  Mn  Mn2  1  0.000000  0.000000  0.000000  1
  Co  Co3  1  0.000000  0.500000  0.000000  1
  Co  Co4  1  0.500000  0.000000  0.000000  1
  Co  Co5  1  0.500000  0.500000  0.000000  1
  O  O6  1  0.240375  0.024145  0.789676  1
  O  O7  1  0.240375  0.525156  0.789676  1
  O  O8  1  0.276383  0.458852  0.194085  1
  O  O9  1  0.727080  0.034995  0.797069  1
  O  O10  1  0.272920  0.965005  0.202931  1
  O  O11  1  0.723617  0.541148  0.805915  1
  O  O12  1  0.759625  0.474844  0.210324  1
  O  O13  1  0.759625  0.975855  0.210324  1
