# generated using pymatgen
data_Na3FeSiCO7
_symmetry_space_group_name_H-M   'P 1'
_cell_length_a   9.04898048
_cell_length_b   6.59851866
_cell_length_c   5.21998572
_cell_angle_alpha   90.00000000
_cell_angle_beta   89.57083623
_cell_angle_gamma   90.00000000
_symmetry_Int_Tables_number   1
_chemical_formula_structural   Na3FeSiCO7
_chemical_formula_sum   'Na6 Fe2 Si2 C2 O14'
_cell_volume   311.67590706
_cell_formula_units_Z   2
loop_
 _symmetry_equiv_pos_site_id
 _symmetry_equiv_pos_as_xyz
  1  'x, y, z'
loop_
 _atom_site_type_symbol
 _atom_site_label
 _atom_site_symmetry_multiplicity
 _atom_site_fract_x
 _atom_site_fract_y
 _atom_site_fract_z
 _atom_site_occupancy
  Na  Na0  1  0.086719  0.250000  0.761221  1
  Na  Na1  1  0.261316  0.005342  0.252529  1
  Na  Na2  1  0.261316  0.494658  0.252529  1
  Na  Na3  1  0.738684  0.505342  0.747471  1
  Na  Na4  1  0.738684  0.994658  0.747471  1
  Na  Na5  1  0.913281  0.750000  0.238779  1
  Fe  Fe6  1  0.358346  0.750000  0.791468  1
  Fe  Fe7  1  0.641654  0.250000  0.208532  1
  Si  Si8  1  0.418675  0.250000  0.703692  1
  Si  Si9  1  0.581325  0.750000  0.296308  1
  C  C10  1  0.062084  0.750000  0.734788  1
  C  C11  1  0.937916  0.250000  0.265212  1
  O  O12  1  0.079500  0.250000  0.288286  1
  O  O13  1  0.123141  0.750000  0.960411  1
  O  O14  1  0.148272  0.750000  0.533744  1
  O  O15  1  0.317019  0.049966  0.774358  1
  O  O16  1  0.317019  0.450034  0.774358  1
  O  O17  1  0.452520  0.250000  0.389954  1
  O  O18  1  0.422490  0.750000  0.146730  1
  O  O19  1  0.577510  0.250000  0.853270  1
  O  O20  1  0.547480  0.750000  0.610046  1
  O  O21  1  0.682981  0.549966  0.225642  1
  O  O22  1  0.682981  0.950034  0.225642  1
  O  O23  1  0.851728  0.250000  0.466256  1
  O  O24  1  0.876859  0.250000  0.039589  1
  O  O25  1  0.920500  0.750000  0.711714  1
