# generated using pymatgen
data_Li3Mn2P2(CO7)2
_symmetry_space_group_name_H-M   'P 1'
_cell_length_a   8.30543398
_cell_length_b   5.03537022
_cell_length_c   6.35970341
_cell_angle_alpha   89.91207139
_cell_angle_beta   89.73296247
_cell_angle_gamma   85.74686768
_symmetry_Int_Tables_number   1
_chemical_formula_structural   Li3Mn2P2(CO7)2
_chemical_formula_sum   'Li3 Mn2 P2 C2 O14'
_cell_volume   265.23323030
_cell_formula_units_Z   1
loop_
 _symmetry_equiv_pos_site_id
 _symmetry_equiv_pos_as_xyz
  1  'x, y, z'
loop_
 _atom_site_type_symbol
 _atom_site_label
 _atom_site_symmetry_multiplicity
 _atom_site_fract_x
 _atom_site_fract_y
 _atom_site_fract_z
 _atom_site_occupancy
  Li  Li0  1  0.273857  0.243516  0.047335  1
  Li  Li1  1  0.730234  0.748140  0.529723  1
  Li  Li2  1  0.902397  0.234017  0.756558  1
  Mn  Mn3  1  0.328445  0.806032  0.746239  1
  Mn  Mn4  1  0.673050  0.204245  0.244290  1
  P  P5  1  0.421618  0.726363  0.250825  1
  P  P6  1  0.579340  0.281163  0.749036  1
  C  C7  1  0.041734  0.709124  0.749831  1
  C  C8  1  0.953254  0.293309  0.250179  1
  O  O9  1  0.071574  0.956343  0.752736  1
  O  O10  1  0.095621  0.343326  0.231852  1
  O  O11  1  0.169754  0.538709  0.767175  1
  O  O12  1  0.323473  0.828101  0.058579  1
  O  O13  1  0.314590  0.795385  0.440462  1
  O  O14  1  0.418525  0.151119  0.764924  1
  O  O15  1  0.464511  0.418429  0.228819  1
  O  O16  1  0.547480  0.581327  0.725617  1
  O  O17  1  0.584992  0.857038  0.265741  1
  O  O18  1  0.694554  0.204651  0.936866  1
  O  O19  1  0.689148  0.170539  0.561795  1
  O  O20  1  0.829878  0.476628  0.267623  1
  O  O21  1  0.903603  0.623892  0.728040  1
  O  O22  1  0.899204  0.053034  0.248125  1
