# generated using pymatgen
data_LiV2OF5
_symmetry_space_group_name_H-M   'P 1'
_cell_length_a   5.24785907
_cell_length_b   5.24785880
_cell_length_c   13.88358754
_cell_angle_alpha   90.00000000
_cell_angle_beta   90.00000000
_cell_angle_gamma   119.99999662
_symmetry_Int_Tables_number   1
_chemical_formula_structural   LiV2OF5
_chemical_formula_sum   'Li3 V6 O3 F15'
_cell_volume   331.12857063
_cell_formula_units_Z   3
loop_
 _symmetry_equiv_pos_site_id
 _symmetry_equiv_pos_as_xyz
  1  'x, y, z'
loop_
 _atom_site_type_symbol
 _atom_site_label
 _atom_site_symmetry_multiplicity
 _atom_site_fract_x
 _atom_site_fract_y
 _atom_site_fract_z
 _atom_site_occupancy
  Li  Li0  1  0.343062  0.675493  0.907538  1
  Li  Li1  1  0.999098  0.990271  0.240871  1
  Li  Li2  1  0.657840  0.334236  0.574205  1
  V  V3  1  0.308263  0.666293  0.170823  1
  V  V4  1  0.974781  -0.000150  0.995789  1
  V  V5  1  0.333483  0.641598  0.662455  1
  V  V6  1  0.691736  0.358552  0.329122  1
  V  V7  1  0.024697  0.025070  0.504156  1
  V  V8  1  0.667040  0.308636  0.837490  1
  O  O9  1  0.999834  0.620721  0.250034  1
  O  O10  1  0.287554  0.333499  0.583367  1
  O  O11  1  0.712612  0.045779  0.916701  1
  F  F12  1  0.254102  0.945877  0.083502  1
  F  F13  1  0.387457  0.974893  0.750169  1
  F  F14  1  0.027389  0.699600  0.581959  1
  F  F15  1  0.633733  0.994454  0.248625  1
  F  F16  1  0.661054  0.967921  0.585033  1
  F  F17  1  0.647816  0.724180  0.086216  1
  F  F18  1  0.002596  0.391625  0.751107  1
  F  F19  1  0.743031  0.685517  0.419549  1
  F  F20  1  0.055696  0.330737  0.084440  1
  F  F21  1  0.609153  0.590302  0.752882  1
  F  F22  1  0.973534  0.672280  0.918366  1
  F  F23  1  0.365412  0.359799  0.251700  1
  F  F24  1  0.338879  0.305944  0.915292  1
  F  F25  1  0.358442  0.079232  0.416836  1
  F  F26  1  0.941708  0.277637  0.417773  1
