# generated using pymatgen
data_Li3V3P8O29
_symmetry_space_group_name_H-M   'P 1'
_cell_length_a   9.79758020
_cell_length_b   9.72873733
_cell_length_c   14.24013099
_cell_angle_alpha   89.40489321
_cell_angle_beta   90.00115957
_cell_angle_gamma   59.76677309
_symmetry_Int_Tables_number   1
_chemical_formula_structural   Li3V3P8O29
_chemical_formula_sum   'Li6 V6 P16 O58'
_cell_volume   1172.63543556
_cell_formula_units_Z   2
loop_
 _symmetry_equiv_pos_site_id
 _symmetry_equiv_pos_as_xyz
  1  'x, y, z'
loop_
 _atom_site_type_symbol
 _atom_site_label
 _atom_site_symmetry_multiplicity
 _atom_site_fract_x
 _atom_site_fract_y
 _atom_site_fract_z
 _atom_site_occupancy
  Li  Li0  1  0.905486  0.763274  0.057907  1
  Li  Li1  1  0.669055  0.236797  0.442167  1
  Li  Li2  1  0.331277  0.763262  0.557910  1
  Li  Li3  1  0.094047  0.236783  0.942179  1
  Li  Li4  1  0.002596  0.997929  0.000064  1
  Li  Li5  1  0.999581  0.998006  0.500056  1
  V  V6  1  0.563447  0.439394  0.239996  1
  V  V7  1  0.436570  0.560656  0.759898  1
  V  V8  1  0.563205  0.000036  0.750015  1
  V  V9  1  0.436789  0.000039  0.250003  1
  V  V10  1  0.002789  0.560644  0.259928  1
  V  V11  1  0.997174  0.439379  0.739994  1
  P  P12  1  0.913005  0.773079  0.841052  1
  P  P13  1  0.776379  0.917916  0.342894  1
  P  P14  1  0.911901  0.300903  0.340025  1
  P  P15  1  0.671898  0.670820  0.132979  1
  P  P16  1  0.657287  0.670845  0.632977  1
  P  P17  1  0.787178  0.300905  0.839997  1
  P  P18  1  0.686034  0.226968  0.659006  1
  P  P19  1  0.305727  0.917904  0.842874  1
  P  P20  1  0.694369  0.082052  0.157131  1
  P  P21  1  0.313891  0.773085  0.341045  1
  P  P22  1  0.212720  0.699396  0.159971  1
  P  P23  1  0.342723  0.329230  0.366980  1
  P  P24  1  0.328025  0.329262  0.866973  1
  P  P25  1  0.087886  0.699369  0.660017  1
  P  P26  1  0.223608  0.082050  0.657140  1
  P  P27  1  0.086972  0.226969  0.159018  1
  O  O28  1  0.008405  0.799217  0.576197  1
  O  O29  1  0.910681  0.740438  0.335672  1
  O  O30  1  0.795027  0.997503  0.075030  1
  O  O31  1  0.739923  0.910790  0.828484  1
  O  O32  1  0.917257  0.614426  0.822571  1
  O  O33  1  0.820101  0.668565  0.175998  1
  O  O34  1  0.919939  0.458242  0.330001  1
  O  O35  1  0.020612  0.218353  0.066674  1
  O  O36  1  0.918708  0.345493  0.833372  1
  O  O37  1  0.659643  0.814125  0.680237  1
  O  O38  1  0.616893  0.923717  0.331543  1
  O  O39  1  0.810942  0.520378  0.675770  1
  O  O40  1  0.672431  0.673162  0.028960  1
  O  O41  1  0.654339  0.673223  0.528960  1
  O  O42  1  0.668712  0.520350  0.175788  1
  O  O43  1  0.459404  0.923684  0.831525  1
  O  O44  1  0.526261  0.814124  0.180232  1
  O  O45  1  0.735791  0.345483  0.333381  1
  O  O46  1  0.804363  0.206541  0.743291  1
  O  O47  1  0.761020  0.218330  0.566616  1
  O  O48  1  0.807387  0.201386  0.923924  1
  O  O49  1  0.621813  0.458252  0.829966  1
  O  O50  1  0.511339  0.668580  0.675993  1
  O  O51  1  0.651183  0.259589  0.164308  1
  O  O52  1  0.468271  0.614413  0.322560  1
  O  O53  1  0.349306  0.910762  0.328435  1
  O  O54  1  0.799209  0.000086  0.250072  1
  O  O55  1  0.792740  0.002276  0.425090  1
  O  O56  1  0.207432  0.997468  0.575011  1
  O  O57  1  0.650685  0.089262  0.671604  1
  O  O58  1  0.531629  0.385642  0.677402  1
  O  O59  1  0.348866  0.740433  0.835652  1
  O  O60  1  0.488542  0.331543  0.323818  1
  O  O61  1  0.378234  0.542215  0.169780  1
  O  O62  1  0.192308  0.799237  0.076227  1
  O  O63  1  0.238893  0.781606  0.433372  1
  O  O64  1  0.195488  0.793637  0.256727  1
  O  O65  1  0.264022  0.654602  0.666520  1
  O  O66  1  0.473668  0.185944  0.819731  1
  O  O67  1  0.540541  0.076451  0.168573  1
  O  O68  1  0.331373  0.479654  0.824197  1
  O  O69  1  0.327382  0.326765  0.970967  1
  O  O70  1  0.345844  0.326804  0.470988  1
  O  O71  1  0.188967  0.479655  0.324224  1
  O  O72  1  0.383029  0.076392  0.668539  1
  O  O73  1  0.340327  0.185929  0.319766  1
  O  O74  1  0.081376  0.654558  0.166509  1
  O  O75  1  0.010804  0.793660  0.756719  1
  O  O76  1  0.979541  0.781581  0.933382  1
  O  O77  1  0.079585  0.542192  0.669812  1
  O  O78  1  0.179857  0.331593  0.823833  1
  O  O79  1  0.082725  0.385643  0.177448  1
  O  O80  1  0.260067  0.089284  0.171612  1
  O  O81  1  0.205019  0.002258  0.925093  1
  O  O82  1  0.200695  0.000102  0.750067  1
  O  O83  1  0.089247  0.259576  0.664293  1
  O  O84  1  0.991197  0.201370  0.423956  1
  O  O85  1  0.989122  0.206512  0.243334  1
