# generated using pymatgen
data_K2Co3P4(HO4)4
_symmetry_space_group_name_H-M   'P 1'
_cell_length_a   9.30804587
_cell_length_b   8.17748999
_cell_length_c   9.21384762
_cell_angle_alpha   90.00000000
_cell_angle_beta   99.26845149
_cell_angle_gamma   90.00000000
_symmetry_Int_Tables_number   1
_chemical_formula_structural   K2Co3P4(HO4)4
_chemical_formula_sum   'K4 Co6 P8 H8 O32'
_cell_volume   692.16927085
_cell_formula_units_Z   2
loop_
 _symmetry_equiv_pos_site_id
 _symmetry_equiv_pos_as_xyz
  1  'x, y, z'
loop_
 _atom_site_type_symbol
 _atom_site_label
 _atom_site_symmetry_multiplicity
 _atom_site_fract_x
 _atom_site_fract_y
 _atom_site_fract_z
 _atom_site_occupancy
  K  K0  1  0.022342  0.274552  0.925589  1
  K  K1  1  0.477658  0.774552  0.074411  1
  K  K2  1  0.977658  0.725448  0.074411  1
  K  K3  1  0.522342  0.225448  0.925589  1
  Co  Co4  1  0.000000  0.500000  0.500000  1
  Co  Co5  1  0.500000  0.000000  0.500000  1
  Co  Co6  1  0.504665  0.357249  0.367198  1
  Co  Co7  1  0.995335  0.857249  0.632802  1
  Co  Co8  1  0.495335  0.642751  0.632802  1
  Co  Co9  1  0.004665  0.142751  0.367198  1
  P  P10  1  0.290825  0.301748  0.601654  1
  P  P11  1  0.209175  0.801748  0.398346  1
  P  P12  1  0.709175  0.698252  0.398346  1
  P  P13  1  0.790825  0.198252  0.601654  1
  P  P14  1  0.765168  0.431179  0.197675  1
  P  P15  1  0.734832  0.931179  0.802325  1
  P  P16  1  0.234832  0.568821  0.802325  1
  P  P17  1  0.265168  0.068821  0.197675  1
  H  H18  1  0.734774  0.473203  0.720571  1
  H  H19  1  0.765226  0.973203  0.279429  1
  H  H20  1  0.265226  0.526797  0.279429  1
  H  H21  1  0.234774  0.026797  0.720571  1
  H  H22  1  0.700694  0.510796  0.879183  1
  H  H23  1  0.799306  0.010796  0.120817  1
  H  H24  1  0.299306  0.489204  0.120817  1
  H  H25  1  0.200694  0.989204  0.879183  1
  O  O26  1  0.888785  0.373437  0.319537  1
  O  O27  1  0.611215  0.873437  0.680463  1
  O  O28  1  0.111215  0.626563  0.680463  1
  O  O29  1  0.388785  0.126563  0.319537  1
  O  O30  1  0.862215  0.364772  0.637855  1
  O  O31  1  0.637785  0.864772  0.362145  1
  O  O32  1  0.137785  0.635228  0.362145  1
  O  O33  1  0.362215  0.135228  0.637855  1
  O  O34  1  0.389011  0.424448  0.538734  1
  O  O35  1  0.110989  0.924448  0.461266  1
  O  O36  1  0.610989  0.575552  0.461266  1
  O  O37  1  0.889011  0.075552  0.538734  1
  O  O38  1  0.137051  0.295519  0.510167  1
  O  O39  1  0.362949  0.795519  0.489833  1
  O  O40  1  0.862949  0.704481  0.489833  1
  O  O41  1  0.637051  0.204481  0.510167  1
  O  O42  1  0.265963  0.374839  0.761566  1
  O  O43  1  0.234037  0.874839  0.238434  1
  O  O44  1  0.734037  0.625161  0.238434  1
  O  O45  1  0.765963  0.125161  0.761566  1
  O  O46  1  0.809072  0.442432  0.046472  1
  O  O47  1  0.690928  0.942432  0.953528  1
  O  O48  1  0.190928  0.557568  0.953528  1
  O  O49  1  0.309072  0.057568  0.046472  1
  O  O50  1  0.345731  0.495095  0.225601  1
  O  O51  1  0.154269  0.995095  0.774399  1
  O  O52  1  0.654269  0.504905  0.774399  1
  O  O53  1  0.845731  0.004905  0.225601  1
  O  O54  1  0.620906  0.341202  0.197380  1
  O  O55  1  0.879094  0.841202  0.802620  1
  O  O56  1  0.379094  0.658798  0.802620  1
  O  O57  1  0.120906  0.158798  0.197380  1
