# generated using pymatgen
data_BaZn2H16O11
_symmetry_space_group_name_H-M   'P 1'
_cell_length_a   6.38487935
_cell_length_b   18.50254392
_cell_length_c   12.24375442
_cell_angle_alpha   90.00000000
_cell_angle_beta   96.22118376
_cell_angle_gamma   90.00000000
_symmetry_Int_Tables_number   1
_chemical_formula_structural   BaZn2H16O11
_chemical_formula_sum   'Ba4 Zn8 H64 O44'
_cell_volume   1437.91632197
_cell_formula_units_Z   4
loop_
 _symmetry_equiv_pos_site_id
 _symmetry_equiv_pos_as_xyz
  1  'x, y, z'
loop_
 _atom_site_type_symbol
 _atom_site_label
 _atom_site_symmetry_multiplicity
 _atom_site_fract_x
 _atom_site_fract_y
 _atom_site_fract_z
 _atom_site_occupancy
  Ba  Ba0  1  0.426834  0.060203  0.729769  1
  Ba  Ba1  1  0.573166  0.560203  0.770231  1
  Ba  Ba2  1  0.573166  0.939797  0.270231  1
  Ba  Ba3  1  0.426834  0.439797  0.229769  1
  Zn  Zn4  1  0.904057  0.151524  0.576455  1
  Zn  Zn5  1  0.095943  0.651524  0.923545  1
  Zn  Zn6  1  0.095943  0.848476  0.423545  1
  Zn  Zn7  1  0.904057  0.348476  0.076455  1
  Zn  Zn8  1  0.088817  0.298169  0.552769  1
  Zn  Zn9  1  0.911183  0.798169  0.947231  1
  Zn  Zn10  1  0.911183  0.701831  0.447231  1
  Zn  Zn11  1  0.088817  0.201831  0.052769  1
  H  H12  1  0.062124  0.413357  0.111651  1
  H  H13  1  0.937876  0.913357  0.388349  1
  H  H14  1  0.937876  0.586643  0.888349  1
  H  H15  1  0.062124  0.086643  0.611651  1
  H  H16  1  0.442664  0.229810  0.517524  1
  H  H17  1  0.557336  0.729810  0.982476  1
  H  H18  1  0.557336  0.770190  0.482476  1
  H  H19  1  0.442664  0.270190  0.017524  1
  H  H20  1  0.138603  0.059018  0.895548  1
  H  H21  1  0.861397  0.559018  0.604452  1
  H  H22  1  0.861397  0.940982  0.104452  1
  H  H23  1  0.138603  0.440982  0.395548  1
  H  H24  1  0.653522  0.344927  0.081957  1
  H  H25  1  0.346478  0.844927  0.418043  1
  H  H26  1  0.346478  0.655073  0.918043  1
  H  H27  1  0.653522  0.155073  0.581957  1
  H  H28  1  0.003583  0.234222  0.633880  1
  H  H29  1  0.996417  0.734222  0.866120  1
  H  H30  1  0.996417  0.765778  0.366120  1
  H  H31  1  0.003583  0.265778  0.133880  1
  H  H32  1  0.228295  0.451334  0.643347  1
  H  H33  1  0.771705  0.951334  0.856653  1
  H  H34  1  0.771705  0.548666  0.356653  1
  H  H35  1  0.228295  0.048666  0.143347  1
  H  H36  1  0.373604  0.365154  0.656443  1
  H  H37  1  0.626396  0.865154  0.843557  1
  H  H38  1  0.626396  0.634846  0.343557  1
  H  H39  1  0.373604  0.134846  0.156443  1
  H  H40  1  0.284103  0.221545  0.747811  1
  H  H41  1  0.715897  0.721545  0.752189  1
  H  H42  1  0.715897  0.778455  0.252189  1
  H  H43  1  0.284103  0.278455  0.247811  1
  H  H44  1  0.347225  0.214587  0.880017  1
  H  H45  1  0.652775  0.714587  0.619983  1
  H  H46  1  0.652775  0.785413  0.119983  1
  H  H47  1  0.347225  0.285413  0.380017  1
  H  H48  1  0.772197  0.100452  0.927369  1
  H  H49  1  0.227803  0.600452  0.572631  1
  H  H50  1  0.227803  0.899548  0.072631  1
  H  H51  1  0.772197  0.399548  0.427369  1
  H  H52  1  0.167194  0.944874  0.876779  1
  H  H53  1  0.832806  0.444874  0.623221  1
  H  H54  1  0.832806  0.055126  0.123221  1
  H  H55  1  0.167194  0.555126  0.376779  1
  H  H56  1  0.098507  0.793011  0.627639  1
  H  H57  1  0.901493  0.293011  0.872361  1
  H  H58  1  0.901493  0.206989  0.372361  1
  H  H59  1  0.098507  0.706989  0.127639  1
  H  H60  1  0.132435  0.310893  0.924515  1
  H  H61  1  0.867565  0.810894  0.575485  1
  H  H62  1  0.867565  0.689106  0.075485  1
  H  H63  1  0.132435  0.189107  0.424515  1
  H  H64  1  0.761994  0.560943  0.565319  1
  H  H65  1  0.238006  0.060943  0.934681  1
  H  H66  1  0.238006  0.439057  0.434681  1
  H  H67  1  0.761994  0.939057  0.065319  1
  H  H68  1  0.966813  0.162738  0.866175  1
  H  H69  1  0.033187  0.662738  0.633825  1
  H  H70  1  0.033187  0.837262  0.133825  1
  H  H71  1  0.966813  0.337262  0.366175  1
  H  H72  1  0.089084  0.910742  0.763094  1
  H  H73  1  0.910916  0.410742  0.736906  1
  H  H74  1  0.910916  0.089258  0.236906  1
  H  H75  1  0.089084  0.589258  0.263094  1
  O  O76  1  0.219406  0.989156  0.162561  1
  O  O77  1  0.780594  0.489156  0.337439  1
  O  O78  1  0.780594  0.010844  0.837439  1
  O  O79  1  0.219406  0.510844  0.662561  1
  O  O80  1  0.309336  0.254071  0.977940  1
  O  O81  1  0.690664  0.754071  0.522060  1
  O  O82  1  0.690664  0.745929  0.022060  1
  O  O83  1  0.309336  0.245929  0.477940  1
  O  O84  1  0.599003  0.998448  0.511593  1
  O  O85  1  0.400997  0.498448  0.988407  1
  O  O86  1  0.400997  0.001552  0.488407  1
  O  O87  1  0.599003  0.501552  0.011593  1
  O  O88  1  0.987151  0.166506  0.404277  1
  O  O89  1  0.012849  0.666506  0.095723  1
  O  O90  1  0.012849  0.833494  0.595723  1
  O  O91  1  0.987151  0.333494  0.904277  1
  O  O92  1  0.569069  0.327324  0.800785  1
  O  O93  1  0.430931  0.827324  0.699215  1
  O  O94  1  0.430931  0.672676  0.199215  1
  O  O95  1  0.569069  0.172676  0.300785  1
  O  O96  1  0.227921  0.380337  0.636921  1
  O  O97  1  0.772079  0.880337  0.863079  1
  O  O98  1  0.772079  0.619663  0.363079  1
  O  O99  1  0.227921  0.119663  0.136921  1
  O  O100  1  0.527721  0.377487  0.862474  1
  O  O101  1  0.472279  0.877487  0.637526  1
  O  O102  1  0.472279  0.622513  0.137526  1
  O  O103  1  0.527721  0.122513  0.362474  1
  O  O104  1  0.683142  0.049982  0.922853  1
  O  O105  1  0.316858  0.549982  0.577147  1
  O  O106  1  0.316858  0.950018  0.077147  1
  O  O107  1  0.683142  0.450018  0.422853  1
  O  O108  1  0.206454  0.937337  0.802610  1
  O  O109  1  0.793546  0.437337  0.697390  1
  O  O110  1  0.793546  0.062663  0.197390  1
  O  O111  1  0.206454  0.562663  0.302610  1
  O  O112  1  0.348611  0.311795  0.303408  1
  O  O113  1  0.651389  0.811795  0.196592  1
  O  O114  1  0.651389  0.688205  0.696592  1
  O  O115  1  0.348611  0.188205  0.803408  1
  O  O116  1  0.113029  0.832032  0.070606  1
  O  O117  1  0.886971  0.332032  0.429394  1
  O  O118  1  0.886971  0.167968  0.929394  1
  O  O119  1  0.113029  0.667968  0.570606  1
