# generated using pymatgen
data_Li2V3FeO8
_symmetry_space_group_name_H-M   'P 1'
_cell_length_a   8.52910079
_cell_length_b   8.42004893
_cell_length_c   8.41975511
_cell_angle_alpha   90.00152019
_cell_angle_beta   89.98375247
_cell_angle_gamma   89.99439834
_symmetry_Int_Tables_number   1
_chemical_formula_structural   Li2V3FeO8
_chemical_formula_sum   'Li8 V12 Fe4 O32'
_cell_volume   604.66844103
_cell_formula_units_Z   4
loop_
 _symmetry_equiv_pos_site_id
 _symmetry_equiv_pos_as_xyz
  1  'x, y, z'
loop_
 _atom_site_type_symbol
 _atom_site_label
 _atom_site_symmetry_multiplicity
 _atom_site_fract_x
 _atom_site_fract_y
 _atom_site_fract_z
 _atom_site_occupancy
  Li  Li0  1  0.001555  0.001964  0.004642  1
  Li  Li1  1  0.249683  0.245497  0.248562  1
  Li  Li2  1  0.251563  0.754702  0.747956  1
  Li  Li3  1  0.499662  0.998295  0.504636  1
  Li  Li4  1  0.501564  0.498102  0.995373  1
  Li  Li5  1  0.749686  0.254544  0.751693  1
  Li  Li6  1  0.751554  0.745447  0.251771  1
  Li  Li7  1  0.999656  0.501432  0.495539  1
  V  V8  1  0.123597  0.128042  0.626900  1
  V  V9  1  0.124885  0.380832  0.869601  1
  V  V10  1  0.126811  0.624286  0.117237  1
  V  V11  1  0.373623  0.376950  0.622296  1
  V  V12  1  0.374755  0.619478  0.369085  1
  V  V13  1  0.376713  0.867483  0.125670  1
  V  V14  1  0.623550  0.372124  0.372908  1
  V  V15  1  0.624647  0.119137  0.130782  1
  V  V16  1  0.626710  0.875474  0.882378  1
  V  V17  1  0.873504  0.123078  0.378042  1
  V  V18  1  0.874823  0.880618  0.630866  1
  V  V19  1  0.876713  0.632603  0.874308  1
  Fe  Fe20  1  0.124450  0.873810  0.374531  1
  Fe  Fe21  1  0.374407  0.124543  0.876197  1
  Fe  Fe22  1  0.624604  0.626043  0.625227  1
  Fe  Fe23  1  0.874500  0.375132  0.123947  1
  O  O24  1  0.110378  0.119218  0.394873  1
  O  O25  1  0.112143  0.890148  0.611997  1
  O  O26  1  0.107707  0.624972  0.882727  1
  O  O27  1  0.135439  0.131215  0.850992  1
  O  O28  1  0.115572  0.397975  0.115264  1
  O  O29  1  0.140035  0.365757  0.631203  1
  O  O30  1  0.139156  0.635580  0.356520  1
  O  O31  1  0.139182  0.855542  0.130798  1
  O  O32  1  0.360432  0.144891  0.630777  1
  O  O33  1  0.362173  0.361915  0.860051  1
  O  O34  1  0.357540  0.632821  0.124714  1
  O  O35  1  0.385522  0.600962  0.618938  1
  O  O36  1  0.365625  0.864836  0.352125  1
  O  O37  1  0.389803  0.381309  0.384376  1
  O  O38  1  0.388871  0.106677  0.114419  1
  O  O39  1  0.389083  0.880819  0.894409  1
  O  O40  1  0.610427  0.380843  0.605067  1
  O  O41  1  0.612076  0.609967  0.387752  1
  O  O42  1  0.607571  0.875274  0.117200  1
  O  O43  1  0.635475  0.368785  0.148996  1
  O  O44  1  0.615498  0.101925  0.885145  1
  O  O45  1  0.639865  0.134357  0.369218  1
  O  O46  1  0.638947  0.864158  0.643018  1
  O  O47  1  0.639071  0.644652  0.869154  1
  O  O48  1  0.860311  0.355163  0.369113  1
  O  O49  1  0.861964  0.137810  0.140202  1
  O  O50  1  0.857653  0.867433  0.874414  1
  O  O51  1  0.885471  0.898897  0.381383  1
  O  O52  1  0.865546  0.634836  0.648234  1
  O  O53  1  0.889995  0.119342  0.615680  1
  O  O54  1  0.889164  0.393214  0.885862  1
  O  O55  1  0.889089  0.619229  0.105376  1
