# generated using pymatgen
data_Li4TiCo3O8
_symmetry_space_group_name_H-M   'P 1'
_cell_length_a   5.56253640
_cell_length_b   6.46087965
_cell_length_c   5.10024480
_cell_angle_alpha   90.43295196
_cell_angle_beta   89.62758246
_cell_angle_gamma   90.21532707
_symmetry_Int_Tables_number   1
_chemical_formula_structural   Li4TiCo3O8
_chemical_formula_sum   'Li4 Ti1 Co3 O8'
_cell_volume   183.28671077
_cell_formula_units_Z   1
loop_
 _symmetry_equiv_pos_site_id
 _symmetry_equiv_pos_as_xyz
  1  'x, y, z'
loop_
 _atom_site_type_symbol
 _atom_site_label
 _atom_site_symmetry_multiplicity
 _atom_site_fract_x
 _atom_site_fract_y
 _atom_site_fract_z
 _atom_site_occupancy
  Li  Li0  1  0.083992  0.621223  0.996419  1
  Li  Li1  1  0.421552  0.125380  0.495170  1
  Li  Li2  1  0.578940  0.875821  0.997746  1
  Li  Li3  1  0.912903  0.374585  0.493129  1
  Ti  Ti4  1  0.919460  0.876627  0.498594  1
  Co  Co5  1  0.088812  0.139224  0.988761  1
  Co  Co6  1  0.418517  0.621931  0.496738  1
  Co  Co7  1  0.573719  0.382573  0.010048  1
  O  O8  1  0.074138  0.108422  0.368580  1
  O  O9  1  0.075874  0.641099  0.392364  1
  O  O10  1  0.406481  0.131646  0.892807  1
  O  O11  1  0.425914  0.611514  0.881377  1
  O  O12  1  0.579380  0.372274  0.367692  1
  O  O13  1  0.606335  0.870521  0.393000  1
  O  O14  1  0.905596  0.359524  0.891203  1
  O  O15  1  0.928389  0.887639  0.862770  1
