# generated using pymatgen
data_P6H26N7ClO19
_symmetry_space_group_name_H-M   'P 1'
_cell_length_a   6.78596173
_cell_length_b   10.23677402
_cell_length_c   19.62185158
_cell_angle_alpha   101.94524183
_cell_angle_beta   90.24288392
_cell_angle_gamma   107.60481061
_symmetry_Int_Tables_number   1
_chemical_formula_structural   P6H26N7ClO19
_chemical_formula_sum   'P12 H52 N14 Cl2 O38'
_cell_volume   1267.81734580
_cell_formula_units_Z   2
loop_
 _symmetry_equiv_pos_site_id
 _symmetry_equiv_pos_as_xyz
  1  'x, y, z'
loop_
 _atom_site_type_symbol
 _atom_site_label
 _atom_site_symmetry_multiplicity
 _atom_site_fract_x
 _atom_site_fract_y
 _atom_site_fract_z
 _atom_site_occupancy
  P  P0  1  0.720965  0.291774  0.543448  1
  P  P1  1  0.279035  0.708226  0.456552  1
  P  P2  1  0.485020  0.140756  0.409647  1
  P  P3  1  0.514980  0.859244  0.590353  1
  P  P4  1  0.491493  0.143106  0.647897  1
  P  P5  1  0.508507  0.856894  0.352103  1
  P  P6  1  0.968169  0.098541  0.149013  1
  P  P7  1  0.031831  0.901459  0.850987  1
  P  P8  1  0.242275  0.287410  0.065800  1
  P  P9  1  0.757725  0.712590  0.934200  1
  P  P10  1  0.007897  0.174495  0.929010  1
  P  P11  1  0.992103  0.825505  0.070990  1
  H  H12  1  0.844660  0.600017  0.621065  1
  H  H13  1  0.155340  0.399983  0.378935  1
  H  H14  1  0.869633  0.769631  0.617196  1
  H  H15  1  0.130367  0.230369  0.382804  1
  H  H16  1  0.942703  0.737706  0.692074  1
  H  H17  1  0.057297  0.262294  0.307926  1
  H  H18  1  0.082906  0.716828  0.621913  1
  H  H19  1  0.917094  0.283172  0.378087  1
  H  H20  1  0.648958  0.248951  0.894301  1
  H  H21  1  0.351042  0.751049  0.105699  1
  H  H22  1  0.579020  0.244451  0.809122  1
  H  H23  1  0.420980  0.755549  0.190878  1
  H  H24  1  0.626061  0.395296  0.873840  1
  H  H25  1  0.373939  0.604704  0.126160  1
  H  H26  1  0.410004  0.257901  0.870941  1
  H  H27  1  0.589996  0.742099  0.129059  1
  H  H28  1  0.075518  0.199079  0.778525  1
  H  H29  1  0.924482  0.800921  0.221475  1
  H  H30  1  0.110281  0.173155  0.690296  1
  H  H31  1  0.889719  0.826845  0.309704  1
  H  H32  1  0.868325  0.161995  0.721051  1
  H  H33  1  0.131675  0.838005  0.278949  1
  H  H34  1  0.978054  0.038892  0.727248  1
  H  H35  1  0.021946  0.961108  0.272752  1
  H  H36  1  0.441368  0.801035  0.719068  1
  H  H37  1  0.558632  0.198965  0.280932  1
  H  H38  1  0.386320  0.695180  0.775146  1
  H  H39  1  0.613680  0.304820  0.224854  1
  H  H40  1  0.624913  0.811065  0.779772  1
  H  H41  1  0.375087  0.188935  0.220228  1
  H  H42  1  0.418118  0.867107  0.806410  1
  H  H43  1  0.581882  0.132893  0.193590  1
  H  H44  1  0.318486  0.560958  0.592714  1
  H  H45  1  0.681514  0.439042  0.407286  1
  H  H46  1  0.231592  0.445920  0.643276  1
  H  H47  1  0.768408  0.554080  0.356724  1
  H  H48  1  0.412967  0.424445  0.586208  1
  H  H49  1  0.587033  0.575555  0.413792  1
  H  H50  1  0.160623  0.391239  0.557296  1
  H  H51  1  0.839377  0.608761  0.442704  1
  H  H52  1  0.311886  0.618551  0.932052  1
  H  H53  1  0.688114  0.381449  0.067948  1
  H  H54  1  0.051766  0.564454  0.944010  1
  H  H55  1  0.948234  0.435546  0.055990  1
  H  H56  1  0.175112  0.441615  0.917840  1
  H  H57  1  0.824888  0.558385  0.082160  1
  H  H58  1  0.137240  0.538523  0.863662  1
  H  H59  1  0.862760  0.461477  0.136338  1
  H  H60  1  0.514859  0.427283  0.726412  1
  H  H61  1  0.485141  0.572717  0.273588  1
  H  H62  1  0.748905  0.505872  0.749046  1
  H  H63  1  0.251095  0.494128  0.250954  1
  N  N64  1  0.934509  0.704982  0.638129  1
  N  N65  1  0.065491  0.295018  0.361871  1
  N  N66  1  0.566651  0.286315  0.861567  1
  N  N67  1  0.433349  0.713685  0.138433  1
  N  N68  1  0.008782  0.144651  0.728958  1
  N  N69  1  0.991218  0.855349  0.271042  1
  N  N70  1  0.468855  0.795554  0.770512  1
  N  N71  1  0.531145  0.204446  0.229488  1
  N  N72  1  0.281048  0.454954  0.594067  1
  N  N73  1  0.718952  0.545046  0.405933  1
  N  N74  1  0.170000  0.541350  0.915880  1
  N  N75  1  0.830000  0.458650  0.084120  1
  N  N76  1  0.500000  0.000000  0.000000  1
  N  N77  1  0.000000  0.000000  0.500000  1
  Cl  Cl78  1  0.079967  0.496625  0.745324  1
  Cl  Cl79  1  0.920033  0.503375  0.254676  1
  O  O80  1  0.484290  0.805338  0.506771  1
  O  O81  1  0.515710  0.194662  0.493229  1
  O  O82  1  0.693003  0.216117  0.608744  1
  O  O83  1  0.306997  0.783883  0.391256  1
  O  O84  1  0.696222  0.436005  0.565334  1
  O  O85  1  0.303778  0.563995  0.434666  1
  O  O86  1  0.916787  0.278785  0.511238  1
  O  O87  1  0.083213  0.721215  0.488762  1
  O  O88  1  0.412470  0.985362  0.599841  1
  O  O89  1  0.587530  0.014638  0.400159  1
  O  O90  1  0.376775  0.747993  0.624910  1
  O  O91  1  0.623225  0.252007  0.375090  1
  O  O92  1  0.742227  0.908652  0.611193  1
  O  O93  1  0.257773  0.091348  0.388807  1
  O  O94  1  0.572811  0.140875  0.719105  1
  O  O95  1  0.427189  0.859125  0.280895  1
  O  O96  1  0.324093  0.208768  0.641285  1
  O  O97  1  0.675907  0.791232  0.358715  1
  O  O98  1  0.921677  0.008108  0.896861  1
  O  O99  1  0.078323  0.991892  0.103139  1
  O  O100  1  0.935250  0.866090  0.777212  1
  O  O101  1  0.064750  0.133910  0.222788  1
  O  O102  1  0.263003  0.955435  0.862207  1
  O  O103  1  0.736997  0.044565  0.137793  1
  O  O104  1  0.761783  0.569770  0.941384  1
  O  O105  1  0.238217  0.430230  0.058616  1
  O  O106  1  0.563309  0.733077  0.908936  1
  O  O107  1  0.436691  0.266923  0.091064  1
  O  O108  1  0.164674  0.175711  0.991520  1
  O  O109  1  0.835326  0.824289  0.008480  1
  O  O110  1  0.136202  0.248877  0.876770  1
  O  O111  1  0.863798  0.751123  0.123230  1
  O  O112  1  0.829978  0.223177  0.954941  1
  O  O113  1  0.170022  0.776823  0.045059  1
  O  O114  1  0.948385  0.767347  0.886147  1
  O  O115  1  0.051615  0.232653  0.113853  1
  O  O116  1  0.609292  0.516678  0.752010  1
  O  O117  1  0.390708  0.483322  0.247990  1
