# generated using pymatgen
data_Mn3O5F
_symmetry_space_group_name_H-M   'P 1'
_cell_length_a   4.55673028
_cell_length_b   4.55515567
_cell_length_c   9.02897288
_cell_angle_alpha   89.99976360
_cell_angle_beta   90.00005103
_cell_angle_gamma   89.99998755
_symmetry_Int_Tables_number   1
_chemical_formula_structural   Mn3O5F
_chemical_formula_sum   'Mn6 O10 F2'
_cell_volume   187.41092088
_cell_formula_units_Z   2
loop_
 _symmetry_equiv_pos_site_id
 _symmetry_equiv_pos_as_xyz
  1  'x, y, z'
loop_
 _atom_site_type_symbol
 _atom_site_label
 _atom_site_symmetry_multiplicity
 _atom_site_fract_x
 _atom_site_fract_y
 _atom_site_fract_z
 _atom_site_occupancy
  Mn  Mn0  1  0.004119  0.989919  0.007437  1
  Mn  Mn1  1  0.019610  0.019775  0.333329  1
  Mn  Mn2  1  0.004128  0.989935  0.659236  1
  Mn  Mn3  1  0.480389  0.519777  0.833330  1
  Mn  Mn4  1  0.495880  0.489929  0.159234  1
  Mn  Mn5  1  0.495884  0.489922  0.507440  1
  O  O6  1  0.196270  0.803583  0.169428  1
  O  O7  1  0.196274  0.803582  0.497233  1
  O  O8  1  0.188187  0.810524  0.833342  1
  O  O9  1  0.303725  0.303580  0.997233  1
  O  O10  1  0.311811  0.310525  0.333343  1
  O  O11  1  0.303729  0.303584  0.669429  1
  O  O12  1  0.690888  0.692046  0.998589  1
  O  O13  1  0.690896  0.692042  0.668076  1
  O  O14  1  0.809104  0.192039  0.168075  1
  O  O15  1  0.809109  0.192045  0.498589  1
  F  F16  1  0.700386  0.698598  0.333328  1
  F  F17  1  0.799613  0.198597  0.833327  1
