# generated using pymatgen
data_AgBrO4
_symmetry_space_group_name_H-M   'P 1'
_cell_length_a   5.92782866
_cell_length_b   8.46076747
_cell_length_c   7.39439260
_cell_angle_alpha   90.00000000
_cell_angle_beta   91.09299607
_cell_angle_gamma   90.00000000
_symmetry_Int_Tables_number   1
_chemical_formula_structural   AgBrO4
_chemical_formula_sum   'Ag4 Br4 O16'
_cell_volume   370.79074035
_cell_formula_units_Z   4
loop_
 _symmetry_equiv_pos_site_id
 _symmetry_equiv_pos_as_xyz
  1  'x, y, z'
loop_
 _atom_site_type_symbol
 _atom_site_label
 _atom_site_symmetry_multiplicity
 _atom_site_fract_x
 _atom_site_fract_y
 _atom_site_fract_z
 _atom_site_occupancy
  Ag  Ag0  1  0.250521  0.309718  0.331505  1
  Ag  Ag1  1  0.249479  0.809718  0.168495  1
  Ag  Ag2  1  0.750521  0.190282  0.831505  1
  Ag  Ag3  1  0.749479  0.690282  0.668495  1
  Br  Br4  1  0.247083  0.474396  0.827252  1
  Br  Br5  1  0.252917  0.974396  0.672748  1
  Br  Br6  1  0.747083  0.025604  0.327252  1
  Br  Br7  1  0.752917  0.525604  0.172748  1
  O  O8  1  0.012531  0.446084  0.702752  1
  O  O9  1  0.023462  0.946508  0.796169  1
  O  O10  1  0.248402  0.661666  0.895603  1
  O  O11  1  0.251598  0.161666  0.604397  1
  O  O12  1  0.250400  0.850106  0.499491  1
  O  O13  1  0.249600  0.350106  0.000509  1
  O  O14  1  0.476538  0.446508  0.703831  1
  O  O15  1  0.487469  0.946084  0.797248  1
  O  O16  1  0.512531  0.053916  0.202752  1
  O  O17  1  0.523462  0.553492  0.296169  1
  O  O18  1  0.750400  0.649894  0.999491  1
  O  O19  1  0.749600  0.149894  0.500509  1
  O  O20  1  0.748402  0.838334  0.395603  1
  O  O21  1  0.751598  0.338334  0.104397  1
  O  O22  1  0.976538  0.053492  0.203831  1
  O  O23  1  0.987469  0.553916  0.297248  1
