# generated using pymatgen
data_Ti3MnFe2(PO4)6
_symmetry_space_group_name_H-M   'P 1'
_cell_length_a   8.57079328
_cell_length_b   8.57079390
_cell_length_c   8.57079320
_cell_angle_alpha   61.18992834
_cell_angle_beta   61.18993181
_cell_angle_gamma   61.18993059
_symmetry_Int_Tables_number   1
_chemical_formula_structural   Ti3MnFe2(PO4)6
_chemical_formula_sum   'Ti3 Mn1 Fe2 P6 O24'
_cell_volume   457.10984073
_cell_formula_units_Z   1
loop_
 _symmetry_equiv_pos_site_id
 _symmetry_equiv_pos_as_xyz
  1  'x, y, z'
loop_
 _atom_site_type_symbol
 _atom_site_label
 _atom_site_symmetry_multiplicity
 _atom_site_fract_x
 _atom_site_fract_y
 _atom_site_fract_z
 _atom_site_occupancy
  Ti  Ti0  1  0.142982  0.142982  0.142982  1
  Ti  Ti1  1  0.354781  0.354781  0.354781  1
  Ti  Ti2  1  0.645977  0.645977  0.645977  1
  Mn  Mn3  1  0.856842  0.856842  0.856842  1
  Fe  Fe4  1  0.997101  0.997101  0.997101  1
  Fe  Fe5  1  0.498638  0.498638  0.498638  1
  P  P6  1  0.048096  0.752205  0.452492  1
  P  P7  1  0.452492  0.048096  0.752205  1
  P  P8  1  0.254927  0.539926  0.956088  1
  P  P9  1  0.539926  0.956088  0.254927  1
  P  P10  1  0.956088  0.254927  0.539926  1
  P  P11  1  0.752205  0.452492  0.048096  1
  O  O12  1  0.112659  0.333861  0.479229  1
  O  O13  1  0.333861  0.479229  0.112659  1
  O  O14  1  0.058178  0.909934  0.255278  1
  O  O15  1  0.479229  0.112659  0.333861  1
  O  O16  1  0.021671  0.816074  0.600138  1
  O  O17  1  0.241283  0.588387  0.428248  1
  O  O18  1  0.255278  0.058178  0.909934  1
  O  O19  1  0.428248  0.241283  0.588387  1
  O  O20  1  0.185896  0.378913  0.003112  1
  O  O21  1  0.588387  0.428248  0.241283  1
  O  O22  1  0.103363  0.732039  0.952843  1
  O  O23  1  0.378913  0.003112  0.185896  1
  O  O24  1  0.600138  0.021671  0.816074  1
  O  O25  1  0.909934  0.255278  0.058178  1
  O  O26  1  0.414260  0.551173  0.760902  1
  O  O27  1  0.816074  0.600138  0.021671  1
  O  O28  1  0.551173  0.760902  0.414260  1
  O  O29  1  0.732039  0.952843  0.103363  1
  O  O30  1  0.760902  0.414260  0.551173  1
  O  O31  1  0.003112  0.185896  0.378913  1
  O  O32  1  0.504539  0.879880  0.688087  1
  O  O33  1  0.952843  0.103363  0.732039  1
  O  O34  1  0.688087  0.504539  0.879880  1
  O  O35  1  0.879880  0.688087  0.504539  1
