# generated using pymatgen
data_Li4Mn8O9F7
_symmetry_space_group_name_H-M   'P 1'
_cell_length_a   6.26592926
_cell_length_b   6.22150449
_cell_length_c   10.97025160
_cell_angle_alpha   90.57213199
_cell_angle_beta   74.74581582
_cell_angle_gamma   124.21931493
_symmetry_Int_Tables_number   1
_chemical_formula_structural   Li4Mn8O9F7
_chemical_formula_sum   'Li4 Mn8 O9 F7'
_cell_volume   336.02708496
_cell_formula_units_Z   1
loop_
 _symmetry_equiv_pos_site_id
 _symmetry_equiv_pos_as_xyz
  1  'x, y, z'
loop_
 _atom_site_type_symbol
 _atom_site_label
 _atom_site_symmetry_multiplicity
 _atom_site_fract_x
 _atom_site_fract_y
 _atom_site_fract_z
 _atom_site_occupancy
  Li  Li0  1  0.850908  0.210148  0.449158  1
  Li  Li1  1  0.123498  0.278347  0.056080  1
  Li  Li2  1  0.846943  0.711431  0.951570  1
  Li  Li3  1  0.156794  0.791867  0.550002  1
  Mn  Mn4  1  0.510801  0.001629  0.002449  1
  Mn  Mn5  1  0.517467  0.246526  0.242419  1
  Mn  Mn6  1  0.498806  0.250476  0.752547  1
  Mn  Mn7  1  0.507472  0.759141  0.245790  1
  Mn  Mn8  1  0.502532  0.500597  0.499124  1
  Mn  Mn9  1  0.000075  0.251879  0.748787  1
  Mn  Mn10  1  0.499386  0.751692  0.749401  1
  Mn  Mn11  1  0.003688  0.750561  0.249094  1
  O  O12  1  0.725425  0.080966  0.133044  1
  O  O13  1  0.731111  0.405606  0.360361  1
  O  O14  1  0.732539  0.116419  0.655546  1
  O  O15  1  0.723411  0.624336  0.161228  1
  O  O16  1  0.268939  0.094728  0.140242  1
  O  O17  1  0.731653  0.906614  0.859709  1
  O  O18  1  0.279357  0.873426  0.339580  1
  O  O19  1  0.271762  0.595626  0.635853  1
  O  O20  1  0.266035  0.387172  0.842249  1
  F  F21  1  0.767792  0.623705  0.616989  1
  F  F22  1  0.259765  0.115214  0.617106  1
  F  F23  1  0.235176  0.602156  0.122463  1
  F  F24  1  0.753191  0.888105  0.381741  1
  F  F25  1  0.745597  0.390761  0.880833  1
  F  F26  1  0.252251  0.410937  0.371028  1
  F  F27  1  0.237625  0.879936  0.885604  1
