# generated using pymatgen
data_LiFe(PO3)4
_symmetry_space_group_name_H-M   'P 1'
_cell_length_a   10.41400753
_cell_length_b   9.59254147
_cell_length_c   10.22211534
_cell_angle_alpha   90.00000000
_cell_angle_beta   67.07716440
_cell_angle_gamma   90.00000000
_symmetry_Int_Tables_number   1
_chemical_formula_structural   LiFe(PO3)4
_chemical_formula_sum   'Li4 Fe4 P16 O48'
_cell_volume   940.51611590
_cell_formula_units_Z   4
loop_
 _symmetry_equiv_pos_site_id
 _symmetry_equiv_pos_as_xyz
  1  'x, y, z'
loop_
 _atom_site_type_symbol
 _atom_site_label
 _atom_site_symmetry_multiplicity
 _atom_site_fract_x
 _atom_site_fract_y
 _atom_site_fract_z
 _atom_site_occupancy
  Li  Li0  1  0.973854  0.455321  0.884286  1
  Li  Li1  1  0.473854  0.044679  0.384286  1
  Li  Li2  1  0.526146  0.955321  0.615714  1
  Li  Li3  1  0.026146  0.544679  0.115714  1
  Fe  Fe4  1  0.210196  0.164767  0.989216  1
  Fe  Fe5  1  0.289804  0.664767  0.510784  1
  Fe  Fe6  1  0.710196  0.335233  0.489216  1
  Fe  Fe7  1  0.789804  0.835233  0.010784  1
  P  P8  1  0.157192  0.828265  0.042515  1
  P  P9  1  0.025283  0.884669  0.690970  1
  P  P10  1  0.249627  0.996654  0.232332  1
  P  P11  1  0.250373  0.496654  0.267668  1
  P  P12  1  0.239486  0.107647  0.661804  1
  P  P13  1  0.260514  0.607647  0.838196  1
  P  P14  1  0.342808  0.328265  0.457485  1
  P  P15  1  0.525283  0.615331  0.190970  1
  P  P16  1  0.474717  0.384669  0.809030  1
  P  P17  1  0.657192  0.671735  0.542515  1
  P  P18  1  0.739486  0.392353  0.161804  1
  P  P19  1  0.760514  0.892353  0.338196  1
  P  P20  1  0.749627  0.503346  0.732332  1
  P  P21  1  0.750373  0.003346  0.767668  1
  P  P22  1  0.974717  0.115331  0.309030  1
  P  P23  1  0.842808  0.171735  0.957485  1
  O  O24  1  0.023854  0.749423  0.089480  1
  O  O25  1  0.035680  0.185131  0.163882  1
  O  O26  1  0.102003  0.058111  0.346987  1
  O  O27  1  0.203555  0.854652  0.174967  1
  O  O28  1  0.157257  0.464929  0.192849  1
  O  O29  1  0.123812  0.803995  0.567026  1
  O  O30  1  0.092383  0.030911  0.707371  1
  O  O31  1  0.195816  0.598104  0.391245  1
  O  O32  1  0.304184  0.098103  0.108755  1
  O  O33  1  0.219225  0.225000  0.556895  1
  O  O34  1  0.342743  0.964929  0.307151  1
  O  O35  1  0.143012  0.509538  0.912064  1
  O  O36  1  0.296445  0.354652  0.325033  1
  O  O37  1  0.169364  0.965072  0.963656  1
  O  O38  1  0.397997  0.558111  0.153013  1
  O  O39  1  0.254148  0.684685  0.711907  1
  O  O40  1  0.245852  0.184685  0.788093  1
  O  O41  1  0.330636  0.465072  0.536344  1
  O  O42  1  0.356988  0.009538  0.587936  1
  O  O43  1  0.280775  0.725000  0.943105  1
  O  O44  1  0.464320  0.685131  0.336118  1
  O  O45  1  0.476146  0.249423  0.410520  1
  O  O46  1  0.623812  0.696005  0.067026  1
  O  O47  1  0.407617  0.530911  0.792629  1
  O  O48  1  0.592383  0.469089  0.207371  1
  O  O49  1  0.376188  0.303995  0.932974  1
  O  O50  1  0.523854  0.750577  0.589480  1
  O  O51  1  0.535680  0.314869  0.663882  1
  O  O52  1  0.719225  0.275000  0.056895  1
  O  O53  1  0.643012  0.990462  0.412064  1
  O  O54  1  0.669364  0.534928  0.463656  1
  O  O55  1  0.754148  0.815315  0.211907  1
  O  O56  1  0.745852  0.315315  0.288093  1
  O  O57  1  0.602003  0.441889  0.846987  1
  O  O58  1  0.830636  0.034928  0.036344  1
  O  O59  1  0.703555  0.645348  0.674967  1
  O  O60  1  0.856988  0.490462  0.087936  1
  O  O61  1  0.657257  0.035071  0.692849  1
  O  O62  1  0.780775  0.775000  0.443105  1
  O  O63  1  0.695816  0.901896  0.891245  1
  O  O64  1  0.804184  0.401896  0.608755  1
  O  O65  1  0.907617  0.969089  0.292629  1
  O  O66  1  0.876188  0.196005  0.432974  1
  O  O67  1  0.842743  0.535071  0.807151  1
  O  O68  1  0.796445  0.145348  0.825033  1
  O  O69  1  0.897997  0.941889  0.653013  1
  O  O70  1  0.964320  0.814869  0.836118  1
  O  O71  1  0.976146  0.250577  0.910520  1
