# generated using pymatgen
data_Na11Mn13O32
_symmetry_space_group_name_H-M   'P 1'
_cell_length_a   6.20198351
_cell_length_b   6.20587134
_cell_length_c   20.51688642
_cell_angle_alpha   95.77372043
_cell_angle_beta   92.29442926
_cell_angle_gamma   122.27205213
_symmetry_Int_Tables_number   1
_chemical_formula_structural   Na11Mn13O32
_chemical_formula_sum   'Na11 Mn13 O32'
_cell_volume   660.15726889
_cell_formula_units_Z   1
loop_
 _symmetry_equiv_pos_site_id
 _symmetry_equiv_pos_as_xyz
  1  'x, y, z'
loop_
 _atom_site_type_symbol
 _atom_site_label
 _atom_site_symmetry_multiplicity
 _atom_site_fract_x
 _atom_site_fract_y
 _atom_site_fract_z
 _atom_site_occupancy
  Na  Na0  1  0.343088  0.686546  0.031256  1
  Na  Na1  1  0.008681  0.991556  0.999451  1
  Na  Na2  1  0.443319  0.875868  0.320990  1
  Na  Na3  1  0.679139  0.384742  0.063533  1
  Na  Na4  1  0.763253  0.491834  0.254105  1
  Na  Na5  1  0.185411  0.373874  0.557902  1
  Na  Na6  1  0.717496  0.939663  0.657516  1
  Na  Na7  1  0.969328  0.432178  0.405233  1
  Na  Na8  1  0.244665  0.498460  0.742042  1
  Na  Na9  1  0.504973  0.000127  0.504837  1
  Na  Na10  1  0.925309  0.884958  0.808388  1
  Mn  Mn11  1  0.225042  0.939930  0.163845  1
  Mn  Mn12  1  0.224792  0.445568  0.164151  1
  Mn  Mn13  1  0.719395  0.940046  0.164086  1
  Mn  Mn14  1  0.107428  0.178309  0.285769  1
  Mn  Mn15  1  0.214253  0.939090  0.654746  1
  Mn  Mn16  1  0.972466  0.933420  0.407857  1
  Mn  Mn17  1  0.473428  0.434687  0.408024  1
  Mn  Mn18  1  0.844464  0.686623  0.531210  1
  Mn  Mn19  1  0.463973  0.931942  0.898904  1
  Mn  Mn20  1  0.716420  0.440458  0.654795  1
  Mn  Mn21  1  0.581371  0.197184  0.776905  1
  Mn  Mn22  1  0.463333  0.437112  0.899013  1
  Mn  Mn23  1  0.969273  0.437423  0.898798  1
  O  O24  1  0.068712  0.593041  0.118475  1
  O  O25  1  0.518894  0.599189  0.117291  1
  O  O26  1  0.409698  0.805198  0.212696  1
  O  O27  1  0.034101  0.080856  0.114030  1
  O  O28  1  0.099882  0.813451  0.471030  1
  O  O29  1  0.938805  0.859690  0.217582  1
  O  O30  1  0.358406  0.279268  0.217487  1
  O  O31  1  0.288507  0.491879  0.340218  1
  O  O32  1  0.525590  0.050103  0.118208  1
  O  O33  1  0.012141  0.589466  0.599838  1
  O  O34  1  0.173675  0.277250  0.452866  1
  O  O35  1  0.269882  0.085316  0.353381  1
  O  O36  1  0.764786  0.593756  0.360355  1
  O  O37  1  0.943877  0.277286  0.220793  1
  O  O38  1  0.677785  0.784671  0.463234  1
  O  O39  1  0.398343  0.882586  0.722810  1
  O  O40  1  0.656703  0.370772  0.471425  1
  O  O41  1  0.031554  0.002133  0.590939  1
  O  O42  1  0.589433  0.560152  0.591258  1
  O  O43  1  0.846851  0.048505  0.339880  1
  O  O44  1  0.922999  0.780115  0.702426  1
  O  O45  1  0.420521  0.291415  0.709308  1
  O  O46  1  0.513781  0.096152  0.609899  1
  O  O47  1  0.279367  0.573120  0.850345  1
  O  O48  1  0.169431  0.778237  0.945796  1
  O  O49  1  0.841185  0.323862  0.722371  1
  O  O50  1  0.163351  0.327141  0.944769  1
  O  O51  1  0.618882  0.782280  0.944817  1
  O  O52  1  0.750672  0.517073  0.845259  1
  O  O53  1  0.330464  0.096937  0.845118  1
  O  O54  1  0.745076  0.099175  0.842219  1
  O  O55  1  0.653813  0.295086  0.948730  1
