# generated using pymatgen
data_Sr5Ta4O15
_symmetry_space_group_name_H-M   'P 1'
_cell_length_a   5.71537446
_cell_length_b   5.71537583
_cell_length_c   11.71317517
_cell_angle_alpha   89.99922349
_cell_angle_beta   90.00000000
_cell_angle_gamma   119.99998626
_symmetry_Int_Tables_number   1
_chemical_formula_structural   Sr5Ta4O15
_chemical_formula_sum   'Sr5 Ta4 O15'
_cell_volume   331.35598094
_cell_formula_units_Z   1
loop_
 _symmetry_equiv_pos_site_id
 _symmetry_equiv_pos_as_xyz
  1  'x, y, z'
loop_
 _atom_site_type_symbol
 _atom_site_label
 _atom_site_symmetry_multiplicity
 _atom_site_fract_x
 _atom_site_fract_y
 _atom_site_fract_z
 _atom_site_occupancy
  Sr  Sr0  1  0.333264  0.666652  0.443874  1
  Sr  Sr1  1  0.333306  0.666652  0.778253  1
  Sr  Sr2  1  0.000013  0.000000  0.000000  1
  Sr  Sr3  1  0.666654  0.333348  0.221747  1
  Sr  Sr4  1  0.666612  0.333348  0.556126  1
  Ta  Ta5  1  0.333337  0.666670  0.103942  1
  Ta  Ta6  1  0.999989  -0.000003  0.314874  1
  Ta  Ta7  1  0.999992  0.000003  0.685126  1
  Ta  Ta8  1  0.666669  0.333330  0.896058  1
  O  O9  1  0.168386  0.831612  0.610512  1
  O  O10  1  0.000042  0.500004  0.999970  1
  O  O11  1  0.164766  0.835212  0.191349  1
  O  O12  1  0.164755  0.329561  0.191355  1
  O  O13  1  0.168389  0.336794  0.610498  1
  O  O14  1  0.336774  0.168388  0.389488  1
  O  O15  1  0.670430  0.835225  0.191365  1
  O  O16  1  0.500038  0.499996  0.000030  1
  O  O17  1  0.329553  0.164788  0.808651  1
  O  O18  1  0.663169  0.831605  0.610494  1
  O  O19  1  0.500007  0.000000  0.000000  1
  O  O20  1  0.835195  0.670439  0.808645  1
  O  O21  1  0.831594  0.663206  0.389502  1
  O  O22  1  0.835204  0.164775  0.808635  1
  O  O23  1  0.831565  0.168395  0.389506  1
