# generated using pymatgen
data_Li2CuPO4
_symmetry_space_group_name_H-M   'P 1'
_cell_length_a   6.25441694
_cell_length_b   10.66922875
_cell_length_c   5.07807624
_cell_angle_alpha   90.00000990
_cell_angle_beta   89.99994834
_cell_angle_gamma   90.00003683
_symmetry_Int_Tables_number   1
_chemical_formula_structural   Li2CuPO4
_chemical_formula_sum   'Li8 Cu4 P4 O16'
_cell_volume   338.85903743
_cell_formula_units_Z   4
loop_
 _symmetry_equiv_pos_site_id
 _symmetry_equiv_pos_as_xyz
  1  'x, y, z'
loop_
 _atom_site_type_symbol
 _atom_site_label
 _atom_site_symmetry_multiplicity
 _atom_site_fract_x
 _atom_site_fract_y
 _atom_site_fract_z
 _atom_site_occupancy
  Li  Li0  1  0.996710  0.406857  0.176852  1
  Li  Li1  1  0.996711  0.906857  0.323148  1
  Li  Li2  1  0.503290  0.906857  0.323148  1
  Li  Li3  1  0.503290  0.406857  0.176851  1
  Li  Li4  1  0.496711  0.093143  0.676852  1
  Li  Li5  1  0.496711  0.593143  0.823148  1
  Li  Li6  1  0.003290  0.593142  0.823148  1
  Li  Li7  1  0.003290  0.093142  0.676851  1
  Cu  Cu8  1  0.249999  0.161249  0.168380  1
  Cu  Cu9  1  0.249998  0.661240  0.331620  1
  Cu  Cu10  1  0.749998  0.338755  0.668383  1
  Cu  Cu11  1  0.750000  0.838761  0.831621  1
  P  P12  1  0.250000  0.342841  0.670026  1
  P  P13  1  0.250000  0.842841  0.829974  1
  P  P14  1  0.750000  0.657159  0.329975  1
  P  P15  1  0.750000  0.157159  0.170026  1
  O  O16  1  0.047412  0.409324  0.785158  1
  O  O17  1  0.047412  0.909324  0.714844  1
  O  O18  1  0.250000  0.351502  0.365022  1
  O  O19  1  0.250001  0.701892  0.744202  1
  O  O20  1  0.250000  0.201892  0.755796  1
  O  O21  1  0.250000  0.851501  0.134977  1
  O  O22  1  0.452589  0.909325  0.714844  1
  O  O23  1  0.452589  0.409324  0.785156  1
  O  O24  1  0.547412  0.090675  0.285155  1
  O  O25  1  0.547411  0.590675  0.214843  1
  O  O26  1  0.750000  0.648498  0.634977  1
  O  O27  1  0.750001  0.148499  0.865021  1
  O  O28  1  0.750000  0.298108  0.255797  1
  O  O29  1  0.750000  0.798107  0.244203  1
  O  O30  1  0.952588  0.590675  0.214844  1
  O  O31  1  0.952588  0.090675  0.285156  1
