# generated using pymatgen
data_SbH5(Cl3O)2
_symmetry_space_group_name_H-M   'P 1'
_cell_length_a   7.13813509
_cell_length_b   7.10849367
_cell_length_c   12.79480537
_cell_angle_alpha   96.33794497
_cell_angle_beta   106.33407771
_cell_angle_gamma   59.91848644
_symmetry_Int_Tables_number   1
_chemical_formula_structural   SbH5(Cl3O)2
_chemical_formula_sum   'Sb2 H10 Cl12 O4'
_cell_volume   538.74385404
_cell_formula_units_Z   2
loop_
 _symmetry_equiv_pos_site_id
 _symmetry_equiv_pos_as_xyz
  1  'x, y, z'
loop_
 _atom_site_type_symbol
 _atom_site_label
 _atom_site_symmetry_multiplicity
 _atom_site_fract_x
 _atom_site_fract_y
 _atom_site_fract_z
 _atom_site_occupancy
  Sb  Sb0  1  0.001842  0.498485  0.500843  1
  Sb  Sb1  1  0.000404  0.002783  0.998317  1
  H  H2  1  0.348771  0.012861  0.664026  1
  H  H3  1  0.362932  0.803197  0.597219  1
  H  H4  1  0.472929  0.746952  0.751607  1
  H  H5  1  0.571015  0.704598  0.900051  1
  H  H6  1  0.309763  0.510819  0.170310  1
  H  H7  1  0.698034  0.491998  0.832486  1
  H  H8  1  0.419624  0.302072  0.098479  1
  H  H9  1  0.531047  0.248327  0.249300  1
  H  H10  1  0.624409  0.199673  0.399377  1
  H  H11  1  0.646475  0.988602  0.331860  1
  Cl  Cl12  1  0.401423  0.866465  0.072291  1
  Cl  Cl13  1  0.997973  0.844639  0.156645  1
  Cl  Cl14  1  0.840034  0.829010  0.592143  1
  Cl  Cl15  1  0.077757  0.672101  0.905098  1
  Cl  Cl16  1  0.677952  0.661742  0.343713  1
  Cl  Cl17  1  0.192832  0.636922  0.429048  1
  Cl  Cl18  1  0.810690  0.365636  0.574992  1
  Cl  Cl19  1  0.322551  0.340024  0.658587  1
  Cl  Cl20  1  0.922250  0.335937  0.089885  1
  Cl  Cl21  1  0.156336  0.168694  0.406200  1
  Cl  Cl22  1  0.000089  0.161184  0.839483  1
  Cl  Cl23  1  0.600852  0.135429  0.925435  1
  O  O24  1  0.357939  0.870042  0.668539  1
  O  O25  1  0.557955  0.632284  0.829997  1
  O  O26  1  0.442394  0.367317  0.169266  1
  O  O27  1  0.643824  0.128911  0.330093  1
