# generated using pymatgen
data_CuH9CSN4Cl3O
_symmetry_space_group_name_H-M   'P 1'
_cell_length_a   8.94107222
_cell_length_b   9.66659998
_cell_length_c   7.50572273
_cell_angle_alpha   98.40295562
_cell_angle_beta   92.15123463
_cell_angle_gamma   112.36730990
_symmetry_Int_Tables_number   1
_chemical_formula_structural   CuH9CSN4Cl3O
_chemical_formula_sum   'Cu2 H18 C2 S2 N8 Cl6 O2'
_cell_volume   590.38603235
_cell_formula_units_Z   2
loop_
 _symmetry_equiv_pos_site_id
 _symmetry_equiv_pos_as_xyz
  1  'x, y, z'
loop_
 _atom_site_type_symbol
 _atom_site_label
 _atom_site_symmetry_multiplicity
 _atom_site_fract_x
 _atom_site_fract_y
 _atom_site_fract_z
 _atom_site_occupancy
  Cu  Cu0  1  0.908183  0.885401  0.775371  1
  Cu  Cu1  1  0.091817  0.114599  0.224629  1
  H  H2  1  0.362816  0.966205  0.750717  1
  H  H3  1  0.637184  0.033795  0.249283  1
  H  H4  1  0.529920  0.679704  0.717547  1
  H  H5  1  0.470080  0.320296  0.282453  1
  H  H6  1  0.493495  0.728718  0.938969  1
  H  H7  1  0.506505  0.271282  0.061031  1
  H  H8  1  0.495087  0.366678  0.799309  1
  H  H9  1  0.504913  0.633322  0.200691  1
  H  H10  1  0.917799  0.253092  0.434251  1
  H  H11  1  0.082201  0.746908  0.565749  1
  H  H12  1  0.092948  0.383948  0.857086  1
  H  H13  1  0.907052  0.616052  0.142914  1
  H  H14  1  0.754786  0.468540  0.626047  1
  H  H15  1  0.245214  0.531460  0.373953  1
  H  H16  1  0.405077  0.335391  0.773367  1
  H  H17  1  0.594923  0.664609  0.226633  1
  H  H18  1  0.402804  0.121060  0.699310  1
  H  H19  1  0.597196  0.878940  0.300690  1
  C  C20  1  0.794355  0.154653  0.742152  1
  C  C21  1  0.205645  0.845347  0.257848  1
  S  S22  1  0.039136  0.087920  0.652989  1
  S  S23  1  0.960864  0.912080  0.347011  1
  N  N24  1  0.726083  0.815686  0.893538  1
  N  N25  1  0.273917  0.184314  0.106462  1
  N  N26  1  0.579745  0.738957  0.846402  1
  N  N27  1  0.420255  0.261043  0.153598  1
  N  N28  1  0.931588  0.199269  0.665669  1
  N  N29  1  0.068412  0.800731  0.334331  1
  N  N30  1  0.675140  0.129605  0.817009  1
  N  N31  1  0.324860  0.870395  0.182991  1
  Cl  Cl32  1  0.800232  0.504947  0.024853  1
  Cl  Cl33  1  0.199768  0.495053  0.975147  1
  Cl  Cl34  1  0.068504  0.728929  0.738810  1
  Cl  Cl35  1  0.931496  0.271071  0.261190  1
  Cl  Cl36  1  0.708699  0.511544  0.486522  1
  Cl  Cl37  1  0.291301  0.488456  0.513478  1
  O  O38  1  0.320805  0.017990  0.671589  1
  O  O39  1  0.679195  0.982010  0.328411  1
