# generated using pymatgen
data_LiVF4
_symmetry_space_group_name_H-M   'P 1'
_cell_length_a   15.46214347
_cell_length_b   11.17520684
_cell_length_c   3.97562986
_cell_angle_alpha   90.00000000
_cell_angle_beta   90.00000000
_cell_angle_gamma   90.00000000
_symmetry_Int_Tables_number   1
_chemical_formula_structural   LiVF4
_chemical_formula_sum   'Li8 V8 F32'
_cell_volume   686.95962476
_cell_formula_units_Z   8
loop_
 _symmetry_equiv_pos_site_id
 _symmetry_equiv_pos_as_xyz
  1  'x, y, z'
loop_
 _atom_site_type_symbol
 _atom_site_label
 _atom_site_symmetry_multiplicity
 _atom_site_fract_x
 _atom_site_fract_y
 _atom_site_fract_z
 _atom_site_occupancy
  Li  Li0  1  0.146444  0.500000  0.484593  1
  Li  Li1  1  0.250000  0.750000  0.000000  1
  Li  Li2  1  0.250000  0.250000  0.000000  1
  Li  Li3  1  0.353556  0.000000  0.515407  1
  Li  Li4  1  0.646444  0.000000  0.515407  1
  Li  Li5  1  0.750000  0.250000  0.000000  1
  Li  Li6  1  0.750000  0.750000  0.000000  1
  Li  Li7  1  0.853556  0.500000  0.484593  1
  V  V8  1  0.000000  0.267175  0.217250  1
  V  V9  1  0.000000  0.732825  0.217250  1
  V  V10  1  0.168318  0.000000  0.261241  1
  V  V11  1  0.331682  0.500000  0.738759  1
  V  V12  1  0.500000  0.767175  0.782750  1
  V  V13  1  0.500000  0.232825  0.782750  1
  V  V14  1  0.668318  0.500000  0.738759  1
  V  V15  1  0.831682  0.000000  0.261241  1
  F  F16  1  0.000000  0.264363  0.717994  1
  F  F17  1  0.000000  0.735637  0.717994  1
  F  F18  1  0.086322  0.132846  0.224440  1
  F  F19  1  0.095455  0.376026  0.220067  1
  F  F20  1  0.095455  0.623974  0.220067  1
  F  F21  1  0.086322  0.867154  0.224440  1
  F  F22  1  0.171958  0.000000  0.760179  1
  F  F23  1  0.261898  0.119676  0.285694  1
  F  F24  1  0.261898  0.880324  0.285694  1
  F  F25  1  0.238102  0.380324  0.714306  1
  F  F26  1  0.238102  0.619676  0.714306  1
  F  F27  1  0.328042  0.500000  0.239821  1
  F  F28  1  0.413678  0.632846  0.775560  1
  F  F29  1  0.404545  0.123974  0.779933  1
  F  F30  1  0.413678  0.367154  0.775560  1
  F  F31  1  0.404545  0.876026  0.779933  1
  F  F32  1  0.500000  0.764363  0.282006  1
  F  F33  1  0.500000  0.235637  0.282006  1
  F  F34  1  0.595455  0.123974  0.779933  1
  F  F35  1  0.586322  0.367154  0.775560  1
  F  F36  1  0.586322  0.632846  0.775560  1
  F  F37  1  0.595455  0.876026  0.779933  1
  F  F38  1  0.671958  0.500000  0.239821  1
  F  F39  1  0.761898  0.380324  0.714306  1
  F  F40  1  0.761898  0.619676  0.714306  1
  F  F41  1  0.738102  0.119676  0.285694  1
  F  F42  1  0.738102  0.880324  0.285694  1
  F  F43  1  0.828042  0.000000  0.760179  1
  F  F44  1  0.913678  0.132846  0.224440  1
  F  F45  1  0.904545  0.376026  0.220067  1
  F  F46  1  0.904545  0.623974  0.220067  1
  F  F47  1  0.913678  0.867154  0.224440  1
