# generated using pymatgen
data_H13C3NF4
_symmetry_space_group_name_H-M   'P 1'
_cell_length_a   7.73920925
_cell_length_b   9.43400908
_cell_length_c   10.84157949
_cell_angle_alpha   102.60439601
_cell_angle_beta   91.75593328
_cell_angle_gamma   90.73244156
_symmetry_Int_Tables_number   1
_chemical_formula_structural   H13C3NF4
_chemical_formula_sum   'H52 C12 N4 F16'
_cell_volume   771.96969862
_cell_formula_units_Z   4
loop_
 _symmetry_equiv_pos_site_id
 _symmetry_equiv_pos_as_xyz
  1  'x, y, z'
loop_
 _atom_site_type_symbol
 _atom_site_label
 _atom_site_symmetry_multiplicity
 _atom_site_fract_x
 _atom_site_fract_y
 _atom_site_fract_z
 _atom_site_occupancy
  H  H0  1  0.754477  0.734265  0.876335  1
  H  H1  1  0.245523  0.265735  0.123665  1
  H  H2  1  0.780200  0.425355  0.877499  1
  H  H3  1  0.219800  0.574645  0.122501  1
  H  H4  1  0.939762  0.253182  0.952249  1
  H  H5  1  0.060238  0.746818  0.047751  1
  H  H6  1  0.597730  0.275228  0.964415  1
  H  H7  1  0.402270  0.724772  0.035585  1
  H  H8  1  0.740554  0.780630  0.205221  1
  H  H9  1  0.259446  0.219370  0.794779  1
  H  H10  1  0.730692  0.079699  0.314544  1
  H  H11  1  0.269308  0.920301  0.685456  1
  H  H12  1  0.748049  0.092162  0.529894  1
  H  H13  1  0.251951  0.907838  0.470106  1
  H  H14  1  0.749393  0.334370  0.459041  1
  H  H15  1  0.250607  0.665630  0.540959  1
  H  H16  1  0.592963  0.955434  0.914424  1
  H  H17  1  0.407037  0.044566  0.085576  1
  H  H18  1  0.723836  0.016262  0.802755  1
  H  H19  1  0.276164  0.983738  0.197245  1
  H  H20  1  0.822091  0.984682  0.947429  1
  H  H21  1  0.177909  0.015318  0.052571  1
  H  H22  1  0.637132  0.628545  0.666695  1
  H  H23  1  0.362868  0.371455  0.333305  1
  H  H24  1  0.598741  0.810962  0.648523  1
  H  H25  1  0.401259  0.189038  0.351477  1
  H  H26  1  0.488077  0.740935  0.765953  1
  H  H27  1  0.511923  0.259065  0.234047  1
  H  H28  1  0.023033  0.823414  0.819247  1
  H  H29  1  0.976967  0.176586  0.180753  1
  H  H30  1  0.918949  0.850644  0.676622  1
  H  H31  1  0.081051  0.149356  0.323378  1
  H  H32  1  0.938425  0.668957  0.701580  1
  H  H33  1  0.061575  0.331043  0.298420  1
  H  H34  1  0.010133  0.726774  0.291190  1
  H  H35  1  0.989867  0.273226  0.708810  1
  H  H36  1  0.899904  0.663850  0.412228  1
  H  H37  1  0.100096  0.336150  0.587772  1
  H  H38  1  0.893445  0.853426  0.405014  1
  H  H39  1  0.106555  0.146574  0.594986  1
  H  H40  1  0.580097  0.845319  0.394776  1
  H  H41  1  0.419903  0.154681  0.605224  1
  H  H42  1  0.569607  0.655761  0.398621  1
  H  H43  1  0.430393  0.344239  0.601379  1
  H  H44  1  0.466381  0.718560  0.270365  1
  H  H45  1  0.533619  0.281440  0.729635  1
  H  H46  1  0.622877  0.539813  0.126555  1
  H  H47  1  0.377123  0.460187  0.873445  1
  H  H48  1  0.742474  0.484322  0.253174  1
  H  H49  1  0.257526  0.515678  0.746826  1
  H  H50  1  0.854478  0.545946  0.131231  1
  H  H51  1  0.145522  0.454054  0.868769  1
  C  C52  1  0.720917  0.950355  0.874099  1
  C  C53  1  0.279083  0.049645  0.125901  1
  C  C54  1  0.608157  0.739502  0.715384  1
  C  C55  1  0.391843  0.260498  0.284616  1
  C  C56  1  0.921578  0.783254  0.746972  1
  C  C57  1  0.078422  0.216746  0.253028  1
  C  C58  1  0.896996  0.741372  0.350209  1
  C  C59  1  0.103004  0.258628  0.649791  1
  C  C60  1  0.576459  0.734317  0.337971  1
  C  C61  1  0.423541  0.265683  0.662029  1
  C  C62  1  0.739445  0.558187  0.187921  1
  C  C63  1  0.260555  0.441813  0.812079  1
  N  N64  1  0.751319  0.796530  0.809203  1
  N  N65  1  0.248681  0.203470  0.190797  1
  N  N66  1  0.738425  0.709600  0.265637  1
  N  N67  1  0.261575  0.290400  0.734363  1
  F  F68  1  0.770233  0.308992  0.938663  1
  F  F69  1  0.229767  0.691008  0.061337  1
  F  F70  1  0.790160  0.504782  0.829916  1
  F  F71  1  0.209840  0.495218  0.170084  1
  F  F72  1  0.060009  0.217167  0.954787  1
  F  F73  1  0.939991  0.782833  0.045213  1
  F  F74  1  0.473500  0.259210  0.980548  1
  F  F75  1  0.526500  0.740790  0.019452  1
  F  F76  1  0.752377  0.176185  0.437653  1
  F  F77  1  0.247623  0.823815  0.562347  1
  F  F78  1  0.714487  0.009780  0.231455  1
  F  F79  1  0.285513  0.990220  0.768545  1
  F  F80  1  0.745350  0.025120  0.590181  1
  F  F81  1  0.254650  0.974880  0.409819  1
  F  F82  1  0.744842  0.441440  0.469378  1
  F  F83  1  0.255158  0.558560  0.530622  1
