# generated using pymatgen
data_LiFe2(BO3)2
_symmetry_space_group_name_H-M   'P 1'
_cell_length_a   5.27966946
_cell_length_b   5.24504997
_cell_length_c   10.13586427
_cell_angle_alpha   89.95685580
_cell_angle_beta   91.37103061
_cell_angle_gamma   60.42235204
_symmetry_Int_Tables_number   1
_chemical_formula_structural   LiFe2(BO3)2
_chemical_formula_sum   'Li2 Fe4 B4 O12'
_cell_volume   244.01173461
_cell_formula_units_Z   2
loop_
 _symmetry_equiv_pos_site_id
 _symmetry_equiv_pos_as_xyz
  1  'x, y, z'
loop_
 _atom_site_type_symbol
 _atom_site_label
 _atom_site_symmetry_multiplicity
 _atom_site_fract_x
 _atom_site_fract_y
 _atom_site_fract_z
 _atom_site_occupancy
  Li  Li0  1  0.348646  0.668814  0.843532  1
  Li  Li1  1  0.660568  0.335442  0.121877  1
  Fe  Fe2  1  0.979403  0.677196  0.621074  1
  Fe  Fe3  1  0.679107  0.006517  0.873086  1
  Fe  Fe4  1  0.327170  0.996962  0.120501  1
  Fe  Fe5  1  0.011977  0.331856  0.367943  1
  B  B6  1  0.005917  0.332018  0.870877  1
  B  B7  1  0.325510  0.008575  0.623653  1
  B  B8  1  0.667012  0.002132  0.367711  1
  B  B9  1  -0.002179  0.667291  0.120542  1
  O  O10  1  0.107885  0.272461  0.566851  1
  O  O11  1  0.260020  0.075309  0.905199  1
  O  O12  1  0.023194  0.574611  0.820861  1
  O  O13  1  0.590770  0.985920  0.660497  1
  O  O14  1  0.264657  0.647069  0.109490  1
  O  O15  1  0.273221  0.782362  0.646671  1
  O  O16  1  0.719282  0.227622  0.345514  1
  O  O17  1  0.737322  0.355055  0.887125  1
  O  O18  1  0.402896  0.021524  0.332086  1
  O  O19  1  0.976737  0.424486  0.167395  1
  O  O20  1  0.740243  0.923140  0.084630  1
  O  O21  1  0.885849  0.735993  0.423642  1
