# generated using pymatgen
data_K3ErH9(C3O7)2
_symmetry_space_group_name_H-M   'P 1'
_cell_length_a   7.40412952
_cell_length_b   7.40412952
_cell_length_c   20.52349530
_cell_angle_alpha   62.01207619
_cell_angle_beta   117.98792381
_cell_angle_gamma   102.23895405
_symmetry_Int_Tables_number   1
_chemical_formula_structural   K3ErH9(C3O7)2
_chemical_formula_sum   'K6 Er2 H18 C12 O28'
_cell_volume   877.28815263
_cell_formula_units_Z   2
loop_
 _symmetry_equiv_pos_site_id
 _symmetry_equiv_pos_as_xyz
  1  'x, y, z'
loop_
 _atom_site_type_symbol
 _atom_site_label
 _atom_site_symmetry_multiplicity
 _atom_site_fract_x
 _atom_site_fract_y
 _atom_site_fract_z
 _atom_site_occupancy
  K  K0  1  0.359920  0.608620  0.743882  1
  K  K1  1  0.391380  0.640080  0.243882  1
  K  K2  1  0.055320  0.556304  0.374618  1
  K  K3  1  0.443696  0.944680  0.874618  1
  K  K4  1  0.779804  0.885364  0.667576  1
  K  K5  1  0.114636  0.220196  0.167576  1
  Er  Er6  1  0.982492  0.967939  0.500010  1
  Er  Er7  1  0.032061  0.017508  0.000010  1
  H  H8  1  0.416530  0.618578  0.557160  1
  H  H9  1  0.381422  0.583470  0.057160  1
  H  H10  1  0.810790  0.482076  0.528661  1
  H  H11  1  0.517924  0.189210  0.028661  1
  H  H12  1  0.129794  0.026734  0.345953  1
  H  H13  1  0.973266  0.870206  0.845953  1
  H  H14  1  0.484307  0.828968  0.441729  1
  H  H15  1  0.171032  0.515693  0.941729  1
  H  H16  1  0.512257  0.308290  0.447291  1
  H  H17  1  0.691710  0.487743  0.947291  1
  H  H18  1  0.310858  0.236322  0.645854  1
  H  H19  1  0.763678  0.689141  0.145854  1
  H  H20  1  0.767624  0.869766  0.325561  1
  H  H21  1  0.130234  0.232376  0.825561  1
  H  H22  1  0.721785  0.974481  0.233004  1
  H  H23  1  0.025519  0.278215  0.733004  1
  H  H24  1  0.742381  0.367955  0.721226  1
  H  H25  1  0.632045  0.257619  0.221226  1
  C  C26  1  0.293218  0.717005  0.540371  1
  C  C27  1  0.282995  0.706782  0.040371  1
  C  C28  1  0.835062  0.491370  0.584733  1
  C  C29  1  0.508630  0.164938  0.084733  1
  C  C30  1  0.103841  0.178331  0.339184  1
  C  C31  1  0.821669  0.896159  0.839184  1
  C  C32  1  0.515481  0.846264  0.390840  1
  C  C33  1  0.153736  0.484519  0.890840  1
  C  C34  1  0.641419  0.250556  0.447970  1
  C  C35  1  0.749444  0.358581  0.947970  1
  C  C36  1  0.210545  0.158735  0.606188  1
  C  C37  1  0.841265  0.789455  0.106188  1
  O  O38  1  0.120226  0.724457  0.482116  1
  O  O39  1  0.275543  0.879774  0.982116  1
  O  O40  1  0.330553  0.818722  0.581225  1
  O  O41  1  0.181278  0.669447  0.081225  1
  O  O42  1  0.905799  0.659765  0.589807  1
  O  O43  1  0.340235  0.094201  0.089807  1
  O  O44  1  0.793307  0.335807  0.637745  1
  O  O45  1  0.664193  0.206693  0.137745  1
  O  O46  1  0.050380  0.173365  0.391126  1
  O  O47  1  0.826635  0.949620  0.891126  1
  O  O48  1  0.128385  0.337155  0.283406  1
  O  O49  1  0.662845  0.871615  0.783406  1
  O  O50  1  0.700506  0.894025  0.399683  1
  O  O51  1  0.105975  0.299494  0.899683  1
  O  O52  1  0.371334  0.817121  0.332543  1
  O  O53  1  0.182879  0.628666  0.832543  1
  O  O54  1  0.717756  0.075765  0.506941  1
  O  O55  1  0.924235  0.282244  0.006941  1
  O  O56  1  0.700847  0.356576  0.393211  1
  O  O57  1  0.643424  0.299153  0.893211  1
  O  O58  1  0.131118  0.988253  0.636478  1
  O  O59  1  0.011747  0.868882  0.136478  1
  O  O60  1  0.180067  0.242820  0.531605  1
  O  O61  1  0.757180  0.819933  0.031605  1
  O  O62  1  0.767466  0.844200  0.282373  1
  O  O63  1  0.155800  0.232534  0.782373  1
  O  O64  1  0.663765  0.451844  0.725330  1
  O  O65  1  0.548156  0.336235  0.225330  1
