# generated using pymatgen
data_H2Ru4(CO)13
_symmetry_space_group_name_H-M   'P 1'
_cell_length_a   9.15107814
_cell_length_b   9.24799575
_cell_length_c   26.88283879
_cell_angle_alpha   81.85585673
_cell_angle_beta   88.17616492
_cell_angle_gamma   67.93092284
_symmetry_Int_Tables_number   1
_chemical_formula_structural   H2Ru4(CO)13
_chemical_formula_sum   'H8 Ru16 C52 O52'
_cell_volume   2086.54898988
_cell_formula_units_Z   4
loop_
 _symmetry_equiv_pos_site_id
 _symmetry_equiv_pos_as_xyz
  1  'x, y, z'
loop_
 _atom_site_type_symbol
 _atom_site_label
 _atom_site_symmetry_multiplicity
 _atom_site_fract_x
 _atom_site_fract_y
 _atom_site_fract_z
 _atom_site_occupancy
  H  H0  1  0.902922  0.582162  0.922651  1
  H  H1  1  0.097078  0.417838  0.077349  1
  H  H2  1  0.891793  0.802813  0.855329  1
  H  H3  1  0.108207  0.197187  0.144671  1
  H  H4  1  0.373942  0.297119  0.621368  1
  H  H5  1  0.626058  0.702881  0.378632  1
  H  H6  1  0.330761  0.056698  0.677460  1
  H  H7  1  0.669238  0.943302  0.322540  1
  Ru  Ru8  1  0.902426  0.607643  0.855765  1
  Ru  Ru9  1  0.097574  0.392357  0.144235  1
  Ru  Ru10  1  0.716975  0.680438  0.950592  1
  Ru  Ru11  1  0.283025  0.319562  0.049408  1
  Ru  Ru12  1  0.567631  0.721999  0.856629  1
  Ru  Ru13  1  0.432369  0.278001  0.143371  1
  Ru  Ru14  1  0.706071  0.938682  0.873712  1
  Ru  Ru15  1  0.293929  0.061318  0.126288  1
  Ru  Ru16  1  0.409092  0.098455  0.618484  1
  Ru  Ru17  1  0.590908  0.901545  0.381516  1
  Ru  Ru18  1  0.134341  0.182516  0.688324  1
  Ru  Ru19  1  0.865659  0.817484  0.311676  1
  Ru  Ru20  1  0.092628  0.194499  0.583921  1
  Ru  Ru21  1  0.907372  0.805501  0.416079  1
  Ru  Ru22  1  0.175109  0.431481  0.618120  1
  Ru  Ru23  1  0.824891  0.568519  0.381880  1
  C  C24  1  0.892605  0.645268  0.784062  1
  C  C25  1  0.107395  0.354732  0.215938  1
  C  C26  1  0.126477  0.557440  0.861588  1
  C  C27  1  0.873523  0.442560  0.138412  1
  C  C28  1  0.922030  0.394341  0.857388  1
  C  C29  1  0.077970  0.605659  0.142612  1
  C  C30  1  0.835193  0.739544  0.995092  1
  C  C31  1  0.164807  0.260456  0.004908  1
  C  C32  1  0.741781  0.493193  0.995862  1
  C  C33  1  0.258219  0.506807  0.004138  1
  C  C34  1  0.518732  0.807732  0.974290  1
  C  C35  1  0.481268  0.192268  0.025710  1
  C  C36  1  0.597156  0.530140  0.904610  1
  C  C37  1  0.402844  0.469860  0.095390  1
  C  C38  1  0.346905  0.828798  0.868215  1
  C  C39  1  0.653096  0.171202  0.131785  1
  C  C40  1  0.543824  0.616812  0.802730  1
  C  C41  1  0.456176  0.383188  0.197270  1
  C  C42  1  0.574752  0.896861  0.804955  1
  C  C43  1  0.425248  0.103139  0.195045  1
  C  C44  1  0.734499  0.083461  0.819438  1
  C  C45  1  0.265501  0.916539  0.180562  1
  C  C46  1  0.511401  0.082910  0.894481  1
  C  C47  1  0.488599  0.917090  0.105519  1
  C  C48  1  0.831746  0.987347  0.919619  1
  C  C49  1  0.168254  0.012653  0.080381  1
  C  C50  1  0.479219  0.129760  0.551857  1
  C  C51  1  0.520781  0.870240  0.448143  1
  C  C52  1  0.606461  0.065328  0.651294  1
  C  C53  1  0.393539  0.934672  0.348706  1
  C  C54  1  0.448074  0.880796  0.619115  1
  C  C55  1  0.551926  0.119204  0.380885  1
  C  C56  1  0.128581  0.998162  0.728639  1
  C  C57  1  0.871419  0.001838  0.271361  1
  C  C58  1  0.197937  0.245723  0.745193  1
  C  C59  1  0.802063  0.754277  0.254807  1
  C  C60  1  0.916377  0.312303  0.691856  1
  C  C61  1  0.083623  0.687697  0.308144  1
  C  C62  1  0.963294  0.578619  0.618669  1
  C  C63  1  0.036706  0.421381  0.381331  1
  C  C64  1  0.243919  0.574892  0.573643  1
  C  C65  1  0.756081  0.425108  0.426357  1
  C  C66  1  0.232753  0.494126  0.676936  1
  C  C67  1  0.767247  0.505874  0.323064  1
  C  C68  1  0.151262  0.359866  0.540370  1
  C  C69  1  0.848738  0.640134  0.459630  1
  C  C70  1  0.866142  0.291788  0.577664  1
  C  C71  1  0.133858  0.708212  0.422336  1
  C  C72  1  0.124583  0.099865  0.523624  1
  C  C73  1  0.875417  0.900135  0.476376  1
  C  C74  1  0.091764  0.004366  0.625761  1
  C  C75  1  0.908236  0.995634  0.374239  1
  O  O76  1  0.889334  0.667621  0.740482  1
  O  O77  1  0.110666  0.332379  0.259518  1
  O  O78  1  0.261816  0.523755  0.861763  1
  O  O79  1  0.738184  0.476245  0.138237  1
  O  O80  1  0.939613  0.263361  0.857704  1
  O  O81  1  0.060387  0.736639  0.142296  1
  O  O82  1  0.904366  0.766384  0.025593  1
  O  O83  1  0.095634  0.233616  0.974407  1
  O  O84  1  0.753193  0.382272  0.024102  1
  O  O85  1  0.246807  0.617728  0.975898  1
  O  O86  1  0.398586  0.884458  0.989407  1
  O  O87  1  0.601414  0.115542  0.010593  1
  O  O88  1  0.589861  0.407178  0.919195  1
  O  O89  1  0.410139  0.592822  0.080805  1
  O  O90  1  0.213388  0.895083  0.874140  1
  O  O91  1  0.786612  0.104917  0.125860  1
  O  O92  1  0.530043  0.553645  0.770070  1
  O  O93  1  0.469957  0.446355  0.229930  1
  O  O94  1  0.545668  0.968426  0.764247  1
  O  O95  1  0.454332  0.031574  0.235753  1
  O  O96  1  0.750224  0.170012  0.786108  1
  O  O97  1  0.249777  0.829988  0.213892  1
  O  O98  1  0.392086  0.172566  0.905915  1
  O  O99  1  0.607914  0.827434  0.094085  1
  O  O100  1  0.906326  0.027783  0.944287  1
  O  O101  1  0.093674  0.972217  0.055713  1
  O  O102  1  0.520149  0.151654  0.511226  1
  O  O103  1  0.479851  0.848346  0.488774  1
  O  O104  1  0.728447  0.044069  0.668609  1
  O  O105  1  0.271553  0.955931  0.331391  1
  O  O106  1  0.472803  0.747566  0.621718  1
  O  O107  1  0.527197  0.252434  0.378282  1
  O  O108  1  0.125109  0.887349  0.754128  1
  O  O109  1  0.874891  0.112651  0.245872  1
  O  O110  1  0.232310  0.276575  0.782479  1
  O  O111  1  0.767690  0.723425  0.217521  1
  O  O112  1  0.783650  0.388283  0.694488  1
  O  O113  1  0.216350  0.611717  0.305512  1
  O  O114  1  0.836076  0.671328  0.618519  1
  O  O115  1  0.163924  0.328672  0.381481  1
  O  O116  1  0.280710  0.663591  0.546774  1
  O  O117  1  0.719290  0.336409  0.453226  1
  O  O118  1  0.269465  0.544673  0.709282  1
  O  O119  1  0.730535  0.455327  0.290718  1
  O  O120  1  0.175441  0.412838  0.499809  1
  O  O121  1  0.824559  0.587162  0.500191  1
  O  O122  1  0.729419  0.344686  0.574876  1
  O  O123  1  0.270581  0.655314  0.425124  1
  O  O124  1  0.140242  0.050155  0.485699  1
  O  O125  1  0.859758  0.949845  0.514301  1
  O  O126  1  0.085977  0.879661  0.637072  1
  O  O127  1  0.914023  0.120339  0.362928  1
