# generated using pymatgen
data_H6S(NO2)2
_symmetry_space_group_name_H-M   'P 1'
_cell_length_a   8.24342855
_cell_length_b   10.20409236
_cell_length_c   6.62195291
_cell_angle_alpha   90.00000000
_cell_angle_beta   90.00000000
_cell_angle_gamma   90.00000000
_symmetry_Int_Tables_number   1
_chemical_formula_structural   H6S(NO2)2
_chemical_formula_sum   'H24 S4 N8 O16'
_cell_volume   557.01686798
_cell_formula_units_Z   4
loop_
 _symmetry_equiv_pos_site_id
 _symmetry_equiv_pos_as_xyz
  1  'x, y, z'
loop_
 _atom_site_type_symbol
 _atom_site_label
 _atom_site_symmetry_multiplicity
 _atom_site_fract_x
 _atom_site_fract_y
 _atom_site_fract_z
 _atom_site_occupancy
  H  H0  1  0.860463  0.878192  0.049402  1
  H  H1  1  0.639537  0.121808  0.549402  1
  H  H2  1  0.360463  0.621808  0.950598  1
  H  H3  1  0.139537  0.378192  0.450598  1
  H  H4  1  0.965810  0.950678  0.650773  1
  H  H5  1  0.534190  0.049322  0.150773  1
  H  H6  1  0.465810  0.549322  0.349227  1
  H  H7  1  0.034190  0.450678  0.849227  1
  H  H8  1  0.025176  0.742341  0.594397  1
  H  H9  1  0.474824  0.257659  0.094397  1
  H  H10  1  0.525176  0.757659  0.405603  1
  H  H11  1  0.974824  0.242341  0.905603  1
  H  H12  1  0.200651  0.772811  0.050797  1
  H  H13  1  0.299349  0.227189  0.550797  1
  H  H14  1  0.700651  0.727189  0.949203  1
  H  H15  1  0.799349  0.272811  0.449203  1
  H  H16  1  0.268505  0.819293  0.026525  1
  H  H17  1  0.231495  0.180707  0.526525  1
  H  H18  1  0.768505  0.680707  0.973475  1
  H  H19  1  0.731495  0.319293  0.473475  1
  H  H20  1  0.231498  0.780307  0.651104  1
  H  H21  1  0.268502  0.219693  0.151104  1
  H  H22  1  0.731498  0.719693  0.348896  1
  H  H23  1  0.768502  0.280307  0.848896  1
  S  S24  1  0.078123  0.564863  0.315726  1
  S  S25  1  0.421877  0.435137  0.815726  1
  S  S26  1  0.578123  0.935137  0.684274  1
  S  S27  1  0.921877  0.064863  0.184274  1
  N  N28  1  0.112887  0.813180  0.641622  1
  N  N29  1  0.387113  0.186820  0.141622  1
  N  N30  1  0.612887  0.686820  0.358378  1
  N  N31  1  0.887113  0.313180  0.858378  1
  N  N32  1  0.089345  0.930681  0.672457  1
  N  N33  1  0.410655  0.069319  0.172457  1
  N  N34  1  0.589345  0.569319  0.327543  1
  N  N35  1  0.910655  0.430681  0.827543  1
  O  O36  1  0.958205  0.606143  0.469295  1
  O  O37  1  0.541795  0.393857  0.969295  1
  O  O38  1  0.458205  0.893857  0.530705  1
  O  O39  1  0.041795  0.106143  0.030705  1
  O  O40  1  0.024224  0.587788  0.109448  1
  O  O41  1  0.475776  0.412212  0.609448  1
  O  O42  1  0.524224  0.912212  0.890552  1
  O  O43  1  0.975776  0.087788  0.390552  1
  O  O44  1  0.241962  0.612610  0.361611  1
  O  O45  1  0.258038  0.387390  0.861611  1
  O  O46  1  0.741962  0.887390  0.638389  1
  O  O47  1  0.758038  0.112610  0.138389  1
  O  O48  1  0.086149  0.405979  0.325113  1
  O  O49  1  0.413851  0.594021  0.825113  1
  O  O50  1  0.586149  0.094021  0.674887  1
  O  O51  1  0.913851  0.905979  0.174887  1
