# generated using pymatgen
data_Ca3La7Ti5Cr5O30
_symmetry_space_group_name_H-M   'P 1'
_cell_length_a   5.56401030
_cell_length_b   5.57158498
_cell_length_c   39.25082494
_cell_angle_alpha   90.00000000
_cell_angle_beta   90.00000000
_cell_angle_gamma   90.30540071
_symmetry_Int_Tables_number   1
_chemical_formula_structural   Ca3La7Ti5Cr5O30
_chemical_formula_sum   'Ca6 La14 Ti10 Cr10 O60'
_cell_volume   1216.77226896
_cell_formula_units_Z   2
loop_
 _symmetry_equiv_pos_site_id
 _symmetry_equiv_pos_as_xyz
  1  'x, y, z'
loop_
 _atom_site_type_symbol
 _atom_site_label
 _atom_site_symmetry_multiplicity
 _atom_site_fract_x
 _atom_site_fract_y
 _atom_site_fract_z
 _atom_site_occupancy
  Ca  Ca0  1  0.037583  0.990331  0.250000  1
  Ca  Ca1  1  0.530742  0.510374  0.049541  1
  Ca  Ca2  1  0.530742  0.510374  0.450459  1
  Ca  Ca3  1  0.961709  0.009816  0.549176  1
  Ca  Ca4  1  0.963208  0.010459  0.750000  1
  Ca  Ca5  1  0.961709  0.009816  0.950824  1
  La  La6  1  0.031693  0.994435  0.048661  1
  La  La7  1  0.031693  0.994435  0.451339  1
  La  La8  1  0.026689  0.993565  0.649610  1
  La  La9  1  0.026689  0.993565  0.850390  1
  La  La10  1  0.475659  0.493171  0.350937  1
  La  La11  1  0.475659  0.493171  0.149063  1
  La  La12  1  0.476386  0.493217  0.548121  1
  La  La13  1  0.477420  0.493302  0.750000  1
  La  La14  1  0.476386  0.493217  0.951879  1
  La  La15  1  0.524121  0.507968  0.250000  1
  La  La16  1  0.525167  0.506576  0.649367  1
  La  La17  1  0.525167  0.506576  0.850633  1
  La  La18  1  0.972289  0.005484  0.150483  1
  La  La19  1  0.972289  0.005484  0.349517  1
  Ti  Ti20  1  0.999466  0.501441  0.098777  1
  Ti  Ti21  1  0.999466  0.501441  0.401223  1
  Ti  Ti22  1  0.001000  0.499276  0.799105  1
  Ti  Ti23  1  0.000886  0.498442  0.901676  1
  Ti  Ti24  1  0.999600  0.499246  0.999952  1
  Ti  Ti25  1  0.999863  0.501662  0.201014  1
  Ti  Ti26  1  0.999863  0.501662  0.298986  1
  Ti  Ti27  1  0.999600  0.499246  0.500048  1
  Ti  Ti28  1  0.001000  0.499276  0.700895  1
  Ti  Ti29  1  0.000886  0.498442  0.598324  1
  Cr  Cr30  1  0.500228  0.999886  0.099159  1
  Cr  Cr31  1  0.500569  0.998778  0.499645  1
  Cr  Cr32  1  0.499429  0.001258  0.299463  1
  Cr  Cr33  1  0.500569  0.998778  0.000355  1
  Cr  Cr34  1  0.500081  0.999794  0.700379  1
  Cr  Cr35  1  0.500039  0.000001  0.901076  1
  Cr  Cr36  1  0.499429  0.001258  0.200537  1
  Cr  Cr37  1  0.500228  0.999886  0.400841  1
  Cr  Cr38  1  0.500039  0.000001  0.598924  1
  Cr  Cr39  1  0.500081  0.999794  0.799621  1
  O  O40  1  0.010081  0.572660  0.149886  1
  O  O41  1  0.010081  0.572660  0.350114  1
  O  O42  1  0.012411  0.582013  0.549676  1
  O  O43  1  0.010414  0.582255  0.750000  1
  O  O44  1  0.012411  0.582013  0.950324  1
  O  O45  1  0.220678  0.223804  0.108645  1
  O  O46  1  0.225719  0.230341  0.191118  1
  O  O47  1  0.225719  0.230341  0.308882  1
  O  O48  1  0.220678  0.223804  0.391355  1
  O  O49  1  0.216949  0.219435  0.508566  1
  O  O50  1  0.222351  0.227358  0.591346  1
  O  O51  1  0.221945  0.226267  0.708483  1
  O  O52  1  0.221945  0.226267  0.791517  1
  O  O53  1  0.222351  0.227358  0.908654  1
  O  O54  1  0.216949  0.219435  0.991434  1
  O  O55  1  0.277035  0.714489  0.009159  1
  O  O56  1  0.273650  0.719204  0.091573  1
  O  O57  1  0.273729  0.724473  0.208026  1
  O  O58  1  0.273729  0.724473  0.291974  1
  O  O59  1  0.273650  0.719204  0.408427  1
  O  O60  1  0.272264  0.723792  0.608414  1
  O  O61  1  0.273991  0.722681  0.808875  1
  O  O62  1  0.277035  0.714489  0.490841  1
  O  O63  1  0.272264  0.723792  0.891586  1
  O  O64  1  0.273991  0.722681  0.691125  1
  O  O65  1  0.478838  0.091389  0.050009  1
  O  O66  1  0.484401  0.080932  0.649737  1
  O  O67  1  0.475586  0.086700  0.250000  1
  O  O68  1  0.478838  0.091389  0.449991  1
  O  O69  1  0.484401  0.080932  0.850263  1
  O  O70  1  0.514386  0.918739  0.349945  1
  O  O71  1  0.514386  0.918739  0.150055  1
  O  O72  1  0.524213  0.913552  0.549615  1
  O  O73  1  0.524747  0.914315  0.750000  1
  O  O74  1  0.524213  0.913552  0.950385  1
  O  O75  1  0.730841  0.273233  0.108930  1
  O  O76  1  0.724729  0.278721  0.308709  1
  O  O77  1  0.724729  0.278721  0.191291  1
  O  O78  1  0.730841  0.273233  0.391070  1
  O  O79  1  0.728575  0.276111  0.508143  1
  O  O80  1  0.726246  0.279465  0.591705  1
  O  O81  1  0.726134  0.277428  0.707908  1
  O  O82  1  0.726246  0.279465  0.908295  1
  O  O83  1  0.726134  0.277428  0.792092  1
  O  O84  1  0.728575  0.276111  0.991857  1
  O  O85  1  0.778335  0.771844  0.008697  1
  O  O86  1  0.778486  0.773926  0.092242  1
  O  O87  1  0.778166  0.776045  0.208511  1
  O  O88  1  0.778166  0.776045  0.291489  1
  O  O89  1  0.778486  0.773926  0.407758  1
  O  O90  1  0.778335  0.771844  0.491303  1
  O  O91  1  0.775285  0.770917  0.608759  1
  O  O92  1  0.774905  0.770279  0.690855  1
  O  O93  1  0.774905  0.770279  0.809145  1
  O  O94  1  0.775285  0.770917  0.891241  1
  O  O95  1  0.989138  0.418229  0.250000  1
  O  O96  1  0.981553  0.426015  0.050101  1
  O  O97  1  0.991501  0.426687  0.649712  1
  O  O98  1  0.981553  0.426015  0.449899  1
  O  O99  1  0.991501  0.426687  0.850288  1
