# generated using pymatgen
data_Li5Mn6(BO3)6
_symmetry_space_group_name_H-M   'P 1'
_cell_length_a   10.43447635
_cell_length_b   8.87872495
_cell_length_c   8.83475247
_cell_angle_alpha   108.44315992
_cell_angle_beta   98.71572299
_cell_angle_gamma   98.22384002
_symmetry_Int_Tables_number   1
_chemical_formula_structural   Li5Mn6(BO3)6
_chemical_formula_sum   'Li10 Mn12 B12 O36'
_cell_volume   751.40130069
_cell_formula_units_Z   2
loop_
 _symmetry_equiv_pos_site_id
 _symmetry_equiv_pos_as_xyz
  1  'x, y, z'
loop_
 _atom_site_type_symbol
 _atom_site_label
 _atom_site_symmetry_multiplicity
 _atom_site_fract_x
 _atom_site_fract_y
 _atom_site_fract_z
 _atom_site_occupancy
  Li  Li0  1  0.204609  0.902330  0.189701  1
  Li  Li1  1  0.231128  0.511235  0.533977  1
  Li  Li2  1  0.480013  0.765189  0.775843  1
  Li  Li3  1  0.445563  0.458711  0.167754  1
  Li  Li4  1  0.455333  0.160468  0.438361  1
  Li  Li5  1  0.690844  0.707932  0.408747  1
  Li  Li6  1  0.727193  0.014634  0.026253  1
  Li  Li7  1  0.934699  0.951643  0.656473  1
  Li  Li8  1  0.955189  0.651545  0.933119  1
  Li  Li9  1  0.979366  0.258299  0.281701  1
  Mn  Mn10  1  0.175138  0.835661  0.814308  1
  Mn  Mn11  1  0.158916  0.515454  0.162244  1
  Mn  Mn12  1  0.162361  0.148764  0.528746  1
  Mn  Mn13  1  0.404182  0.775961  0.412933  1
  Mn  Mn14  1  0.411448  0.398642  0.783744  1
  Mn  Mn15  1  0.425725  0.076563  0.064293  1
  Mn  Mn16  1  0.649597  0.047643  0.659912  1
  Mn  Mn17  1  0.667835  0.649656  0.007493  1
  Mn  Mn18  1  0.684229  0.320693  0.318262  1
  Mn  Mn19  1  0.912918  0.270550  0.910501  1
  Mn  Mn20  1  0.914531  0.893228  0.272510  1
  Mn  Mn21  1  0.929143  0.570416  0.564723  1
  B  B22  1  0.126873  0.789692  0.459568  1
  B  B23  1  0.132443  0.467934  0.790583  1
  B  B24  1  0.252337  0.250111  0.261507  1
  B  B25  1  0.372741  0.706690  0.034465  1
  B  B26  1  0.384078  0.050286  0.712832  1
  B  B27  1  0.497821  0.499807  0.499980  1
  B  B28  1  0.615426  0.288187  0.952074  1
  B  B29  1  0.628089  0.957960  0.289660  1
  B  B30  1  0.748849  0.767163  0.749696  1
  B  B31  1  0.874679  0.534103  0.205113  1
  B  B32  1  0.873862  0.198459  0.539247  1
  B  B33  1  0.992585  0.992439  0.003361  1
  O  O34  1  0.068467  0.873931  0.000328  1
  O  O35  1  0.051646  0.799809  0.577643  1
  O  O36  1  0.060328  0.467362  0.909481  1
  O  O37  1  0.118616  0.571447  0.704157  1
  O  O38  1  0.123089  0.896463  0.373201  1
  O  O39  1  0.206685  0.675365  0.426114  1
  O  O40  1  0.218190  0.360823  0.751017  1
  O  O41  1  0.169191  0.282290  0.373201  1
  O  O42  1  0.368494  0.809987  0.947202  1
  O  O43  1  0.308670  0.722022  0.163144  1
  O  O44  1  0.311130  0.045375  0.826124  1
  O  O45  1  0.274364  0.349534  0.172575  1
  O  O46  1  0.469719  0.941081  0.671914  1
  O  O47  1  0.314868  0.117658  0.244346  1
  O  O48  1  0.378070  0.163499  0.632267  1
  O  O49  1  0.425053  0.535941  0.623523  1
  O  O50  1  0.445742  0.582419  0.996652  1
  O  O51  1  0.563188  0.983259  0.422313  1
  O  O52  1  0.511388  0.598886  0.404173  1
  O  O53  1  0.597349  0.389058  0.860676  1
  O  O54  1  0.554085  0.366172  0.467607  1
  O  O55  1  0.669057  0.795557  0.865749  1
  O  O56  1  0.557799  0.301517  0.084593  1
  O  O57  1  0.692284  0.170900  0.904883  1
  O  O58  1  0.697153  0.834116  0.254623  1
  O  O59  1  0.745327  0.851886  0.640068  1
  O  O60  1  0.617754  0.057345  0.197877  1
  O  O61  1  0.831138  0.658882  0.747074  1
  O  O62  1  0.806551  0.548291  0.331060  1
  O  O63  1  0.801133  0.203608  0.660447  1
  O  O64  1  0.869949  0.306095  0.456175  1
  O  O65  1  0.865646  0.637161  0.114652  1
  O  O66  1  0.989663  0.066820  0.888708  1
  O  O67  1  0.952369  0.417466  0.168245  1
  O  O68  1  0.952819  0.084408  0.508849  1
  O  O69  1  0.917363  0.033280  0.123746  1
