# generated using pymatgen
data_Na3Co(BO3)2
_symmetry_space_group_name_H-M   'P 1'
_cell_length_a   5.54073056
_cell_length_b   9.53043473
_cell_length_c   10.48543257
_cell_angle_alpha   90.00000000
_cell_angle_beta   94.06693812
_cell_angle_gamma   90.00000000
_symmetry_Int_Tables_number   1
_chemical_formula_structural   Na3Co(BO3)2
_chemical_formula_sum   'Na12 Co4 B8 O24'
_cell_volume   552.29499431
_cell_formula_units_Z   4
loop_
 _symmetry_equiv_pos_site_id
 _symmetry_equiv_pos_as_xyz
  1  'x, y, z'
loop_
 _atom_site_type_symbol
 _atom_site_label
 _atom_site_symmetry_multiplicity
 _atom_site_fract_x
 _atom_site_fract_y
 _atom_site_fract_z
 _atom_site_occupancy
  Na  Na0  1  0.160146  0.971505  0.655446  1
  Na  Na1  1  0.163221  0.664010  0.622856  1
  Na  Na2  1  0.188359  0.991092  0.112443  1
  Na  Na3  1  0.336779  0.164010  0.877144  1
  Na  Na4  1  0.311641  0.491092  0.387557  1
  Na  Na5  1  0.339854  0.471505  0.844554  1
  Na  Na6  1  0.660146  0.528495  0.155446  1
  Na  Na7  1  0.688359  0.508908  0.612443  1
  Na  Na8  1  0.663221  0.835990  0.122856  1
  Na  Na9  1  0.811641  0.008908  0.887557  1
  Na  Na10  1  0.836779  0.335990  0.377144  1
  Na  Na11  1  0.839854  0.028495  0.344554  1
  Co  Co12  1  0.147329  0.326908  0.125446  1
  Co  Co13  1  0.352671  0.826908  0.374554  1
  Co  Co14  1  0.647329  0.173092  0.625446  1
  Co  Co15  1  0.852671  0.673092  0.874554  1
  B  B16  1  0.169278  0.312748  0.619040  1
  B  B17  1  0.156582  0.652262  0.130303  1
  B  B18  1  0.330722  0.812748  0.880960  1
  B  B19  1  0.343418  0.152262  0.369697  1
  B  B20  1  0.656582  0.847738  0.630303  1
  B  B21  1  0.669278  0.187252  0.119040  1
  B  B22  1  0.843418  0.347738  0.869697  1
  B  B23  1  0.830722  0.687252  0.380960  1
  O  O24  1  0.065422  0.326754  0.935965  1
  O  O25  1  0.080878  0.701197  0.404894  1
  O  O26  1  0.217954  0.940043  0.886932  1
  O  O27  1  0.206452  0.261588  0.318693  1
  O  O28  1  0.194871  0.692573  0.848272  1
  O  O29  1  0.253357  0.013915  0.350895  1
  O  O30  1  0.305129  0.192573  0.651728  1
  O  O31  1  0.246643  0.513915  0.149105  1
  O  O32  1  0.282046  0.440043  0.613068  1
  O  O33  1  0.293548  0.761588  0.181307  1
  O  O34  1  0.434578  0.826754  0.564035  1
  O  O35  1  0.419122  0.201197  0.095106  1
  O  O36  1  0.580878  0.798803  0.904894  1
  O  O37  1  0.565422  0.173246  0.435965  1
  O  O38  1  0.706452  0.238412  0.818693  1
  O  O39  1  0.717954  0.559957  0.386932  1
  O  O40  1  0.753357  0.486085  0.850895  1
  O  O41  1  0.694871  0.807427  0.348272  1
  O  O42  1  0.746643  0.986085  0.649105  1
  O  O43  1  0.805129  0.307427  0.151728  1
  O  O44  1  0.793548  0.738412  0.681307  1
  O  O45  1  0.782046  0.059957  0.113068  1
  O  O46  1  0.919122  0.298803  0.595106  1
  O  O47  1  0.934578  0.673246  0.064035  1
