# generated using pymatgen
data_Mg16Si8HO32
_symmetry_space_group_name_H-M   'P 1'
_cell_length_a   8.40810897
_cell_length_b   11.60526652
_cell_length_c   5.80532092
_cell_angle_alpha   90.03077065
_cell_angle_beta   89.83538936
_cell_angle_gamma   89.90642444
_symmetry_Int_Tables_number   1
_chemical_formula_structural   Mg16Si8HO32
_chemical_formula_sum   'Mg16 Si8 H1 O32'
_cell_volume   566.47043378
_cell_formula_units_Z   1
loop_
 _symmetry_equiv_pos_site_id
 _symmetry_equiv_pos_as_xyz
  1  'x, y, z'
loop_
 _atom_site_type_symbol
 _atom_site_label
 _atom_site_symmetry_multiplicity
 _atom_site_fract_x
 _atom_site_fract_y
 _atom_site_fract_z
 _atom_site_occupancy
  Mg  Mg0  1  0.782803  0.999399  0.249136  1
  Mg  Mg1  1  0.216912  0.999337  0.749894  1
  Mg  Mg2  1  0.248853  0.751179  0.751404  1
  Mg  Mg3  1  0.245919  0.247333  0.745566  1
  Mg  Mg4  1  0.981603  0.374460  0.991518  1
  Mg  Mg5  1  0.999737  0.622793  0.498720  1
  Mg  Mg6  1  0.996081  0.623433  0.996876  1
  Mg  Mg7  1  0.999545  0.376856  0.497117  1
  Mg  Mg8  1  0.289167  0.505201  0.720275  1
  Mg  Mg9  1  0.720498  0.500866  0.251328  1
  Mg  Mg10  1  0.749619  0.248020  0.252729  1
  Mg  Mg11  1  0.750930  0.750819  0.249622  1
  Mg  Mg12  1  0.499936  0.877935  0.499566  1
  Mg  Mg13  1  0.501261  0.120872  0.996326  1
  Mg  Mg14  1  0.499353  0.119767  0.498831  1
  Mg  Mg15  1  0.500949  0.878216  0.999257  1
  Si  Si16  1  0.133819  0.130890  0.249466  1
  Si  Si17  1  0.134247  0.869252  0.250706  1
  Si  Si18  1  0.865915  0.869104  0.749158  1
  Si  Si19  1  0.865144  0.129487  0.749151  1
  Si  Si20  1  0.635060  0.631142  0.749625  1
  Si  Si21  1  0.631446  0.369170  0.749733  1
  Si  Si22  1  0.379217  0.369831  0.272872  1
  Si  Si23  1  0.369403  0.633032  0.251851  1
  H  H24  1  0.216772  0.470839  0.060272  1
  O  O25  1  0.036335  0.000288  0.247198  1
  O  O26  1  0.964774  0.999575  0.748978  1
  O  O27  1  0.536879  0.999868  0.248699  1
  O  O28  1  0.462394  0.999484  0.749385  1
  O  O29  1  0.005811  0.240828  0.248490  1
  O  O30  1  0.006375  0.759731  0.248757  1
  O  O31  1  0.994634  0.759537  0.749775  1
  O  O32  1  0.993406  0.239601  0.748707  1
  O  O33  1  0.254995  0.387783  0.034839  1
  O  O34  1  0.256484  0.630515  0.485519  1
  O  O35  1  0.744478  0.627373  0.511620  1
  O  O36  1  0.737679  0.371925  0.990238  1
  O  O37  1  0.743506  0.627074  0.987668  1
  O  O38  1  0.742369  0.372143  0.513009  1
  O  O39  1  0.259378  0.371852  0.496290  1
  O  O40  1  0.257770  0.618499  0.015684  1
  O  O41  1  0.535279  0.500736  0.750644  1
  O  O42  1  0.469524  0.501521  0.262923  1
  O  O43  1  0.041447  0.497990  0.750419  1
  O  O44  1  0.966916  0.498680  0.246338  1
  O  O45  1  0.504193  0.738653  0.749693  1
  O  O46  1  0.499929  0.261989  0.751214  1
  O  O47  1  0.495501  0.258086  0.248988  1
  O  O48  1  0.495552  0.741329  0.247719  1
  O  O49  1  0.757464  0.872102  0.511728  1
  O  O50  1  0.756915  0.127731  0.987286  1
  O  O51  1  0.243390  0.132124  0.011549  1
  O  O52  1  0.242279  0.872527  0.488486  1
  O  O53  1  0.242325  0.127212  0.486936  1
  O  O54  1  0.243592  0.870904  0.012778  1
  O  O55  1  0.757314  0.872201  0.986970  1
  O  O56  1  0.756163  0.127047  0.512392  1
