# generated using pymatgen
data_Li2VO2F
_symmetry_space_group_name_H-M   'P 1'
_cell_length_a   4.11552771
_cell_length_b   3.99763094
_cell_length_c   6.96287889
_cell_angle_alpha   90.00000000
_cell_angle_beta   72.81047421
_cell_angle_gamma   90.00000000
_symmetry_Int_Tables_number   1
_chemical_formula_structural   Li2VO2F
_chemical_formula_sum   'Li4 V2 O4 F2'
_cell_volume   109.43886444
_cell_formula_units_Z   2
loop_
 _symmetry_equiv_pos_site_id
 _symmetry_equiv_pos_as_xyz
  1  'x, y, z'
loop_
 _atom_site_type_symbol
 _atom_site_label
 _atom_site_symmetry_multiplicity
 _atom_site_fract_x
 _atom_site_fract_y
 _atom_site_fract_z
 _atom_site_occupancy
  Li  Li0  1  0.002299  0.000000  0.995402  1
  Li  Li1  1  0.331035  0.000000  0.337932  1
  Li  Li2  1  0.666667  0.000000  0.666667  1
  Li  Li3  1  0.166667  0.500000  0.666667  1
  V  V4  1  0.498641  0.500000  0.002718  1
  V  V5  1  0.834692  0.500000  0.330615  1
  O  O6  1  0.510083  0.000000  0.979836  1
  O  O7  1  0.991491  0.500000  0.017019  1
  O  O8  1  0.823251  0.000000  0.353498  1
  O  O9  1  0.341842  0.500000  0.316315  1
  F  F10  1  0.166667  0.000000  0.666667  1
  F  F11  1  0.666667  0.500000  0.666667  1
