# generated using pymatgen
data_LiCr(PO3)4
_symmetry_space_group_name_H-M   'P 1'
_cell_length_a   7.41253167
_cell_length_b   7.41253167
_cell_length_c   18.09887301
_cell_angle_alpha   90.00000000
_cell_angle_beta   90.00000000
_cell_angle_gamma   101.83079131
_symmetry_Int_Tables_number   1
_chemical_formula_structural   LiCr(PO3)4
_chemical_formula_sum   'Li4 Cr4 P16 O48'
_cell_volume   973.32906561
_cell_formula_units_Z   4
loop_
 _symmetry_equiv_pos_site_id
 _symmetry_equiv_pos_as_xyz
  1  'x, y, z'
loop_
 _atom_site_type_symbol
 _atom_site_label
 _atom_site_symmetry_multiplicity
 _atom_site_fract_x
 _atom_site_fract_y
 _atom_site_fract_z
 _atom_site_occupancy
  Li  Li0  1  0.202250  0.101095  0.392870  1
  Li  Li1  1  0.898905  0.797750  0.607130  1
  Li  Li2  1  0.797750  0.898905  0.892870  1
  Li  Li3  1  0.101095  0.202250  0.107130  1
  Cr  Cr4  1  0.565059  0.955779  0.634286  1
  Cr  Cr5  1  0.044221  0.434941  0.365714  1
  Cr  Cr6  1  0.955779  0.565059  0.865714  1
  Cr  Cr7  1  0.434941  0.044221  0.134285  1
  P  P8  1  0.044280  0.767819  0.096084  1
  P  P9  1  0.232181  0.955720  0.903916  1
  P  P10  1  0.290221  0.775129  0.763037  1
  P  P11  1  0.224871  0.709779  0.236963  1
  P  P12  1  0.378604  0.621396  0.500000  1
  P  P13  1  0.663044  0.762777  0.059026  1
  P  P14  1  0.237223  0.336956  0.940974  1
  P  P15  1  0.364504  0.364504  0.250000  1
  P  P16  1  0.635496  0.635496  0.750000  1
  P  P17  1  0.336956  0.237223  0.559026  1
  P  P18  1  0.762777  0.663044  0.440974  1
  P  P19  1  0.621396  0.378604  0.000000  1
  P  P20  1  0.709779  0.224871  0.263037  1
  P  P21  1  0.775129  0.290221  0.736963  1
  P  P22  1  0.767819  0.044280  0.403916  1
  P  P23  1  0.955720  0.232181  0.596084  1
  O  O24  1  0.039500  0.833983  0.896567  1
  O  O25  1  0.166017  0.960500  0.103433  1
  O  O26  1  0.049136  0.650064  0.031736  1
  O  O27  1  0.349936  0.950864  0.968264  1
  O  O28  1  0.334941  0.903147  0.229042  1
  O  O29  1  0.096853  0.665059  0.770958  1
  O  O30  1  0.084023  0.653542  0.170873  1
  O  O31  1  0.346458  0.915977  0.829127  1
  O  O32  1  0.126890  0.671101  0.309893  1
  O  O33  1  0.328899  0.873110  0.690107  1
  O  O34  1  0.418640  0.790389  0.548196  1
  O  O35  1  0.209611  0.581360  0.451804  1
  O  O36  1  0.508590  0.816651  0.103074  1
  O  O37  1  0.183349  0.491410  0.896926  1
  O  O38  1  0.428236  0.632299  0.772278  1
  O  O39  1  0.367701  0.571764  0.227722  1
  O  O40  1  0.802801  0.839760  0.385048  1
  O  O41  1  0.160240  0.197199  0.614952  1
  O  O42  1  0.541632  0.610431  0.441872  1
  O  O43  1  0.389569  0.458368  0.558128  1
  O  O44  1  0.248614  0.315263  0.318879  1
  O  O45  1  0.684737  0.751386  0.681121  1
  O  O46  1  0.157496  0.289536  0.014901  1
  O  O47  1  0.710464  0.842504  0.985099  1
  O  O48  1  0.289536  0.157496  0.485099  1
  O  O49  1  0.842504  0.710464  0.514901  1
  O  O50  1  0.315263  0.248614  0.181121  1
  O  O51  1  0.751386  0.684737  0.818879  1
  O  O52  1  0.610431  0.541632  0.058128  1
  O  O53  1  0.458368  0.389569  0.941872  1
  O  O54  1  0.197199  0.160240  0.885048  1
  O  O55  1  0.839760  0.802801  0.114952  1
  O  O56  1  0.632299  0.428236  0.727722  1
  O  O57  1  0.571764  0.367701  0.272278  1
  O  O58  1  0.491410  0.183349  0.603074  1
  O  O59  1  0.816651  0.508590  0.396926  1
  O  O60  1  0.790389  0.418640  0.951804  1
  O  O61  1  0.581360  0.209611  0.048196  1
  O  O62  1  0.671101  0.126890  0.190107  1
  O  O63  1  0.873110  0.328899  0.809893  1
  O  O64  1  0.653542  0.084023  0.329127  1
  O  O65  1  0.915977  0.346458  0.670873  1
  O  O66  1  0.665059  0.096853  0.729042  1
  O  O67  1  0.903147  0.334941  0.270958  1
  O  O68  1  0.650064  0.049136  0.468264  1
  O  O69  1  0.950864  0.349936  0.531736  1
  O  O70  1  0.960500  0.166017  0.396567  1
  O  O71  1  0.833983  0.039500  0.603433  1
