# generated using pymatgen
data_TiMnFe(PO4)3
_symmetry_space_group_name_H-M   'P 1'
_cell_length_a   8.65152298
_cell_length_b   8.65152360
_cell_length_c   8.65152303
_cell_angle_alpha   59.98689767
_cell_angle_beta   59.98689526
_cell_angle_gamma   59.98689497
_symmetry_Int_Tables_number   1
_chemical_formula_structural   TiMnFe(PO4)3
_chemical_formula_sum   'Ti2 Mn2 Fe2 P6 O24'
_cell_volume   457.75560807
_cell_formula_units_Z   2
loop_
 _symmetry_equiv_pos_site_id
 _symmetry_equiv_pos_as_xyz
  1  'x, y, z'
loop_
 _atom_site_type_symbol
 _atom_site_label
 _atom_site_symmetry_multiplicity
 _atom_site_fract_x
 _atom_site_fract_y
 _atom_site_fract_z
 _atom_site_occupancy
  Ti  Ti0  1  0.145353  0.145353  0.145353  1
  Ti  Ti1  1  0.645353  0.645353  0.645353  1
  Mn  Mn2  1  0.997615  0.997615  0.997615  1
  Mn  Mn3  1  0.497615  0.497615  0.497615  1
  Fe  Fe4  1  0.354115  0.354115  0.354115  1
  Fe  Fe5  1  0.854115  0.854115  0.854115  1
  P  P6  1  0.044175  0.750545  0.457609  1
  P  P7  1  0.457609  0.044175  0.750545  1
  P  P8  1  0.750545  0.457609  0.044175  1
  P  P9  1  0.250545  0.544175  0.957609  1
  P  P10  1  0.544175  0.957609  0.250545  1
  P  P11  1  0.957609  0.250545  0.544175  1
  O  O12  1  0.114473  0.312085  0.503232  1
  O  O13  1  0.312085  0.503232  0.114473  1
  O  O14  1  0.056665  0.915448  0.263425  1
  O  O15  1  0.503232  0.114473  0.312085  1
  O  O16  1  0.003232  0.812085  0.614473  1
  O  O17  1  0.235374  0.587136  0.441085  1
  O  O18  1  0.263425  0.056665  0.915448  1
  O  O19  1  0.441085  0.235374  0.587136  1
  O  O20  1  0.192496  0.378091  0.001079  1
  O  O21  1  0.587136  0.441085  0.235374  1
  O  O22  1  0.087136  0.735374  0.941085  1
  O  O23  1  0.378091  0.001079  0.192496  1
  O  O24  1  0.614473  0.003232  0.812085  1
  O  O25  1  0.915448  0.263425  0.056665  1
  O  O26  1  0.415448  0.556665  0.763425  1
  O  O27  1  0.812085  0.614473  0.003232  1
  O  O28  1  0.556665  0.763425  0.415448  1
  O  O29  1  0.735374  0.941085  0.087136  1
  O  O30  1  0.763425  0.415448  0.556665  1
  O  O31  1  0.001079  0.192496  0.378091  1
  O  O32  1  0.501079  0.878091  0.692496  1
  O  O33  1  0.941085  0.087136  0.735374  1
  O  O34  1  0.692496  0.501079  0.878091  1
  O  O35  1  0.878091  0.692496  0.501079  1
