# generated using pymatgen
data_Li2Co2OF6
_symmetry_space_group_name_H-M   'P 1'
_cell_length_a   8.45999134
_cell_length_b   6.83136180
_cell_length_c   5.21477483
_cell_angle_alpha   85.07978560
_cell_angle_beta   103.46031863
_cell_angle_gamma   110.09060613
_symmetry_Int_Tables_number   1
_chemical_formula_structural   Li2Co2OF6
_chemical_formula_sum   'Li4 Co4 O2 F12'
_cell_volume   275.25982446
_cell_formula_units_Z   2
loop_
 _symmetry_equiv_pos_site_id
 _symmetry_equiv_pos_as_xyz
  1  'x, y, z'
loop_
 _atom_site_type_symbol
 _atom_site_label
 _atom_site_symmetry_multiplicity
 _atom_site_fract_x
 _atom_site_fract_y
 _atom_site_fract_z
 _atom_site_occupancy
  Li  Li0  1  0.097224  0.757138  0.343548  1
  Li  Li1  1  0.248937  0.983989  0.868812  1
  Li  Li2  1  0.740758  0.008692  0.126274  1
  Li  Li3  1  0.911906  0.253685  0.671376  1
  Co  Co4  1  0.176119  0.284167  0.268831  1
  Co  Co5  1  0.335199  0.519463  0.823325  1
  Co  Co6  1  0.670143  0.477553  0.161689  1
  Co  Co7  1  0.796068  0.711260  0.705686  1
  O  O8  1  0.125760  0.388221  0.942842  1
  O  O9  1  0.591831  0.582256  0.821946  1
  F  F10  1  0.025176  0.811013  0.650933  1
  F  F11  1  0.224000  0.566249  0.457188  1
  F  F12  1  0.371266  0.791524  0.911850  1
  F  F13  1  0.295814  0.244620  0.652607  1
  F  F14  1  0.188559  0.017684  0.189568  1
  F  F15  1  0.429231  0.418070  0.196716  1
  F  F16  1  0.811614  0.986130  0.814953  1
  F  F17  1  0.703475  0.753862  0.328319  1
  F  F18  1  0.628027  0.206892  0.086403  1
  F  F19  1  0.777919  0.437994  0.544502  1
  F  F20  1  0.898655  0.618403  0.080277  1
  F  F21  1  0.952319  0.181132  0.352353  1
