# generated using pymatgen
data_Li3Mn4(PO4)6
_symmetry_space_group_name_H-M   'P 1'
_cell_length_a   8.35477165
_cell_length_b   8.51681909
_cell_length_c   8.46393342
_cell_angle_alpha   119.23872589
_cell_angle_beta   61.11882382
_cell_angle_gamma   89.17662214
_symmetry_Int_Tables_number   1
_chemical_formula_structural   Li3Mn4(PO4)6
_chemical_formula_sum   'Li3 Mn4 P6 O24'
_cell_volume   434.77448739
_cell_formula_units_Z   1
loop_
 _symmetry_equiv_pos_site_id
 _symmetry_equiv_pos_as_xyz
  1  'x, y, z'
loop_
 _atom_site_type_symbol
 _atom_site_label
 _atom_site_symmetry_multiplicity
 _atom_site_fract_x
 _atom_site_fract_y
 _atom_site_fract_z
 _atom_site_occupancy
  Li  Li0  1  0.012611  0.492756  0.979723  1
  Li  Li1  1  0.753034  0.640249  0.489444  1
  Li  Li2  1  0.486573  0.015813  0.015176  1
  Mn  Mn3  1  0.359289  0.856452  0.717176  1
  Mn  Mn4  1  0.140956  0.649182  0.285010  1
  Mn  Mn5  1  0.863023  0.353448  0.718120  1
  Mn  Mn6  1  0.635290  0.145539  0.283570  1
  P  P7  1  0.747438  0.971292  0.512693  1
  P  P8  1  0.455407  0.528509  0.785037  1
  P  P9  1  0.038053  0.251132  0.218468  1
  P  P10  1  0.955123  0.751490  0.791089  1
  P  P11  1  0.553970  0.462495  0.209846  1
  P  P12  1  0.253693  0.034444  0.487775  1
  O  O13  1  0.127388  0.795714  0.799980  1
  O  O14  1  0.320504  0.978246  0.595756  1
  O  O15  1  0.188330  0.884818  0.356914  1
  O  O16  1  0.258187  0.552036  0.973429  1
  O  O17  1  0.589043  0.937144  0.678474  1
  O  O18  1  0.458423  0.719513  0.804002  1
  O  O19  1  0.031834  0.434564  0.213898  1
  O  O20  1  0.761970  0.919013  0.979609  1
  O  O21  1  0.004376  0.297442  0.433341  1
  O  O22  1  0.090826  0.230956  0.675684  1
  O  O23  1  0.377198  0.526874  0.216356  1
  O  O24  1  0.553579  0.603696  0.409405  1
  O  O25  1  0.472455  0.376486  0.573917  1
  O  O26  1  0.622054  0.477113  0.798036  1
  O  O27  1  0.909368  0.769618  0.328704  1
  O  O28  1  0.972195  0.707779  0.581096  1
  O  O29  1  0.233249  0.096858  0.036208  1
  O  O30  1  0.942296  0.579817  0.811866  1
  O  O31  1  0.553530  0.265483  0.178024  1
  O  O32  1  0.418027  0.054602  0.311547  1
  O  O33  1  0.747783  0.438278  0.018402  1
  O  O34  1  0.808523  0.120790  0.645862  1
  O  O35  1  0.687047  0.018131  0.393953  1
  O  O36  1  0.870522  0.201134  0.194795  1
