# generated using pymatgen
data_LiCoPO4
_symmetry_space_group_name_H-M   'P 1'
_cell_length_a   8.66611472
_cell_length_b   15.01678072
_cell_length_c   7.96233606
_cell_angle_alpha   90.00000000
_cell_angle_beta   90.00000000
_cell_angle_gamma   90.42523219
_symmetry_Int_Tables_number   1
_chemical_formula_structural   LiCoPO4
_chemical_formula_sum   'Li12 Co12 P12 O48'
_cell_volume   1036.16714030
_cell_formula_units_Z   12
loop_
 _symmetry_equiv_pos_site_id
 _symmetry_equiv_pos_as_xyz
  1  'x, y, z'
loop_
 _atom_site_type_symbol
 _atom_site_label
 _atom_site_symmetry_multiplicity
 _atom_site_fract_x
 _atom_site_fract_y
 _atom_site_fract_z
 _atom_site_occupancy
  Li  Li0  1  0.230281  0.939728  0.968295  1
  Li  Li1  1  0.219509  0.592536  0.047192  1
  Li  Li2  1  0.252290  0.249896  0.831989  1
  Li  Li3  1  0.247710  0.250104  0.331989  1
  Li  Li4  1  0.280491  0.907464  0.547192  1
  Li  Li5  1  0.269719  0.560272  0.468295  1
  Li  Li6  1  0.730281  0.439728  0.531705  1
  Li  Li7  1  0.719509  0.092536  0.452808  1
  Li  Li8  1  0.752290  0.749896  0.668011  1
  Li  Li9  1  0.747710  0.750104  0.168011  1
  Li  Li10  1  0.780491  0.407464  0.952808  1
  Li  Li11  1  0.769719  0.060272  0.031705  1
  Co  Co12  1  0.041112  0.405094  0.272512  1
  Co  Co13  1  0.082493  0.772865  0.216284  1
  Co  Co14  1  0.110979  0.072080  0.280399  1
  Co  Co15  1  0.389021  0.427920  0.780399  1
  Co  Co16  1  0.417507  0.727135  0.716284  1
  Co  Co17  1  0.458888  0.094906  0.772512  1
  Co  Co18  1  0.541112  0.905094  0.227488  1
  Co  Co19  1  0.582493  0.272865  0.283716  1
  Co  Co20  1  0.610979  0.572080  0.219601  1
  Co  Co21  1  0.889021  0.927920  0.719601  1
  Co  Co22  1  0.917507  0.227135  0.783716  1
  Co  Co23  1  0.958888  0.594906  0.727488  1
  P  P24  1  0.054427  0.409126  0.671152  1
  P  P25  1  0.092049  0.773971  0.827564  1
  P  P26  1  0.116094  0.072366  0.672843  1
  P  P27  1  0.383906  0.427634  0.172843  1
  P  P28  1  0.407951  0.726029  0.327564  1
  P  P29  1  0.445573  0.090874  0.171152  1
  P  P30  1  0.554427  0.909126  0.828848  1
  P  P31  1  0.592049  0.273971  0.672436  1
  P  P32  1  0.616094  0.572366  0.827157  1
  P  P33  1  0.883906  0.927634  0.327157  1
  P  P34  1  0.907951  0.226029  0.172436  1
  P  P35  1  0.945573  0.590874  0.328848  1
  O  O36  1  0.035966  0.606534  0.494467  1
  O  O37  1  0.094709  0.672057  0.866833  1
  O  O38  1  0.083224  0.989784  0.786748  1
  O  O39  1  0.033759  0.874836  0.360151  1
  O  O40  1  0.048582  0.533499  0.211061  1
  O  O41  1  0.097669  0.828313  0.993622  1
  O  O42  1  0.086614  0.318399  0.758281  1
  O  O43  1  0.059006  0.202532  0.267610  1
  O  O44  1  0.185515  0.038129  0.504939  1
  O  O45  1  0.211319  0.457328  0.635252  1
  O  O46  1  0.268345  0.697966  0.217824  1
  O  O47  1  0.262152  0.367828  0.262945  1
  O  O48  1  0.231655  0.802034  0.717824  1
  O  O49  1  0.237848  0.132172  0.762945  1
  O  O50  1  0.288681  0.042672  0.135252  1
  O  O51  1  0.314485  0.461871  0.004939  1
  O  O52  1  0.440994  0.297468  0.767610  1
  O  O53  1  0.402331  0.671687  0.493622  1
  O  O54  1  0.413386  0.181601  0.258281  1
  O  O55  1  0.451418  0.966501  0.711061  1
  O  O56  1  0.466241  0.625164  0.860151  1
  O  O57  1  0.416776  0.510216  0.286748  1
  O  O58  1  0.405291  0.827943  0.366833  1
  O  O59  1  0.464034  0.893466  0.994467  1
  O  O60  1  0.535966  0.106534  0.005533  1
  O  O61  1  0.594709  0.172057  0.633167  1
  O  O62  1  0.583224  0.489785  0.713252  1
  O  O63  1  0.533759  0.374836  0.139849  1
  O  O64  1  0.548582  0.033499  0.288939  1
  O  O65  1  0.586614  0.818399  0.741719  1
  O  O66  1  0.597669  0.328313  0.506378  1
  O  O67  1  0.559006  0.702532  0.232390  1
  O  O68  1  0.685515  0.538129  0.995061  1
  O  O69  1  0.711319  0.957328  0.864748  1
  O  O70  1  0.762152  0.867828  0.237055  1
  O  O71  1  0.768345  0.197966  0.282176  1
  O  O72  1  0.737848  0.632172  0.737055  1
  O  O73  1  0.731655  0.302034  0.782176  1
  O  O74  1  0.788681  0.542672  0.364748  1
  O  O75  1  0.814485  0.961871  0.495061  1
  O  O76  1  0.940994  0.797468  0.732390  1
  O  O77  1  0.913386  0.681601  0.241719  1
  O  O78  1  0.902331  0.171687  0.006378  1
  O  O79  1  0.951418  0.466501  0.788939  1
  O  O80  1  0.966241  0.125164  0.639849  1
  O  O81  1  0.916776  0.010216  0.213252  1
  O  O82  1  0.905291  0.327943  0.133167  1
  O  O83  1  0.964034  0.393466  0.505533  1
