# generated using pymatgen
data_YNb2NO5
_symmetry_space_group_name_H-M   'P 1'
_cell_length_a   15.04335108
_cell_length_b   5.94350951
_cell_length_c   5.29444567
_cell_angle_alpha   90.33429942
_cell_angle_beta   89.30381138
_cell_angle_gamma   90.32575350
_symmetry_Int_Tables_number   1
_chemical_formula_structural   YNb2NO5
_chemical_formula_sum   'Y4 Nb8 N4 O20'
_cell_volume   473.32751341
_cell_formula_units_Z   4
loop_
 _symmetry_equiv_pos_site_id
 _symmetry_equiv_pos_as_xyz
  1  'x, y, z'
loop_
 _atom_site_type_symbol
 _atom_site_label
 _atom_site_symmetry_multiplicity
 _atom_site_fract_x
 _atom_site_fract_y
 _atom_site_fract_z
 _atom_site_occupancy
  Y  Y0  1  0.001410  0.298177  0.250522  1
  Y  Y1  1  0.998590  0.701823  0.749478  1
  Y  Y2  1  0.497016  0.206518  0.749777  1
  Y  Y3  1  0.502984  0.793482  0.250223  1
  Nb  Nb4  1  0.162661  0.187182  0.720275  1
  Nb  Nb5  1  0.169935  0.814913  0.232887  1
  Nb  Nb6  1  0.334013  0.321761  0.216299  1
  Nb  Nb7  1  0.337575  0.672555  0.747746  1
  Nb  Nb8  1  0.662425  0.327445  0.252254  1
  Nb  Nb9  1  0.665987  0.678239  0.783701  1
  Nb  Nb10  1  0.830065  0.185086  0.767113  1
  Nb  Nb11  1  0.837339  0.812818  0.279725  1
  N  N12  1  0.082085  0.387825  0.608494  1
  N  N13  1  0.402139  0.577814  0.034480  1
  N  N14  1  0.597861  0.422186  0.965520  1
  N  N15  1  0.917915  0.612175  0.391506  1
  O  O16  1  0.085527  0.614884  0.102798  1
  O  O17  1  0.101501  0.080509  0.037812  1
  O  O18  1  0.100704  0.909162  0.536757  1
  O  O19  1  0.242636  0.131263  0.395837  1
  O  O20  1  0.247576  0.858287  0.916896  1
  O  O21  1  0.255153  0.627376  0.400203  1
  O  O22  1  0.256602  0.367652  0.903685  1
  O  O23  1  0.397885  0.407403  0.531869  1
  O  O24  1  0.416138  0.104828  0.103618  1
  O  O25  1  0.419119  0.881955  0.601111  1
  O  O26  1  0.580881  0.118045  0.398889  1
  O  O27  1  0.583862  0.895172  0.896382  1
  O  O28  1  0.602115  0.592596  0.468131  1
  O  O29  1  0.744847  0.372624  0.599797  1
  O  O30  1  0.743398  0.632348  0.096315  1
  O  O31  1  0.752424  0.141713  0.083104  1
  O  O32  1  0.757364  0.868737  0.604163  1
  O  O33  1  0.899296  0.090838  0.463243  1
  O  O34  1  0.898499  0.919491  0.962188  1
  O  O35  1  0.914473  0.385116  0.897202  1
