# generated using pymatgen
data_NaSnPCO7
_symmetry_space_group_name_H-M   'P 1'
_cell_length_a   8.79252770
_cell_length_b   5.33194008
_cell_length_c   6.58776947
_cell_angle_alpha   90.00000000
_cell_angle_beta   90.00000000
_cell_angle_gamma   88.25952600
_symmetry_Int_Tables_number   1
_chemical_formula_structural   NaSnPCO7
_chemical_formula_sum   'Na2 Sn2 P2 C2 O14'
_cell_volume   308.70025829
_cell_formula_units_Z   2
loop_
 _symmetry_equiv_pos_site_id
 _symmetry_equiv_pos_as_xyz
  1  'x, y, z'
loop_
 _atom_site_type_symbol
 _atom_site_label
 _atom_site_symmetry_multiplicity
 _atom_site_fract_x
 _atom_site_fract_y
 _atom_site_fract_z
 _atom_site_occupancy
  Na  Na0  1  0.085473  0.770681  0.250000  1
  Na  Na1  1  0.914527  0.229319  0.750000  1
  Sn  Sn2  1  0.332209  0.780383  0.750000  1
  Sn  Sn3  1  0.667791  0.219617  0.250000  1
  P  P4  1  0.430541  0.724563  0.250000  1
  P  P5  1  0.569459  0.275437  0.750000  1
  C  C6  1  0.046290  0.702822  0.750000  1
  C  C7  1  0.953710  0.297178  0.250000  1
  O  O8  1  0.092357  0.332758  0.250000  1
  O  O9  1  0.106121  0.932339  0.750000  1
  O  O10  1  0.153928  0.520393  0.750000  1
  O  O11  1  0.325926  0.788221  0.066186  1
  O  O12  1  0.325926  0.788221  0.433814  1
  O  O13  1  0.421796  0.127616  0.750000  1
  O  O14  1  0.474940  0.440597  0.250000  1
  O  O15  1  0.525060  0.559403  0.750000  1
  O  O16  1  0.578204  0.872384  0.250000  1
  O  O17  1  0.674074  0.211779  0.566186  1
  O  O18  1  0.674074  0.211779  0.933814  1
  O  O19  1  0.846072  0.479607  0.250000  1
  O  O20  1  0.893879  0.067661  0.250000  1
  O  O21  1  0.907643  0.667242  0.750000  1
