# generated using pymatgen
data_LiFePCO7
_symmetry_space_group_name_H-M   'P 1'
_cell_length_a   8.43286744
_cell_length_b   8.26365118
_cell_length_c   8.28513206
_cell_angle_alpha   77.64909592
_cell_angle_beta   86.49620485
_cell_angle_gamma   93.23350211
_symmetry_Int_Tables_number   1
_chemical_formula_structural   LiFePCO7
_chemical_formula_sum   'Li4 Fe4 P4 C4 O28'
_cell_volume   561.51227114
_cell_formula_units_Z   4
loop_
 _symmetry_equiv_pos_site_id
 _symmetry_equiv_pos_as_xyz
  1  'x, y, z'
loop_
 _atom_site_type_symbol
 _atom_site_label
 _atom_site_symmetry_multiplicity
 _atom_site_fract_x
 _atom_site_fract_y
 _atom_site_fract_z
 _atom_site_occupancy
  Li  Li0  1  0.892663  0.762468  0.987607  1
  Li  Li1  1  0.717433  0.394519  0.155907  1
  Li  Li2  1  0.107024  0.738851  0.511738  1
  Li  Li3  1  0.113035  0.231221  0.010186  1
  Fe  Fe4  1  0.665694  0.525667  0.718953  1
  Fe  Fe5  1  0.662466  0.020518  0.225507  1
  Fe  Fe6  1  0.339216  0.975147  0.772276  1
  Fe  Fe7  1  0.332964  0.476546  0.276583  1
  P  P8  1  0.576544  0.245127  0.504313  1
  P  P9  1  0.578424  0.736890  0.008435  1
  P  P10  1  0.423929  0.262814  0.989018  1
  P  P11  1  0.420969  0.761488  0.492285  1
  C  C12  1  0.953535  0.471574  0.777089  1
  C  C13  1  0.952697  0.980111  0.277844  1
  C  C14  1  0.045016  0.022044  0.730664  1
  C  C15  1  0.046022  0.519541  0.216997  1
  O  O16  1  0.925993  0.591317  0.655103  1
  O  O17  1  0.923232  0.097578  0.153621  1
  O  O18  1  0.903068  0.051479  0.699132  1
  O  O19  1  0.825333  0.392235  0.862358  1
  O  O20  1  0.907938  0.543999  0.170486  1
  O  O21  1  0.825853  0.898129  0.361924  1
  O  O22  1  0.680357  0.374460  0.567238  1
  O  O23  1  0.680646  0.201629  0.360057  1
  O  O24  1  0.695291  0.678794  0.882908  1
  O  O25  1  0.686356  0.864558  0.073682  1
  O  O26  1  0.525674  0.091612  0.643993  1
  O  O27  1  0.578265  0.198999  0.066021  1
  O  O28  1  0.572085  0.691153  0.565294  1
  O  O29  1  0.531027  0.580534  0.152086  1
  O  O30  1  0.477796  0.412691  0.845387  1
  O  O31  1  0.420813  0.317052  0.438042  1
  O  O32  1  0.429283  0.809399  0.936419  1
  O  O33  1  0.475545  0.909827  0.346365  1
  O  O34  1  0.320637  0.130484  0.928224  1
  O  O35  1  0.307102  0.819557  0.619162  1
  O  O36  1  0.309027  0.319268  0.116369  1
  O  O37  1  0.312357  0.634547  0.428725  1
  O  O38  1  0.163394  0.110132  0.642313  1
  O  O39  1  0.088293  0.429548  0.819492  1
  O  O40  1  0.171429  0.612312  0.141845  1
  O  O41  1  0.088351  0.938945  0.317335  1
  O  O42  1  0.084752  0.405176  0.337922  1
  O  O43  1  0.078289  0.903299  0.851849  1
