# generated using pymatgen
data_Li8Mn5Fe3(BO3)8
_symmetry_space_group_name_H-M   'P 1'
_cell_length_a   6.04379067
_cell_length_b   5.23191419
_cell_length_c   16.25217839
_cell_angle_alpha   91.20631049
_cell_angle_beta   97.74633408
_cell_angle_gamma   89.19839047
_symmetry_Int_Tables_number   1
_chemical_formula_structural   Li8Mn5Fe3(BO3)8
_chemical_formula_sum   'Li8 Mn5 Fe3 B8 O24'
_cell_volume   509.06880361
_cell_formula_units_Z   1
loop_
 _symmetry_equiv_pos_site_id
 _symmetry_equiv_pos_as_xyz
  1  'x, y, z'
loop_
 _atom_site_type_symbol
 _atom_site_label
 _atom_site_symmetry_multiplicity
 _atom_site_fract_x
 _atom_site_fract_y
 _atom_site_fract_z
 _atom_site_occupancy
  Li  Li0  1  0.062756  0.849674  0.609064  1
  Li  Li1  1  0.436392  0.150644  0.890251  1
  Li  Li2  1  0.188683  0.651347  0.141562  1
  Li  Li3  1  0.311860  0.349599  0.360290  1
  Li  Li4  1  0.687206  0.651643  0.641140  1
  Li  Li5  1  0.812334  0.349521  0.858194  1
  Li  Li6  1  0.563122  0.847496  0.109902  1
  Li  Li7  1  0.937487  0.151195  0.391576  1
  Mn  Mn8  1  0.273857  0.668157  0.959055  1
  Mn  Mn9  1  0.024521  0.166340  0.210072  1
  Mn  Mn10  1  0.524044  0.166452  0.709258  1
  Mn  Mn11  1  0.774076  0.667087  0.459058  1
  Mn  Mn12  1  0.725140  0.332778  0.039544  1
  Fe  Fe13  1  0.225941  0.327832  0.538685  1
  Fe  Fe14  1  0.475607  0.838441  0.289484  1
  Fe  Fe15  1  0.974292  0.836654  0.789119  1
  B  B16  1  0.036690  0.329178  0.702025  1
  B  B17  1  0.285464  0.828794  0.452234  1
  B  B18  1  0.463448  0.670644  0.797830  1
  B  B19  1  0.215413  0.169564  0.048340  1
  B  B20  1  0.785861  0.830411  0.950743  1
  B  B21  1  0.537272  0.328419  0.203392  1
  B  B22  1  0.713938  0.170465  0.548004  1
  B  B23  1  0.963616  0.670349  0.297904  1
  O  O24  1  0.013419  0.589912  0.691486  1
  O  O25  1  0.169595  0.185303  0.653764  1
  O  O26  1  0.169289  0.707780  0.508063  1
  O  O27  1  0.333563  0.285813  0.991797  1
  O  O28  1  0.083205  0.785608  0.241577  1
  O  O29  1  0.326555  0.820837  0.843402  1
  O  O30  1  0.080250  0.320568  0.094504  1
  O  O31  1  0.264183  0.090981  0.441881  1
  O  O32  1  0.485344  0.410842  0.811569  1
  O  O33  1  0.236390  0.909840  0.062029  1
  O  O34  1  0.418898  0.684063  0.403427  1
  O  O35  1  0.421775  0.207865  0.260519  1
  O  O36  1  0.582462  0.786343  0.741511  1
  O  O37  1  0.577991  0.320778  0.593661  1
  O  O38  1  0.765000  0.090342  0.937382  1
  O  O39  1  0.513705  0.588714  0.191643  1
  O  O40  1  0.735867  0.910142  0.561680  1
  O  O41  1  0.919989  0.680263  0.904132  1
  O  O42  1  0.669467  0.180914  0.155819  1
  O  O43  1  0.920650  0.206085  0.758460  1
  O  O44  1  0.668373  0.714792  0.007904  1
  O  O45  1  0.831898  0.287131  0.491463  1
  O  O46  1  0.827339  0.821420  0.343502  1
  O  O47  1  0.985776  0.410977  0.312101  1
