# generated using pymatgen
data_LiV2P4(HO8)2
_symmetry_space_group_name_H-M   'P 1'
_cell_length_a   9.28830758
_cell_length_b   9.28229811
_cell_length_c   7.77858693
_cell_angle_alpha   78.06652636
_cell_angle_beta   77.89507944
_cell_angle_gamma   116.36518751
_symmetry_Int_Tables_number   1
_chemical_formula_structural   LiV2P4(HO8)2
_chemical_formula_sum   'Li2 V4 P8 H4 O32'
_cell_volume   552.02658025
_cell_formula_units_Z   2
loop_
 _symmetry_equiv_pos_site_id
 _symmetry_equiv_pos_as_xyz
  1  'x, y, z'
loop_
 _atom_site_type_symbol
 _atom_site_label
 _atom_site_symmetry_multiplicity
 _atom_site_fract_x
 _atom_site_fract_y
 _atom_site_fract_z
 _atom_site_occupancy
  Li  Li0  1  0.459246  0.089521  0.356150  1
  Li  Li1  1  0.658322  0.786399  0.143933  1
  V  V2  1  0.240263  0.251147  0.504226  1
  V  V3  1  0.499985  0.006681  0.987485  1
  V  V4  1  0.997653  0.495027  0.001935  1
  V  V5  1  0.753516  0.749800  0.504484  1
  P  P6  1  0.253098  0.606397  0.267996  1
  P  P7  1  0.752017  0.102142  0.264961  1
  P  P8  1  0.644261  0.492957  0.232556  1
  P  P9  1  0.146409  0.999483  0.234593  1
  P  P10  1  0.354490  0.503830  0.768066  1
  P  P11  1  0.850775  0.004022  0.766058  1
  P  P12  1  0.750080  0.398805  0.731588  1
  P  P13  1  0.238336  0.893932  0.735896  1
  H  H14  1  0.759397  0.267739  0.512795  1
  H  H15  1  0.242309  0.736770  0.492269  1
  H  H16  1  0.484248  0.491458  0.987363  1
  H  H17  1  0.017274  0.009663  0.015990  1
  O  O18  1  0.123932  0.072442  0.052057  1
  O  O19  1  0.176603  0.128836  0.344560  1
  O  O20  1  0.014039  0.180559  0.633243  1
  O  O21  1  0.219680  0.054589  0.676595  1
  O  O22  1  0.625944  0.071269  0.151880  1
  O  O23  1  0.126006  0.567821  0.160180  1
  O  O24  1  0.271828  0.445321  0.329964  1
  O  O25  1  0.485986  0.315226  0.364712  1
  O  O26  1  0.677047  0.135658  0.434158  1
  O  O27  1  0.179597  0.632209  0.446847  1
  O  O28  1  0.314907  0.374558  0.659148  1
  O  O29  1  0.194294  0.522390  0.828328  1
  O  O30  1  0.697299  0.029947  0.810008  1
  O  O31  1  0.613491  0.571739  0.063729  1
  O  O32  1  0.928007  0.265020  0.130308  1
  O  O33  1  0.430574  0.759728  0.137721  1
  O  O34  1  0.575170  0.243249  0.863077  1
  O  O35  1  0.067904  0.733958  0.872321  1
  O  O36  1  0.378547  0.426237  0.946477  1
  O  O37  1  0.803147  0.471318  0.173138  1
  O  O38  1  0.310769  0.990364  0.187819  1
  O  O39  1  0.680923  0.619923  0.343231  1
  O  O40  1  0.825419  0.372179  0.552798  1
  O  O41  1  0.314385  0.870337  0.559008  1
  O  O42  1  0.509764  0.675442  0.634973  1
  O  O43  1  0.728257  0.553738  0.681213  1
  O  O44  1  0.877826  0.431971  0.842019  1
  O  O45  1  0.363754  0.932090  0.848840  1
  O  O46  1  0.770852  0.943913  0.308636  1
  O  O47  1  0.991547  0.825344  0.364143  1
  O  O48  1  0.823129  0.884241  0.647976  1
  O  O49  1  0.876676  0.933619  0.942548  1
