# generated using pymatgen
data_Mn6O5F7
_symmetry_space_group_name_H-M   'P 1'
_cell_length_a   5.74930638
_cell_length_b   5.13947970
_cell_length_c   14.55828673
_cell_angle_alpha   92.07143913
_cell_angle_beta   86.20939563
_cell_angle_gamma   90.79210689
_symmetry_Int_Tables_number   1
_chemical_formula_structural   Mn6O5F7
_chemical_formula_sum   'Mn12 O10 F14'
_cell_volume   428.92493444
_cell_formula_units_Z   2
loop_
 _symmetry_equiv_pos_site_id
 _symmetry_equiv_pos_as_xyz
  1  'x, y, z'
loop_
 _atom_site_type_symbol
 _atom_site_label
 _atom_site_symmetry_multiplicity
 _atom_site_fract_x
 _atom_site_fract_y
 _atom_site_fract_z
 _atom_site_occupancy
  Mn  Mn0  1  0.124517  0.976860  0.007086  1
  Mn  Mn1  1  0.893170  0.490740  0.177845  1
  Mn  Mn2  1  0.125144  0.980109  0.338731  1
  Mn  Mn3  1  0.907260  0.514779  0.497019  1
  Mn  Mn4  1  0.109069  0.989537  0.664161  1
  Mn  Mn5  1  0.917106  0.504907  0.834121  1
  Mn  Mn6  1  0.547357  0.015219  0.169231  1
  Mn  Mn7  1  0.424088  0.470258  0.996472  1
  Mn  Mn8  1  0.419763  0.544127  0.657645  1
  Mn  Mn9  1  0.557102  0.034840  0.498615  1
  Mn  Mn10  1  0.394417  0.499639  0.332375  1
  Mn  Mn11  1  0.495254  0.004206  0.835188  1
  O  O12  1  0.139800  0.679004  0.407043  1
  O  O13  1  0.190957  0.722752  0.746520  1
  O  O14  1  0.362808  0.166502  0.068627  1
  O  O15  1  0.359021  0.816633  0.259850  1
  O  O16  1  0.352090  0.838754  0.584828  1
  O  O17  1  0.368176  0.791828  0.932538  1
  O  O18  1  0.344641  0.182472  0.403069  1
  O  O19  1  0.623040  0.307102  0.900103  1
  O  O20  1  0.622254  0.358426  0.564642  1
  O  O21  1  0.607203  0.328830  0.239734  1
  F  F22  1  0.115474  0.285177  0.257373  1
  F  F23  1  0.149959  0.631054  0.084675  1
  F  F24  1  0.121272  0.321302  0.591737  1
  F  F25  1  0.141326  0.283878  0.912164  1
  F  F26  1  0.399773  0.223667  0.731326  1
  F  F27  1  0.632843  0.679886  0.098200  1
  F  F28  1  0.631936  0.700885  0.422639  1
  F  F29  1  0.667387  0.700527  0.757996  1
  F  F30  1  0.870137  0.161649  0.418747  1
  F  F31  1  0.872372  0.145566  0.090761  1
  F  F32  1  0.891044  0.168329  0.750818  1
  F  F33  1  0.849955  0.848577  0.576657  1
  F  F34  1  0.891673  0.799473  0.934402  1
  F  F35  1  0.880614  0.832508  0.257062  1
