# generated using pymatgen
data_Sc(ClO4)3
_symmetry_space_group_name_H-M   'P 1'
_cell_length_a   9.24988119
_cell_length_b   9.24704152
_cell_length_c   5.39948561
_cell_angle_alpha   90.00000000
_cell_angle_beta   90.00000000
_cell_angle_gamma   119.99341928
_symmetry_Int_Tables_number   1
_chemical_formula_structural   Sc(ClO4)3
_chemical_formula_sum   'Sc2 Cl6 O24'
_cell_volume   399.99151322
_cell_formula_units_Z   2
loop_
 _symmetry_equiv_pos_site_id
 _symmetry_equiv_pos_as_xyz
  1  'x, y, z'
loop_
 _atom_site_type_symbol
 _atom_site_label
 _atom_site_symmetry_multiplicity
 _atom_site_fract_x
 _atom_site_fract_y
 _atom_site_fract_z
 _atom_site_occupancy
  Sc  Sc0  1  0.333379  0.666853  0.750000  1
  Sc  Sc1  1  0.666776  0.333265  0.250000  1
  Cl  Cl2  1  0.095442  0.704869  0.250000  1
  Cl  Cl3  1  0.295148  0.390671  0.250000  1
  Cl  Cl4  1  0.609443  0.904557  0.250000  1
  Cl  Cl5  1  0.390573  0.095441  0.750000  1
  Cl  Cl6  1  0.704856  0.609352  0.750000  1
  Cl  Cl7  1  0.904539  0.295116  0.750000  1
  O  O8  1  0.025292  0.810327  0.250000  1
  O  O9  1  0.027370  0.472387  0.750000  1
  O  O10  1  0.204653  0.742222  0.030420  1
  O  O11  1  0.204653  0.742222  0.469580  1
  O  O12  1  0.444883  0.972453  0.750000  1
  O  O13  1  0.257853  0.462592  0.469619  1
  O  O14  1  0.257853  0.462592  0.030381  1
  O  O15  1  0.189654  0.215069  0.250000  1
  O  O16  1  0.537554  0.795340  0.030424  1
  O  O17  1  0.537554  0.795340  0.469576  1
  O  O18  1  0.215018  0.025340  0.750000  1
  O  O19  1  0.472347  0.444941  0.250000  1
  O  O20  1  0.527653  0.555066  0.750000  1
  O  O21  1  0.785001  0.974658  0.250000  1
  O  O22  1  0.462475  0.204634  0.530413  1
  O  O23  1  0.462475  0.204634  0.969587  1
  O  O24  1  0.810338  0.784955  0.750000  1
  O  O25  1  0.742163  0.537439  0.969610  1
  O  O26  1  0.742163  0.537439  0.530390  1
  O  O27  1  0.555115  0.027515  0.250000  1
  O  O28  1  0.795309  0.257744  0.969578  1
  O  O29  1  0.795309  0.257744  0.530422  1
  O  O30  1  0.972592  0.527585  0.250000  1
  O  O31  1  0.974667  0.189641  0.750000  1
