# generated using pymatgen
data_Li2V4O5F8
_symmetry_space_group_name_H-M   'P 1'
_cell_length_a   3.69587184
_cell_length_b   6.47797073
_cell_length_c   10.57628248
_cell_angle_alpha   79.58273476
_cell_angle_beta   90.00000000
_cell_angle_gamma   73.42533720
_symmetry_Int_Tables_number   1
_chemical_formula_structural   Li2V4O5F8
_chemical_formula_sum   'Li2 V4 O5 F8'
_cell_volume   238.33542655
_cell_formula_units_Z   1
loop_
 _symmetry_equiv_pos_site_id
 _symmetry_equiv_pos_as_xyz
  1  'x, y, z'
loop_
 _atom_site_type_symbol
 _atom_site_label
 _atom_site_symmetry_multiplicity
 _atom_site_fract_x
 _atom_site_fract_y
 _atom_site_fract_z
 _atom_site_occupancy
  Li  Li0  1  0.579949  0.840101  0.634769  1
  Li  Li1  1  0.420051  0.159899  0.365231  1
  V  V2  1  0.645055  0.709888  0.995600  1
  V  V3  1  0.719751  0.560498  0.382273  1
  V  V4  1  0.280249  0.439502  0.617727  1
  V  V5  1  0.354945  0.290112  0.004400  1
  O  O6  1  0.763710  0.472579  0.585631  1
  O  O7  1  0.817976  0.364049  0.992310  1
  O  O8  1  0.182024  0.635951  0.007690  1
  O  O9  1  0.236290  0.527421  0.414369  1
  O  O10  1  0.500000  0.000000  0.000000  1
  F  F11  1  0.619001  0.761999  0.816709  1
  F  F12  1  0.572566  0.854867  0.402001  1
  F  F13  1  0.125889  0.748221  0.623403  1
  F  F14  1  0.680129  0.639742  0.200448  1
  F  F15  1  0.319871  0.360258  0.799552  1
  F  F16  1  0.874111  0.251779  0.376597  1
  F  F17  1  0.427434  0.145133  0.597999  1
  F  F18  1  0.380999  0.238001  0.183291  1
