# generated using pymatgen
data_LiMn2(BO3)2
_symmetry_space_group_name_H-M   'P 1'
_cell_length_a   5.35171949
_cell_length_b   13.95870748
_cell_length_c   10.20806892
_cell_angle_alpha   89.58762845
_cell_angle_beta   91.90733762
_cell_angle_gamma   79.57564432
_symmetry_Int_Tables_number   1
_chemical_formula_structural   LiMn2(BO3)2
_chemical_formula_sum   'Li6 Mn12 B12 O36'
_cell_volume   749.50438910
_cell_formula_units_Z   6
loop_
 _symmetry_equiv_pos_site_id
 _symmetry_equiv_pos_as_xyz
  1  'x, y, z'
loop_
 _atom_site_type_symbol
 _atom_site_label
 _atom_site_symmetry_multiplicity
 _atom_site_fract_x
 _atom_site_fract_y
 _atom_site_fract_z
 _atom_site_occupancy
  Li  Li0  1  0.151675  0.006115  0.146190  1
  Li  Li1  1  0.468414  0.326706  0.664945  1
  Li  Li2  1  0.478071  0.344629  0.169118  1
  Li  Li3  1  0.813071  0.658899  0.670563  1
  Li  Li4  1  0.802088  0.677680  0.160206  1
  Li  Li5  1  0.870359  0.990745  0.414271  1
  Mn  Mn6  1  0.279358  0.117303  0.877594  1
  Mn  Mn7  1  0.608377  0.095790  0.633533  1
  Mn  Mn8  1  0.047260  0.230953  0.130866  1
  Mn  Mn9  1  0.732536  0.218556  0.380383  1
  Mn  Mn10  1  0.626682  0.439167  0.881773  1
  Mn  Mn11  1  0.067436  0.562567  0.381465  1
  Mn  Mn12  1  0.920964  0.450023  0.629474  1
  Mn  Mn13  1  0.373596  0.553349  0.127043  1
  Mn  Mn14  1  0.261900  0.782728  0.635009  1
  Mn  Mn15  1  0.957037  0.781929  0.879546  1
  Mn  Mn16  1  0.408975  0.880480  0.375440  1
  Mn  Mn17  1  0.708945  0.898488  0.119609  1
  B  B18  1  0.276530  0.108475  0.373583  1
  B  B19  1  0.045086  0.225227  0.629939  1
  B  B20  1  0.607199  0.118039  0.132847  1
  B  B21  1  0.722982  0.210289  0.871771  1
  B  B22  1  0.067342  0.551021  0.871862  1
  B  B23  1  0.615187  0.449107  0.373373  1
  B  B24  1  0.384841  0.556208  0.633081  1
  B  B25  1  0.942881  0.452046  0.129707  1
  B  B26  1  0.274278  0.778140  0.120864  1
  B  B27  1  0.393436  0.888875  0.873531  1
  B  B28  1  0.941534  0.786526  0.373743  1
  B  B29  1  0.738121  0.878555  0.625818  1
  O  O30  1  0.200725  0.020740  0.359069  1
  O  O31  1  0.198810  0.141869  0.685777  1
  O  O32  1  0.361559  0.120070  0.076801  1
  O  O33  1  0.783815  0.036434  0.140364  1
  O  O34  1  0.524025  0.112980  0.422866  1
  O  O35  1  0.111672  0.194056  0.336574  1
  O  O36  1  0.633955  0.125294  0.834557  1
  O  O37  1  0.120423  0.312581  0.629271  1
  O  O38  1  0.658794  0.207285  0.184948  1
  O  O39  1  0.803896  0.213961  0.573613  1
  O  O40  1  0.120153  0.369957  0.130464  1
  O  O41  1  0.584480  0.299706  0.847032  1
  O  O42  1  0.961211  0.197770  0.934795  1
  O  O43  1  0.567438  0.358401  0.355878  1
  O  O44  1  0.003901  0.542239  0.165369  1
  O  O45  1  0.538948  0.465754  0.668456  1
  O  O46  1  0.688223  0.449844  0.090972  1
  O  O47  1  0.131346  0.554673  0.591339  1
  O  O48  1  0.827322  0.468789  0.443997  1
  O  O49  1  0.300674  0.532913  0.941751  1
  O  O50  1  0.448761  0.530360  0.317395  1
  O  O51  1  0.983821  0.468309  0.818221  1
  O  O52  1  0.471770  0.640828  0.636937  1
  O  O53  1  0.019926  0.781978  0.071214  1
  O  O54  1  0.440562  0.692649  0.125476  1
  O  O55  1  0.928191  0.640445  0.854549  1
  O  O56  1  0.159512  0.796376  0.448668  1
  O  O57  1  0.311575  0.803629  0.824498  1
  O  O58  1  0.881898  0.699769  0.343727  1
  O  O59  1  0.337846  0.865380  0.165387  1
  O  O60  1  0.891528  0.792904  0.683889  1
  O  O61  1  0.500281  0.866242  0.581308  1
  O  O62  1  0.238160  0.974253  0.885036  1
  O  O63  1  0.646914  0.874715  0.918936  1
  O  O64  1  0.790845  0.873730  0.327534  1
  O  O65  1  0.825788  0.961428  0.606049  1
