# generated using pymatgen
data_LiBiP2O7
_symmetry_space_group_name_H-M   'P 1'
_cell_length_a   5.19917746
_cell_length_b   8.85089907
_cell_length_c   13.67709692
_cell_angle_alpha   90.00000000
_cell_angle_beta   86.52144844
_cell_angle_gamma   90.00000000
_symmetry_Int_Tables_number   1
_chemical_formula_structural   LiBiP2O7
_chemical_formula_sum   'Li4 Bi4 P8 O28'
_cell_volume   628.22478127
_cell_formula_units_Z   4
loop_
 _symmetry_equiv_pos_site_id
 _symmetry_equiv_pos_as_xyz
  1  'x, y, z'
loop_
 _atom_site_type_symbol
 _atom_site_label
 _atom_site_symmetry_multiplicity
 _atom_site_fract_x
 _atom_site_fract_y
 _atom_site_fract_z
 _atom_site_occupancy
  Li  Li0  1  0.217164  0.755633  0.189625  1
  Li  Li1  1  0.282836  0.255633  0.310375  1
  Li  Li2  1  0.717164  0.744367  0.689625  1
  Li  Li3  1  0.782836  0.244367  0.810375  1
  Bi  Bi4  1  0.222749  0.852626  0.886481  1
  Bi  Bi5  1  0.277251  0.352626  0.613519  1
  Bi  Bi6  1  0.722749  0.647374  0.386481  1
  Bi  Bi7  1  0.777251  0.147374  0.113519  1
  P  P8  1  0.220848  0.718297  0.540416  1
  P  P9  1  0.273669  0.460351  0.818873  1
  P  P10  1  0.226331  0.960351  0.681127  1
  P  P11  1  0.279152  0.218297  0.959584  1
  P  P12  1  0.720848  0.781703  0.040416  1
  P  P13  1  0.773669  0.039649  0.318873  1
  P  P14  1  0.726331  0.539649  0.181127  1
  P  P15  1  0.779152  0.281703  0.459584  1
  O  O16  1  0.978283  0.561896  0.232220  1
  O  O17  1  0.018743  0.864941  0.740047  1
  O  O18  1  0.065978  0.318562  0.443943  1
  O  O19  1  0.103368  0.121689  0.897997  1
  O  O20  1  0.137385  0.122443  0.666976  1
  O  O21  1  0.261894  0.893590  0.571228  1
  O  O22  1  0.188900  0.216267  0.069320  1
  O  O23  1  0.238106  0.393590  0.928772  1
  O  O24  1  0.311100  0.716267  0.430680  1
  O  O25  1  0.362615  0.622443  0.833024  1
  O  O26  1  0.396632  0.621689  0.602003  1
  O  O27  1  0.481257  0.364941  0.759953  1
  O  O28  1  0.434022  0.818562  0.056057  1
  O  O29  1  0.521717  0.061896  0.267780  1
  O  O30  1  0.478283  0.938104  0.732220  1
  O  O31  1  0.565978  0.181438  0.943943  1
  O  O32  1  0.518743  0.635059  0.240047  1
  O  O33  1  0.603368  0.378311  0.397997  1
  O  O34  1  0.637385  0.377557  0.166976  1
  O  O35  1  0.688900  0.283733  0.569320  1
  O  O36  1  0.761894  0.606410  0.071228  1
  O  O37  1  0.811100  0.783733  0.930680  1
  O  O38  1  0.738106  0.106410  0.428772  1
  O  O39  1  0.862615  0.877557  0.333024  1
  O  O40  1  0.896632  0.878311  0.102003  1
  O  O41  1  0.934022  0.681438  0.556057  1
  O  O42  1  0.981257  0.135059  0.259953  1
  O  O43  1  0.021717  0.438104  0.767780  1
