# generated using pymatgen
data_LiMn2(BO3)2
_symmetry_space_group_name_H-M   'P 1'
_cell_length_a   5.35127268
_cell_length_b   9.07267761
_cell_length_c   11.32720878
_cell_angle_alpha   67.12149192
_cell_angle_beta   79.13060729
_cell_angle_gamma   90.60099792
_symmetry_Int_Tables_number   1
_chemical_formula_structural   LiMn2(BO3)2
_chemical_formula_sum   'Li4 Mn8 B8 O24'
_cell_volume   495.44832658
_cell_formula_units_Z   4
loop_
 _symmetry_equiv_pos_site_id
 _symmetry_equiv_pos_as_xyz
  1  'x, y, z'
loop_
 _atom_site_type_symbol
 _atom_site_label
 _atom_site_symmetry_multiplicity
 _atom_site_fract_x
 _atom_site_fract_y
 _atom_site_fract_z
 _atom_site_occupancy
  Li  Li0  1  0.294612  0.158210  0.657164  1
  Li  Li1  1  0.060263  0.939344  0.163432  1
  Li  Li2  1  0.404539  0.542384  0.919282  1
  Li  Li3  1  0.653123  0.775521  0.406215  1
  Mn  Mn4  1  0.102640  0.283799  0.141148  1
  Mn  Mn5  1  0.650135  0.134427  0.378600  1
  Mn  Mn6  1  0.391769  0.212042  0.889903  1
  Mn  Mn7  1  0.157001  0.640854  0.383181  1
  Mn  Mn8  1  0.823295  0.376898  0.636896  1
  Mn  Mn9  1  0.582211  0.746976  0.125755  1
  Mn  Mn10  1  0.344238  0.828746  0.622084  1
  Mn  Mn11  1  0.913365  0.757965  0.866910  1
  B  B12  1  0.590043  0.085253  0.142301  1
  B  B13  1  0.840051  0.033375  0.626534  1
  B  B14  1  0.121607  0.632729  0.114221  1
  B  B15  1  0.649788  0.474269  0.376506  1
  B  B16  1  0.366367  0.503710  0.623798  1
  B  B17  1  0.902451  0.411301  0.876462  1
  B  B18  1  0.138135  0.979546  0.375477  1
  B  B19  1  0.389867  0.880132  0.867702  1
  O  O20  1  0.359550  0.120077  0.099463  1
  O  O21  1  0.041700  0.126889  0.350297  1
  O  O22  1  0.947579  0.163458  0.632041  1
  O  O23  1  0.699877  0.189169  0.189642  1
  O  O24  1  0.617972  0.034869  0.572858  1
  O  O25  1  0.251976  0.510066  0.107896  1
  O  O26  1  0.291230  0.020368  0.845557  1
  O  O27  1  0.548904  0.347166  0.365405  1
  O  O28  1  0.208234  0.739098  0.164511  1
  O  O29  1  0.446199  0.348691  0.671077  1
  O  O30  1  0.900566  0.671473  0.063539  1
  O  O31  1  0.130112  0.522160  0.589851  1
  O  O32  1  0.839720  0.476307  0.444690  1
  O  O33  1  0.128976  0.373706  0.921829  1
  O  O34  1  0.560582  0.630539  0.317303  1
  O  O35  1  0.794023  0.309833  0.826286  1
  O  O36  1  0.008019  0.857324  0.362729  1
  O  O37  1  0.519126  0.636791  0.600456  1
  O  O38  1  0.712918  0.957113  0.136299  1
  O  O39  1  0.776342  0.538700  0.881870  1
  O  O40  1  0.376226  0.952011  0.413736  1
  O  O41  1  0.290349  0.761662  0.831557  1
  O  O42  1  0.940016  0.881561  0.679253  1
  O  O43  1  0.596999  0.837533  0.930198  1
