# generated using pymatgen
data_Fe4O5F3
_symmetry_space_group_name_H-M   'P 1'
_cell_length_a   4.70511641
_cell_length_b   10.29555756
_cell_length_c   5.60986139
_cell_angle_alpha   83.73911667
_cell_angle_beta   91.79817765
_cell_angle_gamma   89.45985440
_symmetry_Int_Tables_number   1
_chemical_formula_structural   Fe4O5F3
_chemical_formula_sum   'Fe8 O10 F6'
_cell_volume   269.97533652
_cell_formula_units_Z   2
loop_
 _symmetry_equiv_pos_site_id
 _symmetry_equiv_pos_as_xyz
  1  'x, y, z'
loop_
 _atom_site_type_symbol
 _atom_site_label
 _atom_site_symmetry_multiplicity
 _atom_site_fract_x
 _atom_site_fract_y
 _atom_site_fract_z
 _atom_site_occupancy
  Fe  Fe0  1  0.500000  0.250000  0.750000  1
  Fe  Fe1  1  0.500000  0.750000  0.250000  1
  Fe  Fe2  1  0.472593  0.990425  0.501821  1
  Fe  Fe3  1  0.527407  0.509575  0.998179  1
  Fe  Fe4  1  0.000000  0.750000  0.750000  1
  Fe  Fe5  1  0.944277  0.493835  0.511674  1
  Fe  Fe6  1  0.000000  0.250000  0.250000  1
  Fe  Fe7  1  0.055723  0.006165  0.988326  1
  O  O8  1  0.811861  0.583694  0.773011  1
  O  O9  1  0.797257  0.320314  0.521006  1
  O  O10  1  0.696184  0.821734  0.523251  1
  O  O11  1  0.687399  0.582173  0.273640  1
  O  O12  1  0.693873  0.331322  0.013454  1
  O  O13  1  0.312601  0.917827  0.226360  1
  O  O14  1  0.303816  0.678266  0.976749  1
  O  O15  1  0.306127  0.168678  0.486546  1
  O  O16  1  0.202743  0.179686  0.978994  1
  O  O17  1  0.188139  0.916306  0.726989  1
  F  F18  1  0.808372  0.072022  0.264204  1
  F  F19  1  0.808195  0.832037  0.025101  1
  F  F20  1  0.702760  0.068078  0.777780  1
  F  F21  1  0.297240  0.431922  0.722220  1
  F  F22  1  0.191805  0.667963  0.474899  1
  F  F23  1  0.191628  0.427978  0.235796  1
