# generated using pymatgen
data_Na6Sn2C4SO16
_symmetry_space_group_name_H-M   'P 1'
_cell_length_a   10.32383784
_cell_length_b   10.32383782
_cell_length_c   10.32383774
_cell_angle_alpha   90.00000364
_cell_angle_beta   60.00000288
_cell_angle_gamma   60.00000314
_symmetry_Int_Tables_number   1
_chemical_formula_structural   Na6Sn2C4SO16
_chemical_formula_sum   'Na12 Sn4 C8 S2 O32'
_cell_volume   778.05186103
_cell_formula_units_Z   2
loop_
 _symmetry_equiv_pos_site_id
 _symmetry_equiv_pos_as_xyz
  1  'x, y, z'
loop_
 _atom_site_type_symbol
 _atom_site_label
 _atom_site_symmetry_multiplicity
 _atom_site_fract_x
 _atom_site_fract_y
 _atom_site_fract_z
 _atom_site_occupancy
  Na  Na0  1  0.750000  0.917507  0.667507  1
  Na  Na1  1  0.664984  0.667507  0.917507  1
  Na  Na2  1  0.750000  0.332493  0.667507  1
  Na  Na3  1  0.750000  0.917507  0.082493  1
  Na  Na4  1  0.250000  0.667507  0.917507  1
  Na  Na5  1  0.835016  0.082493  0.332493  1
  Na  Na6  1  0.164984  0.917507  0.667507  1
  Na  Na7  1  0.750000  0.332493  0.082493  1
  Na  Na8  1  0.250000  0.667507  0.332493  1
  Na  Na9  1  0.250000  0.082493  0.917507  1
  Na  Na10  1  0.335016  0.332493  0.082493  1
  Na  Na11  1  0.250000  0.082493  0.332493  1
  Sn  Sn12  1  0.500000  0.500000  0.500000  1
  Sn  Sn13  1  0.500000  0.000000  0.500000  1
  Sn  Sn14  1  0.000000  0.500000  0.500000  1
  Sn  Sn15  1  0.000000  0.500000  0.000000  1
  C  C16  1  0.957777  0.728889  0.271111  1
  C  C17  1  0.957777  0.313334  0.271111  1
  C  C18  1  0.542223  0.728889  0.686666  1
  C  C19  1  0.542223  0.728889  0.271111  1
  C  C20  1  0.457777  0.271111  0.728889  1
  C  C21  1  0.042223  0.686666  0.728889  1
  C  C22  1  0.457777  0.271111  0.313334  1
  C  C23  1  0.042223  0.271111  0.728889  1
  S  S24  1  0.750000  0.125000  0.875000  1
  S  S25  1  0.250000  0.875000  0.125000  1
  O  O26  1  0.916299  0.686880  0.728133  1
  O  O27  1  0.916299  0.396820  0.855567  1
  O  O28  1  0.958746  0.728133  0.396820  1
  O  O29  1  0.831314  0.855567  0.271866  1
  O  O30  1  0.868396  0.065803  0.934197  1
  O  O31  1  0.668686  0.603180  0.686880  1
  O  O32  1  0.541254  0.855567  0.686880  1
  O  O33  1  0.631604  0.302593  0.934197  1
  O  O34  1  0.868396  0.065803  0.697407  1
  O  O35  1  0.958746  0.313120  0.144433  1
  O  O36  1  0.831314  0.313120  0.396820  1
  O  O37  1  0.631604  0.065803  0.934197  1
  O  O38  1  0.668686  0.728133  0.144433  1
  O  O39  1  0.416299  0.728133  0.686880  1
  O  O40  1  0.416299  0.855567  0.396820  1
  O  O41  1  0.458746  0.396820  0.728133  1
  O  O42  1  0.541254  0.603180  0.271866  1
  O  O43  1  0.583701  0.144433  0.603180  1
  O  O44  1  0.583701  0.271866  0.313120  1
  O  O45  1  0.331314  0.271866  0.855567  1
  O  O46  1  0.368396  0.934197  0.065803  1
  O  O47  1  0.168686  0.686880  0.603180  1
  O  O48  1  0.041254  0.686880  0.855567  1
  O  O49  1  0.131604  0.934197  0.302593  1
  O  O50  1  0.368396  0.697407  0.065803  1
  O  O51  1  0.458746  0.144433  0.313120  1
  O  O52  1  0.331314  0.396820  0.313120  1
  O  O53  1  0.131604  0.934197  0.065803  1
  O  O54  1  0.168686  0.144433  0.728133  1
  O  O55  1  0.041254  0.271866  0.603180  1
  O  O56  1  0.083701  0.603180  0.144433  1
  O  O57  1  0.083701  0.313120  0.271866  1
