# generated using pymatgen
data_Li2SiNiO4
_symmetry_space_group_name_H-M   'P 1'
_cell_length_a   5.03115325
_cell_length_b   5.02765207
_cell_length_c   11.49567261
_cell_angle_alpha   90.28091680
_cell_angle_beta   89.73113300
_cell_angle_gamma   120.16253130
_symmetry_Int_Tables_number   1
_chemical_formula_structural   Li2SiNiO4
_chemical_formula_sum   'Li6 Si3 Ni3 O12'
_cell_volume   251.40708295
_cell_formula_units_Z   3
loop_
 _symmetry_equiv_pos_site_id
 _symmetry_equiv_pos_as_xyz
  1  'x, y, z'
loop_
 _atom_site_type_symbol
 _atom_site_label
 _atom_site_symmetry_multiplicity
 _atom_site_fract_x
 _atom_site_fract_y
 _atom_site_fract_z
 _atom_site_occupancy
  Li  Li0  1  0.328962  0.888994  0.584304  1
  Li  Li1  1  0.111296  0.441120  0.919189  1
  Li  Li2  1  0.558720  0.670136  0.251312  1
  Li  Li3  1  0.451940  0.112773  0.080458  1
  Li  Li4  1  0.660579  0.546941  0.748874  1
  Li  Li5  1  0.886927  0.338561  0.415349  1
  Si  Si6  1  0.997026  0.188101  0.667019  1
  Si  Si7  1  0.190763  0.003238  0.333655  1
  Si  Si8  1  0.814312  0.810648  0.000293  1
  Ni  Ni9  1  0.008247  0.457195  0.165565  1
  Ni  Ni10  1  0.539840  0.551519  0.497513  1
  Ni  Ni11  1  0.447324  0.982986  0.827844  1
  O  O12  1  0.151418  0.858538  0.958272  1
  O  O13  1  0.117694  0.435916  0.559104  1
  O  O14  1  0.318291  0.880990  0.225039  1
  O  O15  1  0.147264  0.295822  0.293871  1
  O  O16  1  0.284656  0.140434  0.706883  1
  O  O17  1  0.701692  0.850604  0.627951  1
  O  O18  1  0.563490  0.682433  0.892722  1
  O  O19  1  0.690612  0.562670  0.108932  1
  O  O20  1  0.438424  0.126455  0.442614  1
  O  O21  1  0.855303  0.714568  0.374385  1
  O  O22  1  0.861391  0.145648  0.042038  1
  O  O23  1  0.873829  0.313708  0.776776  1
