# generated using pymatgen
data_Na6Al4Fe(Si4O13)2
_symmetry_space_group_name_H-M   'P 1'
_cell_length_a   8.11594394
_cell_length_b   8.60455674
_cell_length_c   10.55704387
_cell_angle_alpha   111.00824282
_cell_angle_beta   89.99910882
_cell_angle_gamma   118.09106042
_symmetry_Int_Tables_number   1
_chemical_formula_structural   Na6Al4Fe(Si4O13)2
_chemical_formula_sum   'Na6 Al4 Fe1 Si8 O26'
_cell_volume   594.27295139
_cell_formula_units_Z   1
loop_
 _symmetry_equiv_pos_site_id
 _symmetry_equiv_pos_as_xyz
  1  'x, y, z'
loop_
 _atom_site_type_symbol
 _atom_site_label
 _atom_site_symmetry_multiplicity
 _atom_site_fract_x
 _atom_site_fract_y
 _atom_site_fract_z
 _atom_site_occupancy
  Na  Na0  1  0.156909  0.317101  0.890156  1
  Na  Na1  1  0.275807  0.540183  0.558527  1
  Na  Na2  1  0.477125  0.937539  0.169485  1
  Na  Na3  1  0.535976  0.062350  0.830559  1
  Na  Na4  1  0.735606  0.459692  0.441593  1
  Na  Na5  1  0.838959  0.682696  0.109433  1
  Al  Al6  1  0.159597  0.711153  0.346173  1
  Al  Al7  1  0.447793  0.289062  0.653056  1
  Al  Al8  1  0.747818  0.879555  0.657673  1
  Al  Al9  1  0.868565  0.120581  0.343862  1
  Fe  Fe10  1  0.990495  0.999828  0.999499  1
  Si  Si11  1  0.135578  0.876338  0.657098  1
  Si  Si12  1  0.152697  0.700475  0.870457  1
  Si  Si13  1  0.259054  0.123222  0.341408  1
  Si  Si14  1  0.536512  0.698705  0.873199  1
  Si  Si15  1  0.553137  0.706368  0.347902  1
  Si  Si16  1  0.453653  0.299215  0.127746  1
  Si  Si17  1  0.840055  0.302098  0.128738  1
  Si  Si18  1  0.845949  0.293312  0.653097  1
  O  O19  1  0.070565  0.802921  0.988352  1
  O  O20  1  0.059373  0.718028  0.495963  1
  O  O21  1  0.015524  0.463015  0.793119  1
  O  O22  1  0.257319  0.926389  0.322130  1
  O  O23  1  0.199870  0.780641  0.745513  1
  O  O24  1  0.051702  0.081501  0.280182  1
  O  O25  1  0.335444  0.651711  0.365328  1
  O  O26  1  0.359995  0.736431  0.936976  1
  O  O27  1  0.273154  0.197464  0.007311  1
  O  O28  1  0.342178  0.281986  0.502495  1
  O  O29  1  0.575817  0.780195  0.750022  1
  O  O30  1  0.438736  0.463399  0.799797  1
  O  O31  1  0.663357  0.903848  0.323184  1
  O  O32  1  0.330128  0.072833  0.675918  1
  O  O33  1  0.554148  0.536998  0.207960  1
  O  O34  1  0.417542  0.217064  0.251810  1
  O  O35  1  0.660123  0.712365  0.482482  1
  O  O36  1  0.711976  0.807744  0.001432  1
  O  O37  1  0.626939  0.263914  0.063277  1
  O  O38  1  0.683130  0.347915  0.634696  1
  O  O39  1  0.970537  0.918437  0.719786  1
  O  O40  1  0.797138  0.222496  0.252808  1
  O  O41  1  0.759249  0.096554  0.678827  1
  O  O42  1  0.977086  0.537077  0.199264  1
  O  O43  1  0.948290  0.287077  0.519135  1
  O  O44  1  0.909394  0.192525  0.002572  1
