# generated using pymatgen
data_MnSb3(PO4)4
_symmetry_space_group_name_H-M   'P 1'
_cell_length_a   4.99013430
_cell_length_b   10.29671101
_cell_length_c   6.70251396
_cell_angle_alpha   90.00000000
_cell_angle_beta   90.00000000
_cell_angle_gamma   91.30730880
_symmetry_Int_Tables_number   1
_chemical_formula_structural   MnSb3(PO4)4
_chemical_formula_sum   'Mn1 Sb3 P4 O16'
_cell_volume   344.29873503
_cell_formula_units_Z   1
loop_
 _symmetry_equiv_pos_site_id
 _symmetry_equiv_pos_as_xyz
  1  'x, y, z'
loop_
 _atom_site_type_symbol
 _atom_site_label
 _atom_site_symmetry_multiplicity
 _atom_site_fract_x
 _atom_site_fract_y
 _atom_site_fract_z
 _atom_site_occupancy
  Mn  Mn0  1  0.930559  0.279512  0.250000  1
  Sb  Sb1  1  0.061051  0.718165  0.750000  1
  Sb  Sb2  1  0.444264  0.213679  0.750000  1
  Sb  Sb3  1  0.545026  0.783837  0.250000  1
  P  P4  1  0.100774  0.590513  0.250000  1
  P  P5  1  0.383630  0.104226  0.250000  1
  P  P6  1  0.633845  0.909447  0.750000  1
  P  P7  1  0.884612  0.395769  0.750000  1
  O  O8  1  0.161290  0.447120  0.250000  1
  O  O9  1  0.247262  0.667508  0.072072  1
  O  O10  1  0.247262  0.667508  0.427928  1
  O  O11  1  0.192910  0.384123  0.750000  1
  O  O12  1  0.328188  0.901346  0.750000  1
  O  O13  1  0.253495  0.177668  0.067159  1
  O  O14  1  0.253495  0.177668  0.432841  1
  O  O15  1  0.293132  0.959232  0.250000  1
  O  O16  1  0.730365  0.052864  0.750000  1
  O  O17  1  0.762499  0.830284  0.571619  1
  O  O18  1  0.762499  0.830284  0.928381  1
  O  O19  1  0.687306  0.118750  0.250000  1
  O  O20  1  0.797577  0.611314  0.250000  1
  O  O21  1  0.744923  0.319995  0.570501  1
  O  O22  1  0.744923  0.319995  0.929499  1
  O  O23  1  0.809113  0.539197  0.750000  1
