# generated using pymatgen
data_BaCa2I6
_symmetry_space_group_name_H-M   'P 1'
_cell_length_a   7.68349759
_cell_length_b   13.13591991
_cell_length_c   8.73252292
_cell_angle_alpha   93.73704344
_cell_angle_beta   90.00000000
_cell_angle_gamma   72.99462703
_symmetry_Int_Tables_number   1
_chemical_formula_structural   BaCa2I6
_chemical_formula_sum   'Ba2 Ca4 I12'
_cell_volume   840.87598950
_cell_formula_units_Z   2
loop_
 _symmetry_equiv_pos_site_id
 _symmetry_equiv_pos_as_xyz
  1  'x, y, z'
loop_
 _atom_site_type_symbol
 _atom_site_label
 _atom_site_symmetry_multiplicity
 _atom_site_fract_x
 _atom_site_fract_y
 _atom_site_fract_z
 _atom_site_occupancy
  Ba  Ba0  1  0.749394  0.000000  0.750000  1
  Ba  Ba1  1  0.250606  0.000000  0.250000  1
  Ca  Ca2  1  0.403413  0.653229  0.870539  1
  Ca  Ca3  1  0.943358  0.653229  0.370539  1
  Ca  Ca4  1  0.056642  0.346771  0.629461  1
  Ca  Ca5  1  0.596587  0.346771  0.129461  1
  I  I6  1  0.493687  0.863506  0.918984  1
  I  I7  1  0.642807  0.863506  0.418984  1
  I  I8  1  0.134295  0.774759  0.617559  1
  I  I9  1  0.090946  0.774759  0.117559  1
  I  I10  1  0.759364  0.565465  0.643223  1
  I  I11  1  0.675170  0.565465  0.143223  1
  I  I12  1  0.324830  0.434534  0.856777  1
  I  I13  1  0.240636  0.434534  0.356777  1
  I  I14  1  0.909054  0.225242  0.882441  1
  I  I15  1  0.865705  0.225242  0.382441  1
  I  I16  1  0.357193  0.136494  0.581016  1
  I  I17  1  0.506313  0.136494  0.081016  1
