# generated using pymatgen
data_Li5Mn6(BO3)6
_symmetry_space_group_name_H-M   'P 1'
_cell_length_a   5.94256933
_cell_length_b   8.29135316
_cell_length_c   9.06754331
_cell_angle_alpha   67.80994095
_cell_angle_beta   102.75710549
_cell_angle_gamma   77.54145150
_symmetry_Int_Tables_number   1
_chemical_formula_structural   Li5Mn6(BO3)6
_chemical_formula_sum   'Li5 Mn6 B6 O18'
_cell_volume   380.69683301
_cell_formula_units_Z   1
loop_
 _symmetry_equiv_pos_site_id
 _symmetry_equiv_pos_as_xyz
  1  'x, y, z'
loop_
 _atom_site_type_symbol
 _atom_site_label
 _atom_site_symmetry_multiplicity
 _atom_site_fract_x
 _atom_site_fract_y
 _atom_site_fract_z
 _atom_site_occupancy
  Li  Li0  1  0.929710  0.388981  0.772709  1
  Li  Li1  1  0.592257  0.728321  0.107457  1
  Li  Li2  1  0.405752  0.273085  0.896554  1
  Li  Li3  1  0.078260  0.613090  0.228699  1
  Li  Li4  1  0.283422  0.058250  0.437133  1
  Mn  Mn5  1  0.781107  0.977940  0.229837  1
  Mn  Mn6  1  0.877914  0.369311  0.110126  1
  Mn  Mn7  1  0.558640  0.688619  0.461424  1
  Mn  Mn8  1  0.473854  0.288285  0.552742  1
  Mn  Mn9  1  0.104267  0.651470  0.866030  1
  Mn  Mn10  1  0.210350  0.030808  0.784210  1
  B  B11  1  0.900118  0.369516  0.447973  1
  B  B12  1  0.777462  0.964175  0.894593  1
  B  B13  1  0.548839  0.704364  0.777457  1
  B  B14  1  0.434351  0.308925  0.206325  1
  B  B15  1  0.219311  0.036424  0.120616  1
  B  B16  1  0.115473  0.616094  0.550987  1
  O  O17  1  0.842508  0.856835  0.066599  1
  O  O18  1  0.881258  0.747780  0.458696  1
  O  O19  1  0.920694  0.923377  0.803943  1
  O  O20  1  0.821959  0.482162  0.277461  1
  O  O21  1  0.762825  0.407575  0.547042  1
  O  O22  1  0.768884  0.557743  0.852325  1
  O  O23  1  0.431394  0.882485  0.203096  1
  O  O24  1  0.571028  0.262223  0.110910  1
  O  O25  1  0.450788  0.806687  0.604590  1
  O  O26  1  0.510406  0.197895  0.375672  1
  O  O27  1  0.426437  0.747687  0.879839  1
  O  O28  1  0.558225  0.113463  0.807737  1
  O  O29  1  0.219313  0.460820  0.123788  1
  O  O30  1  0.267784  0.583803  0.457814  1
  O  O31  1  0.185034  0.512298  0.721281  1
  O  O32  1  0.085612  0.083274  0.216635  1
  O  O33  1  0.120399  0.223715  0.530683  1
  O  O34  1  0.149427  0.148944  0.949437  1
