# generated using pymatgen
data_Li2VFeP2(O4F)2
_symmetry_space_group_name_H-M   'P 1'
_cell_length_a   5.22473310
_cell_length_b   15.01772282
_cell_length_c   7.41181341
_cell_angle_alpha   94.18560339
_cell_angle_beta   71.28341040
_cell_angle_gamma   87.56231297
_symmetry_Int_Tables_number   1
_chemical_formula_structural   Li2VFeP2(O4F)2
_chemical_formula_sum   'Li6 V3 Fe3 P6 O24 F6'
_cell_volume   547.99348504
_cell_formula_units_Z   3
loop_
 _symmetry_equiv_pos_site_id
 _symmetry_equiv_pos_as_xyz
  1  'x, y, z'
loop_
 _atom_site_type_symbol
 _atom_site_label
 _atom_site_symmetry_multiplicity
 _atom_site_fract_x
 _atom_site_fract_y
 _atom_site_fract_z
 _atom_site_occupancy
  Li  Li0  1  0.064293  0.204782  0.016538  1
  Li  Li1  1  0.268927  0.461548  0.649220  1
  Li  Li2  1  0.603121  0.128195  0.315738  1
  Li  Li3  1  0.396879  0.871805  0.684262  1
  Li  Li4  1  0.731073  0.538452  0.350780  1
  Li  Li5  1  0.935707  0.795218  0.983462  1
  V  V6  1  0.000000  0.000000  0.500000  1
  V  V7  1  0.333497  0.666688  0.666755  1
  V  V8  1  0.666503  0.333312  0.333245  1
  Fe  Fe9  1  0.000000  0.000000  0.000000  1
  Fe  Fe10  1  0.333133  0.666651  0.166807  1
  Fe  Fe11  1  0.666867  0.333349  0.833193  1
  P  P12  1  0.108960  0.213733  0.451728  1
  P  P13  1  0.224247  0.453212  0.214894  1
  P  P14  1  0.442809  0.880035  0.117399  1
  P  P15  1  0.557191  0.119965  0.882601  1
  P  P16  1  0.775753  0.546788  0.785106  1
  P  P17  1  0.891040  0.786267  0.548272  1
  O  O18  1  0.012400  0.737342  0.347722  1
  O  O19  1  0.138688  0.553268  0.210803  1
  O  O20  1  0.238430  0.887958  0.001782  1
  O  O21  1  0.345960  0.403994  0.014237  1
  O  O22  1  0.194513  0.113857  0.457597  1
  O  O23  1  0.047752  0.583963  0.670266  1
  O  O24  1  0.092411  0.778535  0.665672  1
  O  O25  1  0.381461  0.250344  0.336670  1
  O  O26  1  0.322780  0.928802  0.318264  1
  O  O27  1  0.425599  0.445178  0.332197  1
  O  O28  1  0.527793  0.780354  0.123192  1
  O  O29  1  0.285957  0.081546  0.996358  1
  O  O30  1  0.714043  0.918454  0.003642  1
  O  O31  1  0.472207  0.219646  0.876808  1
  O  O32  1  0.574401  0.554821  0.667803  1
  O  O33  1  0.677220  0.071198  0.681736  1
  O  O34  1  0.618539  0.749656  0.663330  1
  O  O35  1  0.907589  0.221465  0.334328  1
  O  O36  1  0.952248  0.416037  0.329734  1
  O  O37  1  0.805487  0.886143  0.542403  1
  O  O38  1  0.654040  0.596006  0.985763  1
  O  O39  1  0.761570  0.112042  0.998218  1
  O  O40  1  0.861312  0.446732  0.789197  1
  O  O41  1  0.987600  0.262658  0.652278  1
  F  F42  1  0.153708  0.975794  0.714070  1
  F  F43  1  0.179291  0.690732  0.955180  1
  F  F44  1  0.487170  0.642478  0.378275  1
  F  F45  1  0.512830  0.357522  0.621725  1
  F  F46  1  0.820709  0.309268  0.044820  1
  F  F47  1  0.846292  0.024206  0.285930  1
