# generated using pymatgen
data_Ti5O9
_symmetry_space_group_name_H-M   'P 1'
_cell_length_a   5.61887051
_cell_length_b   7.18162844
_cell_length_c   8.55893720
_cell_angle_alpha   69.50607422
_cell_angle_beta   75.22657562
_cell_angle_gamma   71.31225121
_symmetry_Int_Tables_number   1
_chemical_formula_structural   Ti5O9
_chemical_formula_sum   'Ti10 O18'
_cell_volume   302.46477645
_cell_formula_units_Z   2
loop_
 _symmetry_equiv_pos_site_id
 _symmetry_equiv_pos_as_xyz
  1  'x, y, z'
loop_
 _atom_site_type_symbol
 _atom_site_label
 _atom_site_symmetry_multiplicity
 _atom_site_fract_x
 _atom_site_fract_y
 _atom_site_fract_z
 _atom_site_occupancy
  Ti  Ti0  1  0.889370  0.662735  0.532213  1
  Ti  Ti1  1  0.517162  0.992824  0.313730  1
  Ti  Ti2  1  0.170356  0.831644  0.111175  1
  Ti  Ti3  1  0.451983  0.005236  0.687925  1
  Ti  Ti4  1  0.824918  0.174730  0.902593  1
  Ti  Ti5  1  0.893288  0.160506  0.533045  1
  Ti  Ti6  1  0.173432  0.332140  0.106824  1
  Ti  Ti7  1  0.825092  0.673424  0.905839  1
  Ti  Ti8  1  0.517864  0.489824  0.315348  1
  Ti  Ti9  1  0.448800  0.509655  0.683330  1
  O  O10  1  0.254033  0.028403  0.191620  1
  O  O11  1  0.192197  0.021541  0.871334  1
  O  O12  1  0.755934  0.966044  0.476264  1
  O  O13  1  0.580156  0.682904  0.432502  1
  O  O14  1  0.240825  0.032153  0.529592  1
  O  O15  1  0.149743  0.641157  0.349550  1
  O  O16  1  0.431779  0.294993  0.246322  1
  O  O17  1  0.585388  0.701680  0.742901  1
  O  O18  1  0.797253  0.982406  0.130555  1
  O  O19  1  0.543504  0.684576  0.087963  1
  O  O20  1  0.101533  0.639548  0.688463  1
  O  O21  1  0.858979  0.366068  0.650599  1
  O  O22  1  0.455213  0.321862  0.905419  1
  O  O23  1  0.484299  0.301331  0.567883  1
  O  O24  1  0.760738  0.984671  0.786377  1
  O  O25  1  0.887166  0.344071  0.311763  1
  O  O26  1  0.912246  0.371736  0.969158  1
  O  O27  1  0.086748  0.636139  0.029713  1
