# generated using pymatgen
data_V3P2H12C3N2O15
_symmetry_space_group_name_H-M   'P 1'
_cell_length_a   10.66764910
_cell_length_b   16.90546001
_cell_length_c   8.49655582
_cell_angle_alpha   90.00000000
_cell_angle_beta   90.00000000
_cell_angle_gamma   90.00000000
_symmetry_Int_Tables_number   1
_chemical_formula_structural   V3P2H12C3N2O15
_chemical_formula_sum   'V12 P8 H48 C12 N8 O60'
_cell_volume   1532.28175108
_cell_formula_units_Z   4
loop_
 _symmetry_equiv_pos_site_id
 _symmetry_equiv_pos_as_xyz
  1  'x, y, z'
loop_
 _atom_site_type_symbol
 _atom_site_label
 _atom_site_symmetry_multiplicity
 _atom_site_fract_x
 _atom_site_fract_y
 _atom_site_fract_z
 _atom_site_occupancy
  V  V0  1  0.721940  0.250000  0.320342  1
  V  V1  1  0.221940  0.250000  0.179658  1
  V  V2  1  0.278060  0.750000  0.679658  1
  V  V3  1  0.778060  0.750000  0.820342  1
  V  V4  1  0.645514  0.568791  0.712774  1
  V  V5  1  0.145514  0.931209  0.787226  1
  V  V6  1  0.354486  0.068791  0.287226  1
  V  V7  1  0.854486  0.431209  0.212774  1
  V  V8  1  0.354486  0.431209  0.287226  1
  V  V9  1  0.854486  0.068791  0.212774  1
  V  V10  1  0.645514  0.931209  0.712774  1
  V  V11  1  0.145514  0.568791  0.787226  1
  P  P12  1  0.630223  0.413680  0.466640  1
  P  P13  1  0.130223  0.086320  0.033360  1
  P  P14  1  0.369777  0.913680  0.533360  1
  P  P15  1  0.869777  0.586320  0.966640  1
  P  P16  1  0.369777  0.586320  0.533360  1
  P  P17  1  0.869777  0.913680  0.966640  1
  P  P18  1  0.630223  0.086320  0.466640  1
  P  P19  1  0.130223  0.413680  0.033360  1
  H  H20  1  0.297470  0.250000  0.789343  1
  H  H21  1  0.797470  0.250000  0.710657  1
  H  H22  1  0.702530  0.750000  0.210657  1
  H  H23  1  0.202530  0.750000  0.289343  1
  H  H24  1  0.910191  0.250000  0.863735  1
  H  H25  1  0.410191  0.250000  0.636265  1
  H  H26  1  0.089809  0.750000  0.136265  1
  H  H27  1  0.589809  0.750000  0.363735  1
  H  H28  1  0.952538  0.176829  0.533565  1
  H  H29  1  0.452538  0.323171  0.966435  1
  H  H30  1  0.047462  0.676829  0.466435  1
  H  H31  1  0.547462  0.823171  0.033565  1
  H  H32  1  0.047462  0.823171  0.466435  1
  H  H33  1  0.547462  0.676829  0.033565  1
  H  H34  1  0.952538  0.323171  0.533565  1
  H  H35  1  0.452538  0.176829  0.966435  1
  H  H36  1  0.061530  0.175406  0.689951  1
  H  H37  1  0.561530  0.324594  0.810049  1
  H  H38  1  0.938470  0.675406  0.310049  1
  H  H39  1  0.438470  0.824594  0.189951  1
  H  H40  1  0.938470  0.824594  0.310049  1
  H  H41  1  0.438470  0.675406  0.189951  1
  H  H42  1  0.061530  0.324594  0.689951  1
  H  H43  1  0.561530  0.175406  0.810049  1
  H  H44  1  0.912745  0.098660  0.843790  1
  H  H45  1  0.412745  0.401340  0.656210  1
  H  H46  1  0.087255  0.598660  0.156210  1
  H  H47  1  0.587255  0.901340  0.343790  1
  H  H48  1  0.087255  0.901340  0.156210  1
  H  H49  1  0.587255  0.598660  0.343790  1
  H  H50  1  0.912745  0.401340  0.843790  1
  H  H51  1  0.412745  0.098660  0.656210  1
  H  H52  1  0.954868  0.053074  0.677884  1
  H  H53  1  0.454868  0.446926  0.822116  1
  H  H54  1  0.045132  0.553074  0.322116  1
  H  H55  1  0.545132  0.946926  0.177884  1
  H  H56  1  0.045132  0.946926  0.322116  1
  H  H57  1  0.545132  0.553074  0.177884  1
  H  H58  1  0.954868  0.446926  0.677884  1
  H  H59  1  0.454868  0.053074  0.822116  1
  H  H60  1  0.812774  0.093758  0.691549  1
  H  H61  1  0.312774  0.406242  0.808451  1
  H  H62  1  0.187226  0.593758  0.308451  1
  H  H63  1  0.687226  0.906242  0.191549  1
  H  H64  1  0.187226  0.906242  0.308451  1
  H  H65  1  0.687226  0.593758  0.191549  1
  H  H66  1  0.812774  0.406242  0.691549  1
  H  H67  1  0.312774  0.093758  0.808451  1
  C  C68  1  0.398982  0.250000  0.765295  1
  C  C69  1  0.898982  0.250000  0.734705  1
  C  C70  1  0.601018  0.750000  0.234705  1
  C  C71  1  0.101018  0.750000  0.265295  1
  C  C72  1  0.461032  0.177188  0.837601  1
  C  C73  1  0.961032  0.322812  0.662399  1
  C  C74  1  0.538968  0.677188  0.162399  1
  C  C75  1  0.038968  0.822812  0.337601  1
  C  C76  1  0.538968  0.822812  0.162399  1
  C  C77  1  0.038968  0.677188  0.337601  1
  C  C78  1  0.461032  0.322812  0.837601  1
  C  C79  1  0.961032  0.177188  0.662399  1
  N  N80  1  0.906353  0.101960  0.722008  1
  N  N81  1  0.406353  0.398040  0.777992  1
  N  N82  1  0.093647  0.601960  0.277992  1
  N  N83  1  0.593647  0.898040  0.222008  1
  N  N84  1  0.093647  0.898040  0.277992  1
  N  N85  1  0.593647  0.601960  0.222008  1
  N  N86  1  0.906353  0.398040  0.722008  1
  N  N87  1  0.406353  0.101960  0.777992  1
  O  O88  1  0.484979  0.414403  0.448676  1
  O  O89  1  0.984979  0.085598  0.051324  1
  O  O90  1  0.515021  0.914403  0.551324  1
  O  O91  1  0.015021  0.585597  0.948676  1
  O  O92  1  0.515021  0.585597  0.551324  1
  O  O93  1  0.015021  0.914403  0.948676  1
  O  O94  1  0.484979  0.085598  0.448676  1
  O  O95  1  0.984979  0.414403  0.051324  1
  O  O96  1  0.665027  0.454984  0.623432  1
  O  O97  1  0.165027  0.045016  0.876568  1
  O  O98  1  0.334973  0.954984  0.376568  1
  O  O99  1  0.834973  0.545016  0.123432  1
  O  O100  1  0.334973  0.545016  0.376568  1
  O  O101  1  0.834973  0.954984  0.123432  1
  O  O102  1  0.665027  0.045016  0.623432  1
  O  O103  1  0.165027  0.454984  0.876568  1
  O  O104  1  0.694469  0.453830  0.324552  1
  O  O105  1  0.194469  0.046170  0.175448  1
  O  O106  1  0.305531  0.953830  0.675448  1
  O  O107  1  0.805531  0.546170  0.824552  1
  O  O108  1  0.305531  0.546170  0.675448  1
  O  O109  1  0.805531  0.953830  0.824552  1
  O  O110  1  0.694469  0.046170  0.324552  1
  O  O111  1  0.194469  0.453830  0.175448  1
  O  O112  1  0.673479  0.326170  0.483256  1
  O  O113  1  0.173479  0.173830  0.016744  1
  O  O114  1  0.326521  0.826170  0.516744  1
  O  O115  1  0.826521  0.673830  0.983256  1
  O  O116  1  0.326521  0.673830  0.516744  1
  O  O117  1  0.826521  0.826170  0.983256  1
  O  O118  1  0.673479  0.173830  0.483256  1
  O  O119  1  0.173479  0.326170  0.016744  1
  O  O120  1  0.831701  0.171903  0.254299  1
  O  O121  1  0.331701  0.328097  0.245701  1
  O  O122  1  0.168299  0.671903  0.745701  1
  O  O123  1  0.668299  0.828097  0.754299  1
  O  O124  1  0.168299  0.828097  0.745701  1
  O  O125  1  0.668299  0.671903  0.754299  1
  O  O126  1  0.831701  0.328097  0.254299  1
  O  O127  1  0.331701  0.171903  0.245701  1
  O  O128  1  0.610213  0.250000  0.194247  1
  O  O129  1  0.110213  0.250000  0.305753  1
  O  O130  1  0.389787  0.750000  0.805753  1
  O  O131  1  0.889787  0.750000  0.694247  1
  O  O132  1  0.951183  0.038914  0.351645  1
  O  O133  1  0.451183  0.461086  0.148355  1
  O  O134  1  0.048817  0.538914  0.648355  1
  O  O135  1  0.548817  0.961086  0.851645  1
  O  O136  1  0.048817  0.961086  0.648355  1
  O  O137  1  0.548817  0.538914  0.851645  1
  O  O138  1  0.951183  0.461086  0.351645  1
  O  O139  1  0.451183  0.038914  0.148355  1
  O  O140  1  0.736185  0.092536  0.025777  1
  O  O141  1  0.236185  0.407464  0.474223  1
  O  O142  1  0.263815  0.592536  0.974223  1
  O  O143  1  0.763815  0.907464  0.525777  1
  O  O144  1  0.263815  0.907464  0.974223  1
  O  O145  1  0.763815  0.592536  0.525777  1
  O  O146  1  0.736185  0.407464  0.025777  1
  O  O147  1  0.236185  0.092536  0.474223  1
