# generated using pymatgen
data_BaNa3PCO7
_symmetry_space_group_name_H-M   'P 1'
_cell_length_a   9.42374992
_cell_length_b   5.48013496
_cell_length_c   7.30570087
_cell_angle_alpha   90.00000000
_cell_angle_beta   90.00000000
_cell_angle_gamma   90.00995724
_symmetry_Int_Tables_number   1
_chemical_formula_structural   BaNa3PCO7
_chemical_formula_sum   'Ba2 Na6 P2 C2 O14'
_cell_volume   377.29138339
_cell_formula_units_Z   2
loop_
 _symmetry_equiv_pos_site_id
 _symmetry_equiv_pos_as_xyz
  1  'x, y, z'
loop_
 _atom_site_type_symbol
 _atom_site_label
 _atom_site_symmetry_multiplicity
 _atom_site_fract_x
 _atom_site_fract_y
 _atom_site_fract_z
 _atom_site_occupancy
  Ba  Ba0  1  0.319483  0.986842  0.765949  1
  Ba  Ba1  1  0.680517  0.013158  0.265949  1
  Na  Na2  1  0.016566  0.992511  0.481442  1
  Na  Na3  1  0.165803  0.499033  0.205342  1
  Na  Na4  1  0.481369  0.507694  0.481012  1
  Na  Na5  1  0.518631  0.492306  0.981012  1
  Na  Na6  1  0.834197  0.500967  0.705342  1
  Na  Na7  1  0.983434  0.007488  0.981442  1
  P  P8  1  0.319930  0.004338  0.233211  1
  P  P9  1  0.680070  0.995662  0.733211  1
  C  C10  1  0.137794  0.489432  0.745662  1
  C  C11  1  0.862206  0.510568  0.245662  1
  O  O12  1  0.065275  0.290382  0.722668  1
  O  O13  1  0.072915  0.696105  0.771539  1
  O  O14  1  0.201679  0.083387  0.097215  1
  O  O15  1  0.254121  0.914537  0.415981  1
  O  O16  1  0.277747  0.483102  0.743613  1
  O  O17  1  0.408734  0.789488  0.151141  1
  O  O18  1  0.419448  0.230048  0.259822  1
  O  O19  1  0.580552  0.769952  0.759822  1
  O  O20  1  0.591266  0.210512  0.651141  1
  O  O21  1  0.722253  0.516898  0.243613  1
  O  O22  1  0.745879  0.085463  0.915981  1
  O  O23  1  0.798321  0.916613  0.597215  1
  O  O24  1  0.927085  0.303895  0.271539  1
  O  O25  1  0.934725  0.709618  0.222668  1
