# generated using pymatgen
data_LiVCuO4
_symmetry_space_group_name_H-M   'P 1'
_cell_length_a   6.09523192
_cell_length_b   6.09525529
_cell_length_c   7.79678444
_cell_angle_alpha   90.00433109
_cell_angle_beta   90.00691849
_cell_angle_gamma   90.00879242
_symmetry_Int_Tables_number   1
_chemical_formula_structural   LiVCuO4
_chemical_formula_sum   'Li4 V4 Cu4 O16'
_cell_volume   289.66608715
_cell_formula_units_Z   4
loop_
 _symmetry_equiv_pos_site_id
 _symmetry_equiv_pos_as_xyz
  1  'x, y, z'
loop_
 _atom_site_type_symbol
 _atom_site_label
 _atom_site_symmetry_multiplicity
 _atom_site_fract_x
 _atom_site_fract_y
 _atom_site_fract_z
 _atom_site_occupancy
  Li  Li0  1  0.000028  0.236756  0.000065  1
  Li  Li1  1  -0.000109  0.763250  0.500009  1
  Li  Li2  1  0.236755  0.000112  0.250000  1
  Li  Li3  1  0.763246  0.999976  0.749926  1
  V  V4  1  0.216536  0.499892  0.249989  1
  V  V5  1  0.500109  0.216621  0.000129  1
  V  V6  1  0.500202  0.783418  0.499985  1
  V  V7  1  0.783337  0.499998  0.749893  1
  Cu  Cu8  1  0.259431  0.259449  0.625004  1
  Cu  Cu9  1  0.259402  0.740576  0.875017  1
  Cu  Cu10  1  0.740612  0.259377  0.374992  1
  Cu  Cu11  1  0.740567  0.740586  0.124994  1
  O  O12  1  0.033630  0.274919  0.267714  1
  O  O13  1  0.033430  0.725055  0.232189  1
  O  O14  1  0.274814  0.033342  0.982196  1
  O  O15  1  0.274854  0.966647  0.517813  1
  O  O16  1  0.269891  0.472665  0.010671  1
  O  O17  1  0.269881  0.527314  0.489306  1
  O  O18  1  0.472431  0.269886  0.239118  1
  O  O19  1  0.472672  0.730124  0.260714  1
  O  O20  1  0.527296  0.269873  0.760714  1
  O  O21  1  0.527309  0.730118  0.739323  1
  O  O22  1  0.730118  0.527542  0.510887  1
  O  O23  1  0.730133  0.472691  0.989264  1
  O  O24  1  0.725042  0.033410  0.017796  1
  O  O25  1  0.725061  0.966367  0.482293  1
  O  O26  1  0.966667  0.274870  0.732203  1
  O  O27  1  0.966655  0.725165  0.767797  1
