# generated using pymatgen
data_Li6V3P8O29
_symmetry_space_group_name_H-M   'P 1'
_cell_length_a   9.78729446
_cell_length_b   9.80118559
_cell_length_c   13.95027384
_cell_angle_alpha   90.22164438
_cell_angle_beta   90.53861547
_cell_angle_gamma   60.08505855
_symmetry_Int_Tables_number   1
_chemical_formula_structural   Li6V3P8O29
_chemical_formula_sum   'Li12 V6 P16 O58'
_cell_volume   1159.86340708
_cell_formula_units_Z   2
loop_
 _symmetry_equiv_pos_site_id
 _symmetry_equiv_pos_as_xyz
  1  'x, y, z'
loop_
 _atom_site_type_symbol
 _atom_site_label
 _atom_site_symmetry_multiplicity
 _atom_site_fract_x
 _atom_site_fract_y
 _atom_site_fract_z
 _atom_site_occupancy
  Li  Li0  1  0.762464  0.901794  0.554344  1
  Li  Li1  1  0.905553  0.332681  0.558265  1
  Li  Li2  1  0.679280  0.663949  0.889360  1
  Li  Li3  1  0.767544  0.328246  0.064562  1
  Li  Li4  1  0.327902  0.907242  0.064538  1
  Li  Li5  1  0.663245  0.235329  0.435661  1
  Li  Li6  1  0.331826  0.760461  0.558932  1
  Li  Li7  1  0.669966  0.096194  0.942375  1
  Li  Li8  1  0.233561  0.665473  0.947182  1
  Li  Li9  1  0.234348  0.100426  0.437127  1
  Li  Li10  1  0.999388  0.997652  0.011035  1
  Li  Li11  1  0.014348  0.949162  0.486925  1
  V  V12  1  0.563922  0.436824  0.251718  1
  V  V13  1  0.434380  0.562456  0.747776  1
  V  V14  1  0.563335  0.999038  0.750561  1
  V  V15  1  0.434596  0.002516  0.248542  1
  V  V16  1  0.999772  0.564262  0.248316  1
  V  V17  1  0.003801  0.437841  0.752460  1
  P  P18  1  0.915482  0.780402  0.844490  1
  P  P19  1  0.777237  0.912706  0.338497  1
  P  P20  1  0.915486  0.312636  0.344288  1
  P  P21  1  0.666572  0.664686  0.129597  1
  P  P22  1  0.665243  0.666753  0.629973  1
  P  P23  1  0.776799  0.316147  0.841379  1
  P  P24  1  0.687272  0.225608  0.656145  1
  P  P25  1  0.315021  0.906586  0.844631  1
  P  P26  1  0.686035  0.091190  0.155647  1
  P  P27  1  0.314222  0.777160  0.343613  1
  P  P28  1  0.222752  0.689219  0.160033  1
  P  P29  1  0.331272  0.332903  0.369094  1
  P  P30  1  0.337216  0.332688  0.870643  1
  P  P31  1  0.079068  0.695905  0.654535  1
  P  P32  1  0.224392  0.085798  0.659127  1
  P  P33  1  0.082188  0.221531  0.158409  1
  O  O34  1  0.989078  0.798813  0.570850  1
  O  O35  1  0.914263  0.746383  0.337883  1
  O  O36  1  0.775878  0.016650  0.065549  1
  O  O37  1  0.745376  0.922442  0.844568  1
  O  O38  1  0.900342  0.629353  0.833356  1
  O  O39  1  0.810141  0.668482  0.175385  1
  O  O40  1  0.911266  0.468698  0.332393  1
  O  O41  1  0.993285  0.197887  0.077362  1
  O  O42  1  0.918175  0.341732  0.840452  1
  O  O43  1  0.672112  0.813723  0.672988  1
  O  O44  1  0.617302  0.917495  0.326174  1
  O  O45  1  0.810642  0.515579  0.672641  1
  O  O46  1  0.668781  0.658591  0.021454  1
  O  O47  1  0.662757  0.671516  0.523156  1
  O  O48  1  0.674753  0.510592  0.168334  1
  O  O49  1  0.481055  0.890474  0.830014  1
  O  O50  1  0.512417  0.811340  0.165321  1
  O  O51  1  0.746394  0.335219  0.341376  1
  O  O52  1  0.794014  0.206363  0.749936  1
  O  O53  1  0.772259  0.228940  0.567050  1
  O  O54  1  0.768731  0.232815  0.930340  1
  O  O55  1  0.626013  0.480190  0.827054  1
  O  O56  1  0.510487  0.675215  0.669772  1
  O  O57  1  0.657730  0.262046  0.161822  1
  O  O58  1  0.469830  0.620843  0.332183  1
  O  O59  1  0.342309  0.919335  0.340231  1
  O  O60  1  0.795728  0.003952  0.247995  1
  O  O61  1  0.777450  0.001360  0.428782  1
  O  O62  1  0.226764  0.996393  0.569924  1
  O  O63  1  0.662511  0.082666  0.656631  1
  O  O64  1  0.530091  0.381044  0.669239  1
  O  O65  1  0.336579  0.738820  0.840117  1
  O  O66  1  0.486526  0.324192  0.330784  1
  O  O67  1  0.380020  0.534360  0.172545  1
  O  O68  1  0.223001  0.778663  0.070989  1
  O  O69  1  0.225263  0.788437  0.433482  1
  O  O70  1  0.204981  0.799319  0.251669  1
  O  O71  1  0.250012  0.664897  0.656833  1
  O  O72  1  0.487142  0.182111  0.829110  1
  O  O73  1  0.531240  0.090933  0.167171  1
  O  O74  1  0.333722  0.483327  0.828174  1
  O  O75  1  0.343873  0.334076  0.976955  1
  O  O76  1  0.332261  0.327656  0.476124  1
  O  O77  1  0.187969  0.477995  0.320529  1
  O  O78  1  0.379457  0.089002  0.671876  1
  O  O79  1  0.322958  0.186121  0.328731  1
  O  O80  1  0.083641  0.662315  0.161029  1
  O  O81  1  0.996375  0.798662  0.749460  1
  O  O82  1  0.009830  0.784363  0.928311  1
  O  O83  1  0.074261  0.542016  0.664815  1
  O  O84  1  0.189799  0.334999  0.823613  1
  O  O85  1  0.078216  0.378460  0.163654  1
  O  O86  1  0.255564  0.081473  0.160059  1
  O  O87  1  0.235944  0.985720  0.935800  1
  O  O88  1  0.206275  0.998576  0.752786  1
  O  O89  1  0.081176  0.253196  0.659140  1
  O  O90  1  0.999175  0.223659  0.435123  1
  O  O91  1  0.008573  0.197560  0.256864  1
