# generated using pymatgen
data_Li4V2OF7
_symmetry_space_group_name_H-M   'P 1'
_cell_length_a   5.97214762
_cell_length_b   6.05339950
_cell_length_c   6.21337246
_cell_angle_alpha   121.19086515
_cell_angle_beta   90.30591043
_cell_angle_gamma   60.62286074
_symmetry_Int_Tables_number   1
_chemical_formula_structural   Li4V2OF7
_chemical_formula_sum   'Li4 V2 O1 F7'
_cell_volume   157.85024802
_cell_formula_units_Z   1
loop_
 _symmetry_equiv_pos_site_id
 _symmetry_equiv_pos_as_xyz
  1  'x, y, z'
loop_
 _atom_site_type_symbol
 _atom_site_label
 _atom_site_symmetry_multiplicity
 _atom_site_fract_x
 _atom_site_fract_y
 _atom_site_fract_z
 _atom_site_occupancy
  Li  Li0  1  0.001506  0.996302  0.497854  1
  Li  Li1  1  0.511498  0.983089  0.491882  1
  Li  Li2  1  0.108496  0.252203  0.122801  1
  Li  Li3  1  0.875039  0.767021  0.886104  1
  V  V4  1  0.508709  0.501398  0.495102  1
  V  V5  1  0.515162  0.500745  0.011074  1
  O  O6  1  0.713731  0.503895  0.240413  1
  F  F7  1  0.733426  0.028080  0.746326  1
  F  F8  1  0.743895  0.009915  0.273035  1
  F  F9  1  0.279811  0.490281  0.753915  1
  F  F10  1  0.748186  0.489421  0.750655  1
  F  F11  1  0.254645  0.512779  0.252131  1
  F  F12  1  0.256911  0.972989  0.246176  1
  F  F13  1  0.248984  0.991882  0.732533  1
