# generated using pymatgen
data_LiSn(PO3)4
_symmetry_space_group_name_H-M   'P 1'
_cell_length_a   10.34686376
_cell_length_b   9.08742350
_cell_length_c   10.46595293
_cell_angle_alpha   90.00000000
_cell_angle_beta   104.52206911
_cell_angle_gamma   90.00000000
_symmetry_Int_Tables_number   1
_chemical_formula_structural   LiSn(PO3)4
_chemical_formula_sum   'Li4 Sn4 P16 O48'
_cell_volume   952.63508137
_cell_formula_units_Z   4
loop_
 _symmetry_equiv_pos_site_id
 _symmetry_equiv_pos_as_xyz
  1  'x, y, z'
loop_
 _atom_site_type_symbol
 _atom_site_label
 _atom_site_symmetry_multiplicity
 _atom_site_fract_x
 _atom_site_fract_y
 _atom_site_fract_z
 _atom_site_occupancy
  Li  Li0  1  0.318207  0.943606  0.994259  1
  Li  Li1  1  0.181793  0.443606  0.505741  1
  Li  Li2  1  0.818207  0.556394  0.494259  1
  Li  Li3  1  0.681793  0.056394  0.005741  1
  Sn  Sn4  1  0.996390  0.787564  0.309525  1
  Sn  Sn5  1  0.496390  0.712436  0.809525  1
  Sn  Sn6  1  0.503610  0.287564  0.190475  1
  Sn  Sn7  1  0.003610  0.212436  0.690475  1
  P  P8  1  0.180540  0.387200  0.982574  1
  P  P9  1  0.155205  0.596898  0.756360  1
  P  P10  1  0.041408  0.171319  0.355900  1
  P  P11  1  0.344795  0.096898  0.743640  1
  P  P12  1  0.319460  0.887200  0.517426  1
  P  P13  1  0.242354  0.010717  0.253309  1
  P  P14  1  0.257646  0.510717  0.246691  1
  P  P15  1  0.541407  0.328681  0.855900  1
  P  P16  1  0.458593  0.671319  0.144100  1
  P  P17  1  0.742354  0.489283  0.753309  1
  P  P18  1  0.757646  0.989283  0.746691  1
  P  P19  1  0.680540  0.112800  0.482574  1
  P  P20  1  0.655205  0.903102  0.256360  1
  P  P21  1  0.958593  0.828681  0.644100  1
  P  P22  1  0.844795  0.403102  0.243640  1
  P  P23  1  0.819460  0.612800  0.017426  1
  O  O24  1  0.066900  0.289592  0.915549  1
  O  O25  1  0.032852  0.710054  0.751457  1
  O  O26  1  0.037605  0.969699  0.662568  1
  O  O27  1  0.173351  0.541814  0.903936  1
  O  O28  1  0.112858  0.474116  0.658088  1
  O  O29  1  0.081637  0.245962  0.488930  1
  O  O30  1  0.225678  0.185403  0.756490  1
  O  O31  1  0.177692  0.831831  0.485913  1
  O  O32  1  0.274322  0.685403  0.743510  1
  O  O33  1  0.180056  0.561058  0.342282  1
  O  O34  1  0.134264  0.898383  0.199949  1
  O  O35  1  0.178185  0.151749  0.309163  1
  O  O36  1  0.150466  0.450287  0.117212  1
  O  O37  1  0.387142  0.974116  0.841912  1
  O  O38  1  0.326649  0.041814  0.596064  1
  O  O39  1  0.462395  0.469699  0.837432  1
  O  O40  1  0.349534  0.950287  0.382788  1
  O  O41  1  0.467148  0.210054  0.748543  1
  O  O42  1  0.433100  0.789592  0.584451  1
  O  O43  1  0.321815  0.651749  0.190837  1
  O  O44  1  0.581637  0.254038  0.988930  1
  O  O45  1  0.365736  0.398383  0.300051  1
  O  O46  1  0.319945  0.061058  0.157718  1
  O  O47  1  0.322308  0.331831  0.014087  1
  O  O48  1  0.677692  0.668169  0.985913  1
  O  O49  1  0.680056  0.938942  0.842282  1
  O  O50  1  0.634264  0.601617  0.699949  1
  O  O51  1  0.418363  0.745962  0.011070  1
  O  O52  1  0.678185  0.348251  0.809163  1
  O  O53  1  0.566900  0.210408  0.415549  1
  O  O54  1  0.532852  0.789946  0.251457  1
  O  O55  1  0.650466  0.049713  0.617212  1
  O  O56  1  0.537605  0.530301  0.162568  1
  O  O57  1  0.673351  0.958186  0.403936  1
  O  O58  1  0.612858  0.025884  0.158087  1
  O  O59  1  0.849534  0.549713  0.882788  1
  O  O60  1  0.821815  0.848251  0.690837  1
  O  O61  1  0.865736  0.101617  0.800051  1
  O  O62  1  0.819944  0.438942  0.657718  1
  O  O63  1  0.725678  0.314597  0.256490  1
  O  O64  1  0.822308  0.168169  0.514087  1
  O  O65  1  0.774322  0.814597  0.243510  1
  O  O66  1  0.918363  0.754038  0.511070  1
  O  O67  1  0.887142  0.525884  0.341913  1
  O  O68  1  0.826649  0.458186  0.096064  1
  O  O69  1  0.962395  0.030301  0.337432  1
  O  O70  1  0.967148  0.289946  0.248543  1
  O  O71  1  0.933100  0.710408  0.084451  1
