# generated using pymatgen
data_Li2TiSn3(PO4)6
_symmetry_space_group_name_H-M   'P 1'
_cell_length_a   8.86718495
_cell_length_b   8.86718557
_cell_length_c   8.86718561
_cell_angle_alpha   58.91085769
_cell_angle_beta   58.91086185
_cell_angle_gamma   58.91086366
_symmetry_Int_Tables_number   1
_chemical_formula_structural   Li2TiSn3(PO4)6
_chemical_formula_sum   'Li2 Ti1 Sn3 P6 O24'
_cell_volume   480.74062709
_cell_formula_units_Z   1
loop_
 _symmetry_equiv_pos_site_id
 _symmetry_equiv_pos_as_xyz
  1  'x, y, z'
loop_
 _atom_site_type_symbol
 _atom_site_label
 _atom_site_symmetry_multiplicity
 _atom_site_fract_x
 _atom_site_fract_y
 _atom_site_fract_z
 _atom_site_occupancy
  Li  Li0  1  0.996827  0.996827  0.996827  1
  Li  Li1  1  0.500263  0.500263  0.500263  1
  Ti  Ti2  1  0.855518  0.855518  0.855518  1
  Sn  Sn3  1  0.145137  0.145137  0.145137  1
  Sn  Sn4  1  0.356517  0.356517  0.356517  1
  Sn  Sn5  1  0.645215  0.645215  0.645215  1
  P  P6  1  0.043111  0.750587  0.459048  1
  P  P7  1  0.459048  0.043111  0.750587  1
  P  P8  1  0.750587  0.459048  0.043111  1
  P  P9  1  0.247881  0.547170  0.954616  1
  P  P10  1  0.547170  0.954616  0.247881  1
  P  P11  1  0.954616  0.247881  0.547170  1
  O  O12  1  0.119737  0.285141  0.520847  1
  O  O13  1  0.285141  0.520847  0.119737  1
  O  O14  1  0.064705  0.915285  0.270944  1
  O  O15  1  0.520847  0.119737  0.285141  1
  O  O16  1  0.229610  0.581544  0.449784  1
  O  O17  1  0.995209  0.801725  0.624399  1
  O  O18  1  0.270944  0.064705  0.915285  1
  O  O19  1  0.449784  0.229610  0.581544  1
  O  O20  1  0.581544  0.449784  0.229610  1
  O  O21  1  0.212562  0.380280  0.984421  1
  O  O22  1  0.078286  0.730822  0.930499  1
  O  O23  1  0.380280  0.984421  0.212562  1
  O  O24  1  0.624399  0.995209  0.801725  1
  O  O25  1  0.915285  0.270944  0.064705  1
  O  O26  1  0.801725  0.624399  0.995209  1
  O  O27  1  0.414077  0.568149  0.767386  1
  O  O28  1  0.568149  0.767386  0.414077  1
  O  O29  1  0.730822  0.930499  0.078286  1
  O  O30  1  0.984421  0.212562  0.380280  1
  O  O31  1  0.767386  0.414077  0.568149  1
  O  O32  1  0.482899  0.886418  0.703378  1
  O  O33  1  0.930499  0.078286  0.730822  1
  O  O34  1  0.703378  0.482899  0.886418  1
  O  O35  1  0.886418  0.703378  0.482899  1
