# generated using pymatgen
data_Li3FeB8O15
_symmetry_space_group_name_H-M   'P 1'
_cell_length_a   9.24305875
_cell_length_b   11.46482292
_cell_length_c   11.99451378
_cell_angle_alpha   90.00003918
_cell_angle_beta   89.09882827
_cell_angle_gamma   89.99997731
_symmetry_Int_Tables_number   1
_chemical_formula_structural   Li3FeB8O15
_chemical_formula_sum   'Li12 Fe4 B32 O60'
_cell_volume   1270.90179142
_cell_formula_units_Z   4
loop_
 _symmetry_equiv_pos_site_id
 _symmetry_equiv_pos_as_xyz
  1  'x, y, z'
loop_
 _atom_site_type_symbol
 _atom_site_label
 _atom_site_symmetry_multiplicity
 _atom_site_fract_x
 _atom_site_fract_y
 _atom_site_fract_z
 _atom_site_occupancy
  Li  Li0  1  0.073091  0.079653  0.577423  1
  Li  Li1  1  0.110910  0.659773  0.552279  1
  Li  Li2  1  0.073091  0.420347  0.077423  1
  Li  Li3  1  0.110910  0.840227  0.052279  1
  Li  Li4  1  0.482501  0.167208  0.717469  1
  Li  Li5  1  0.482501  0.332793  0.217469  1
  Li  Li6  1  0.517499  0.667207  0.782531  1
  Li  Li7  1  0.517499  0.832793  0.282531  1
  Li  Li8  1  0.889090  0.159773  0.947721  1
  Li  Li9  1  0.926909  0.579653  0.922577  1
  Li  Li10  1  0.889090  0.340227  0.447721  1
  Li  Li11  1  0.926909  0.920347  0.422577  1
  Fe  Fe12  1  0.245805  0.161473  0.969225  1
  Fe  Fe13  1  0.245806  0.338527  0.469225  1
  Fe  Fe14  1  0.754194  0.661473  0.530775  1
  Fe  Fe15  1  0.754195  0.838527  0.030775  1
  B  B16  1  0.101081  0.339409  0.876849  1
  B  B17  1  0.101081  0.160591  0.376849  1
  B  B18  1  0.135745  0.747242  0.787205  1
  B  B19  1  0.135745  0.752758  0.287205  1
  B  B20  1  0.175466  0.538577  0.816240  1
  B  B21  1  0.175467  0.961423  0.316240  1
  B  B22  1  0.194624  0.940852  0.856942  1
  B  B23  1  0.220461  0.368086  0.698413  1
  B  B24  1  0.194624  0.559148  0.356942  1
  B  B25  1  0.220461  0.131914  0.198413  1
  B  B26  1  0.277790  0.885087  0.670619  1
  B  B27  1  0.277790  0.614913  0.170620  1
  B  B28  1  0.346592  0.599430  0.971485  1
  B  B29  1  0.346591  0.900570  0.471485  1
  B  B30  1  0.502988  0.290831  0.901717  1
  B  B31  1  0.502989  0.209170  0.401717  1
  B  B32  1  0.497011  0.790830  0.598283  1
  B  B33  1  0.497012  0.709169  0.098283  1
  B  B34  1  0.653409  0.099430  0.528515  1
  B  B35  1  0.653408  0.400570  0.028515  1
  B  B36  1  0.722210  0.385087  0.829380  1
  B  B37  1  0.722210  0.114913  0.329381  1
  B  B38  1  0.779539  0.868086  0.801587  1
  B  B39  1  0.805376  0.440852  0.643058  1
  B  B40  1  0.779539  0.631914  0.301587  1
  B  B41  1  0.805376  0.059148  0.143058  1
  B  B42  1  0.824533  0.038577  0.683760  1
  B  B43  1  0.824534  0.461423  0.183760  1
  B  B44  1  0.864255  0.247242  0.712795  1
  B  B45  1  0.864255  0.252758  0.212795  1
  B  B46  1  0.898919  0.839409  0.623151  1
  B  B47  1  0.898919  0.660591  0.123151  1
  O  O48  1  0.094965  0.457784  0.894430  1
  O  O49  1  0.076350  0.264484  0.964514  1
  O  O50  1  0.078576  0.639520  0.809183  1
  O  O51  1  0.094965  0.042217  0.394430  1
  O  O52  1  0.076350  0.235516  0.464515  1
  O  O53  1  0.078576  0.860481  0.309183  1
  O  O54  1  0.155334  0.823378  0.876781  1
  O  O55  1  0.152400  0.294413  0.776722  1
  O  O56  1  0.155333  0.676622  0.376781  1
  O  O57  1  0.152399  0.205587  0.276723  1
  O  O58  1  0.175543  0.009790  0.947951  1
  O  O59  1  0.175543  0.490210  0.447951  1
  O  O60  1  0.175439  0.781148  0.681056  1
  O  O61  1  0.205534  0.486399  0.707573  1
  O  O62  1  0.175440  0.718851  0.181056  1
  O  O63  1  0.205534  0.013601  0.207574  1
  O  O64  1  0.298328  0.314205  0.616115  1
  O  O65  1  0.260717  0.936557  0.559407  1
  O  O66  1  0.298328  0.185795  0.116115  1
  O  O67  1  0.244263  0.974960  0.754152  1
  O  O68  1  0.260717  0.563443  0.059408  1
  O  O69  1  0.244263  0.525041  0.254153  1
  O  O70  1  0.320059  0.575603  0.861992  1
  O  O71  1  0.320058  0.924397  0.361992  1
  O  O72  1  0.408395  0.202436  0.880156  1
  O  O73  1  0.408395  0.297564  0.380155  1
  O  O74  1  0.422917  0.835965  0.688161  1
  O  O75  1  0.470531  0.667980  0.989973  1
  O  O76  1  0.422917  0.664036  0.188161  1
  O  O77  1  0.470529  0.832022  0.489971  1
  O  O78  1  0.529471  0.167978  0.510029  1
  O  O79  1  0.577083  0.335964  0.811839  1
  O  O80  1  0.529469  0.332020  0.010027  1
  O  O81  1  0.577083  0.164035  0.311839  1
  O  O82  1  0.591605  0.702436  0.619845  1
  O  O83  1  0.591605  0.797564  0.119844  1
  O  O84  1  0.679942  0.075603  0.638008  1
  O  O85  1  0.679941  0.424397  0.138008  1
  O  O86  1  0.755737  0.474959  0.745847  1
  O  O87  1  0.739283  0.436557  0.940592  1
  O  O88  1  0.755737  0.025040  0.245848  1
  O  O89  1  0.701672  0.814205  0.883885  1
  O  O90  1  0.739283  0.063443  0.440593  1
  O  O91  1  0.701672  0.685795  0.383885  1
  O  O92  1  0.794466  0.986399  0.792426  1
  O  O93  1  0.824560  0.281149  0.818944  1
  O  O94  1  0.794466  0.513601  0.292427  1
  O  O95  1  0.824561  0.218852  0.318944  1
  O  O96  1  0.824457  0.509790  0.552049  1
  O  O97  1  0.824457  0.990210  0.052049  1
  O  O98  1  0.847601  0.794413  0.723277  1
  O  O99  1  0.844667  0.323378  0.623220  1
  O  O100  1  0.847600  0.705587  0.223278  1
  O  O101  1  0.844666  0.176622  0.123219  1
  O  O102  1  0.921424  0.139519  0.690817  1
  O  O103  1  0.923650  0.764484  0.535485  1
  O  O104  1  0.905035  0.957783  0.605570  1
  O  O105  1  0.921424  0.360480  0.190817  1
  O  O106  1  0.923650  0.735516  0.035486  1
  O  O107  1  0.905035  0.542216  0.105570  1
