# generated using pymatgen
data_Li3Mn4(PO4)6
_symmetry_space_group_name_H-M   'P 1'
_cell_length_a   8.61139363
_cell_length_b   8.61139403
_cell_length_c   6.23925497
_cell_angle_alpha   74.98447564
_cell_angle_beta   105.01553011
_cell_angle_gamma   85.24762733
_symmetry_Int_Tables_number   1
_chemical_formula_structural   Li3Mn4(PO4)6
_chemical_formula_sum   'Li3 Mn4 P6 O24'
_cell_volume   426.00839775
_cell_formula_units_Z   1
loop_
 _symmetry_equiv_pos_site_id
 _symmetry_equiv_pos_as_xyz
  1  'x, y, z'
loop_
 _atom_site_type_symbol
 _atom_site_label
 _atom_site_symmetry_multiplicity
 _atom_site_fract_x
 _atom_site_fract_y
 _atom_site_fract_z
 _atom_site_occupancy
  Li  Li0  1  0.500172  0.499778  0.499111  1
  Li  Li1  1  0.499778  0.500172  0.000889  1
  Li  Li2  1  0.006712  0.006712  0.250000  1
  Mn  Mn3  1  0.057636  0.622202  0.634588  1
  Mn  Mn4  1  0.374871  0.941815  0.132566  1
  Mn  Mn5  1  0.622202  0.057636  0.865412  1
  Mn  Mn6  1  0.941815  0.374871  0.367434  1
  P  P7  1  0.276865  0.276865  0.750000  1
  P  P8  1  0.151432  0.658215  0.139972  1
  P  P9  1  0.342140  0.847054  0.636676  1
  P  P10  1  0.658215  0.151432  0.360028  1
  P  P11  1  0.847054  0.342140  0.863324  1
  P  P12  1  0.722230  0.722230  0.250000  1
  O  O13  1  0.028436  0.650066  0.913712  1
  O  O14  1  0.059631  0.595244  0.329447  1
  O  O15  1  0.255636  0.160118  0.972428  1
  O  O16  1  0.160118  0.255636  0.527572  1
  O  O17  1  0.157399  0.832518  0.592219  1
  O  O18  1  0.253527  0.453831  0.770798  1
  O  O19  1  0.164484  0.840740  0.119825  1
  O  O20  1  0.316067  0.557461  0.201381  1
  O  O21  1  0.453831  0.253527  0.729202  1
  O  O22  1  0.399640  0.938401  0.827863  1
  O  O23  1  0.350465  0.974916  0.413137  1
  O  O24  1  0.445836  0.683939  0.703300  1
  O  O25  1  0.557461  0.316067  0.298619  1
  O  O26  1  0.650066  0.028436  0.586288  1
  O  O27  1  0.595244  0.059631  0.170553  1
  O  O28  1  0.545621  0.745800  0.271021  1
  O  O29  1  0.683939  0.445836  0.796700  1
  O  O30  1  0.832518  0.157399  0.907781  1
  O  O31  1  0.745800  0.545621  0.228979  1
  O  O32  1  0.840740  0.164484  0.380175  1
  O  O33  1  0.841520  0.745309  0.469511  1
  O  O34  1  0.745309  0.841520  0.030489  1
  O  O35  1  0.938401  0.399640  0.672137  1
  O  O36  1  0.974916  0.350465  0.086863  1
