# generated using pymatgen
data_Li2AlFeO4
_symmetry_space_group_name_H-M   'P 1'
_cell_length_a   6.25472686
_cell_length_b   11.13049139
_cell_length_c   5.07124858
_cell_angle_alpha   90.00000000
_cell_angle_beta   90.00000000
_cell_angle_gamma   90.00000000
_symmetry_Int_Tables_number   1
_chemical_formula_structural   Li2AlFeO4
_chemical_formula_sum   'Li8 Al4 Fe4 O16'
_cell_volume   353.05111402
_cell_formula_units_Z   4
loop_
 _symmetry_equiv_pos_site_id
 _symmetry_equiv_pos_as_xyz
  1  'x, y, z'
loop_
 _atom_site_type_symbol
 _atom_site_label
 _atom_site_symmetry_multiplicity
 _atom_site_fract_x
 _atom_site_fract_y
 _atom_site_fract_z
 _atom_site_occupancy
  Li  Li0  1  0.000253  0.413897  0.180008  1
  Li  Li1  1  0.000253  0.913897  0.319992  1
  Li  Li2  1  0.499747  0.913897  0.319992  1
  Li  Li3  1  0.499747  0.413897  0.180008  1
  Li  Li4  1  0.500253  0.086103  0.680008  1
  Li  Li5  1  0.500253  0.586103  0.819992  1
  Li  Li6  1  0.999747  0.586103  0.819992  1
  Li  Li7  1  0.999747  0.086103  0.680008  1
  Al  Al8  1  0.250000  0.165408  0.171577  1
  Al  Al9  1  0.250000  0.665408  0.328423  1
  Al  Al10  1  0.750000  0.334592  0.671577  1
  Al  Al11  1  0.750000  0.834592  0.828423  1
  Fe  Fe12  1  0.250000  0.332972  0.673670  1
  Fe  Fe13  1  0.250000  0.832972  0.826330  1
  Fe  Fe14  1  0.750000  0.667028  0.326330  1
  Fe  Fe15  1  0.750000  0.167028  0.173670  1
  O  O16  1  0.988397  0.409247  0.777741  1
  O  O17  1  0.988397  0.909247  0.722259  1
  O  O18  1  0.250000  0.316083  0.298104  1
  O  O19  1  0.250000  0.674417  0.680648  1
  O  O20  1  0.250000  0.174417  0.819352  1
  O  O21  1  0.250000  0.816083  0.201896  1
  O  O22  1  0.511603  0.909247  0.722259  1
  O  O23  1  0.511603  0.409247  0.777741  1
  O  O24  1  0.488397  0.590753  0.222259  1
  O  O25  1  0.488397  0.090753  0.277741  1
  O  O26  1  0.750000  0.683917  0.701896  1
  O  O27  1  0.750000  0.183917  0.798104  1
  O  O28  1  0.750000  0.325583  0.319352  1
  O  O29  1  0.750000  0.825583  0.180648  1
  O  O30  1  0.011603  0.590753  0.222259  1
  O  O31  1  0.011603  0.090753  0.277741  1
