# generated using pymatgen
data_Na3MnO3
_symmetry_space_group_name_H-M   'P 1'
_cell_length_a   6.08489221
_cell_length_b   6.06035216
_cell_length_c   10.88899829
_cell_angle_alpha   90.00000000
_cell_angle_beta   90.00000000
_cell_angle_gamma   91.71496201
_symmetry_Int_Tables_number   1
_chemical_formula_structural   Na3MnO3
_chemical_formula_sum   'Na12 Mn4 O12'
_cell_volume   401.36925924
_cell_formula_units_Z   4
loop_
 _symmetry_equiv_pos_site_id
 _symmetry_equiv_pos_as_xyz
  1  'x, y, z'
loop_
 _atom_site_type_symbol
 _atom_site_label
 _atom_site_symmetry_multiplicity
 _atom_site_fract_x
 _atom_site_fract_y
 _atom_site_fract_z
 _atom_site_occupancy
  Na  Na0  1  0.041791  0.910296  0.775528  1
  Na  Na1  1  0.351736  0.856905  0.004103  1
  Na  Na2  1  0.510604  0.984829  0.279868  1
  Na  Na3  1  0.041791  0.410296  0.724472  1
  Na  Na4  1  0.489396  0.515171  0.779868  1
  Na  Na5  1  0.351736  0.356905  0.495897  1
  Na  Na6  1  0.648264  0.643095  0.504103  1
  Na  Na7  1  0.510604  0.484829  0.220132  1
  Na  Na8  1  0.958209  0.589704  0.275528  1
  Na  Na9  1  0.489396  0.015171  0.720132  1
  Na  Na10  1  0.648264  0.143095  0.995897  1
  Na  Na11  1  0.958209  0.089704  0.224472  1
  Mn  Mn12  1  0.166012  0.831796  0.496461  1
  Mn  Mn13  1  0.166012  0.331796  0.003539  1
  Mn  Mn14  1  0.833988  0.668204  0.996461  1
  Mn  Mn15  1  0.833988  0.168204  0.503539  1
  O  O16  1  0.111219  0.605206  0.911754  1
  O  O17  1  0.301523  0.682497  0.366941  1
  O  O18  1  0.304127  0.689747  0.626521  1
  O  O19  1  0.695873  0.810253  0.126521  1
  O  O20  1  0.698477  0.817503  0.866941  1
  O  O21  1  0.888781  0.894794  0.411754  1
  O  O22  1  0.111219  0.105206  0.588246  1
  O  O23  1  0.301523  0.182497  0.133059  1
  O  O24  1  0.304127  0.189747  0.873479  1
  O  O25  1  0.695873  0.310253  0.373479  1
  O  O26  1  0.698477  0.317503  0.633059  1
  O  O27  1  0.888781  0.394794  0.088246  1
