# generated using pymatgen
data_YNb2NO5
_symmetry_space_group_name_H-M   'P 1'
_cell_length_a   15.02774411
_cell_length_b   5.96342553
_cell_length_c   5.28401122
_cell_angle_alpha   90.00000000
_cell_angle_beta   90.00000000
_cell_angle_gamma   90.30546101
_symmetry_Int_Tables_number   1
_chemical_formula_structural   YNb2NO5
_chemical_formula_sum   'Y4 Nb8 N4 O20'
_cell_volume   473.52962053
_cell_formula_units_Z   4
loop_
 _symmetry_equiv_pos_site_id
 _symmetry_equiv_pos_as_xyz
  1  'x, y, z'
loop_
 _atom_site_type_symbol
 _atom_site_label
 _atom_site_symmetry_multiplicity
 _atom_site_fract_x
 _atom_site_fract_y
 _atom_site_fract_z
 _atom_site_occupancy
  Y  Y0  1  0.002941  0.298835  0.256214  1
  Y  Y1  1  0.998726  0.697754  0.755955  1
  Y  Y2  1  0.497059  0.201165  0.756214  1
  Y  Y3  1  0.501274  0.802246  0.255955  1
  Nb  Nb4  1  0.164777  0.167658  0.721508  1
  Nb  Nb5  1  0.165945  0.821184  0.251192  1
  Nb  Nb6  1  0.335223  0.332342  0.221508  1
  Nb  Nb7  1  0.334055  0.678816  0.751192  1
  Nb  Nb8  1  0.668005  0.323717  0.260692  1
  Nb  Nb9  1  0.664258  0.692068  0.774912  1
  Nb  Nb10  1  0.831995  0.176283  0.760692  1
  Nb  Nb11  1  0.835742  0.807932  0.274912  1
  N  N12  1  0.099385  0.914649  0.543219  1
  N  N13  1  0.400615  0.585351  0.043219  1
  N  N14  1  0.582491  0.890041  0.891925  1
  N  N15  1  0.917509  0.609959  0.391925  1
  O  O16  1  0.084342  0.614175  0.104048  1
  O  O17  1  0.083202  0.386343  0.610113  1
  O  O18  1  0.102178  0.089234  0.041899  1
  O  O19  1  0.244290  0.133007  0.407737  1
  O  O20  1  0.246227  0.874671  0.907564  1
  O  O21  1  0.253773  0.625329  0.407564  1
  O  O22  1  0.255710  0.366993  0.907737  1
  O  O23  1  0.397822  0.410766  0.541899  1
  O  O24  1  0.416798  0.113657  0.110113  1
  O  O25  1  0.415658  0.885825  0.604048  1
  O  O26  1  0.582436  0.125639  0.393260  1
  O  O27  1  0.600935  0.410083  0.954043  1
  O  O28  1  0.602937  0.588125  0.453046  1
  O  O29  1  0.746466  0.358708  0.578339  1
  O  O30  1  0.742854  0.624455  0.094335  1
  O  O31  1  0.753534  0.141292  0.078339  1
  O  O32  1  0.757146  0.875545  0.594335  1
  O  O33  1  0.899065  0.089917  0.454043  1
  O  O34  1  0.897063  0.911875  0.953046  1
  O  O35  1  0.917564  0.374361  0.893260  1
