# generated using pymatgen
data_LiFe(SiO3)2
_symmetry_space_group_name_H-M   'P 1'
_cell_length_a   18.46535773
_cell_length_b   9.07203980
_cell_length_c   5.24296399
_cell_angle_alpha   90.00912543
_cell_angle_beta   90.20090800
_cell_angle_gamma   90.00700634
_symmetry_Int_Tables_number   1
_chemical_formula_structural   LiFe(SiO3)2
_chemical_formula_sum   'Li8 Fe8 Si16 O48'
_cell_volume   878.28783660
_cell_formula_units_Z   8
loop_
 _symmetry_equiv_pos_site_id
 _symmetry_equiv_pos_as_xyz
  1  'x, y, z'
loop_
 _atom_site_type_symbol
 _atom_site_label
 _atom_site_symmetry_multiplicity
 _atom_site_fract_x
 _atom_site_fract_y
 _atom_site_fract_z
 _atom_site_occupancy
  Li  Li0  1  0.124226  0.998683  0.380715  1
  Li  Li1  1  0.123858  0.499500  0.882086  1
  Li  Li2  1  0.374023  0.657423  0.880819  1
  Li  Li3  1  0.376281  0.988983  0.881239  1
  Li  Li4  1  0.623189  0.489671  0.619744  1
  Li  Li5  1  0.624612  0.156749  0.618535  1
  Li  Li6  1  0.875476  0.646057  0.619793  1
  Li  Li7  1  0.875396  0.851590  0.118378  1
  Fe  Fe8  1  0.125265  0.358251  0.387214  1
  Fe  Fe9  1  0.125156  0.140343  0.886501  1
  Fe  Fe10  1  0.374407  0.867765  0.384778  1
  Fe  Fe11  1  0.374221  0.512929  0.377146  1
  Fe  Fe12  1  0.624854  0.012038  0.122526  1
  Fe  Fe13  1  0.623268  0.367092  0.115563  1
  Fe  Fe14  1  0.875542  0.980796  0.622146  1
  Fe  Fe15  1  0.875631  0.517206  0.124546  1
  Si  Si16  1  0.027580  0.661442  0.292175  1
  Si  Si17  1  0.027487  0.838187  0.791993  1
  Si  Si18  1  0.225095  0.661640  0.560273  1
  Si  Si19  1  0.227252  0.840988  0.065797  1
  Si  Si20  1  0.272941  0.159470  0.572371  1
  Si  Si21  1  0.273776  0.334769  0.071580  1
  Si  Si22  1  0.473073  0.163115  0.288097  1
  Si  Si23  1  0.473735  0.333557  0.789581  1
  Si  Si24  1  0.526318  0.663176  0.211521  1
  Si  Si25  1  0.525651  0.833526  0.709722  1
  Si  Si26  1  0.726707  0.656852  0.929202  1
  Si  Si27  1  0.725796  0.837360  0.430413  1
  Si  Si28  1  0.773662  0.162099  0.924624  1
  Si  Si29  1  0.771800  0.341117  0.419658  1
  Si  Si30  1  0.973893  0.168347  0.214538  1
  Si  Si31  1  0.974025  0.331807  0.714966  1
  O  O32  1  0.051732  0.709598  0.584712  1
  O  O33  1  0.051604  0.789692  0.083838  1
  O  O34  1  0.063755  0.168335  0.207872  1
  O  O35  1  0.063956  0.331979  0.708658  1
  O  O36  1  0.068798  0.509269  0.213860  1
  O  O37  1  0.068279  0.990354  0.712444  1
  O  O38  1  0.183515  0.169745  0.562544  1
  O  O39  1  0.184352  0.329730  0.065435  1
  O  O40  1  0.189940  0.003777  0.054214  1
  O  O41  1  0.190468  0.496621  0.556749  1
  O  O42  1  0.194621  0.769051  0.332325  1
  O  O43  1  0.199767  0.732343  0.833693  1
  O  O44  1  0.303505  0.231836  0.839291  1
  O  O45  1  0.305053  0.265915  0.344088  1
  O  O46  1  0.312124  0.496315  0.079300  1
  O  O47  1  0.307115  0.995560  0.562551  1
  O  O48  1  0.315052  0.662427  0.547129  1
  O  O49  1  0.315779  0.842289  0.073803  1
  O  O50  1  0.434213  0.010801  0.202881  1
  O  O51  1  0.429346  0.475430  0.678623  1
  O  O52  1  0.436417  0.661075  0.223467  1
  O  O53  1  0.437451  0.847617  0.690334  1
  O  O54  1  0.453066  0.198372  0.588132  1
  O  O55  1  0.445942  0.295668  0.087455  1
  O  O56  1  0.546531  0.698668  0.911710  1
  O  O57  1  0.553634  0.795478  0.412187  1
  O  O58  1  0.562882  0.161820  0.274964  1
  O  O59  1  0.561758  0.346951  0.807934  1
  O  O60  1  0.565099  0.511294  0.298181  1
  O  O61  1  0.570016  0.974997  0.821023  1
  O  O62  1  0.684738  0.160827  0.949166  1
  O  O63  1  0.683852  0.341476  0.422899  1
  O  O64  1  0.684611  0.996499  0.423304  1
  O  O65  1  0.689667  0.495007  0.937845  1
  O  O66  1  0.697810  0.730560  0.660770  1
  O  O67  1  0.696267  0.767279  0.156308  1
  O  O68  1  0.800673  0.234482  0.653220  1
  O  O69  1  0.805648  0.267665  0.153679  1
  O  O70  1  0.812810  0.499252  0.418895  1
  O  O71  1  0.812209  0.001511  0.915703  1
  O  O72  1  0.815146  0.653666  0.939773  1
  O  O73  1  0.814184  0.847091  0.436637  1
  O  O74  1  0.933259  0.024170  0.326765  1
  O  O75  1  0.933578  0.475591  0.827670  1
  O  O76  1  0.938864  0.651538  0.293967  1
  O  O77  1  0.938649  0.848289  0.793659  1
  O  O78  1  0.948977  0.194615  0.910650  1
  O  O79  1  0.949092  0.304945  0.411458  1
