# generated using pymatgen
data_K2Mo2H12C4N(OF3)3
_symmetry_space_group_name_H-M   'P 1'
_cell_length_a   6.47606240
_cell_length_b   12.43339602
_cell_length_c   12.43339602
_cell_angle_alpha   117.84525842
_cell_angle_beta   90.00000000
_cell_angle_gamma   90.00000000
_symmetry_Int_Tables_number   1
_chemical_formula_structural   K2Mo2H12C4N(OF3)3
_chemical_formula_sum   'K4 Mo4 H24 C8 N2 O6 F18'
_cell_volume   885.21162439
_cell_formula_units_Z   2
loop_
 _symmetry_equiv_pos_site_id
 _symmetry_equiv_pos_as_xyz
  1  'x, y, z'
loop_
 _atom_site_type_symbol
 _atom_site_label
 _atom_site_symmetry_multiplicity
 _atom_site_fract_x
 _atom_site_fract_y
 _atom_site_fract_z
 _atom_site_occupancy
  K  K0  1  0.070450  0.782272  0.282272  1
  K  K1  1  0.929550  0.282272  0.782272  1
  K  K2  1  0.415858  0.497812  0.997812  1
  K  K3  1  0.584142  0.997812  0.497812  1
  Mo  Mo4  1  0.564946  0.855007  0.148109  1
  Mo  Mo5  1  0.435054  0.148109  0.855007  1
  Mo  Mo6  1  0.435054  0.355007  0.648109  1
  Mo  Mo7  1  0.564946  0.648109  0.355007  1
  H  H8  1  0.232203  0.382131  0.350286  1
  H  H9  1  0.767797  0.350286  0.382131  1
  H  H10  1  0.767797  0.882131  0.850286  1
  H  H11  1  0.232203  0.850286  0.882131  1
  H  H12  1  0.214213  0.341836  0.191427  1
  H  H13  1  0.785787  0.191427  0.341836  1
  H  H14  1  0.785787  0.841836  0.691427  1
  H  H15  1  0.214213  0.691427  0.841836  1
  H  H16  1  0.022468  0.437200  0.293952  1
  H  H17  1  0.977532  0.293952  0.437200  1
  H  H18  1  0.977532  0.937200  0.793952  1
  H  H19  1  0.022468  0.793952  0.937200  1
  H  H20  1  0.234533  0.124576  0.142811  1
  H  H21  1  0.765467  0.142811  0.124576  1
  H  H22  1  0.765467  0.624576  0.642811  1
  H  H23  1  0.234533  0.642811  0.624576  1
  H  H24  1  0.235363  0.164056  0.302090  1
  H  H25  1  0.764637  0.302090  0.164056  1
  H  H26  1  0.764637  0.664056  0.802090  1
  H  H27  1  0.235363  0.802090  0.664056  1
  H  H28  1  0.042279  0.064155  0.204692  1
  H  H29  1  0.957721  0.204692  0.064155  1
  H  H30  1  0.957721  0.564155  0.704692  1
  H  H31  1  0.042279  0.704692  0.564155  1
  C  C32  1  0.127026  0.360846  0.273911  1
  C  C33  1  0.872974  0.273911  0.360846  1
  C  C34  1  0.872974  0.860846  0.773911  1
  C  C35  1  0.127026  0.773911  0.860846  1
  C  C36  1  0.138977  0.143046  0.222325  1
  C  C37  1  0.861023  0.222325  0.143046  1
  C  C38  1  0.861023  0.643046  0.722325  1
  C  C39  1  0.138977  0.722325  0.643046  1
  N  N40  1  0.000000  0.250182  0.250182  1
  N  N41  1  0.000000  0.750182  0.750182  1
  O  O42  1  0.553840  0.932693  0.065069  1
  O  O43  1  0.446160  0.065069  0.932693  1
  O  O44  1  0.446160  0.432693  0.565069  1
  O  O45  1  0.553840  0.565069  0.432693  1
  O  O46  1  0.968765  0.512692  0.012692  1
  O  O47  1  0.031235  0.012692  0.512692  1
  F  F48  1  0.797872  0.945856  0.258570  1
  F  F49  1  0.202128  0.258570  0.945856  1
  F  F50  1  0.202128  0.445856  0.758570  1
  F  F51  1  0.797872  0.758570  0.445856  1
  F  F52  1  0.758093  0.725751  0.044196  1
  F  F53  1  0.241907  0.044196  0.725751  1
  F  F54  1  0.241907  0.225751  0.544196  1
  F  F55  1  0.758093  0.544196  0.225751  1
  F  F56  1  0.331708  0.739356  0.076021  1
  F  F57  1  0.668292  0.076021  0.739356  1
  F  F58  1  0.668292  0.239356  0.576021  1
  F  F59  1  0.331708  0.576021  0.239356  1
  F  F60  1  0.374271  0.953290  0.284127  1
  F  F61  1  0.625729  0.284127  0.953290  1
  F  F62  1  0.625729  0.453290  0.784127  1
  F  F63  1  0.374271  0.784127  0.453290  1
  F  F64  1  0.592335  0.758457  0.258457  1
  F  F65  1  0.407665  0.258457  0.758457  1
