# generated using pymatgen
data_LaAlO3
_symmetry_space_group_name_H-M   'P 1'
_cell_length_a   7.66406743
_cell_length_b   6.05392113
_cell_length_c   12.41780225
_cell_angle_alpha   90.00000000
_cell_angle_beta   81.33528085
_cell_angle_gamma   90.00000000
_symmetry_Int_Tables_number   1
_chemical_formula_structural   LaAlO3
_chemical_formula_sum   'La8 Al8 O24'
_cell_volume   569.58119302
_cell_formula_units_Z   8
loop_
 _symmetry_equiv_pos_site_id
 _symmetry_equiv_pos_as_xyz
  1  'x, y, z'
loop_
 _atom_site_type_symbol
 _atom_site_label
 _atom_site_symmetry_multiplicity
 _atom_site_fract_x
 _atom_site_fract_y
 _atom_site_fract_z
 _atom_site_occupancy
  La  La0  1  0.094350  0.605115  0.130959  1
  La  La1  1  0.090294  0.908484  0.648956  1
  La  La2  1  0.405650  0.105115  0.369041  1
  La  La3  1  0.409706  0.408484  0.851044  1
  La  La4  1  0.590294  0.591516  0.148956  1
  La  La5  1  0.594350  0.894885  0.630959  1
  La  La6  1  0.909706  0.091516  0.351044  1
  La  La7  1  0.905650  0.394885  0.869041  1
  Al  Al8  1  0.173581  0.635409  0.377987  1
  Al  Al9  1  0.258405  0.405105  0.595944  1
  Al  Al10  1  0.326419  0.135409  0.122013  1
  Al  Al11  1  0.241595  0.905105  0.904056  1
  Al  Al12  1  0.758405  0.094895  0.095944  1
  Al  Al13  1  0.673581  0.864591  0.877987  1
  Al  Al14  1  0.741595  0.594895  0.404056  1
  Al  Al15  1  0.826419  0.364591  0.622013  1
  O  O16  1  0.035278  0.401160  0.667177  1
  O  O17  1  0.152252  0.885801  0.452475  1
  O  O18  1  0.180216  0.179337  0.244927  1
  O  O19  1  0.262441  0.919272  0.043952  1
  O  O20  1  0.154272  0.135712  0.844383  1
  O  O21  1  0.237559  0.419272  0.456048  1
  O  O22  1  0.142567  0.641081  0.898572  1
  O  O23  1  0.319784  0.679337  0.255073  1
  O  O24  1  0.347748  0.385801  0.047526  1
  O  O25  1  0.357433  0.141081  0.601428  1
  O  O26  1  0.345728  0.635712  0.655617  1
  O  O27  1  0.535278  0.098840  0.167177  1
  O  O28  1  0.464722  0.901160  0.832823  1
  O  O29  1  0.654272  0.364288  0.344383  1
  O  O30  1  0.642567  0.858919  0.398572  1
  O  O31  1  0.652252  0.614199  0.952474  1
  O  O32  1  0.680216  0.320663  0.744927  1
  O  O33  1  0.857433  0.358919  0.101428  1
  O  O34  1  0.762441  0.580728  0.543952  1
  O  O35  1  0.845728  0.864288  0.155617  1
  O  O36  1  0.737559  0.080728  0.956048  1
  O  O37  1  0.819784  0.820663  0.755073  1
  O  O38  1  0.847748  0.114199  0.547526  1
  O  O39  1  0.964722  0.598840  0.332823  1
