# generated using pymatgen
data_CaU2Si2H12O17
_symmetry_space_group_name_H-M   'P 1'
_cell_length_a   16.04077018
_cell_length_b   7.03793177
_cell_length_c   6.72690972
_cell_angle_alpha   90.00009375
_cell_angle_beta   97.56060567
_cell_angle_gamma   90.00025321
_symmetry_Int_Tables_number   1
_chemical_formula_structural   CaU2Si2H12O17
_chemical_formula_sum   'Ca2 U4 Si4 H24 O34'
_cell_volume   752.82443703
_cell_formula_units_Z   2
loop_
 _symmetry_equiv_pos_site_id
 _symmetry_equiv_pos_as_xyz
  1  'x, y, z'
loop_
 _atom_site_type_symbol
 _atom_site_label
 _atom_site_symmetry_multiplicity
 _atom_site_fract_x
 _atom_site_fract_y
 _atom_site_fract_z
 _atom_site_occupancy
  Ca  Ca0  1  0.233261  0.181222  0.731735  1
  Ca  Ca1  1  0.766739  0.681221  0.268263  1
  U  U2  1  0.993099  0.286087  0.861575  1
  U  U3  1  0.006934  0.786091  0.138423  1
  U  U4  1  0.504083  0.721312  0.136004  1
  U  U5  1  0.495864  0.221297  0.863986  1
  Si  Si6  1  0.964278  0.785806  0.658049  1
  Si  Si7  1  0.035727  0.285805  0.341952  1
  Si  Si8  1  0.532756  0.225109  0.340265  1
  Si  Si9  1  0.467239  0.725110  0.659734  1
  H  H10  1  0.826848  0.858502  0.654456  1
  H  H11  1  0.173152  0.358504  0.345542  1
  H  H12  1  0.342958  0.862581  0.530545  1
  H  H13  1  0.657044  0.362581  0.469456  1
  H  H14  1  0.129704  0.837566  0.579604  1
  H  H15  1  0.870297  0.337566  0.420399  1
  H  H16  1  0.209628  0.746763  0.704951  1
  H  H17  1  0.790372  0.246761  0.295049  1
  H  H18  1  0.733807  0.031094  0.039042  1
  H  H19  1  0.266194  0.531092  0.960959  1
  H  H20  1  0.312018  0.569546  0.768411  1
  H  H21  1  0.687983  0.069546  0.231591  1
  H  H22  1  0.627134  0.664067  0.533266  1
  H  H23  1  0.372866  0.164066  0.466735  1
  H  H24  1  0.709181  0.606784  0.687735  1
  H  H25  1  0.290819  0.106785  0.312266  1
  H  H26  1  0.205926  0.943381  0.082842  1
  H  H27  1  0.794073  0.443382  0.917157  1
  H  H28  1  0.303357  0.923837  0.072267  1
  H  H29  1  0.696644  0.423835  0.927732  1
  H  H30  1  0.193928  0.623281  0.197819  1
  H  H31  1  0.806072  0.123278  0.802181  1
  H  H32  1  0.283620  0.578438  0.308678  1
  H  H33  1  0.716380  0.078437  0.691321  1
  O  O34  1  0.877088  0.298122  0.863175  1
  O  O35  1  0.122888  0.798117  0.136827  1
  O  O36  1  0.619523  0.698437  0.145650  1
  O  O37  1  0.380506  0.198440  0.854350  1
  O  O38  1  0.108277  0.266819  0.866961  1
  O  O39  1  0.891699  0.766809  0.133037  1
  O  O40  1  0.388786  0.745409  0.121425  1
  O  O41  1  0.611240  0.245417  0.878581  1
  O  O42  1  0.981730  0.963074  0.817812  1
  O  O43  1  0.018268  0.463076  0.182189  1
  O  O44  1  0.520045  0.042244  0.187952  1
  O  O45  1  0.479957  0.542243  0.812051  1
  O  O46  1  0.989532  0.608977  0.814836  1
  O  O47  1  0.010468  0.108973  0.185164  1
  O  O48  1  0.500674  0.395859  0.181219  1
  O  O49  1  0.499330  0.895859  0.818783  1
  O  O50  1  0.021069  0.787789  0.474755  1
  O  O51  1  0.978927  0.287787  0.525245  1
  O  O52  1  0.478133  0.214157  0.526947  1
  O  O53  1  0.521871  0.714157  0.473051  1
  O  O54  1  0.862068  0.785854  0.568573  1
  O  O55  1  0.137929  0.285855  0.431425  1
  O  O56  1  0.635430  0.237410  0.418645  1
  O  O57  1  0.364575  0.737406  0.581359  1
  O  O58  1  0.186327  0.868613  0.648659  1
  O  O59  1  0.813671  0.368617  0.351340  1
  O  O60  1  0.259550  0.522537  0.811465  1
  O  O61  1  0.740450  0.022539  0.188533  1
  O  O62  1  0.313711  0.116112  0.456758  1
  O  O63  1  0.686291  0.616111  0.543245  1
  O  O64  1  0.256732  0.017265  0.060323  1
  O  O65  1  0.743267  0.517260  0.939676  1
  O  O66  1  0.236861  0.520229  0.221294  1
  O  O67  1  0.763140  0.020230  0.778706  1
