# generated using pymatgen
data_U6O11
_symmetry_space_group_name_H-M   'P 1'
_cell_length_a   6.66442649
_cell_length_b   6.66172596
_cell_length_c   6.66291187
_cell_angle_alpha   120.00589709
_cell_angle_beta   109.45710309
_cell_angle_gamma   80.41095864
_symmetry_Int_Tables_number   1
_chemical_formula_structural   U6O11
_chemical_formula_sum   'U6 O11'
_cell_volume   241.53495623
_cell_formula_units_Z   1
loop_
 _symmetry_equiv_pos_site_id
 _symmetry_equiv_pos_as_xyz
  1  'x, y, z'
loop_
 _atom_site_type_symbol
 _atom_site_label
 _atom_site_symmetry_multiplicity
 _atom_site_fract_x
 _atom_site_fract_y
 _atom_site_fract_z
 _atom_site_occupancy
  U  U0  1  0.497624  0.332306  0.165659  1
  U  U1  1  0.497624  0.667694  0.833353  1
  U  U2  1  0.996605  0.648656  0.330384  1
  U  U3  1  0.996089  0.000000  0.985155  1
  U  U4  1  0.514583  0.000000  0.503834  1
  U  U5  1  0.996605  0.351344  0.681728  1
  O  O6  1  0.624969  0.656552  0.202733  1
  O  O7  1  0.886886  0.318881  0.295780  1
  O  O8  1  0.886886  0.681119  0.976899  1
  O  O9  1  0.624969  0.343448  0.546182  1
  O  O10  1  0.365308  0.000000  0.137290  1
  O  O11  1  0.125555  0.332027  0.041018  1
  O  O12  1  0.363475  0.681618  0.454115  1
  O  O13  1  0.883812  0.000000  0.613739  1
  O  O14  1  0.363475  0.318382  0.772497  1
  O  O15  1  0.125555  0.667973  0.708991  1
  O  O16  1  0.624983  0.000000  0.875641  1
