# generated using pymatgen
data_Ta2MnO6
_symmetry_space_group_name_H-M   'P 1'
_cell_length_a   5.17432220
_cell_length_b   22.73431398
_cell_length_c   9.65335799
_cell_angle_alpha   50.43714314
_cell_angle_beta   91.08825408
_cell_angle_gamma   90.69311086
_symmetry_Int_Tables_number   1
_chemical_formula_structural   Ta2MnO6
_chemical_formula_sum   'Ta16 Mn8 O48'
_cell_volume   875.28252085
_cell_formula_units_Z   8
loop_
 _symmetry_equiv_pos_site_id
 _symmetry_equiv_pos_as_xyz
  1  'x, y, z'
loop_
 _atom_site_type_symbol
 _atom_site_label
 _atom_site_symmetry_multiplicity
 _atom_site_fract_x
 _atom_site_fract_y
 _atom_site_fract_z
 _atom_site_occupancy
  Ta  Ta0  1  0.238764  0.941180  0.841851  1
  Ta  Ta1  1  0.250000  0.780189  0.829717  1
  Ta  Ta2  1  0.247383  0.609039  0.832601  1
  Ta  Ta3  1  0.261236  0.941180  0.334608  1
  Ta  Ta4  1  0.252163  0.279015  0.828479  1
  Ta  Ta5  1  0.252617  0.609039  0.340283  1
  Ta  Ta6  1  0.250000  0.113278  0.830083  1
  Ta  Ta7  1  0.247837  0.279015  0.334477  1
  Ta  Ta8  1  0.747383  0.724294  0.659717  1
  Ta  Ta9  1  0.738764  0.392153  0.665392  1
  Ta  Ta10  1  0.752617  0.724294  0.167399  1
  Ta  Ta11  1  0.750000  0.553145  0.170283  1
  Ta  Ta12  1  0.752163  0.054319  0.665523  1
  Ta  Ta13  1  0.761236  0.392153  0.158149  1
  Ta  Ta14  1  0.750000  0.220055  0.169917  1
  Ta  Ta15  1  0.747837  0.054319  0.171521  1
  Mn  Mn16  1  0.250000  0.779266  0.331101  1
  Mn  Mn17  1  0.250000  0.444493  0.833259  1
  Mn  Mn18  1  0.250000  0.434343  0.348487  1
  Mn  Mn19  1  0.250000  0.106102  0.340847  1
  Mn  Mn20  1  0.750000  0.898991  0.651513  1
  Mn  Mn21  1  0.750000  0.554067  0.668899  1
  Mn  Mn22  1  0.750000  0.888840  0.166741  1
  Mn  Mn23  1  0.750000  0.227231  0.659153  1
  O  O24  1  0.066310  0.700293  0.601581  1
  O  O25  1  0.052750  0.362831  0.603500  1
  O  O26  1  0.899480  0.792251  0.186814  1
  O  O27  1  0.054701  0.036304  0.586563  1
  O  O28  1  0.079109  0.710451  0.062881  1
  O  O29  1  0.926810  0.788229  0.703567  1
  O  O30  1  0.894475  0.462666  0.190940  1
  O  O31  1  0.077826  0.369302  0.091798  1
  O  O32  1  0.898439  0.457808  0.690988  1
  O  O33  1  0.887007  0.130985  0.184260  1
  O  O34  1  0.088198  0.042709  0.067613  1
  O  O35  1  0.922924  0.121276  0.705174  1
  O  O36  1  0.573190  0.788229  0.931746  1
  O  O37  1  0.601561  0.457808  0.935589  1
  O  O38  1  0.577076  0.121276  0.930999  1
  O  O39  1  0.420891  0.710451  0.805765  1
  O  O40  1  0.600520  0.792251  0.436432  1
  O  O41  1  0.422174  0.369302  0.800296  1
  O  O42  1  0.605525  0.462666  0.421063  1
  O  O43  1  0.411802  0.042709  0.804259  1
  O  O44  1  0.433690  0.700293  0.297541  1
  O  O45  1  0.612993  0.130985  0.422784  1
  O  O46  1  0.447250  0.362831  0.308007  1
  O  O47  1  0.445299  0.036304  0.304524  1
  O  O48  1  0.552750  0.970503  0.691993  1
  O  O49  1  0.566310  0.633040  0.702459  1
  O  O50  1  0.394475  0.870668  0.578937  1
  O  O51  1  0.554701  0.297029  0.695476  1
  O  O52  1  0.577826  0.964032  0.199704  1
  O  O53  1  0.399480  0.541082  0.563568  1
  O  O54  1  0.579109  0.622882  0.194235  1
  O  O55  1  0.387007  0.202348  0.577216  1
  O  O56  1  0.588198  0.290624  0.195741  1
  O  O57  1  0.398439  0.875525  0.064411  1
  O  O58  1  0.426810  0.545104  0.068254  1
  O  O59  1  0.422924  0.212058  0.069001  1
  O  O60  1  0.101561  0.875525  0.309012  1
  O  O61  1  0.922174  0.964032  0.908202  1
  O  O62  1  0.105525  0.870668  0.809060  1
  O  O63  1  0.073190  0.545104  0.296433  1
  O  O64  1  0.920891  0.622882  0.937119  1
  O  O65  1  0.100520  0.541082  0.813186  1
  O  O66  1  0.077076  0.212058  0.294826  1
  O  O67  1  0.911802  0.290624  0.932387  1
  O  O68  1  0.947250  0.970503  0.396500  1
  O  O69  1  0.112993  0.202348  0.815740  1
  O  O70  1  0.933690  0.633040  0.398419  1
  O  O71  1  0.945299  0.297029  0.413437  1
