# generated using pymatgen
data_Li11Y14Ti14(S2O5)7
_symmetry_space_group_name_H-M   'P 1'
_cell_length_a   11.31889807
_cell_length_b   12.56242927
_cell_length_c   8.90934515
_cell_angle_alpha   82.02587543
_cell_angle_beta   76.35202709
_cell_angle_gamma   83.65250110
_symmetry_Int_Tables_number   1
_chemical_formula_structural   Li11Y14Ti14(S2O5)7
_chemical_formula_sum   'Li11 Y14 Ti14 S14 O35'
_cell_volume   1215.17779301
_cell_formula_units_Z   1
loop_
 _symmetry_equiv_pos_site_id
 _symmetry_equiv_pos_as_xyz
  1  'x, y, z'
loop_
 _atom_site_type_symbol
 _atom_site_label
 _atom_site_symmetry_multiplicity
 _atom_site_fract_x
 _atom_site_fract_y
 _atom_site_fract_z
 _atom_site_occupancy
  Li  Li0  1  0.000013  0.361594  0.934833  1
  Li  Li1  1  0.000069  0.000881  0.509464  1
  Li  Li2  1  0.999976  0.861627  0.921262  1
  Li  Li3  1  0.000000  0.571429  0.785714  1
  Li  Li4  1  0.000024  0.281230  0.650166  1
  Li  Li5  1  0.999987  0.781263  0.636595  1
  Li  Li6  1  0.000017  0.500958  0.494578  1
  Li  Li7  1  0.999963  0.221628  0.354682  1
  Li  Li8  1  0.999931  0.141976  0.061964  1
  Li  Li9  1  0.000037  0.921229  0.216747  1
  Li  Li10  1  0.999983  0.641899  0.076851  1
  Y  Y11  1  0.673662  0.236802  0.951063  1
  Y  Y12  1  0.326188  0.476412  0.909780  1
  Y  Y13  1  0.326437  0.190347  0.764262  1
  Y  Y14  1  0.673812  0.666445  0.661648  1
  Y  Y15  1  0.673564  0.952510  0.807166  1
  Y  Y16  1  0.674601  0.094706  0.378550  1
  Y  Y17  1  0.673959  0.380857  0.520140  1
  Y  Y18  1  0.326131  0.334147  0.333769  1
  Y  Y19  1  0.326338  0.906055  0.620366  1
  Y  Y20  1  0.326826  0.619770  0.474958  1
  Y  Y21  1  0.325399  0.048151  0.192878  1
  Y  Y22  1  0.673869  0.808710  0.237659  1
  Y  Y23  1  0.673174  0.523087  0.096471  1
  Y  Y24  1  0.326041  0.762000  0.051289  1
  Ti  Ti25  1  0.817614  0.727045  0.909573  1
  Ti  Ti26  1  0.817599  0.441864  0.766185  1
  Ti  Ti27  1  0.820999  0.154704  0.624989  1
  Ti  Ti28  1  0.179001  0.988154  0.946440  1
  Ti  Ti29  1  0.182401  0.700993  0.805244  1
  Ti  Ti30  1  0.179116  0.129168  0.522618  1
  Ti  Ti31  1  0.182386  0.415812  0.661855  1
  Ti  Ti32  1  0.821185  0.868099  0.478633  1
  Ti  Ti33  1  0.825322  0.583878  0.335666  1
  Ti  Ti34  1  0.821085  0.300351  0.195001  1
  Ti  Ti35  1  0.820884  0.013689  0.048810  1
  Ti  Ti36  1  0.178816  0.274758  0.092796  1
  Ti  Ti37  1  0.178915  0.842506  0.376428  1
  Ti  Ti38  1  0.174678  0.558980  0.235763  1
  S  S39  1  0.590051  0.743789  0.973789  1
  S  S40  1  0.589912  0.457552  0.831107  1
  S  S41  1  0.589294  0.172910  0.685810  1
  S  S42  1  0.410706  0.969947  0.885618  1
  S  S43  1  0.409949  0.399068  0.597639  1
  S  S44  1  0.410088  0.685306  0.740321  1
  S  S45  1  0.410500  0.114349  0.451539  1
  S  S46  1  0.589345  0.313242  0.259480  1
  S  S47  1  0.589214  0.888269  0.547113  1
  S  S48  1  0.588003  0.600783  0.403932  1
  S  S49  1  0.589500  0.028508  0.119890  1
  S  S50  1  0.410786  0.254588  0.024315  1
  S  S51  1  0.410655  0.829615  0.311949  1
  S  S52  1  0.411997  0.542074  0.167497  1
  O  O53  1  0.811189  0.371710  0.983372  1
  O  O54  1  0.799264  0.085811  0.843040  1
  O  O55  1  0.810594  0.012431  0.554562  1
  O  O56  1  0.811322  0.870934  0.981060  1
  O  O57  1  0.811592  0.584921  0.839493  1
  O  O58  1  0.188680  0.344775  0.875461  1
  O  O59  1  0.811201  0.298859  0.698249  1
  O  O60  1  0.200736  0.057046  0.728389  1
  O  O61  1  0.188799  0.843998  0.873179  1
  O  O62  1  -0.000026  0.714553  0.856488  1
  O  O63  1  0.000026  0.428304  0.714941  1
  O  O64  1  0.811320  0.798082  0.695967  1
  O  O65  1  0.812594  0.513416  0.553700  1
  O  O66  1  0.188408  0.557936  0.731936  1
  O  O67  1  0.188678  0.271924  0.590369  1
  O  O68  1  0.809917  0.228387  0.412318  1
  O  O69  1  0.000014  0.146035  0.563071  1
  O  O70  1  0.187523  0.486588  0.446470  1
  O  O71  1  0.797452  0.444171  0.273066  1
  O  O72  1  0.188811  0.771147  0.588056  1
  O  O73  1  0.797452  0.727672  0.414177  1
  O  O74  1  0.190057  0.201228  0.303621  1
  O  O75  1  0.810672  0.157455  0.125076  1
  O  O76  1  -0.000014  0.996822  0.008358  1
  O  O77  1  0.202548  0.415185  0.157251  1
  O  O78  1  0.999956  0.280856  0.140131  1
  O  O79  1  0.189328  0.985402  0.446352  1
  O  O80  1  0.000000  0.571429  0.285714  1
  O  O81  1  0.809943  0.941629  0.267808  1
  O  O82  1  0.000044  0.862001  0.431297  1
  O  O83  1  0.202548  0.698687  0.298362  1
  O  O84  1  0.812477  0.656269  0.124958  1
  O  O85  1  0.189406  0.130427  0.016866  1
  O  O86  1  0.187406  0.629441  0.017729  1
  O  O87  1  0.190083  0.914470  0.159111  1
