# generated using pymatgen
data_Li5V3P8O29
_symmetry_space_group_name_H-M   'P 1'
_cell_length_a   9.80311029
_cell_length_b   9.79147757
_cell_length_c   13.96020325
_cell_angle_alpha   90.16013486
_cell_angle_beta   90.07440393
_cell_angle_gamma   60.03799104
_symmetry_Int_Tables_number   1
_chemical_formula_structural   Li5V3P8O29
_chemical_formula_sum   'Li10 V6 P16 O58'
_cell_volume   1160.91100074
_cell_formula_units_Z   2
loop_
 _symmetry_equiv_pos_site_id
 _symmetry_equiv_pos_as_xyz
  1  'x, y, z'
loop_
 _atom_site_type_symbol
 _atom_site_label
 _atom_site_symmetry_multiplicity
 _atom_site_fract_x
 _atom_site_fract_y
 _atom_site_fract_z
 _atom_site_occupancy
  Li  Li0  1  0.906838  0.767745  0.061982  1
  Li  Li1  1  0.906011  0.323559  0.559566  1
  Li  Li2  1  0.668999  0.669736  0.885229  1
  Li  Li3  1  0.767411  0.325267  0.063283  1
  Li  Li4  1  0.325841  0.907147  0.062847  1
  Li  Li5  1  0.679724  0.224435  0.439764  1
  Li  Li6  1  0.323749  0.769496  0.558231  1
  Li  Li7  1  0.087624  0.685512  0.438121  1
  Li  Li8  1  0.227675  0.094470  0.437618  1
  Li  Li9  1  0.999743  0.997582  0.999092  1
  V  V10  1  0.565695  0.433228  0.248460  1
  V  V11  1  0.426683  0.566383  0.754424  1
  V  V12  1  0.572246  0.002809  0.747267  1
  V  V13  1  0.435150  0.000738  0.249388  1
  V  V14  1  0.999619  0.566893  0.249027  1
  V  V15  1  0.002481  0.429732  0.750351  1
  P  P16  1  0.909949  0.775170  0.842179  1
  P  P17  1  0.768477  0.914825  0.342838  1
  P  P18  1  0.912100  0.319990  0.342709  1
  P  P19  1  0.666441  0.665638  0.125756  1
  P  P20  1  0.662362  0.666219  0.628998  1
  P  P21  1  0.773876  0.316958  0.843398  1
  P  P22  1  0.682856  0.231973  0.659342  1
  P  P23  1  0.316721  0.911377  0.843684  1
  P  P24  1  0.689879  0.083243  0.156215  1
  P  P25  1  0.320467  0.767672  0.342150  1
  P  P26  1  0.225947  0.688995  0.157729  1
  P  P27  1  0.332570  0.335096  0.371593  1
  P  P28  1  0.334847  0.327346  0.871962  1
  P  P29  1  0.086156  0.682538  0.657749  1
  P  P30  1  0.232573  0.084923  0.658553  1
  P  P31  1  0.085507  0.225548  0.158407  1
  O  O32  1  0.009973  0.756118  0.565851  1
  O  O33  1  0.913772  0.746510  0.340453  1
  O  O34  1  0.789938  0.996756  0.071650  1
  O  O35  1  0.740486  0.920402  0.832162  1
  O  O36  1  0.893573  0.627071  0.830353  1
  O  O37  1  0.811287  0.676803  0.163610  1
  O  O38  1  0.901621  0.480059  0.322292  1
  O  O39  1  0.995948  0.212127  0.075566  1
  O  O40  1  0.914764  0.345665  0.833993  1
  O  O41  1  0.659673  0.814986  0.677523  1
  O  O42  1  0.616744  0.905287  0.322066  1
  O  O43  1  0.813154  0.515312  0.666108  1
  O  O44  1  0.666944  0.662720  0.017363  1
  O  O45  1  0.651551  0.675313  0.522768  1
  O  O46  1  0.677767  0.510366  0.164851  1
  O  O47  1  0.479539  0.898417  0.831823  1
  O  O48  1  0.511356  0.811237  0.163403  1
  O  O49  1  0.746549  0.337707  0.341824  1
  O  O50  1  0.792459  0.209099  0.750858  1
  O  O51  1  0.759106  0.242867  0.569049  1
  O  O52  1  0.778273  0.234378  0.933574  1
  O  O53  1  0.622266  0.480962  0.829267  1
  O  O54  1  0.512993  0.665840  0.672853  1
  O  O55  1  0.662723  0.254563  0.161498  1
  O  O56  1  0.481404  0.619692  0.320561  1
  O  O57  1  0.334891  0.917530  0.340773  1
  O  O58  1  0.792932  0.998873  0.250598  1
  O  O59  1  0.757532  0.006159  0.430096  1
  O  O60  1  0.245698  0.995550  0.568203  1
  O  O61  1  0.659784  0.086613  0.662286  1
  O  O62  1  0.524715  0.382828  0.678767  1
  O  O63  1  0.342833  0.740303  0.834288  1
  O  O64  1  0.485354  0.329135  0.329634  1
  O  O65  1  0.381091  0.533475  0.167696  1
  O  O66  1  0.211235  0.793318  0.075600  1
  O  O67  1  0.248616  0.751619  0.433485  1
  O  O68  1  0.204167  0.787854  0.255923  1
  O  O69  1  0.256257  0.660078  0.663615  1
  O  O70  1  0.482308  0.179954  0.824433  1
  O  O71  1  0.532860  0.087278  0.168412  1
  O  O72  1  0.339856  0.475714  0.825553  1
  O  O73  1  0.345604  0.331026  0.977198  1
  O  O74  1  0.334364  0.336079  0.478666  1
  O  O75  1  0.184811  0.488237  0.330979  1
  O  O76  1  0.382853  0.093175  0.678198  1
  O  O77  1  0.326786  0.186788  0.331674  1
  O  O78  1  0.083485  0.659897  0.160597  1
  O  O79  1  0.000145  0.791555  0.749998  1
  O  O80  1  0.985714  0.785476  0.932429  1
  O  O81  1  0.092223  0.524933  0.678883  1
  O  O82  1  0.189295  0.330591  0.828088  1
  O  O83  1  0.087772  0.379731  0.169833  1
  O  O84  1  0.256699  0.082883  0.161605  1
  O  O85  1  0.229923  0.986446  0.933808  1
  O  O86  1  0.209905  0.998918  0.750871  1
  O  O87  1  0.084680  0.250644  0.658061  1
  O  O88  1  0.999776  0.246606  0.434183  1
  O  O89  1  0.006813  0.204071  0.255965  1
