# generated using pymatgen
data_Li3Fe2P2(CO7)2
_symmetry_space_group_name_H-M   'P 1'
_cell_length_a   8.37448017
_cell_length_b   5.12290152
_cell_length_c   6.48248023
_cell_angle_alpha   89.95275506
_cell_angle_beta   90.61385113
_cell_angle_gamma   85.28964306
_symmetry_Int_Tables_number   1
_chemical_formula_structural   Li3Fe2P2(CO7)2
_chemical_formula_sum   'Li3 Fe2 P2 C2 O14'
_cell_volume   277.15340607
_cell_formula_units_Z   1
loop_
 _symmetry_equiv_pos_site_id
 _symmetry_equiv_pos_as_xyz
  1  'x, y, z'
loop_
 _atom_site_type_symbol
 _atom_site_label
 _atom_site_symmetry_multiplicity
 _atom_site_fract_x
 _atom_site_fract_y
 _atom_site_fract_z
 _atom_site_occupancy
  Li  Li0  1  0.108526  0.772431  0.256595  1
  Li  Li1  1  0.718229  0.753367  0.961402  1
  Li  Li2  1  0.903488  0.241495  0.740367  1
  Fe  Fe3  1  0.329623  0.802813  0.750045  1
  Fe  Fe4  1  0.666618  0.198706  0.259731  1
  P  P5  1  0.422290  0.721636  0.246246  1
  P  P6  1  0.579634  0.272685  0.754447  1
  C  C7  1  0.038028  0.708693  0.758217  1
  C  C8  1  0.956340  0.296752  0.242895  1
  O  O9  1  0.072185  0.952933  0.750934  1
  O  O10  1  0.093544  0.379663  0.246490  1
  O  O11  1  0.160501  0.537121  0.742587  1
  O  O12  1  0.306672  0.793530  0.062987  1
  O  O13  1  0.320155  0.793246  0.438076  1
  O  O14  1  0.425354  0.132623  0.746608  1
  O  O15  1  0.475098  0.424329  0.244837  1
  O  O16  1  0.537594  0.573753  0.778998  1
  O  O17  1  0.579570  0.861935  0.231568  1
  O  O18  1  0.689340  0.214452  0.564401  1
  O  O19  1  0.694366  0.171110  0.935393  1
  O  O20  1  0.829227  0.466316  0.232291  1
  O  O21  1  0.897928  0.633419  0.780135  1
  O  O22  1  0.924573  0.051761  0.252760  1
