# generated using pymatgen
data_NaLi2MnPCO7
_symmetry_space_group_name_H-M   'P 1'
_cell_length_a   8.72096987
_cell_length_b   6.66311819
_cell_length_c   10.07064481
_cell_angle_alpha   90.02088385
_cell_angle_beta   89.13554213
_cell_angle_gamma   90.04337417
_symmetry_Int_Tables_number   1
_chemical_formula_structural   NaLi2MnPCO7
_chemical_formula_sum   'Na4 Li8 Mn4 P4 C4 O28'
_cell_volume   585.12680987
_cell_formula_units_Z   4
loop_
 _symmetry_equiv_pos_site_id
 _symmetry_equiv_pos_as_xyz
  1  'x, y, z'
loop_
 _atom_site_type_symbol
 _atom_site_label
 _atom_site_symmetry_multiplicity
 _atom_site_fract_x
 _atom_site_fract_y
 _atom_site_fract_z
 _atom_site_occupancy
  Na  Na0  1  0.083738  0.253130  0.879800  1
  Na  Na1  1  0.082620  0.250187  0.378722  1
  Na  Na2  1  0.253607  0.999274  0.623686  1
  Na  Na3  1  0.746469  0.500712  0.376627  1
  Li  Li4  1  0.265151  0.488490  0.618304  1
  Li  Li5  1  0.263970  0.011676  0.119988  1
  Li  Li6  1  0.264445  0.487774  0.118410  1
  Li  Li7  1  0.736878  0.511207  0.880287  1
  Li  Li8  1  0.736424  0.988170  0.881758  1
  Li  Li9  1  0.735652  0.989117  0.381716  1
  Li  Li10  1  0.915533  0.748036  0.623349  1
  Li  Li11  1  0.916462  0.753816  0.121303  1
  Mn  Mn12  1  0.359112  0.749565  0.889881  1
  Mn  Mn13  1  0.360094  0.746389  0.387291  1
  Mn  Mn14  1  0.641416  0.246508  0.612886  1
  Mn  Mn15  1  0.642289  0.249271  0.110488  1
  P  P16  1  0.412566  0.254029  0.852308  1
  P  P17  1  0.409274  0.245050  0.349144  1
  P  P18  1  0.596444  0.745512  0.651268  1
  P  P19  1  0.592922  0.753859  0.147996  1
  C  C20  1  0.043775  0.748351  0.868019  1
  C  C21  1  0.047966  0.756095  0.364832  1
  C  C22  1  0.944878  0.256102  0.634235  1
  C  C23  1  0.948572  0.248203  0.131694  1
  O  O24  1  0.093330  0.272791  0.643177  1
  O  O25  1  0.098091  0.249136  0.139593  1
  O  O26  1  0.097228  0.750382  0.988165  1
  O  O27  1  0.098563  0.748101  0.486270  1
  O  O28  1  0.139053  0.745417  0.766560  1
  O  O29  1  0.144413  0.745628  0.264549  1
  O  O30  1  0.321198  0.065223  0.899004  1
  O  O31  1  0.320953  0.436335  0.907911  1
  O  O32  1  0.313598  0.060517  0.394620  1
  O  O33  1  0.321767  0.432111  0.402893  1
  O  O34  1  0.415865  0.263907  0.697131  1
  O  O35  1  0.429159  0.735076  0.598975  1
  O  O36  1  0.413871  0.252252  0.193300  1
  O  O37  1  0.423516  0.751154  0.099105  1
  O  O38  1  0.581329  0.251334  0.899442  1
  O  O39  1  0.586287  0.752458  0.806846  1
  O  O40  1  0.576036  0.234793  0.399506  1
  O  O41  1  0.584548  0.763885  0.302988  1
  O  O42  1  0.694913  0.563257  0.607033  1
  O  O43  1  0.686382  0.930852  0.598483  1
  O  O44  1  0.686253  0.566722  0.102315  1
  O  O45  1  0.686834  0.934453  0.093378  1
  O  O46  1  0.858742  0.246757  0.740443  1
  O  O47  1  0.863108  0.245137  0.238512  1
  O  O48  1  0.881387  0.247875  0.518665  1
  O  O49  1  0.882703  0.250845  0.017242  1
  O  O50  1  0.897457  0.749616  0.847430  1
  O  O51  1  0.903157  0.773462  0.342475  1
