# generated using pymatgen
data_KNbF6
_symmetry_space_group_name_H-M   'P 1'
_cell_length_a   5.35710148
_cell_length_b   5.35710148
_cell_length_c   10.04510866
_cell_angle_alpha   90.00000000
_cell_angle_beta   90.00000000
_cell_angle_gamma   90.00000000
_symmetry_Int_Tables_number   1
_chemical_formula_structural   KNbF6
_chemical_formula_sum   'K2 Nb2 F12'
_cell_volume   288.27991519
_cell_formula_units_Z   2
loop_
 _symmetry_equiv_pos_site_id
 _symmetry_equiv_pos_as_xyz
  1  'x, y, z'
loop_
 _atom_site_type_symbol
 _atom_site_label
 _atom_site_symmetry_multiplicity
 _atom_site_fract_x
 _atom_site_fract_y
 _atom_site_fract_z
 _atom_site_occupancy
  F  F0  1  0.182764  0.818518  0.614449  1
  F  F1  1  0.817236  0.181482  0.614449  1
  F  F2  1  0.818518  0.817236  0.385551  1
  F  F3  1  0.181482  0.182764  0.385551  1
  F  F4  1  0.256829  0.743171  0.250000  1
  F  F5  1  0.743171  0.743171  0.750000  1
  F  F6  1  0.256829  0.256829  0.750000  1
  F  F7  1  0.743171  0.256829  0.250000  1
  F  F8  1  0.182764  0.181482  0.114449  1
  F  F9  1  0.181482  0.817236  0.885551  1
  F  F10  1  0.818518  0.182764  0.885551  1
  F  F11  1  0.817236  0.818518  0.114449  1
  K  K12  1  0.500000  0.500000  0.500000  1
  K  K13  1  0.500000  0.500000  0.000000  1
  Nb  Nb14  1  0.000000  0.000000  0.750000  1
  Nb  Nb15  1  0.000000  0.000000  0.250000  1
