# generated using pymatgen
data_Ca2Fe2Si5HO15
_symmetry_space_group_name_H-M   'P 1'
_cell_length_a   7.57843095
_cell_length_b   12.32518051
_cell_length_c   6.77975329
_cell_angle_alpha   85.89329444
_cell_angle_beta   93.76134656
_cell_angle_gamma   112.15654277
_symmetry_Int_Tables_number   1
_chemical_formula_structural   Ca2Fe2Si5HO15
_chemical_formula_sum   'Ca4 Fe4 Si10 H2 O30'
_cell_volume   584.48746949
_cell_formula_units_Z   2
loop_
 _symmetry_equiv_pos_site_id
 _symmetry_equiv_pos_as_xyz
  1  'x, y, z'
loop_
 _atom_site_type_symbol
 _atom_site_label
 _atom_site_symmetry_multiplicity
 _atom_site_fract_x
 _atom_site_fract_y
 _atom_site_fract_z
 _atom_site_occupancy
  Ca  Ca0  1  0.838948  0.058233  0.141658  1
  Ca  Ca1  1  0.161052  0.941767  0.858342  1
  Ca  Ca2  1  0.716307  0.478629  0.300076  1
  Ca  Ca3  1  0.283693  0.521371  0.699924  1
  Fe  Fe4  1  0.948970  0.355868  0.063650  1
  Fe  Fe5  1  0.051030  0.644132  0.936350  1
  Fe  Fe6  1  0.810670  0.765075  0.183498  1
  Fe  Fe7  1  0.189330  0.234925  0.816502  1
  Si  Si8  1  0.233717  0.946985  0.340534  1
  Si  Si9  1  0.766283  0.053015  0.659466  1
  Si  Si10  1  0.147844  0.686435  0.425619  1
  Si  Si11  1  0.852156  0.313565  0.574381  1
  Si  Si12  1  0.360587  0.553764  0.209809  1
  Si  Si13  1  0.639413  0.446236  0.790191  1
  Si  Si14  1  0.273360  0.285534  0.309553  1
  Si  Si15  1  0.726640  0.714466  0.690447  1
  Si  Si16  1  0.491359  0.164493  0.106616  1
  Si  Si17  1  0.508641  0.835507  0.893384  1
  H  H18  1  0.789306  0.904445  0.477671  1
  H  H19  1  0.210694  0.095555  0.522329  1
  O  O20  1  0.210302  0.012292  0.534007  1
  O  O21  1  0.789698  0.987708  0.465993  1
  O  O22  1  0.050037  0.919663  0.183564  1
  O  O23  1  0.949963  0.080337  0.816436  1
  O  O24  1  0.262039  0.828648  0.433424  1
  O  O25  1  0.737961  0.171352  0.566576  1
  O  O26  1  0.978584  0.660347  0.247168  1
  O  O27  1  0.021416  0.339653  0.752832  1
  O  O28  1  0.927336  0.379359  0.362256  1
  O  O29  1  0.072664  0.620641  0.637744  1
  O  O30  1  0.305204  0.627925  0.373788  1
  O  O31  1  0.694796  0.372075  0.626212  1
  O  O32  1  0.584376  0.614772  0.158863  1
  O  O33  1  0.415624  0.385228  0.841137  1
  O  O34  1  0.203362  0.525036  0.028741  1
  O  O35  1  0.796638  0.474964  0.971259  1
  O  O36  1  0.355273  0.430080  0.338552  1
  O  O37  1  0.644727  0.569920  0.661448  1
  O  O38  1  0.115532  0.243988  0.125727  1
  O  O39  1  0.884468  0.756012  0.874273  1
  O  O40  1  0.799554  0.780556  0.478792  1
  O  O41  1  0.200446  0.219444  0.521208  1
  O  O42  1  0.466825  0.263533  0.248990  1
  O  O43  1  0.533175  0.736467  0.751010  1
  O  O44  1  0.710464  0.199999  0.057657  1
  O  O45  1  0.289536  0.800001  0.942343  1
  O  O46  1  0.663263  0.857826  0.081603  1
  O  O47  1  0.336737  0.142175  0.918397  1
  O  O48  1  0.426800  0.032718  0.227231  1
  O  O49  1  0.573200  0.967282  0.772769  1
