# generated using pymatgen
data_Fe19(SiO4)12
_symmetry_space_group_name_H-M   'P 1'
_cell_length_a   11.44279483
_cell_length_b   11.46432698
_cell_length_c   7.70350838
_cell_angle_alpha   74.64030044
_cell_angle_beta   81.69128920
_cell_angle_gamma   68.23685856
_symmetry_Int_Tables_number   1
_chemical_formula_structural   Fe19(SiO4)12
_chemical_formula_sum   'Fe19 Si12 O48'
_cell_volume   903.81399757
_cell_formula_units_Z   1
loop_
 _symmetry_equiv_pos_site_id
 _symmetry_equiv_pos_as_xyz
  1  'x, y, z'
loop_
 _atom_site_type_symbol
 _atom_site_label
 _atom_site_symmetry_multiplicity
 _atom_site_fract_x
 _atom_site_fract_y
 _atom_site_fract_z
 _atom_site_occupancy
  Fe  Fe0  1  0.000000  0.500000  0.000000  1
  Fe  Fe1  1  0.005107  0.228512  0.264364  1
  Fe  Fe2  1  0.008364  0.725393  0.256218  1
  Fe  Fe3  1  0.341490  0.995145  0.319826  1
  Fe  Fe4  1  0.163197  0.993910  0.682180  1
  Fe  Fe5  1  0.329881  0.273769  0.071545  1
  Fe  Fe6  1  0.325009  0.771061  0.071524  1
  Fe  Fe7  1  0.335558  0.500231  0.331546  1
  Fe  Fe8  1  0.337024  0.230210  0.600559  1
  Fe  Fe9  1  0.337449  0.720009  0.588439  1
  Fe  Fe10  1  0.658510  0.004855  0.680174  1
  Fe  Fe11  1  0.836803  0.006090  0.317820  1
  Fe  Fe12  1  0.662551  0.279991  0.411561  1
  Fe  Fe13  1  0.662976  0.769790  0.399441  1
  Fe  Fe14  1  0.664442  0.499769  0.668454  1
  Fe  Fe15  1  0.674991  0.228939  0.928476  1
  Fe  Fe16  1  0.670119  0.726231  0.928455  1
  Fe  Fe17  1  0.991636  0.274607  0.743782  1
  Fe  Fe18  1  0.994893  0.771488  0.735636  1
  Si  Si19  1  0.134904  0.403477  0.384482  1
  Si  Si20  1  0.095804  0.907215  0.337123  1
  Si  Si21  1  0.237544  0.096956  0.985513  1
  Si  Si22  1  0.569160  0.097557  0.324847  1
  Si  Si23  1  0.196005  0.596783  0.948818  1
  Si  Si24  1  0.531653  0.598269  0.276873  1
  Si  Si25  1  0.468347  0.401731  0.723127  1
  Si  Si26  1  0.803995  0.403217  0.051182  1
  Si  Si27  1  0.430840  0.902443  0.675153  1
  Si  Si28  1  0.762456  0.903044  0.014487  1
  Si  Si29  1  0.904196  0.092785  0.662877  1
  Si  Si30  1  0.865096  0.596523  0.615518  1
  O  O31  1  0.001647  0.056059  0.261309  1
  O  O32  1  0.193023  0.168730  0.160254  1
  O  O33  1  0.034032  0.390444  0.268287  1
  O  O34  1  0.044054  0.668252  0.019361  1
  O  O35  1  0.126319  0.552559  0.365730  1
  O  O36  1  0.139150  0.319532  0.595505  1
  O  O37  1  0.286792  0.329764  0.320769  1
  O  O38  1  0.126346  0.108637  0.865121  1
  O  O39  1  0.452276  0.108368  0.217176  1
  O  O40  1  0.299577  0.609235  0.060263  1
  O  O41  1  0.144393  0.820284  0.185383  1
  O  O42  1  0.998165  0.832423  0.458914  1
  O  O43  1  0.333742  0.051613  0.588491  1
  O  O44  1  0.319062  0.946984  0.082455  1
  O  O45  1  0.667838  0.166975  0.201522  1
  O  O46  1  0.327306  0.178956  0.870177  1
  O  O47  1  0.521551  0.162275  0.504015  1
  O  O48  1  0.366699  0.390393  0.604983  1
  O  O49  1  0.206318  0.906407  0.454687  1
  O  O50  1  0.379880  0.674349  0.333389  1
  O  O51  1  0.183222  0.683196  0.739785  1
  O  O52  1  0.527631  0.681861  0.064329  1
  O  O53  1  0.535954  0.451614  0.296499  1
  O  O54  1  0.206854  0.446864  0.969552  1
  O  O55  1  0.464046  0.548386  0.703501  1
  O  O56  1  0.793146  0.553136  0.030448  1
  O  O57  1  0.472369  0.318139  0.935671  1
  O  O58  1  0.816778  0.316804  0.260215  1
  O  O59  1  0.620120  0.325651  0.666611  1
  O  O60  1  0.793682  0.093593  0.545313  1
  O  O61  1  0.633301  0.609607  0.395017  1
  O  O62  1  0.478449  0.837725  0.495985  1
  O  O63  1  0.332162  0.833025  0.798478  1
  O  O64  1  0.672694  0.821044  0.129823  1
  O  O65  1  0.680938  0.053016  0.917545  1
  O  O66  1  0.666258  0.948387  0.411509  1
  O  O67  1  0.001835  0.167577  0.541086  1
  O  O68  1  0.855607  0.179716  0.814617  1
  O  O69  1  0.700423  0.390765  0.939737  1
  O  O70  1  0.873654  0.891363  0.134879  1
  O  O71  1  0.547724  0.891632  0.782824  1
  O  O72  1  0.713208  0.670236  0.679231  1
  O  O73  1  0.860850  0.680468  0.404495  1
  O  O74  1  0.873681  0.447441  0.634270  1
  O  O75  1  0.955946  0.331748  0.980639  1
  O  O76  1  0.965968  0.609556  0.731713  1
  O  O77  1  0.806977  0.831270  0.839746  1
  O  O78  1  0.998353  0.943940  0.738691  1
