# generated using pymatgen
data_Na2MnPCO7
_symmetry_space_group_name_H-M   'P 1'
_cell_length_a   8.48874676
_cell_length_b   8.54695010
_cell_length_c   10.42771549
_cell_angle_alpha   71.37055475
_cell_angle_beta   108.53790874
_cell_angle_gamma   75.69294964
_symmetry_Int_Tables_number   1
_chemical_formula_structural   Na2MnPCO7
_chemical_formula_sum   'Na8 Mn4 P4 C4 O28'
_cell_volume   626.44437609
_cell_formula_units_Z   4
loop_
 _symmetry_equiv_pos_site_id
 _symmetry_equiv_pos_as_xyz
  1  'x, y, z'
loop_
 _atom_site_type_symbol
 _atom_site_label
 _atom_site_symmetry_multiplicity
 _atom_site_fract_x
 _atom_site_fract_y
 _atom_site_fract_z
 _atom_site_occupancy
  Na  Na0  1  0.006612  0.998881  0.759115  1
  Na  Na1  1  0.237651  0.248429  0.745458  1
  Na  Na2  1  0.733388  0.741643  0.751783  1
  Na  Na3  1  0.760203  0.745287  0.244656  1
  Na  Na4  1  0.244344  0.259517  0.249367  1
  Na  Na5  1  0.487478  0.507915  0.246797  1
  Na  Na6  1  0.006143  0.990113  0.245859  1
  Na  Na7  1  0.539602  0.229157  0.069654  1
  Mn  Mn8  1  0.584452  0.169924  0.648610  1
  Mn  Mn9  1  0.101253  0.658962  0.650089  1
  Mn  Mn10  1  0.907723  0.341922  0.350579  1
  Mn  Mn11  1  0.414803  0.836522  0.355124  1
  P  P12  1  0.770377  0.476845  0.578934  1
  P  P13  1  0.268015  0.986861  0.579503  1
  P  P14  1  0.736051  0.011670  0.423429  1
  P  P15  1  0.229463  0.522666  0.420046  1
  C  C16  1  0.697511  0.049326  0.929722  1
  C  C17  1  0.202900  0.543697  0.925730  1
  C  C18  1  0.797174  0.451582  0.075584  1
  C  C19  1  0.299595  0.952723  0.075278  1
  O  O20  1  0.230754  0.024653  0.934832  1
  O  O21  1  0.737664  0.513290  0.938087  1
  O  O22  1  0.276485  0.470602  0.854129  1
  O  O23  1  0.771309  0.984497  0.853807  1
  O  O24  1  0.547950  0.187242  0.849226  1
  O  O25  1  0.059087  0.688658  0.837359  1
  O  O26  1  0.945371  0.485031  0.673829  1
  O  O27  1  0.752556  0.302762  0.665077  1
  O  O28  1  0.442942  0.004223  0.668654  1
  O  O29  1  0.248609  0.821947  0.675006  1
  O  O30  1  0.741394  0.005626  0.574032  1
  O  O31  1  0.102220  0.156706  0.542371  1
  O  O32  1  0.607754  0.647530  0.540519  1
  O  O33  1  0.231738  0.511786  0.571271  1
  O  O34  1  0.764017  0.484646  0.425008  1
  O  O35  1  0.903806  0.847226  0.456135  1
  O  O36  1  0.397022  0.355792  0.453867  1
  O  O37  1  0.262371  0.989443  0.428294  1
  O  O38  1  0.561468  0.001045  0.324730  1
  O  O39  1  0.741082  0.186493  0.322905  1
  O  O40  1  0.058437  0.510946  0.321884  1
  O  O41  1  0.247964  0.694572  0.330519  1
  O  O42  1  0.942126  0.303556  0.172447  1
  O  O43  1  0.445017  0.807564  0.162307  1
  O  O44  1  0.720117  0.524076  0.147434  1
  O  O45  1  0.229575  0.022814  0.151621  1
  O  O46  1  0.771008  0.980080  0.072987  1
  O  O47  1  0.275142  0.471726  0.067907  1
