# generated using pymatgen
data_Li2V3CrO8
_symmetry_space_group_name_H-M   'P 1'
_cell_length_a   6.03296542
_cell_length_b   6.03393781
_cell_length_c   6.06274843
_cell_angle_alpha   121.79957220
_cell_angle_beta   59.80610096
_cell_angle_gamma   90.30346766
_symmetry_Int_Tables_number   1
_chemical_formula_structural   Li2V3CrO8
_chemical_formula_sum   'Li2 V3 Cr1 O8'
_cell_volume   151.65231953
_cell_formula_units_Z   1
loop_
 _symmetry_equiv_pos_site_id
 _symmetry_equiv_pos_as_xyz
  1  'x, y, z'
loop_
 _atom_site_type_symbol
 _atom_site_label
 _atom_site_symmetry_multiplicity
 _atom_site_fract_x
 _atom_site_fract_y
 _atom_site_fract_z
 _atom_site_occupancy
  Li  Li0  1  0.500018  0.999958  0.499951  1
  Li  Li1  1  0.999948  0.999974  0.500002  1
  V  V2  1  0.500022  0.499876  0.499963  1
  V  V3  1  -0.000209  0.500129  0.500300  1
  V  V4  1  0.500171  -0.000153  -0.000014  1
  Cr  Cr5  1  0.000112  0.000142  0.999841  1
  O  O6  1  0.725460  0.751834  0.532927  1
  O  O7  1  0.729191  0.241662  0.038556  1
  O  O8  1  0.242573  0.733525  0.520655  1
  O  O9  1  0.750837  0.780101  0.983298  1
  O  O10  1  0.249254  0.220062  0.016664  1
  O  O11  1  0.757455  0.266407  0.479249  1
  O  O12  1  0.270733  0.758353  0.961471  1
  O  O13  1  0.274434  0.248130  0.467138  1
