# generated using pymatgen
data_Ti3Mn3(SnO8)2
_symmetry_space_group_name_H-M   'P 1'
_cell_length_a   5.89915370
_cell_length_b   5.90302734
_cell_length_c   9.52037737
_cell_angle_alpha   90.00024581
_cell_angle_beta   89.27692909
_cell_angle_gamma   120.02253665
_symmetry_Int_Tables_number   1
_chemical_formula_structural   Ti3Mn3(SnO8)2
_chemical_formula_sum   'Ti3 Mn3 Sn2 O16'
_cell_volume   287.01494526
_cell_formula_units_Z   1
loop_
 _symmetry_equiv_pos_site_id
 _symmetry_equiv_pos_as_xyz
  1  'x, y, z'
loop_
 _atom_site_type_symbol
 _atom_site_label
 _atom_site_symmetry_multiplicity
 _atom_site_fract_x
 _atom_site_fract_y
 _atom_site_fract_z
 _atom_site_occupancy
  Ti  Ti0  1  0.320471  0.160243  0.712675  1
  Ti  Ti1  1  0.157662  0.828131  0.212507  1
  Ti  Ti2  1  0.157655  0.329514  0.212505  1
  Mn  Mn3  1  0.655644  0.827832  0.213328  1
  Mn  Mn4  1  0.826447  0.659574  0.712384  1
  Mn  Mn5  1  0.826464  0.166928  0.712398  1
  Sn  Sn6  1  0.339544  0.669779  0.492585  1
  Sn  Sn7  1  0.668142  0.334086  0.989336  1
  O  O8  1  0.165501  0.838989  0.606132  1
  O  O9  1  0.042544  0.521275  0.334094  1
  O  O10  1  0.340311  0.670166  0.106213  1
  O  O11  1  0.991800  0.995903  0.311286  1
  O  O12  1  0.990055  0.995033  0.811555  1
  O  O13  1  0.165500  0.326528  0.606135  1
  O  O14  1  0.486959  0.961008  0.331031  1
  O  O15  1  0.486951  0.525973  0.331027  1
  O  O16  1  0.331549  0.165782  0.107408  1
  O  O17  1  0.682512  0.841266  0.606361  1
  O  O18  1  0.524483  0.484784  0.830933  1
  O  O19  1  0.524485  0.039717  0.830938  1
  O  O20  1  0.675878  0.337941  0.608425  1
  O  O21  1  0.838539  0.673766  0.105393  1
  O  O22  1  0.962358  0.481196  0.825687  1
  O  O23  1  0.838546  0.164788  0.105387  1
