# generated using pymatgen
data_LiCo(CO3)2
_symmetry_space_group_name_H-M   'P 1'
_cell_length_a   4.96491698
_cell_length_b   5.00232364
_cell_length_c   6.29590535
_cell_angle_alpha   64.65750041
_cell_angle_beta   66.82834349
_cell_angle_gamma   60.25902462
_symmetry_Int_Tables_number   1
_chemical_formula_structural   LiCo(CO3)2
_chemical_formula_sum   'Li1 Co1 C2 O6'
_cell_volume   119.38896171
_cell_formula_units_Z   1
loop_
 _symmetry_equiv_pos_site_id
 _symmetry_equiv_pos_as_xyz
  1  'x, y, z'
loop_
 _atom_site_type_symbol
 _atom_site_label
 _atom_site_symmetry_multiplicity
 _atom_site_fract_x
 _atom_site_fract_y
 _atom_site_fract_z
 _atom_site_occupancy
  Li  Li0  1  0.999995  0.499998  0.499998  1
  Co  Co1  1  0.999989  0.999997  0.000001  1
  C  C2  1  0.401845  0.415889  0.782483  1
  C  C3  1  0.598135  0.584112  0.217514  1
  O  O4  1  0.253916  0.277776  0.762882  1
  O  O5  1  0.292695  0.722283  0.238881  1
  O  O6  1  0.250479  0.703045  0.799781  1
  O  O7  1  0.749491  0.296972  0.200210  1
  O  O8  1  0.707289  0.277736  0.761116  1
  O  O9  1  0.746075  0.722218  0.237123  1
