# generated using pymatgen
data_LiNiPO4
_symmetry_space_group_name_H-M   'P 1'
_cell_length_a   8.27695034
_cell_length_b   5.05217963
_cell_length_c   7.94703001
_cell_angle_alpha   90.00000000
_cell_angle_beta   90.00000000
_cell_angle_gamma   90.00000000
_symmetry_Int_Tables_number   1
_chemical_formula_structural   LiNiPO4
_chemical_formula_sum   'Li4 Ni4 P4 O16'
_cell_volume   332.31809225
_cell_formula_units_Z   4
loop_
 _symmetry_equiv_pos_site_id
 _symmetry_equiv_pos_as_xyz
  1  'x, y, z'
loop_
 _atom_site_type_symbol
 _atom_site_label
 _atom_site_symmetry_multiplicity
 _atom_site_fract_x
 _atom_site_fract_y
 _atom_site_fract_z
 _atom_site_occupancy
  Li  Li0  1  0.192995  0.366222  0.527914  1
  Li  Li1  1  0.307005  0.366222  0.027914  1
  Li  Li2  1  0.692995  0.866222  0.972086  1
  Li  Li3  1  0.807005  0.866222  0.472086  1
  Ni  Ni4  1  0.053063  0.961210  0.839571  1
  Ni  Ni5  1  0.446937  0.961210  0.339571  1
  Ni  Ni6  1  0.553063  0.461210  0.660429  1
  Ni  Ni7  1  0.946937  0.461210  0.160429  1
  P  P8  1  0.074817  0.000901  0.253014  1
  P  P9  1  0.425183  0.000901  0.753014  1
  P  P10  1  0.574817  0.500901  0.246986  1
  P  P11  1  0.925183  0.500901  0.746986  1
  O  O12  1  0.044832  0.248806  0.362433  1
  O  O13  1  0.075167  0.319048  0.740964  1
  O  O14  1  0.086178  0.134668  0.070354  1
  O  O15  1  0.224685  0.838509  0.295141  1
  O  O16  1  0.275315  0.838509  0.795141  1
  O  O17  1  0.413822  0.134668  0.570354  1
  O  O18  1  0.424833  0.319048  0.240964  1
  O  O19  1  0.455168  0.248806  0.862433  1
  O  O20  1  0.544832  0.748806  0.137567  1
  O  O21  1  0.575167  0.819048  0.759036  1
  O  O22  1  0.586178  0.634668  0.429646  1
  O  O23  1  0.724685  0.338509  0.204859  1
  O  O24  1  0.775315  0.338509  0.704859  1
  O  O25  1  0.913822  0.634668  0.929646  1
  O  O26  1  0.924833  0.819048  0.259036  1
  O  O27  1  0.955168  0.748806  0.637567  1
