# generated using pymatgen
data_Li3Si6NiO15
_symmetry_space_group_name_H-M   'P 1'
_cell_length_a   10.98024521
_cell_length_b   10.98024521
_cell_length_c   10.00927545
_cell_angle_alpha   90.00000000
_cell_angle_beta   90.00000000
_cell_angle_gamma   79.84570567
_symmetry_Int_Tables_number   1
_chemical_formula_structural   Li3Si6NiO15
_chemical_formula_sum   'Li12 Si24 Ni4 O60'
_cell_volume   1187.87388143
_cell_formula_units_Z   4
loop_
 _symmetry_equiv_pos_site_id
 _symmetry_equiv_pos_as_xyz
  1  'x, y, z'
loop_
 _atom_site_type_symbol
 _atom_site_label
 _atom_site_symmetry_multiplicity
 _atom_site_fract_x
 _atom_site_fract_y
 _atom_site_fract_z
 _atom_site_occupancy
  Li  Li0  1  0.234511  0.765489  0.000000  1
  Li  Li1  1  0.481863  0.981863  0.250000  1
  Li  Li2  1  0.018137  0.518137  0.750000  1
  Li  Li3  1  0.265489  0.734511  0.500000  1
  Li  Li4  1  0.566375  0.566375  0.714994  1
  Li  Li5  1  0.066375  0.066375  0.785006  1
  Li  Li6  1  0.433625  0.433625  0.285006  1
  Li  Li7  1  0.933625  0.933625  0.214994  1
  Li  Li8  1  0.734511  0.265489  0.500000  1
  Li  Li9  1  0.518137  0.018137  0.750000  1
  Li  Li10  1  0.981863  0.481863  0.250000  1
  Li  Li11  1  0.765489  0.234511  0.000000  1
  Si  Si12  1  0.044216  0.813428  0.802435  1
  Si  Si13  1  0.186572  0.955784  0.197565  1
  Si  Si14  1  0.313428  0.544216  0.697565  1
  Si  Si15  1  0.455784  0.686572  0.302435  1
  Si  Si16  1  0.518667  0.738827  0.007288  1
  Si  Si17  1  0.018667  0.238827  0.492712  1
  Si  Si18  1  0.761173  0.981333  0.507288  1
  Si  Si19  1  0.261173  0.481333  0.992712  1
  Si  Si20  1  0.702970  0.923833  0.044969  1
  Si  Si21  1  0.202970  0.423833  0.455031  1
  Si  Si22  1  0.076167  0.297030  0.955031  1
  Si  Si23  1  0.576167  0.797030  0.544969  1
  Si  Si24  1  0.923833  0.702970  0.044969  1
  Si  Si25  1  0.423833  0.202970  0.455031  1
  Si  Si26  1  0.297030  0.076167  0.955031  1
  Si  Si27  1  0.797030  0.576167  0.544969  1
  Si  Si28  1  0.738827  0.518667  0.007288  1
  Si  Si29  1  0.238827  0.018667  0.492712  1
  Si  Si30  1  0.481333  0.261173  0.992712  1
  Si  Si31  1  0.981333  0.761173  0.507288  1
  Si  Si32  1  0.544216  0.313428  0.697565  1
  Si  Si33  1  0.686572  0.455784  0.302435  1
  Si  Si34  1  0.813428  0.044216  0.802435  1
  Si  Si35  1  0.955784  0.186572  0.197565  1
  Ni  Ni36  1  0.157336  0.657336  0.250000  1
  Ni  Ni37  1  0.342664  0.842664  0.750000  1
  Ni  Ni38  1  0.842664  0.342664  0.750000  1
  Ni  Ni39  1  0.657336  0.157336  0.250000  1
  O  O40  1  0.280917  0.982841  0.079342  1
  O  O41  1  0.017159  0.719083  0.920658  1
  O  O42  1  0.030938  0.737937  0.663119  1
  O  O43  1  0.262063  0.969062  0.336881  1
  O  O44  1  0.138688  0.829155  0.168094  1
  O  O45  1  0.170845  0.861312  0.831906  1
  O  O46  1  0.259492  0.899364  0.588601  1
  O  O47  1  0.100636  0.740508  0.411399  1
  O  O48  1  0.643311  0.989582  0.176830  1
  O  O49  1  0.143311  0.489582  0.323170  1
  O  O50  1  0.010418  0.356689  0.823170  1
  O  O51  1  0.510418  0.856689  0.676830  1
  O  O52  1  0.240508  0.600636  0.088601  1
  O  O53  1  0.399364  0.759492  0.911399  1
  O  O54  1  0.361312  0.670845  0.668094  1
  O  O55  1  0.329155  0.638688  0.331906  1
  O  O56  1  0.469062  0.762063  0.163119  1
  O  O57  1  0.237937  0.530938  0.836881  1
  O  O58  1  0.219083  0.517159  0.579342  1
  O  O59  1  0.482841  0.780917  0.420658  1
  O  O60  1  0.667091  0.884969  0.481841  1
  O  O61  1  0.167091  0.384969  0.018159  1
  O  O62  1  0.115031  0.332909  0.518159  1
  O  O63  1  0.615031  0.832909  0.981841  1
  O  O64  1  0.596417  0.596417  0.988097  1
  O  O65  1  0.342825  0.342825  0.420115  1
  O  O66  1  0.561944  0.561944  0.300513  1
  O  O67  1  0.938056  0.938056  0.800513  1
  O  O68  1  0.157175  0.157175  0.920115  1
  O  O69  1  0.096417  0.096417  0.511903  1
  O  O70  1  0.061944  0.061944  0.199487  1
  O  O71  1  0.403583  0.403583  0.011903  1
  O  O72  1  0.438056  0.438056  0.699487  1
  O  O73  1  0.842825  0.842825  0.079885  1
  O  O74  1  0.903583  0.903583  0.488097  1
  O  O75  1  0.657175  0.657175  0.579885  1
  O  O76  1  0.884969  0.667091  0.481841  1
  O  O77  1  0.332909  0.115031  0.518159  1
  O  O78  1  0.384969  0.167091  0.018159  1
  O  O79  1  0.832909  0.615031  0.981841  1
  O  O80  1  0.517159  0.219083  0.579342  1
  O  O81  1  0.780917  0.482841  0.420658  1
  O  O82  1  0.530938  0.237937  0.836881  1
  O  O83  1  0.762063  0.469062  0.163119  1
  O  O84  1  0.638688  0.329155  0.331906  1
  O  O85  1  0.670845  0.361312  0.668094  1
  O  O86  1  0.600636  0.240508  0.088601  1
  O  O87  1  0.759492  0.399364  0.911399  1
  O  O88  1  0.489582  0.143311  0.323170  1
  O  O89  1  0.356689  0.010418  0.823170  1
  O  O90  1  0.989582  0.643311  0.176830  1
  O  O91  1  0.856689  0.510418  0.676830  1
  O  O92  1  0.740508  0.100636  0.411399  1
  O  O93  1  0.899364  0.259492  0.588601  1
  O  O94  1  0.829155  0.138688  0.168094  1
  O  O95  1  0.861312  0.170845  0.831906  1
  O  O96  1  0.969062  0.262063  0.336881  1
  O  O97  1  0.737937  0.030938  0.663119  1
  O  O98  1  0.719083  0.017159  0.920658  1
  O  O99  1  0.982841  0.280917  0.079342  1
