# generated using pymatgen
data_Cs3B6H12Se4Br
_symmetry_space_group_name_H-M   'P 1'
_cell_length_a   11.01503691
_cell_length_b   11.01494603
_cell_length_c   9.04026149
_cell_angle_alpha   90.00000000
_cell_angle_beta   90.00000000
_cell_angle_gamma   120.00027290
_symmetry_Int_Tables_number   1
_chemical_formula_structural   Cs3B6H12Se4Br
_chemical_formula_sum   'Cs6 B12 H24 Se8 Br2'
_cell_volume   949.90190872
_cell_formula_units_Z   2
loop_
 _symmetry_equiv_pos_site_id
 _symmetry_equiv_pos_as_xyz
  1  'x, y, z'
loop_
 _atom_site_type_symbol
 _atom_site_label
 _atom_site_symmetry_multiplicity
 _atom_site_fract_x
 _atom_site_fract_y
 _atom_site_fract_z
 _atom_site_occupancy
  Cs  Cs0  1  0.693314  0.846657  0.750279  1
  Cs  Cs1  1  0.153343  0.846657  0.750279  1
  Cs  Cs2  1  0.153336  0.306673  0.750277  1
  Cs  Cs3  1  0.306686  0.153343  0.250279  1
  Cs  Cs4  1  0.846657  0.153343  0.250279  1
  Cs  Cs5  1  0.846664  0.693327  0.250277  1
  B  B6  1  0.766790  0.233215  0.888525  1
  B  B7  1  0.766795  0.533590  0.888516  1
  B  B8  1  0.466426  0.233215  0.888525  1
  B  B9  1  0.233210  0.766785  0.388525  1
  B  B10  1  0.233205  0.466410  0.388516  1
  B  B11  1  0.533574  0.766785  0.388525  1
  B  B12  1  0.567659  0.432340  0.583337  1
  B  B13  1  0.567660  0.135319  0.583341  1
  B  B14  1  0.864681  0.432340  0.583337  1
  B  B15  1  0.432341  0.567660  0.083337  1
  B  B16  1  0.432340  0.864681  0.083341  1
  B  B17  1  0.135319  0.567660  0.083337  1
  H  H18  1  0.702898  0.112449  0.929517  1
  H  H19  1  0.887563  0.590468  0.929507  1
  H  H20  1  0.409543  0.297103  0.929514  1
  H  H21  1  0.887560  0.297103  0.929514  1
  H  H22  1  0.409551  0.112449  0.929517  1
  H  H23  1  0.702905  0.590468  0.929507  1
  H  H24  1  0.297102  0.887551  0.429517  1
  H  H25  1  0.112437  0.409532  0.429507  1
  H  H26  1  0.590457  0.702897  0.429514  1
  H  H27  1  0.112440  0.702897  0.429514  1
  H  H28  1  0.590449  0.887551  0.429517  1
  H  H29  1  0.297095  0.409532  0.429507  1
  H  H30  1  0.506543  0.493458  0.620539  1
  H  H31  1  0.506542  0.013084  0.620542  1
  H  H32  1  0.986916  0.493458  0.620539  1
  H  H33  1  0.493457  0.506542  0.120539  1
  H  H34  1  0.493458  0.986916  0.120542  1
  H  H35  1  0.013084  0.506542  0.120539  1
  H  H36  1  0.577574  0.422424  0.451050  1
  H  H37  1  0.577576  0.155151  0.451052  1
  H  H38  1  0.844850  0.422424  0.451050  1
  H  H39  1  0.422426  0.577576  0.951050  1
  H  H40  1  0.422424  0.844849  0.951052  1
  H  H41  1  0.155150  0.577576  0.951050  1
  Se  Se42  1  0.771808  0.228192  0.660259  1
  Se  Se43  1  0.771812  0.543623  0.660247  1
  Se  Se44  1  0.456384  0.228192  0.660259  1
  Se  Se45  1  0.228192  0.771808  0.160259  1
  Se  Se46  1  0.228188  0.456377  0.160247  1
  Se  Se47  1  0.543616  0.771808  0.160259  1
  Se  Se48  1  0.666672  0.333344  0.977920  1
  Se  Se49  1  0.333328  0.666656  0.477920  1
  Br  Br50  1  1.000000  0.999999  0.495859  1
  Br  Br51  1  0.000000  0.000001  0.995859  1
