# generated using pymatgen
data_Li4Ti2V3Ni3O16
_symmetry_space_group_name_H-M   'P 1'
_cell_length_a   5.89264094
_cell_length_b   5.86395704
_cell_length_c   9.60855577
_cell_angle_alpha   90.03819498
_cell_angle_beta   90.50351032
_cell_angle_gamma   119.74600246
_symmetry_Int_Tables_number   1
_chemical_formula_structural   Li4Ti2V3Ni3O16
_chemical_formula_sum   'Li4 Ti2 V3 Ni3 O16'
_cell_volume   288.25133691
_cell_formula_units_Z   1
loop_
 _symmetry_equiv_pos_site_id
 _symmetry_equiv_pos_as_xyz
  1  'x, y, z'
loop_
 _atom_site_type_symbol
 _atom_site_label
 _atom_site_symmetry_multiplicity
 _atom_site_fract_x
 _atom_site_fract_y
 _atom_site_fract_z
 _atom_site_occupancy
  Li  Li0  1  0.317231  0.658762  0.896008  1
  Li  Li1  1  0.998320  0.994396  0.988735  1
  Li  Li2  1  0.004520  0.002114  0.497994  1
  Li  Li3  1  0.663118  0.339626  0.404451  1
  Ti  Ti4  1  0.335628  0.665186  0.510277  1
  Ti  Ti5  1  0.712801  0.359621  0.990024  1
  V  V6  1  0.188600  0.832377  0.226875  1
  V  V7  1  0.187161  0.339366  0.212455  1
  V  V8  1  0.360921  0.177114  0.734901  1
  Ni  Ni9  1  0.663838  0.830510  0.205735  1
  Ni  Ni10  1  0.831194  0.661407  0.708220  1
  Ni  Ni11  1  0.831503  0.169638  0.707993  1
  O  O12  1  0.180097  0.836791  0.594969  1
  O  O13  1  0.029201  0.531464  0.330655  1
  O  O14  1  0.307219  0.668775  0.102586  1
  O  O15  1  0.013226  0.994290  0.305176  1
  O  O16  1  0.027143  0.013477  0.799640  1
  O  O17  1  0.177085  0.342370  0.594472  1
  O  O18  1  0.468569  0.967520  0.335320  1
  O  O19  1  0.454636  0.500885  0.334478  1
  O  O20  1  0.326553  0.156204  0.104162  1
  O  O21  1  0.662209  0.830196  0.586285  1
  O  O22  1  0.495670  0.464842  0.845005  1
  O  O23  1  0.497481  0.028504  0.843957  1
  O  O24  1  0.623990  0.312290  0.606335  1
  O  O25  1  0.837869  0.665480  0.092983  1
  O  O26  1  0.951582  0.475351  0.850264  1
  O  O27  1  0.852636  0.181741  0.097887  1
