# generated using pymatgen
data_LiFe2(BO3)2
_symmetry_space_group_name_H-M   'P 1'
_cell_length_a   5.28539811
_cell_length_b   9.06381696
_cell_length_c   11.35375433
_cell_angle_alpha   113.61540090
_cell_angle_beta   77.77053641
_cell_angle_gamma   90.26285484
_symmetry_Int_Tables_number   1
_chemical_formula_structural   LiFe2(BO3)2
_chemical_formula_sum   'Li4 Fe8 B8 O24'
_cell_volume   485.09172914
_cell_formula_units_Z   4
loop_
 _symmetry_equiv_pos_site_id
 _symmetry_equiv_pos_as_xyz
  1  'x, y, z'
loop_
 _atom_site_type_symbol
 _atom_site_label
 _atom_site_symmetry_multiplicity
 _atom_site_fract_x
 _atom_site_fract_y
 _atom_site_fract_z
 _atom_site_occupancy
  Li  Li0  1  0.610170  0.048409  0.091829  1
  Li  Li1  1  0.932799  0.430399  0.830559  1
  Li  Li2  1  0.111308  0.550451  0.100637  1
  Li  Li3  1  0.664950  0.673675  0.359175  1
  Fe  Fe4  1  0.408193  0.260829  0.869033  1
  Fe  Fe5  1  0.104928  0.217723  0.126095  1
  Fe  Fe6  1  0.842721  0.144765  0.617084  1
  Fe  Fe7  1  0.648328  0.345839  0.371421  1
  Fe  Fe8  1  0.348130  0.645909  0.627643  1
  Fe  Fe9  1  0.153741  0.858396  0.371420  1
  Fe  Fe10  1  0.901476  0.783085  0.865125  1
  Fe  Fe11  1  0.597477  0.719480  0.115059  1
  B  B12  1  0.649686  0.011073  0.365935  1
  B  B13  1  0.889714  0.121731  0.882426  1
  B  B14  1  0.145894  0.520099  0.370025  1
  B  B15  1  0.405299  0.591440  0.868150  1
  B  B16  1  0.854385  0.485543  0.619487  1
  B  B17  1  0.601737  0.395414  0.128940  1
  B  B18  1  0.349899  0.972167  0.620106  1
  B  B19  1  0.100193  0.892643  0.122472  1
  O  O20  1  0.123982  0.152398  0.921376  1
  O  O21  1  0.451583  0.119973  0.678750  1
  O  O22  1  0.248268  0.014880  0.120331  1
  O  O23  1  0.547839  0.140980  0.355777  1
  O  O24  1  0.873848  0.017025  0.411337  1
  O  O25  1  0.789172  0.231819  0.841197  1
  O  O26  1  0.261985  0.470056  0.888203  1
  O  O27  1  0.019652  0.379791  0.337213  1
  O  O28  1  0.689084  0.280758  0.169127  1
  O  O29  1  0.631199  0.474877  0.566784  1
  O  O30  1  0.937161  0.363563  0.644917  1
  O  O31  1  0.376861  0.371939  0.079923  1
  O  O32  1  0.644177  0.616751  0.902740  1
  O  O33  1  0.385666  0.526511  0.406630  1
  O  O34  1  0.296436  0.687668  0.819179  1
  O  O35  1  0.976656  0.628786  0.648356  1
  O  O36  1  0.734867  0.529731  0.140653  1
  O  O37  1  0.188849  0.778939  0.165585  1
  O  O38  1  0.137433  0.968063  0.565499  1
  O  O39  1  0.469053  0.832593  0.610236  1
  O  O40  1  0.041928  0.651129  0.358446  1
  O  O41  1  0.756862  0.997829  0.893331  1
  O  O42  1  0.532448  0.864054  0.331147  1
  O  O43  1  0.866054  0.872824  0.082158  1
