# generated using pymatgen
data_Hf3N2O3
_symmetry_space_group_name_H-M   'P 1'
_cell_length_a   4.00393368
_cell_length_b   5.67718264
_cell_length_c   10.64915229
_cell_angle_alpha   90.51601935
_cell_angle_beta   90.01136823
_cell_angle_gamma   110.89810917
_symmetry_Int_Tables_number   1
_chemical_formula_structural   Hf3N2O3
_chemical_formula_sum   'Hf6 N4 O6'
_cell_volume   226.13182418
_cell_formula_units_Z   2
loop_
 _symmetry_equiv_pos_site_id
 _symmetry_equiv_pos_as_xyz
  1  'x, y, z'
loop_
 _atom_site_type_symbol
 _atom_site_label
 _atom_site_symmetry_multiplicity
 _atom_site_fract_x
 _atom_site_fract_y
 _atom_site_fract_z
 _atom_site_occupancy
  Hf  Hf0  1  0.183082  0.367453  0.248742  1
  Hf  Hf1  1  0.142543  0.288653  0.941811  1
  Hf  Hf2  1  0.135398  0.271740  0.555466  1
  Hf  Hf3  1  0.807812  0.614393  0.749612  1
  Hf  Hf4  1  0.856299  0.713259  0.055015  1
  Hf  Hf5  1  0.864619  0.724881  0.440310  1
  N  N6  1  0.298572  0.598601  0.078996  1
  N  N7  1  0.044591  0.091968  0.384841  1
  N  N8  1  0.704102  0.407492  0.574769  1
  N  N9  1  0.699726  0.401484  0.920005  1
  O  O10  1  0.311299  0.619734  0.419079  1
  O  O11  1  0.246828  0.493783  0.751882  1
  O  O12  1  0.048421  0.090009  0.112886  1
  O  O13  1  0.754001  0.508281  0.257373  1
  O  O14  1  0.949771  0.911274  0.884709  1
  O  O15  1  0.956276  0.913656  0.620159  1
