# generated using pymatgen
data_Li2Mn2Si2O9
_symmetry_space_group_name_H-M   'P 1'
_cell_length_a   13.93125107
_cell_length_b   8.42693875
_cell_length_c   5.12930192
_cell_angle_alpha   89.99992242
_cell_angle_beta   90.00027604
_cell_angle_gamma   90.00027825
_symmetry_Int_Tables_number   1
_chemical_formula_structural   Li2Mn2Si2O9
_chemical_formula_sum   'Li8 Mn8 Si8 O36'
_cell_volume   602.16875826
_cell_formula_units_Z   4
loop_
 _symmetry_equiv_pos_site_id
 _symmetry_equiv_pos_as_xyz
  1  'x, y, z'
loop_
 _atom_site_type_symbol
 _atom_site_label
 _atom_site_symmetry_multiplicity
 _atom_site_fract_x
 _atom_site_fract_y
 _atom_site_fract_z
 _atom_site_occupancy
  Li  Li0  1  0.160853  0.053641  0.634856  1
  Li  Li1  1  0.160851  0.446357  0.134856  1
  Li  Li2  1  0.339146  0.553642  0.134847  1
  Li  Li3  1  0.339143  0.946362  0.634864  1
  Li  Li4  1  0.660862  0.053644  0.365155  1
  Li  Li5  1  0.660865  0.446354  0.865135  1
  Li  Li6  1  0.839136  0.553643  0.865151  1
  Li  Li7  1  0.839137  0.946356  0.365139  1
  Mn  Mn8  1  0.170275  0.658539  0.621863  1
  Mn  Mn9  1  0.170313  0.841467  0.121840  1
  Mn  Mn10  1  0.329715  0.158504  0.121876  1
  Mn  Mn11  1  0.329716  0.341486  0.621873  1
  Mn  Mn12  1  0.670265  0.658532  0.378166  1
  Mn  Mn13  1  0.670283  0.841477  0.878150  1
  Mn  Mn14  1  0.829734  0.158534  0.878120  1
  Mn  Mn15  1  0.829706  0.341490  0.378113  1
  Si  Si16  1  0.028096  0.153199  0.215760  1
  Si  Si17  1  0.028085  0.346761  0.715734  1
  Si  Si18  1  0.471901  0.653184  0.715770  1
  Si  Si19  1  0.471911  0.846771  0.215745  1
  Si  Si20  1  0.528105  0.153169  0.784228  1
  Si  Si21  1  0.528093  0.346752  0.284254  1
  Si  Si22  1  0.971896  0.653171  0.284231  1
  Si  Si23  1  0.971908  0.846761  0.784258  1
  O  O24  1  0.069099  0.272952  0.443269  1
  O  O25  1  0.069100  0.227066  0.943229  1
  O  O26  1  0.074774  0.982085  0.274282  1
  O  O27  1  0.074769  0.517938  0.774299  1
  O  O28  1  0.091109  0.656142  0.286827  1
  O  O29  1  0.091111  0.843861  0.786833  1
  O  O30  1  0.235126  0.823474  0.439070  1
  O  O31  1  0.235126  0.676522  0.939057  1
  O  O32  1  0.250005  -0.000003  0.971519  1
  O  O33  1  0.249994  0.500002  0.471511  1
  O  O34  1  0.264871  0.176521  0.439068  1
  O  O35  1  0.264873  0.323476  0.939064  1
  O  O36  1  0.408895  0.156132  0.786825  1
  O  O37  1  0.408894  0.343864  0.286823  1
  O  O38  1  0.425239  0.017921  0.274315  1
  O  O39  1  0.425237  0.482103  0.774290  1
  O  O40  1  0.430898  0.727066  0.443219  1
  O  O41  1  0.430899  0.772952  0.943265  1
  O  O42  1  0.569100  0.227076  0.056796  1
  O  O43  1  0.569098  0.272956  0.556709  1
  O  O44  1  0.574760  0.517935  0.225697  1
  O  O45  1  0.574765  0.982104  0.725724  1
  O  O46  1  0.591102  0.656141  0.713167  1
  O  O47  1  0.591101  0.843858  0.213179  1
  O  O48  1  0.735115  0.676520  0.060966  1
  O  O49  1  0.735116  0.823470  0.560925  1
  O  O50  1  0.750015  0.000002  0.028483  1
  O  O51  1  0.749981  0.500008  0.528477  1
  O  O52  1  0.764881  0.176521  0.560952  1
  O  O53  1  0.764880  0.323471  0.060919  1
  O  O54  1  0.908898  0.156140  0.213170  1
  O  O55  1  0.908897  0.343862  0.713171  1
  O  O56  1  0.925241  0.017924  0.725694  1
  O  O57  1  0.925234  0.482108  0.225724  1
  O  O58  1  0.930902  0.727074  0.556788  1
  O  O59  1  0.930903  0.772958  0.056710  1
