# generated using pymatgen
data_CeU5O12
_symmetry_space_group_name_H-M   'P 1'
_cell_length_a   6.65455698
_cell_length_b   6.65521033
_cell_length_c   6.65544147
_cell_angle_alpha   120.00122197
_cell_angle_beta   109.47133390
_cell_angle_gamma   80.40546461
_symmetry_Int_Tables_number   1
_chemical_formula_structural   CeU5O12
_chemical_formula_sum   'Ce1 U5 O12'
_cell_volume   240.66144569
_cell_formula_units_Z   1
loop_
 _symmetry_equiv_pos_site_id
 _symmetry_equiv_pos_as_xyz
  1  'x, y, z'
loop_
 _atom_site_type_symbol
 _atom_site_label
 _atom_site_symmetry_multiplicity
 _atom_site_fract_x
 _atom_site_fract_y
 _atom_site_fract_z
 _atom_site_occupancy
  Ce  Ce0  1  0.500000  0.666664  0.833332  1
  U  U1  1  0.500000  0.333266  0.166633  1
  U  U2  1  0.500000  0.000055  0.500028  1
  U  U3  1  0.000000  0.999933  0.999966  1
  U  U4  1  0.000000  0.666663  0.333332  1
  U  U5  1  0.000000  0.333367  0.666684  1
  O  O6  1  0.629274  0.666669  0.217676  1
  O  O7  1  0.876671  0.332254  0.291170  1
  O  O8  1  0.123329  0.332254  0.041084  1
  O  O9  1  0.884228  0.666675  0.962576  1
  O  O10  1  0.876620  0.001082  0.625526  1
  O  O11  1  0.370763  0.007494  0.131349  1
  O  O12  1  0.370726  0.666669  0.448994  1
  O  O13  1  0.629246  0.325850  0.535324  1
  O  O14  1  0.115772  0.666675  0.704099  1
  O  O15  1  0.123380  0.001082  0.375557  1
  O  O16  1  0.629237  0.007494  0.876145  1
  O  O17  1  0.370754  0.325850  0.790526  1
