# generated using pymatgen
data_Li2P2WO8
_symmetry_space_group_name_H-M   'P 1'
_cell_length_a   4.90577421
_cell_length_b   4.90573371
_cell_length_c   7.73741158
_cell_angle_alpha   89.99712409
_cell_angle_beta   90.00038567
_cell_angle_gamma   120.00023578
_symmetry_Int_Tables_number   1
_chemical_formula_structural   Li2P2WO8
_chemical_formula_sum   'Li2 P2 W1 O8'
_cell_volume   161.26377596
_cell_formula_units_Z   1
loop_
 _symmetry_equiv_pos_site_id
 _symmetry_equiv_pos_as_xyz
  1  'x, y, z'
loop_
 _atom_site_type_symbol
 _atom_site_label
 _atom_site_symmetry_multiplicity
 _atom_site_fract_x
 _atom_site_fract_y
 _atom_site_fract_z
 _atom_site_occupancy
  Li  Li0  1  0.333264  0.666707  0.665781  1
  Li  Li1  1  0.666554  0.333299  0.334218  1
  P  P2  1  0.333298  0.666631  0.231517  1
  P  P3  1  0.666669  0.333368  0.768486  1
  W  W4  1  0.999981  0.999988  -0.000000  1
  O  O5  1  0.041445  0.682349  0.161507  1
  O  O6  1  0.333366  0.666655  0.424784  1
  O  O7  1  0.317585  0.359066  0.161505  1
  O  O8  1  0.640851  0.958485  0.161471  1
  O  O9  1  0.359083  0.041504  0.838494  1
  O  O10  1  0.682366  0.640920  0.838496  1
  O  O11  1  0.666733  0.333372  0.575215  1
  O  O12  1  0.958507  0.317654  0.838530  1
