# generated using pymatgen
data_Cr2CoNi3(PO4)6
_symmetry_space_group_name_H-M   'P 1'
_cell_length_a   8.34544514
_cell_length_b   8.59136724
_cell_length_c   8.59136745
_cell_angle_alpha   60.00000011
_cell_angle_beta   59.02033065
_cell_angle_gamma   59.02032814
_symmetry_Int_Tables_number   1
_chemical_formula_structural   Cr2CoNi3(PO4)6
_chemical_formula_sum   'Cr2 Co1 Ni3 P6 O24'
_cell_volume   429.00948428
_cell_formula_units_Z   1
loop_
 _symmetry_equiv_pos_site_id
 _symmetry_equiv_pos_as_xyz
  1  'x, y, z'
loop_
 _atom_site_type_symbol
 _atom_site_label
 _atom_site_symmetry_multiplicity
 _atom_site_fract_x
 _atom_site_fract_y
 _atom_site_fract_z
 _atom_site_occupancy
  Cr  Cr0  1  0.001655  0.999449  0.999449  1
  Cr  Cr1  1  0.500825  0.499725  0.499725  1
  Co  Co2  1  0.580853  0.139715  0.139715  1
  Ni  Ni3  1  0.073250  0.642250  0.642250  1
  Ni  Ni4  1  0.425951  0.858016  0.858016  1
  Ni  Ni5  1  0.925451  0.358183  0.358183  1
  P  P6  1  0.253816  0.249785  0.541271  1
  P  P7  1  0.253816  0.955129  0.249785  1
  P  P8  1  0.253816  0.541271  0.955129  1
  P  P9  1  0.745573  0.452903  0.049584  1
  P  P10  1  0.745573  0.049584  0.751940  1
  P  P11  1  0.745573  0.751940  0.452903  1
  O  O12  1  0.063131  0.102176  0.333114  1
  O  O13  1  0.063131  0.501579  0.102176  1
  O  O14  1  0.063131  0.333114  0.501579  1
  O  O15  1  0.212659  0.095590  0.746260  1
  O  O16  1  0.442874  0.175326  0.384138  1
  O  O17  1  0.294419  0.397302  0.560360  1
  O  O18  1  0.212659  0.945490  0.095590  1
  O  O19  1  0.294419  0.747918  0.397302  1
  O  O20  1  0.558344  0.603928  0.009168  1
  O  O21  1  0.294419  0.560360  0.747918  1
  O  O22  1  0.779305  0.245249  0.062795  1
  O  O23  1  0.558344  0.009168  0.828560  1
  O  O24  1  0.442874  0.997660  0.175326  1
  O  O25  1  0.212659  0.746260  0.945490  1
  O  O26  1  0.710082  0.432138  0.255492  1
  O  O27  1  0.442874  0.384138  0.997660  1
  O  O28  1  0.710082  0.255492  0.602288  1
  O  O29  1  0.779305  0.062795  0.912651  1
  O  O30  1  0.710082  0.602288  0.432138  1
  O  O31  1  0.558344  0.828560  0.603928  1
  O  O32  1  0.779305  0.912651  0.245249  1
  O  O33  1  0.937134  0.677983  0.486203  1
  O  O34  1  0.937134  0.486203  0.898679  1
  O  O35  1  0.937134  0.898679  0.677983  1
