# generated using pymatgen
data_Li2V3(PO4)3
_symmetry_space_group_name_H-M   'P 1'
_cell_length_a   8.51725313
_cell_length_b   8.95750051
_cell_length_c   8.95750085
_cell_angle_alpha   60.18304084
_cell_angle_beta   58.72852700
_cell_angle_gamma   58.72852777
_symmetry_Int_Tables_number   1
_chemical_formula_structural   Li2V3(PO4)3
_chemical_formula_sum   'Li4 V6 P6 O24'
_cell_volume   474.36387020
_cell_formula_units_Z   2
loop_
 _symmetry_equiv_pos_site_id
 _symmetry_equiv_pos_as_xyz
  1  'x, y, z'
loop_
 _atom_site_type_symbol
 _atom_site_label
 _atom_site_symmetry_multiplicity
 _atom_site_fract_x
 _atom_site_fract_y
 _atom_site_fract_z
 _atom_site_occupancy
  Li  Li0  1  0.250000  0.860250  0.639750  1
  Li  Li1  1  0.750000  0.154610  0.345390  1
  Li  Li2  1  0.746585  0.751424  0.151393  1
  Li  Li3  1  0.753415  0.348607  0.748576  1
  V  V4  1  0.003653  0.000980  0.002098  1
  V  V5  1  0.065248  0.644365  0.648003  1
  V  V6  1  0.551699  0.151687  0.149305  1
  V  V7  1  0.496347  0.497902  0.499020  1
  V  V8  1  0.434752  0.851997  0.855635  1
  V  V9  1  0.948301  0.350695  0.348313  1
  P  P10  1  0.248710  0.252838  0.560664  1
  P  P11  1  0.251290  0.939336  0.247162  1
  P  P12  1  0.250000  0.558948  0.941052  1
  P  P13  1  0.750000  0.455769  0.044231  1
  P  P14  1  0.761946  0.041683  0.748500  1
  P  P15  1  0.738054  0.751500  0.458317  1
  O  O16  1  0.060817  0.094769  0.306693  1
  O  O17  1  0.060150  0.534283  0.093955  1
  O  O18  1  0.058776  0.311727  0.533786  1
  O  O19  1  0.233664  0.089922  0.747681  1
  O  O20  1  0.439183  0.193307  0.405231  1
  O  O21  1  0.261764  0.409037  0.582321  1
  O  O22  1  0.238236  0.917679  0.090963  1
  O  O23  1  0.266336  0.752319  0.410078  1
  O  O24  1  0.568470  0.606390  -0.000493  1
  O  O25  1  0.270451  0.585568  0.743456  1
  O  O26  1  0.776658  0.259919  0.063525  1
  O  O27  1  0.594566  0.981674  0.811494  1
  O  O28  1  0.441224  0.966214  0.188273  1
  O  O29  1  0.229549  0.756544  0.914432  1
  O  O30  1  0.723342  0.436475  0.240081  1
  O  O31  1  0.439850  0.406045  0.965717  1
  O  O32  1  0.729268  0.235954  0.597586  1
  O  O33  1  0.773947  0.069311  0.902283  1
  O  O34  1  0.726053  0.597717  0.430689  1
  O  O35  1  0.538584  0.819114  0.604970  1
  O  O36  1  0.770732  0.902414  0.264046  1
  O  O37  1  0.905434  0.688506  0.518326  1
  O  O38  1  0.931530  0.500493  0.893610  1
  O  O39  1  0.961416  0.895030  0.680886  1
