# generated using pymatgen
data_Li4VCr3O8
_symmetry_space_group_name_H-M   'P 1'
_cell_length_a   5.16194127
_cell_length_b   5.93028377
_cell_length_c   5.14133688
_cell_angle_alpha   89.99107965
_cell_angle_beta   70.48544602
_cell_angle_gamma   90.00197768
_symmetry_Int_Tables_number   1
_chemical_formula_structural   Li4VCr3O8
_chemical_formula_sum   'Li4 V1 Cr3 O8'
_cell_volume   148.34470852
_cell_formula_units_Z   1
loop_
 _symmetry_equiv_pos_site_id
 _symmetry_equiv_pos_as_xyz
  1  'x, y, z'
loop_
 _atom_site_type_symbol
 _atom_site_label
 _atom_site_symmetry_multiplicity
 _atom_site_fract_x
 _atom_site_fract_y
 _atom_site_fract_z
 _atom_site_occupancy
  Li  Li0  1  0.000000  0.000000  0.000000  1
  Li  Li1  1  0.000000  0.500000  0.000000  1
  Li  Li2  1  0.000144  0.252320  0.500236  1
  Li  Li3  1  0.999855  0.747680  0.499764  1
  V  V4  1  0.500000  0.000000  0.500000  1
  Cr  Cr5  1  0.499964  0.249042  0.999887  1
  Cr  Cr6  1  0.500036  0.750958  0.000113  1
  Cr  Cr7  1  0.500001  0.500000  0.499999  1
  O  O8  1  0.269391  0.999980  0.238500  1
  O  O9  1  0.276938  0.499963  0.242351  1
  O  O10  1  0.727647  0.251768  0.256489  1
  O  O11  1  0.271931  0.252133  0.743998  1
  O  O12  1  0.728069  0.747867  0.256002  1
  O  O13  1  0.730608  0.000021  0.761500  1
  O  O14  1  0.272353  0.748232  0.743512  1
  O  O15  1  0.723062  0.500036  0.757649  1
