# generated using pymatgen
data_La2Pr2O7
_symmetry_space_group_name_H-M   'P 1'
_cell_length_a   8.11767910
_cell_length_b   8.11756961
_cell_length_c   8.11771241
_cell_angle_alpha   60.00148820
_cell_angle_beta   60.00174925
_cell_angle_gamma   60.00129062
_symmetry_Int_Tables_number   1
_chemical_formula_structural   La2Pr2O7
_chemical_formula_sum   'La4 Pr4 O14'
_cell_volume   378.26087798
_cell_formula_units_Z   2
loop_
 _symmetry_equiv_pos_site_id
 _symmetry_equiv_pos_as_xyz
  1  'x, y, z'
loop_
 _atom_site_type_symbol
 _atom_site_label
 _atom_site_symmetry_multiplicity
 _atom_site_fract_x
 _atom_site_fract_y
 _atom_site_fract_z
 _atom_site_occupancy
  La  La0  1  0.124997  0.125001  0.124996  1
  La  La1  1  0.625005  0.124997  0.125001  1
  La  La2  1  0.124993  0.625008  0.124994  1
  La  La3  1  0.125003  0.125000  0.625003  1
  Pr  Pr4  1  0.625007  0.624996  0.125000  1
  Pr  Pr5  1  0.624999  0.125001  0.624996  1
  Pr  Pr6  1  0.125000  0.624999  0.625004  1
  Pr  Pr7  1  0.624997  0.625004  0.624998  1
  O  O8  1  0.000002  -0.000001  0.999993  1
  O  O9  1  0.249998  0.249999  0.250007  1
  O  O10  1  0.730305  0.269691  0.269699  1
  O  O11  1  0.730310  0.730305  0.269701  1
  O  O12  1  0.730312  0.269699  0.730301  1
  O  O13  1  0.269690  0.730302  0.269701  1
  O  O14  1  0.269690  0.269697  0.730301  1
  O  O15  1  0.980303  0.519690  0.519697  1
  O  O16  1  0.269697  0.730308  0.730302  1
  O  O17  1  0.519687  0.980301  0.519699  1
  O  O18  1  0.519692  0.519696  0.980299  1
  O  O19  1  0.980313  0.519696  0.980301  1
  O  O20  1  0.980306  0.980301  0.519704  1
  O  O21  1  0.519694  0.980309  0.980304  1
