# generated using pymatgen
data_Ti3VCu2(PO4)6
_symmetry_space_group_name_H-M   'P 1'
_cell_length_a   8.60763116
_cell_length_b   8.60351087
_cell_length_c   8.60351091
_cell_angle_alpha   60.00000347
_cell_angle_beta   60.01583687
_cell_angle_gamma   60.01583231
_symmetry_Int_Tables_number   1
_chemical_formula_structural   Ti3VCu2(PO4)6
_chemical_formula_sum   'Ti3 V1 Cu2 P6 O24'
_cell_volume   450.63403626
_cell_formula_units_Z   1
loop_
 _symmetry_equiv_pos_site_id
 _symmetry_equiv_pos_as_xyz
  1  'x, y, z'
loop_
 _atom_site_type_symbol
 _atom_site_label
 _atom_site_symmetry_multiplicity
 _atom_site_fract_x
 _atom_site_fract_y
 _atom_site_fract_z
 _atom_site_occupancy
  Ti  Ti0  1  0.074180  0.641940  0.641940  1
  Ti  Ti1  1  0.425687  0.858105  0.858105  1
  Ti  Ti2  1  0.925747  0.358084  0.358084  1
  V  V3  1  0.572815  0.142395  0.142395  1
  Cu  Cu4  1  0.002339  0.999220  0.999220  1
  Cu  Cu5  1  0.499883  0.500039  0.500039  1
  P  P6  1  0.251024  0.249743  0.538098  1
  P  P7  1  0.251024  0.961134  0.249743  1
  P  P8  1  0.251024  0.538098  0.961134  1
  P  P9  1  0.749171  0.459125  0.039768  1
  P  P10  1  0.749171  0.039768  0.751936  1
  P  P11  1  0.749171  0.751936  0.459125  1
  O  O12  1  0.071442  0.125964  0.302871  1
  O  O13  1  0.071442  0.499723  0.125964  1
  O  O14  1  0.071442  0.302871  0.499723  1
  O  O15  1  0.244817  0.083349  0.729224  1
  O  O16  1  0.430839  0.196946  0.376148  1
  O  O17  1  0.254451  0.417016  0.557757  1
  O  O18  1  0.244817  0.942610  0.083349  1
  O  O19  1  0.254451  0.770777  0.417016  1
  O  O20  1  0.570814  0.625422  0.000438  1
  O  O21  1  0.254451  0.557757  0.770777  1
  O  O22  1  0.754396  0.268982  0.058271  1
  O  O23  1  0.570814  0.000438  0.803326  1
  O  O24  1  0.430839  0.996067  0.196946  1
  O  O25  1  0.244817  0.729224  0.942610  1
  O  O26  1  0.744664  0.441198  0.229652  1
  O  O27  1  0.430839  0.376148  0.996067  1
  O  O28  1  0.744664  0.229652  0.584486  1
  O  O29  1  0.754396  0.058271  0.918349  1
  O  O30  1  0.744664  0.584486  0.441198  1
  O  O31  1  0.570814  0.803326  0.625422  1
  O  O32  1  0.754396  0.918349  0.268982  1
  O  O33  1  0.928163  0.698929  0.498522  1
  O  O34  1  0.928163  0.498522  0.874384  1
  O  O35  1  0.928163  0.874384  0.698929  1
