# generated using pymatgen
data_Fe3O5F
_symmetry_space_group_name_H-M   'P 1'
_cell_length_a   4.63788641
_cell_length_b   7.65604825
_cell_length_c   5.51149747
_cell_angle_alpha   94.54526760
_cell_angle_beta   91.79808890
_cell_angle_gamma   88.38530828
_symmetry_Int_Tables_number   1
_chemical_formula_structural   Fe3O5F
_chemical_formula_sum   'Fe6 O10 F2'
_cell_volume   194.92523623
_cell_formula_units_Z   2
loop_
 _symmetry_equiv_pos_site_id
 _symmetry_equiv_pos_as_xyz
  1  'x, y, z'
loop_
 _atom_site_type_symbol
 _atom_site_label
 _atom_site_symmetry_multiplicity
 _atom_site_fract_x
 _atom_site_fract_y
 _atom_site_fract_z
 _atom_site_occupancy
  Fe  Fe0  1  0.500000  0.666667  0.166667  1
  Fe  Fe1  1  0.500753  0.997805  0.501170  1
  Fe  Fe2  1  0.499247  0.335529  0.832163  1
  Fe  Fe3  1  0.000000  0.666667  0.666667  1
  Fe  Fe4  1  0.982622  0.320526  0.336491  1
  Fe  Fe5  1  0.017378  0.012807  0.996842  1
  O  O6  1  0.812495  0.439481  0.624977  1
  O  O7  1  0.805410  0.093795  0.289427  1
  O  O8  1  0.694402  0.102854  0.794276  1
  O  O9  1  0.690390  0.763775  0.465903  1
  O  O10  1  0.694074  0.439221  0.126631  1
  O  O11  1  0.309610  0.569558  0.867431  1
  O  O12  1  0.305598  0.230479  0.539058  1
  O  O13  1  0.305926  0.894113  0.206702  1
  O  O14  1  0.194590  0.239539  0.043906  1
  O  O15  1  0.187505  0.893852  0.708357  1
  F  F16  1  0.804608  0.770723  0.970598  1
  F  F17  1  0.195392  0.562610  0.362735  1
