# generated using pymatgen
data_Nb10Pb14O39
_symmetry_space_group_name_H-M   'P 1'
_cell_length_a   19.69628418
_cell_length_b   9.50579736
_cell_length_c   12.92945518
_cell_angle_alpha   90.00000000
_cell_angle_beta   59.43129469
_cell_angle_gamma   90.00000000
_symmetry_Int_Tables_number   1
_chemical_formula_structural   Nb10Pb14O39
_chemical_formula_sum   'Nb20 Pb28 O78'
_cell_volume   2084.32906806
_cell_formula_units_Z   2
loop_
 _symmetry_equiv_pos_site_id
 _symmetry_equiv_pos_as_xyz
  1  'x, y, z'
loop_
 _atom_site_type_symbol
 _atom_site_label
 _atom_site_symmetry_multiplicity
 _atom_site_fract_x
 _atom_site_fract_y
 _atom_site_fract_z
 _atom_site_occupancy
  Nb  Nb0  1  0.085202  0.778714  0.144513  1
  Nb  Nb1  1  0.176963  -0.030405  0.348247  1
  Nb  Nb2  1  0.182935  0.573257  0.313872  1
  Nb  Nb3  1  0.983723  0.545726  0.000673  1
  Nb  Nb4  1  0.341937  0.797965  0.157688  1
  Nb  Nb5  1  0.158691  0.299837  0.835749  1
  Nb  Nb6  1  0.510195  0.054877  0.986569  1
  Nb  Nb7  1  0.318192  0.081088  0.687861  1
  Nb  Nb8  1  0.324751  0.480533  0.660964  1
  Nb  Nb9  1  0.580472  0.804814  0.137430  1
  Nb  Nb10  1  0.419528  0.304814  0.862570  1
  Nb  Nb11  1  0.675249  -0.019467  0.339036  1
  Nb  Nb12  1  0.681808  0.581088  0.312139  1
  Nb  Nb13  1  0.489805  0.554877  0.013431  1
  Nb  Nb14  1  0.841309  0.799837  0.164251  1
  Nb  Nb15  1  0.658063  0.297965  0.842312  1
  Nb  Nb16  1  0.016277  0.045726  -0.000673  1
  Nb  Nb17  1  0.817065  0.073257  0.686128  1
  Nb  Nb18  1  0.823037  0.469595  0.651753  1
  Nb  Nb19  1  0.914798  0.278714  0.855487  1
  Pb  Pb20  1  0.125560  0.242345  0.157738  1
  Pb  Pb21  1  0.984590  0.753064  0.504080  1
  Pb  Pb22  1  0.240950  0.535983  0.029512  1
  Pb  Pb23  1  0.065797  -0.049561  0.678988  1
  Pb  Pb24  1  0.066342  0.545241  0.668266  1
  Pb  Pb25  1  0.313277  0.287552  0.204930  1
  Pb  Pb26  1  0.270077  0.783198  0.489030  1
  Pb  Pb27  1  0.224540  0.282701  0.515638  1
  Pb  Pb28  1  0.174929  0.751507  0.804863  1
  Pb  Pb29  1  0.426417  0.075392  0.343752  1
  Pb  Pb30  1  0.424233  0.463944  0.331396  1
  Pb  Pb31  1  0.250115  0.025915  0.987652  1
  Pb  Pb32  1  0.623128  0.266667  0.156933  1
  Pb  Pb33  1  0.486968  0.775234  0.504200  1
  Pb  Pb34  1  0.513032  0.275234  0.495800  1
  Pb  Pb35  1  0.376872  0.766667  0.843067  1
  Pb  Pb36  1  0.749885  0.525915  0.012348  1
  Pb  Pb37  1  0.575767  0.963944  0.668604  1
  Pb  Pb38  1  0.573583  0.575392  0.656248  1
  Pb  Pb39  1  0.825071  0.251507  0.195137  1
  Pb  Pb40  1  0.775460  0.782701  0.484362  1
  Pb  Pb41  1  0.729923  0.283198  0.510970  1
  Pb  Pb42  1  0.686723  0.787552  0.795070  1
  Pb  Pb43  1  0.933658  0.045241  0.331734  1
  Pb  Pb44  1  0.934203  0.450439  0.321012  1
  Pb  Pb45  1  0.759050  0.035983  0.970488  1
  Pb  Pb46  1  0.015410  0.253064  0.495920  1
  Pb  Pb47  1  0.874440  0.742345  0.842262  1
  O  O48  1  0.035856  0.647566  0.095561  1
  O  O49  1  0.057732  0.978698  0.099191  1
  O  O50  1  0.185574  0.409265  0.214341  1
  O  O51  1  0.025937  0.856995  0.302645  1
  O  O52  1  0.923929  0.421188  0.521204  1
  O  O53  1  0.916587  0.076133  0.542021  1
  O  O54  1  0.136821  0.658956  0.206783  1
  O  O55  1  0.148593  0.124443  0.287904  1
  O  O56  1  0.217332  0.763557  0.342571  1
  O  O57  1  -0.006989  0.752204  0.691038  1
  O  O58  1  0.146402  0.768953  0.647623  1
  O  O59  1  0.124721  0.265175  0.731614  1
  O  O60  1  0.407853  0.005550  0.103052  1
  O  O61  1  0.430258  0.421144  0.130240  1
  O  O62  1  0.933931  0.729979  0.015029  1
  O  O63  1  0.223614  0.043918  0.430828  1
  O  O64  1  0.242655  0.465226  0.362707  1
  O  O65  1  0.261991  0.932210  0.168288  1
  O  O66  1  0.295906  0.620650  0.142243  1
  O  O67  1  0.215679  0.128964  0.848670  1
  O  O68  1  0.234121  0.440155  0.832371  1
  O  O69  1  0.277643  0.932115  0.646980  1
  O  O70  1  0.273534  0.556288  0.586845  1
  O  O71  1  0.559413  0.231119  0.990794  1
  O  O72  1  0.070168  0.920032  0.872175  1
  O  O73  1  0.089625  0.501697  0.880098  1
  O  O74  1  0.374772  0.782617  0.264451  1
  O  O75  1  0.351848  0.260115  0.357230  1
  O  O76  1  0.505122  0.269866  0.310781  1
  O  O77  1  0.281487  0.271457  0.653639  1
  O  O78  1  0.349164  0.643899  0.720280  1
  O  O79  1  0.527422  0.643570  0.120700  1
  O  O80  1  0.547532  0.979150  0.105017  1
  O  O81  1  0.315920  0.290045  -0.017083  1
  O  O82  1  0.188770  0.811264  0.999061  1
  O  O83  1  0.583808  0.608598  0.463285  1
  O  O84  1  0.574394  0.947172  0.481810  1
  O  O85  1  0.641950  0.498415  0.215404  1
  O  O86  1  0.581034  0.824066  0.280930  1
  O  O87  1  0.418966  0.324066  0.719070  1
  O  O88  1  0.358050  -0.001585  0.784596  1
  O  O89  1  0.425606  0.447171  0.518190  1
  O  O90  1  0.416192  0.108598  0.536715  1
  O  O91  1  0.811230  0.311264  0.000939  1
  O  O92  1  0.684080  0.790045  0.017083  1
  O  O93  1  0.452468  0.479150  0.894983  1
  O  O94  1  0.472578  0.143570  0.879300  1
  O  O95  1  0.650836  0.143899  0.279720  1
  O  O96  1  0.718513  0.771457  0.346361  1
  O  O97  1  0.494878  0.769866  0.689219  1
  O  O98  1  0.648152  0.760115  0.642770  1
  O  O99  1  0.625228  0.282617  0.735549  1
  O  O100  1  0.910375  0.001697  0.119902  1
  O  O101  1  0.929832  0.420032  0.127825  1
  O  O102  1  0.440587  0.731119  0.009206  1
  O  O103  1  0.726466  0.056288  0.413155  1
  O  O104  1  0.722357  0.432115  0.353020  1
  O  O105  1  0.765879  0.940155  0.167629  1
  O  O106  1  0.784321  0.628964  0.151330  1
  O  O107  1  0.704094  0.120650  0.857757  1
  O  O108  1  0.738009  0.432210  0.831712  1
  O  O109  1  0.757345  0.965226  0.637293  1
  O  O110  1  0.776386  0.543918  0.569172  1
  O  O111  1  0.066069  0.229979  0.984971  1
  O  O112  1  0.569742  0.921144  0.869760  1
  O  O113  1  0.592147  0.505550  0.896948  1
  O  O114  1  0.875279  0.765175  0.268386  1
  O  O115  1  0.853598  0.268953  0.352377  1
  O  O116  1  0.006989  0.252204  0.308962  1
  O  O117  1  0.782668  0.263557  0.657429  1
  O  O118  1  0.851407  0.624443  0.712096  1
  O  O119  1  0.863179  0.158956  0.793217  1
  O  O120  1  0.083413  0.576133  0.457979  1
  O  O121  1  0.076071  0.921188  0.478796  1
  O  O122  1  0.974063  0.356995  0.697355  1
  O  O123  1  0.814426  0.909265  0.785659  1
  O  O124  1  0.942268  0.478698  0.900809  1
  O  O125  1  0.964144  0.147566  0.904439  1
