# generated using pymatgen
data_Na4Mn2As(CO4)4
_symmetry_space_group_name_H-M   'P 1'
_cell_length_a   10.15977249
_cell_length_b   9.97882901
_cell_length_c   10.15977276
_cell_angle_alpha   59.07159451
_cell_angle_beta   89.44847277
_cell_angle_gamma   59.07160034
_symmetry_Int_Tables_number   1
_chemical_formula_structural   Na4Mn2As(CO4)4
_chemical_formula_sum   'Na8 Mn4 As2 C8 O32'
_cell_volume   711.14197644
_cell_formula_units_Z   2
loop_
 _symmetry_equiv_pos_site_id
 _symmetry_equiv_pos_as_xyz
  1  'x, y, z'
loop_
 _atom_site_type_symbol
 _atom_site_label
 _atom_site_symmetry_multiplicity
 _atom_site_fract_x
 _atom_site_fract_y
 _atom_site_fract_z
 _atom_site_occupancy
  Na  Na0  1  0.088855  0.822290  0.838855  1
  Na  Na1  1  0.084558  0.250000  0.834558  1
  Na  Na2  1  0.334558  0.750000  0.584558  1
  Na  Na3  1  0.338855  0.322290  0.588855  1
  Na  Na4  1  0.661145  0.677710  0.411145  1
  Na  Na5  1  0.665442  0.250000  0.415442  1
  Na  Na6  1  0.915442  0.750000  0.165441  1
  Na  Na7  1  0.911145  0.177710  0.161145  1
  Mn  Mn8  1  0.000000  0.500000  0.000000  1
  Mn  Mn9  1  0.500000  0.000000  0.500000  1
  Mn  Mn10  1  0.500000  0.500000  0.000000  1
  Mn  Mn11  1  0.500000  0.000000  0.000000  1
  As  As12  1  0.125000  0.750000  0.375000  1
  As  As13  1  0.875000  0.250000  0.625000  1
  C  C14  1  0.359947  0.928508  0.776722  1
  C  C15  1  0.276722  0.428508  0.859947  1
  C  C16  1  0.711546  0.928508  0.794770  1
  C  C17  1  0.705230  0.571492  0.788454  1
  C  C18  1  0.294770  0.428508  0.211546  1
  C  C19  1  0.288454  0.071492  0.205230  1
  C  C20  1  0.723278  0.571492  0.140054  1
  C  C21  1  0.640053  0.071492  0.223278  1
  O  O22  1  0.353802  0.787858  0.888575  1
  O  O23  1  0.056937  0.897382  0.437729  1
  O  O24  1  0.369236  0.947544  0.640905  1
  O  O25  1  0.140905  0.447544  0.869236  1
  O  O26  1  0.683219  0.947544  0.911551  1
  O  O27  1  0.300115  0.547655  0.849200  1
  O  O28  1  0.045681  0.897382  0.164889  1
  O  O29  1  0.062271  0.602618  0.443063  1
  O  O30  1  0.396856  0.952345  0.347771  1
  O  O31  1  0.588449  0.552456  0.816781  1
  O  O32  1  0.388575  0.287858  0.853802  1
  O  O33  1  0.335111  0.602618  0.454319  1
  O  O34  1  0.858341  0.787858  0.823567  1
  O  O35  1  0.676433  0.712142  0.641659  1
  O  O36  1  0.349200  0.047656  0.800115  1
  O  O37  1  0.152229  0.547655  0.103144  1
  O  O38  1  0.847771  0.452344  0.896856  1
  O  O39  1  0.650800  0.952345  0.199885  1
  O  O40  1  0.323567  0.287858  0.358341  1
  O  O41  1  0.141659  0.212142  0.176433  1
  O  O42  1  0.664889  0.397382  0.545681  1
  O  O43  1  0.611425  0.712142  0.146198  1
  O  O44  1  0.411551  0.447544  0.183220  1
  O  O45  1  0.603144  0.047656  0.652229  1
  O  O46  1  0.937729  0.397382  0.556937  1
  O  O47  1  0.954319  0.102618  0.835111  1
  O  O48  1  0.699885  0.452344  0.150800  1
  O  O49  1  0.316781  0.052456  0.088449  1
  O  O50  1  0.859095  0.552456  0.130764  1
  O  O51  1  0.630764  0.052456  0.359095  1
  O  O52  1  0.943063  0.102618  0.562271  1
  O  O53  1  0.646198  0.212142  0.111425  1
