# generated using pymatgen
data_Li3Fe8(BO3)8
_symmetry_space_group_name_H-M   'P 1'
_cell_length_a   5.29709677
_cell_length_b   9.09203823
_cell_length_c   10.12415253
_cell_angle_alpha   90.58471985
_cell_angle_beta   90.19313082
_cell_angle_gamma   89.74457212
_symmetry_Int_Tables_number   1
_chemical_formula_structural   Li3Fe8(BO3)8
_chemical_formula_sum   'Li3 Fe8 B8 O24'
_cell_volume   487.56049247
_cell_formula_units_Z   1
loop_
 _symmetry_equiv_pos_site_id
 _symmetry_equiv_pos_as_xyz
  1  'x, y, z'
loop_
 _atom_site_type_symbol
 _atom_site_label
 _atom_site_symmetry_multiplicity
 _atom_site_fract_x
 _atom_site_fract_y
 _atom_site_fract_z
 _atom_site_occupancy
  Li  Li0  1  0.348074  0.014247  0.833158  1
  Li  Li1  1  0.843320  0.509766  0.843981  1
  Li  Li2  1  0.354610  0.993469  0.333780  1
  Fe  Fe3  1  0.153314  0.169950  0.119740  1
  Fe  Fe4  1  0.841567  0.163815  0.371961  1
  Fe  Fe5  1  0.337222  0.345687  0.875653  1
  Fe  Fe6  1  0.654727  0.329371  0.621973  1
  Fe  Fe7  1  0.338394  0.656749  0.369156  1
  Fe  Fe8  1  0.149289  0.828949  0.621866  1
  Fe  Fe9  1  0.664132  0.664220  0.119375  1
  Fe  Fe10  1  0.838666  0.846255  0.874115  1
  B  B11  1  0.161138  0.168834  0.627260  1
  B  B12  1  0.338427  0.329195  0.371950  1
  B  B13  1  0.834114  0.170022  0.872221  1
  B  B14  1  0.661753  0.331741  0.119188  1
  B  B15  1  0.333441  0.672288  0.870791  1
  B  B16  1  0.655104  0.667653  0.623945  1
  B  B17  1  0.162386  0.829668  0.129241  1
  B  B18  1  0.825092  0.829662  0.370106  1
  O  O19  1  0.252068  0.026689  0.639110  1
  O  O20  1  0.087448  0.166511  0.917607  1
  O  O21  1  0.694352  0.044836  0.869491  1
  O  O22  1  0.224067  0.200220  0.322787  1
  O  O23  1  0.309844  0.284404  0.670861  1
  O  O24  1  0.806402  0.213761  0.162783  1
  O  O25  1  0.923919  0.193781  0.577067  1
  O  O26  1  0.415308  0.308001  0.077391  1
  O  O27  1  0.224503  0.464086  0.361857  1
  O  O28  1  0.573172  0.315145  0.430676  1
  O  O29  1  0.731532  0.303560  0.828912  1
  O  O30  1  0.196595  0.547647  0.868242  1
  O  O31  1  0.764502  0.468918  0.112066  1
  O  O32  1  0.310614  0.709646  0.170689  1
  O  O33  1  0.417344  0.692838  0.565339  1
  O  O34  1  0.737542  0.530380  0.650850  1
  O  O35  1  0.583554  0.675766  0.918581  1
  O  O36  1  0.083122  0.818094  0.412457  1
  O  O37  1  0.229205  0.805788  0.822942  1
  O  O38  1  0.703382  0.700237  0.326939  1
  O  O39  1  0.801065  0.788181  0.660727  1
  O  O40  1  0.254251  0.968685  0.144228  1
  O  O41  1  0.926569  0.803907  0.076323  1
  O  O42  1  0.705919  0.960529  0.370825  1
