# generated using pymatgen
data_LiCoPO4
_symmetry_space_group_name_H-M   'P 1'
_cell_length_a   5.12540853
_cell_length_b   9.54795952
_cell_length_c   6.06341787
_cell_angle_alpha   90.00000000
_cell_angle_beta   90.00000000
_cell_angle_gamma   83.84640491
_symmetry_Int_Tables_number   1
_chemical_formula_structural   LiCoPO4
_chemical_formula_sum   'Li4 Co4 P4 O16'
_cell_volume   295.01694473
_cell_formula_units_Z   4
loop_
 _symmetry_equiv_pos_site_id
 _symmetry_equiv_pos_as_xyz
  1  'x, y, z'
loop_
 _atom_site_type_symbol
 _atom_site_label
 _atom_site_symmetry_multiplicity
 _atom_site_fract_x
 _atom_site_fract_y
 _atom_site_fract_z
 _atom_site_occupancy
  Li  Li0  1  0.158119  0.928265  0.639277  1
  Li  Li1  1  0.341881  0.571735  0.139277  1
  Li  Li2  1  0.658119  0.428265  0.860723  1
  Li  Li3  1  0.841881  0.071735  0.360723  1
  Co  Co4  1  0.203857  0.342185  0.611534  1
  Co  Co5  1  0.296143  0.157815  0.111534  1
  Co  Co6  1  0.703857  0.842185  0.888466  1
  Co  Co7  1  0.796143  0.657815  0.388466  1
  P  P8  1  0.256825  0.637087  0.649301  1
  P  P9  1  0.243175  0.862913  0.149301  1
  P  P10  1  0.756825  0.137087  0.850699  1
  P  P11  1  0.743175  0.362913  0.350699  1
  O  O12  1  0.005509  0.745233  0.665171  1
  O  O13  1  -0.000033  0.778455  0.137881  1
  O  O14  1  0.217495  0.553180  0.433215  1
  O  O15  1  0.281334  0.525126  0.834893  1
  O  O16  1  0.218666  0.974874  0.334893  1
  O  O17  1  0.282505  0.946820  0.933215  1
  O  O18  1  0.505509  0.245233  0.834829  1
  O  O19  1  0.499967  0.278455  0.362119  1
  O  O20  1  0.500033  0.721545  0.637881  1
  O  O21  1  0.494491  0.754767  0.165171  1
  O  O22  1  0.717495  0.053180  0.066785  1
  O  O23  1  0.781334  0.025126  0.665107  1
  O  O24  1  0.718666  0.474874  0.165107  1
  O  O25  1  0.782505  0.446820  0.566785  1
  O  O26  1  0.000033  0.221545  0.862119  1
  O  O27  1  0.994491  0.254767  0.334829  1
