# generated using pymatgen
data_Na2LuPCO7
_symmetry_space_group_name_H-M   'P 1'
_cell_length_a   9.14869919
_cell_length_b   6.90230459
_cell_length_c   5.27465105
_cell_angle_alpha   90.00000000
_cell_angle_beta   90.62490900
_cell_angle_gamma   90.00000000
_symmetry_Int_Tables_number   1
_chemical_formula_structural   Na2LuPCO7
_chemical_formula_sum   'Na4 Lu2 P2 C2 O14'
_cell_volume   333.05915103
_cell_formula_units_Z   2
loop_
 _symmetry_equiv_pos_site_id
 _symmetry_equiv_pos_as_xyz
  1  'x, y, z'
loop_
 _atom_site_type_symbol
 _atom_site_label
 _atom_site_symmetry_multiplicity
 _atom_site_fract_x
 _atom_site_fract_y
 _atom_site_fract_z
 _atom_site_occupancy
  Na  Na0  1  0.216884  0.001446  0.234058  1
  Na  Na1  1  0.216884  0.498554  0.234058  1
  Na  Na2  1  0.783116  0.501446  0.765942  1
  Na  Na3  1  0.783116  0.998554  0.765942  1
  Lu  Lu4  1  0.360987  0.750000  0.778705  1
  Lu  Lu5  1  0.639013  0.250000  0.221295  1
  P  P6  1  0.419939  0.250000  0.708283  1
  P  P7  1  0.580061  0.750000  0.291717  1
  C  C8  1  0.069670  0.750000  0.732008  1
  C  C9  1  0.930330  0.250000  0.267992  1
  O  O10  1  0.067620  0.250000  0.296223  1
  O  O11  1  0.135155  0.750000  0.955091  1
  O  O12  1  0.160283  0.750000  0.536753  1
  O  O13  1  0.341456  0.065845  0.802137  1
  O  O14  1  0.341456  0.434155  0.802137  1
  O  O15  1  0.417521  0.750000  0.190007  1
  O  O16  1  0.426534  0.250000  0.412110  1
  O  O17  1  0.573466  0.750000  0.587890  1
  O  O18  1  0.582479  0.250000  0.809993  1
  O  O19  1  0.658544  0.565845  0.197863  1
  O  O20  1  0.658544  0.934155  0.197863  1
  O  O21  1  0.839717  0.250000  0.463247  1
  O  O22  1  0.864845  0.250000  0.044909  1
  O  O23  1  0.932380  0.750000  0.703777  1
