# generated using pymatgen
data_Al2Si2H5C2NO10
_symmetry_space_group_name_H-M   'P 1'
_cell_length_a   5.21351331
_cell_length_b   5.21351331
_cell_length_c   21.55810240
_cell_angle_alpha   88.99281486
_cell_angle_beta   91.00718514
_cell_angle_gamma   60.06894064
_symmetry_Int_Tables_number   1
_chemical_formula_structural   Al2Si2H5C2NO10
_chemical_formula_sum   'Al4 Si4 H10 C4 N2 O20'
_cell_volume   507.49928419
_cell_formula_units_Z   2
loop_
 _symmetry_equiv_pos_site_id
 _symmetry_equiv_pos_as_xyz
  1  'x, y, z'
loop_
 _atom_site_type_symbol
 _atom_site_label
 _atom_site_symmetry_multiplicity
 _atom_site_fract_x
 _atom_site_fract_y
 _atom_site_fract_z
 _atom_site_occupancy
  Al  Al0  1  0.059726  0.747286  0.658485  1
  Al  Al1  1  0.252714  0.940274  0.158485  1
  Al  Al2  1  0.386766  0.096569  0.657843  1
  Al  Al3  1  0.903431  0.613234  0.157843  1
  Si  Si4  1  0.728477  0.780952  0.531154  1
  Si  Si5  1  0.219048  0.271523  0.031154  1
  Si  Si6  1  0.069074  0.100670  0.530952  1
  Si  Si7  1  0.899330  0.930926  0.030952  1
  H  H8  1  0.718801  0.170618  0.730372  1
  H  H9  1  0.829382  0.281199  0.230372  1
  H  H10  1  0.989295  0.401500  0.736968  1
  H  H11  1  0.598500  0.010705  0.236968  1
  H  H12  1  0.424386  0.719918  0.742532  1
  H  H13  1  0.280082  0.575614  0.242532  1
  H  H14  1  0.932970  0.366158  0.897623  1
  H  H15  1  0.633842  0.067030  0.397623  1
  H  H16  1  0.383696  0.605156  0.929181  1
  H  H17  1  0.394844  0.616304  0.429181  1
  C  C18  1  0.743632  0.452274  0.863806  1
  C  C19  1  0.547726  0.256368  0.363806  1
  C  C20  1  0.341646  0.936779  0.869670  1
  C  C21  1  0.063221  0.658354  0.369670  1
  N  N22  1  0.456128  0.669229  0.890489  1
  N  N23  1  0.330771  0.543872  0.390489  1
  O  O24  1  0.756238  0.400065  0.809265  1
  O  O25  1  0.599935  0.243762  0.309265  1
  O  O26  1  0.919217  0.919567  0.499385  1
  O  O27  1  0.080433  0.080783  0.999385  1
  O  O28  1  0.861251  0.444331  0.506112  1
  O  O29  1  0.555669  0.138749  0.006112  1
  O  O30  1  0.393729  0.967420  0.498033  1
  O  O31  1  0.032580  0.606271  0.998033  1
  O  O32  1  0.721174  0.810735  0.605740  1
  O  O33  1  0.189265  0.278826  0.105740  1
  O  O34  1  0.104921  0.051226  0.605628  1
  O  O35  1  0.948774  0.895079  0.105628  1
  O  O36  1  0.316514  0.432669  0.608055  1
  O  O37  1  0.567331  0.683486  0.108055  1
  O  O38  1  0.728298  0.022724  0.702583  1
  O  O39  1  0.977276  0.271702  0.202583  1
  O  O40  1  0.118208  0.412413  0.706414  1
  O  O41  1  0.587587  0.881792  0.206414  1
  O  O42  1  0.340127  0.804013  0.701709  1
  O  O43  1  0.195987  0.659873  0.201709  1
