# generated using pymatgen
data_Li6Mn2OF11
_symmetry_space_group_name_H-M   'P 1'
_cell_length_a   5.08568743
_cell_length_b   5.52872434
_cell_length_c   8.85955228
_cell_angle_alpha   86.28450581
_cell_angle_beta   73.13237038
_cell_angle_gamma   117.06514964
_symmetry_Int_Tables_number   1
_chemical_formula_structural   Li6Mn2OF11
_chemical_formula_sum   'Li6 Mn2 O1 F11'
_cell_volume   206.54400936
_cell_formula_units_Z   1
loop_
 _symmetry_equiv_pos_site_id
 _symmetry_equiv_pos_as_xyz
  1  'x, y, z'
loop_
 _atom_site_type_symbol
 _atom_site_label
 _atom_site_symmetry_multiplicity
 _atom_site_fract_x
 _atom_site_fract_y
 _atom_site_fract_z
 _atom_site_occupancy
  Li  Li0  1  0.140603  0.344277  0.064728  1
  Li  Li1  1  0.358651  0.404103  0.693746  1
  Li  Li2  1  0.642901  0.604879  0.328245  1
  Li  Li3  1  0.862614  0.144419  0.402925  1
  Li  Li4  1  0.816908  0.610782  0.938864  1
  Li  Li5  1  0.630114  0.127852  0.830021  1
  Mn  Mn6  1  0.167929  0.900615  0.567762  1
  Mn  Mn7  1  0.337919  0.858517  0.180018  1
  O  O8  1  0.408614  0.870308  0.378848  1
  F  F9  1  0.061630  0.021374  0.223295  1
  F  F10  1  0.086547  0.571167  0.692113  1
  F  F11  1  0.551216  0.634826  0.136656  1
  F  F12  1  0.239121  0.250720  0.473303  1
  F  F13  1  0.259458  0.788992  0.982900  1
  F  F14  1  0.784274  0.725682  0.534449  1
  F  F15  1  0.748742  0.215044  0.028550  1
  F  F16  1  0.456717  0.377773  0.873579  1
  F  F17  1  0.537910  0.101633  0.614014  1
  F  F18  1  0.933218  0.470467  0.281265  1
  F  F19  1  0.957242  0.970995  0.765460  1
