# generated using pymatgen
data_LiCoBO3
_symmetry_space_group_name_H-M   'P 1'
_cell_length_a   14.26733633
_cell_length_b   14.26019608
_cell_length_c   3.16536707
_cell_angle_alpha   88.92895254
_cell_angle_beta   90.92010350
_cell_angle_gamma   119.92595298
_symmetry_Int_Tables_number   1
_chemical_formula_structural   LiCoBO3
_chemical_formula_sum   'Li9 Co9 B9 O27'
_cell_volume   558.03016742
_cell_formula_units_Z   9
loop_
 _symmetry_equiv_pos_site_id
 _symmetry_equiv_pos_as_xyz
  1  'x, y, z'
loop_
 _atom_site_type_symbol
 _atom_site_label
 _atom_site_symmetry_multiplicity
 _atom_site_fract_x
 _atom_site_fract_y
 _atom_site_fract_z
 _atom_site_occupancy
  Li  Li0  1  0.094388  0.877138  0.510775  1
  Li  Li1  1  0.117743  0.566047  0.481395  1
  Li  Li2  1  0.448728  0.881080  0.562326  1
  Li  Li3  1  0.121856  0.216668  0.507182  1
  Li  Li4  1  0.433355  0.552320  0.451266  1
  Li  Li5  1  0.453514  0.255340  0.502627  1
  Li  Li6  1  0.782917  0.905896  0.491109  1
  Li  Li7  1  0.801425  0.546604  0.488790  1
  Li  Li8  1  0.743966  0.198060  0.502077  1
  Co  Co9  1  0.250789  0.813099  0.055901  1
  Co  Co10  1  0.185191  0.436403  0.998547  1
  Co  Co11  1  0.225984  0.108345  0.012348  1
  Co  Co12  1  0.562165  0.750123  0.951990  1
  Co  Co13  1  0.576379  0.470755  0.971933  1
  Co  Co14  1  0.528787  0.105801  0.025408  1
  Co  Co15  1  0.881429  0.774024  0.986560  1
  Co  Co16  1  0.893067  0.422855  0.987426  1
  Co  Co17  1  0.891537  0.117764  0.008426  1
  B  B18  1  0.008623  0.661939  0.003286  1
  B  B19  1  0.333081  0.666968  0.000238  1
  B  B20  1  0.337202  0.346968  0.992608  1
  B  B21  1  0.652961  0.990962  0.007649  1
  B  B22  1  0.331621  0.015121  0.531048  1
  B  B23  1  0.682725  0.668188  0.466772  1
  B  B24  1  0.666009  0.333091  0.997326  1
  B  B25  1  0.999657  0.999651  0.004851  1
  B  B26  1  0.983707  0.316219  0.502495  1
  O  O27  1  0.017505  0.912328  0.002261  1
  O  O28  1  0.016722  0.569186  0.966254  1
  O  O29  1  0.099569  0.761091  0.096077  1
  O  O30  1  0.319604  0.913177  0.560599  1
  O  O31  1  0.085574  0.406152  0.500766  1
  O  O32  1  0.225820  0.587639  0.011552  1
  O  O33  1  0.361901  0.772619  0.084537  1
  O  O34  1  0.086800  0.104745  0.017048  1
  O  O35  1  0.552224  0.982457  0.056010  1
  O  O36  1  0.237533  0.337952  0.078060  1
  O  O37  1  0.411254  0.640780  0.905499  1
  O  O38  1  0.661042  0.901242  0.894545  1
  O  O39  1  0.344309  0.254204  0.948590  1
  O  O40  1  0.429737  0.448229  0.957736  1
  O  O41  1  0.240324  0.026257  0.515995  1
  O  O42  1  0.592871  0.680549  0.450853  1
  O  O43  1  0.668313  0.564275  0.470137  1
  O  O44  1  0.435350  0.104462  0.516748  1
  O  O45  1  0.894487  0.981872  0.994907  1
  O  O46  1  0.784927  0.759402  0.479745  1
  O  O47  1  0.567186  0.329813  0.002244  1
  O  O48  1  0.669365  0.237488  0.999811  1
  O  O49  1  0.761287  0.431861  0.989610  1
  O  O50  1  0.908658  0.655081  0.953692  1
  O  O51  1  0.745877  0.090079  0.064144  1
  O  O52  1  0.894206  0.330520  0.496267  1
  O  O53  1  0.973214  0.214022  0.509775  1
