# generated using pymatgen
data_Na3BiO3
_symmetry_space_group_name_H-M   'P 1'
_cell_length_a   10.35410983
_cell_length_b   11.33847462
_cell_length_c   10.34101086
_cell_angle_alpha   113.44722696
_cell_angle_beta   89.07426940
_cell_angle_gamma   108.59932858
_symmetry_Int_Tables_number   1
_chemical_formula_structural   Na3BiO3
_chemical_formula_sum   'Na24 Bi8 O24'
_cell_volume   1047.01723479
_cell_formula_units_Z   8
loop_
 _symmetry_equiv_pos_site_id
 _symmetry_equiv_pos_as_xyz
  1  'x, y, z'
loop_
 _atom_site_type_symbol
 _atom_site_label
 _atom_site_symmetry_multiplicity
 _atom_site_fract_x
 _atom_site_fract_y
 _atom_site_fract_z
 _atom_site_occupancy
  Na  Na0  1  0.080172  0.913519  0.488598  1
  Na  Na1  1  0.077301  0.527691  0.351824  1
  Na  Na2  1  0.090389  0.487227  0.899625  1
  Na  Na3  1  0.153233  0.358987  0.609960  1
  Na  Na4  1  0.296640  0.773862  0.435350  1
  Na  Na5  1  0.330365  0.585380  0.136407  1
  Na  Na6  1  0.349115  0.659857  0.894117  1
  Na  Na7  1  0.495490  0.941988  0.271521  1
  Na  Na8  1  0.409257  0.615912  0.572258  1
  Na  Na9  1  0.518726  0.891542  0.874709  1
  Na  Na10  1  0.327818  0.158474  0.513265  1
  Na  Na11  1  0.536690  0.554670  0.277700  1
  Na  Na12  1  0.463311  0.445330  0.722300  1
  Na  Na13  1  0.672182  0.841526  0.486735  1
  Na  Na14  1  0.481274  0.108458  0.125291  1
  Na  Na15  1  0.590743  0.384088  0.427742  1
  Na  Na16  1  0.504510  0.058012  0.728479  1
  Na  Na17  1  0.650885  0.340143  0.105883  1
  Na  Na18  1  0.669635  0.414620  0.863593  1
  Na  Na19  1  0.703360  0.226138  0.564650  1
  Na  Na20  1  0.846767  0.641013  0.390040  1
  Na  Na21  1  0.909611  0.512773  0.100375  1
  Na  Na22  1  0.922699  0.472309  0.648176  1
  Na  Na23  1  0.919828  0.086481  0.511402  1
  Bi  Bi24  1  0.177496  0.845954  0.152867  1
  Bi  Bi25  1  0.165794  0.783054  0.734156  1
  Bi  Bi26  1  0.270348  0.320821  0.289865  1
  Bi  Bi27  1  0.265045  0.234912  0.835922  1
  Bi  Bi28  1  0.734955  0.765088  0.164078  1
  Bi  Bi29  1  0.729652  0.679179  0.710135  1
  Bi  Bi30  1  0.834206  0.216946  0.265844  1
  Bi  Bi31  1  0.822504  0.154046  0.847133  1
  O  O32  1  0.066454  0.721357  0.529257  1
  O  O33  1  0.136554  0.645511  0.134122  1
  O  O34  1  0.149177  0.591926  0.736044  1
  O  O35  1  0.279036  0.938112  0.360868  1
  O  O36  1  0.360664  0.875970  0.055307  1
  O  O37  1  0.134355  0.150599  0.643274  1
  O  O38  1  0.364987  0.833547  0.675354  1
  O  O39  1  0.298497  0.526438  0.331135  1
  O  O40  1  0.291563  0.440822  0.886268  1
  O  O41  1  0.349069  0.363539  0.495576  1
  O  O42  1  0.551073  0.758311  0.258309  1
  O  O43  1  0.545805  0.682162  0.793718  1
  O  O44  1  0.454195  0.317838  0.206282  1
  O  O45  1  0.448927  0.241689  0.741691  1
  O  O46  1  0.650931  0.636461  0.504424  1
  O  O47  1  0.708437  0.559178  0.113732  1
  O  O48  1  0.701503  0.473562  0.668865  1
  O  O49  1  0.635013  0.166453  0.324646  1
  O  O50  1  0.865645  0.849401  0.356726  1
  O  O51  1  0.639336  0.124030  0.944693  1
  O  O52  1  0.720964  0.061888  0.639132  1
  O  O53  1  0.850823  0.408074  0.263956  1
  O  O54  1  0.863446  0.354489  0.865878  1
  O  O55  1  0.933546  0.278643  0.470743  1
