# generated using pymatgen
data_V3O5F
_symmetry_space_group_name_H-M   'P 1'
_cell_length_a   7.24441474
_cell_length_b   5.52878469
_cell_length_c   5.53492385
_cell_angle_alpha   73.67542507
_cell_angle_beta   70.94830452
_cell_angle_gamma   70.86440517
_symmetry_Int_Tables_number   1
_chemical_formula_structural   V3O5F
_chemical_formula_sum   'V6 O10 F2'
_cell_volume   194.16995677
_cell_formula_units_Z   2
loop_
 _symmetry_equiv_pos_site_id
 _symmetry_equiv_pos_as_xyz
  1  'x, y, z'
loop_
 _atom_site_type_symbol
 _atom_site_label
 _atom_site_symmetry_multiplicity
 _atom_site_fract_x
 _atom_site_fract_y
 _atom_site_fract_z
 _atom_site_occupancy
  V  V0  1  0.847752  0.645981  0.663933  1
  V  V1  1  0.667939  0.362404  0.311327  1
  V  V2  1  0.341283  0.643551  0.652135  1
  V  V3  1  0.164397  0.329957  0.331967  1
  V  V4  1  0.496602  0.009796  0.029362  1
  V  V5  1  0.982060  0.002852  0.011164  1
  O  O6  1  0.344400  0.352815  0.954301  1
  O  O7  1  0.972937  0.223931  0.224184  1
  O  O8  1  0.629559  0.574712  0.573158  1
  O  O9  1  0.697040  0.102138  0.100911  1
  O  O10  1  0.042475  0.767143  0.773408  1
  O  O11  1  0.362570  0.432800  0.431534  1
  O  O12  1  0.991931  0.301133  0.711655  1
  O  O13  1  0.665645  0.653040  0.018249  1
  O  O14  1  0.340057  0.952270  0.365962  1
  O  O15  1  0.988059  0.708754  0.311077  1
  F  F16  1  0.666494  0.038738  0.633095  1
  F  F17  1  0.298797  0.897985  0.902578  1
