# generated using pymatgen
data_Li4Ti5Co3O16
_symmetry_space_group_name_H-M   'P 1'
_cell_length_a   5.80639998
_cell_length_b   5.85515427
_cell_length_c   9.51549169
_cell_angle_alpha   89.94442964
_cell_angle_beta   89.71146451
_cell_angle_gamma   120.32037042
_symmetry_Int_Tables_number   1
_chemical_formula_structural   Li4Ti5Co3O16
_chemical_formula_sum   'Li4 Ti5 Co3 O16'
_cell_volume   279.24600370
_cell_formula_units_Z   1
loop_
 _symmetry_equiv_pos_site_id
 _symmetry_equiv_pos_as_xyz
  1  'x, y, z'
loop_
 _atom_site_type_symbol
 _atom_site_label
 _atom_site_symmetry_multiplicity
 _atom_site_fract_x
 _atom_site_fract_y
 _atom_site_fract_z
 _atom_site_occupancy
  Li  Li0  1  0.334396  0.666920  0.892229  1
  Li  Li1  1  0.978814  0.989845  0.991923  1
  Li  Li2  1  0.993028  0.995702  0.495434  1
  Li  Li3  1  0.671388  0.336155  0.401896  1
  Ti  Ti4  1  0.352125  0.175191  0.726548  1
  Ti  Ti5  1  0.188650  0.840120  0.221117  1
  Ti  Ti6  1  0.334699  0.667132  0.503502  1
  Ti  Ti7  1  0.188578  0.348752  0.220604  1
  Ti  Ti8  1  0.693242  0.346936  0.994183  1
  Co  Co9  1  0.656161  0.828849  0.209207  1
  Co  Co10  1  0.828913  0.657883  0.711946  1
  Co  Co11  1  0.829123  0.170924  0.711765  1
  O  O12  1  0.160580  0.826898  0.597421  1
  O  O13  1  0.033549  0.516660  0.335077  1
  O  O14  1  0.323227  0.662050  0.101520  1
  O  O15  1  0.995387  0.997697  0.304877  1
  O  O16  1  0.993964  0.996979  0.803495  1
  O  O17  1  0.160319  0.333055  0.596921  1
  O  O18  1  0.466529  0.965878  0.349195  1
  O  O19  1  0.467988  0.503340  0.348078  1
  O  O20  1  0.335306  0.168208  0.095839  1
  O  O21  1  0.664796  0.832168  0.600861  1
  O  O22  1  0.519515  0.484411  0.837165  1
  O  O23  1  0.519847  0.034296  0.837091  1
  O  O24  1  0.668843  0.334505  0.606844  1
  O  O25  1  0.841986  0.661608  0.091107  1
  O  O26  1  0.958496  0.478960  0.830113  1
  O  O27  1  0.840551  0.179179  0.091882  1
