# generated using pymatgen
data_Co3OF5
_symmetry_space_group_name_H-M   'P 1'
_cell_length_a   4.72923675
_cell_length_b   4.72923675
_cell_length_c   9.42155649
_cell_angle_alpha   89.20949544
_cell_angle_beta   89.20949544
_cell_angle_gamma   91.46165112
_symmetry_Int_Tables_number   1
_chemical_formula_structural   Co3OF5
_chemical_formula_sum   'Co6 O2 F10'
_cell_volume   210.60980659
_cell_formula_units_Z   2
loop_
 _symmetry_equiv_pos_site_id
 _symmetry_equiv_pos_as_xyz
  1  'x, y, z'
loop_
 _atom_site_type_symbol
 _atom_site_label
 _atom_site_symmetry_multiplicity
 _atom_site_fract_x
 _atom_site_fract_y
 _atom_site_fract_z
 _atom_site_occupancy
  Co  Co0  1  0.975803  0.975803  0.003682  1
  Co  Co1  1  0.024197  0.024197  0.329651  1
  Co  Co2  1  0.000000  0.000000  0.666667  1
  Co  Co3  1  0.500000  0.500000  0.166667  1
  Co  Co4  1  0.502729  0.502729  0.841314  1
  Co  Co5  1  0.497271  0.497271  0.492019  1
  O  O6  1  0.325978  0.325978  0.313612  1
  O  O7  1  0.674022  0.674022  0.019721  1
  F  F8  1  0.201544  0.798456  0.166667  1
  F  F9  1  0.186689  0.794642  0.835596  1
  F  F10  1  0.205358  0.813311  0.497738  1
  F  F11  1  0.287963  0.287963  0.006918  1
  F  F12  1  0.306317  0.306317  0.668997  1
  F  F13  1  0.693683  0.693683  0.664336  1
  F  F14  1  0.712037  0.712037  0.326415  1
  F  F15  1  0.798456  0.201544  0.166667  1
  F  F16  1  0.794642  0.186689  0.835596  1
  F  F17  1  0.813311  0.205358  0.497738  1
