# generated using pymatgen
data_Mn2OF3
_symmetry_space_group_name_H-M   'P 1'
_cell_length_a   4.87083451
_cell_length_b   10.27272429
_cell_length_c   6.32172596
_cell_angle_alpha   72.07964186
_cell_angle_beta   90.00000000
_cell_angle_gamma   87.78170518
_symmetry_Int_Tables_number   1
_chemical_formula_structural   Mn2OF3
_chemical_formula_sum   'Mn8 O4 F12'
_cell_volume   300.72326277
_cell_formula_units_Z   4
loop_
 _symmetry_equiv_pos_site_id
 _symmetry_equiv_pos_as_xyz
  1  'x, y, z'
loop_
 _atom_site_type_symbol
 _atom_site_label
 _atom_site_symmetry_multiplicity
 _atom_site_fract_x
 _atom_site_fract_y
 _atom_site_fract_z
 _atom_site_occupancy
  Mn  Mn0  1  0.500376  0.250593  0.620505  1
  Mn  Mn1  1  0.500376  0.250593  0.128902  1
  Mn  Mn2  1  0.499624  0.749407  0.379495  1
  Mn  Mn3  1  0.499624  0.749407  0.871098  1
  Mn  Mn4  1  0.000000  0.000000  0.500000  1
  Mn  Mn5  1  0.035082  0.482177  0.758912  1
  Mn  Mn6  1  0.000000  0.000000  0.000000  1
  Mn  Mn7  1  0.964918  0.517823  0.241088  1
  O  O8  1  0.674129  0.164483  0.417759  1
  O  O9  1  0.669301  0.666570  0.166715  1
  O  O10  1  0.330699  0.333430  0.833285  1
  O  O11  1  0.325871  0.835517  0.582241  1
  F  F12  1  0.796846  0.398986  0.550037  1
  F  F13  1  0.796846  0.398986  0.050978  1
  F  F14  1  0.796566  0.898413  0.799791  1
  F  F15  1  0.796566  0.898413  0.301796  1
  F  F16  1  0.699143  0.149208  0.925396  1
  F  F17  1  0.713724  0.641569  0.679216  1
  F  F18  1  0.300857  0.850792  0.074604  1
  F  F19  1  0.286276  0.358431  0.320784  1
  F  F20  1  0.203154  0.601014  0.949022  1
  F  F21  1  0.203434  0.101587  0.200209  1
  F  F22  1  0.203154  0.601014  0.449963  1
  F  F23  1  0.203434  0.101587  0.698204  1
