# generated using pymatgen
data_Sr3La2Cl12
_symmetry_space_group_name_H-M   'P 1'
_cell_length_a   8.68947273
_cell_length_b   8.68947273
_cell_length_c   15.57131143
_cell_angle_alpha   79.28207941
_cell_angle_beta   100.71792059
_cell_angle_gamma   70.06113331
_symmetry_Int_Tables_number   1
_chemical_formula_structural   Sr3La2Cl12
_chemical_formula_sum   'Sr6 La4 Cl24'
_cell_volume   1045.64755041
_cell_formula_units_Z   2
loop_
 _symmetry_equiv_pos_site_id
 _symmetry_equiv_pos_as_xyz
  1  'x, y, z'
loop_
 _atom_site_type_symbol
 _atom_site_label
 _atom_site_symmetry_multiplicity
 _atom_site_fract_x
 _atom_site_fract_y
 _atom_site_fract_z
 _atom_site_occupancy
  Sr  Sr0  1  0.471566  0.784411  0.923265  1
  Sr  Sr1  1  0.215589  0.528434  0.423265  1
  Sr  Sr2  1  0.869110  0.869110  0.750000  1
  Sr  Sr3  1  0.130890  0.130890  0.250000  1
  Sr  Sr4  1  0.784411  0.471566  0.576735  1
  Sr  Sr5  1  0.528434  0.215589  0.076735  1
  La  La6  1  0.294651  0.948725  0.594176  1
  La  La7  1  0.051275  0.705349  0.094176  1
  La  La8  1  0.948725  0.294651  0.905824  1
  La  La9  1  0.705349  0.051275  0.405824  1
  Cl  Cl10  1  0.241780  0.788452  0.757159  1
  Cl  Cl11  1  0.512284  0.986335  0.745461  1
  Cl  Cl12  1  0.037506  0.914140  0.919973  1
  Cl  Cl13  1  0.397806  0.603649  0.579786  1
  Cl  Cl14  1  0.833059  0.643666  0.926096  1
  Cl  Cl15  1  0.137766  0.301760  0.573988  1
  Cl  Cl16  1  0.211548  0.758220  0.257159  1
  Cl  Cl17  1  0.301760  0.137766  0.926012  1
  Cl  Cl18  1  0.643666  0.833059  0.573904  1
  Cl  Cl19  1  0.603649  0.397806  0.920214  1
  Cl  Cl20  1  0.914140  0.037506  0.580027  1
  Cl  Cl21  1  0.013665  0.487716  0.245461  1
  Cl  Cl22  1  0.986335  0.512284  0.754539  1
  Cl  Cl23  1  0.085860  0.962494  0.419973  1
  Cl  Cl24  1  0.396351  0.602194  0.079786  1
  Cl  Cl25  1  0.356334  0.166941  0.426096  1
  Cl  Cl26  1  0.698240  0.862234  0.073988  1
  Cl  Cl27  1  0.788452  0.241780  0.742841  1
  Cl  Cl28  1  0.862234  0.698240  0.426012  1
  Cl  Cl29  1  0.166941  0.356334  0.073904  1
  Cl  Cl30  1  0.602194  0.396351  0.420214  1
  Cl  Cl31  1  0.962494  0.085860  0.080027  1
  Cl  Cl32  1  0.487716  0.013665  0.254539  1
  Cl  Cl33  1  0.758220  0.211548  0.242841  1
