# generated using pymatgen
data_Li32Ti13Cr3O48
_symmetry_space_group_name_H-M   'P 1'
_cell_length_a   5.08636258
_cell_length_b   8.82100197
_cell_length_c   19.60869810
_cell_angle_alpha   98.36024008
_cell_angle_beta   94.82437133
_cell_angle_gamma   89.88015853
_symmetry_Int_Tables_number   1
_chemical_formula_structural   Li32Ti13Cr3O48
_chemical_formula_sum   'Li32 Ti13 Cr3 O48'
_cell_volume   867.30117903
_cell_formula_units_Z   1
loop_
 _symmetry_equiv_pos_site_id
 _symmetry_equiv_pos_as_xyz
  1  'x, y, z'
loop_
 _atom_site_type_symbol
 _atom_site_label
 _atom_site_symmetry_multiplicity
 _atom_site_fract_x
 _atom_site_fract_y
 _atom_site_fract_z
 _atom_site_occupancy
  Li  Li0  1  0.991816  0.170008  0.249718  1
  Li  Li1  1  0.875088  0.374334  0.375032  1
  Li  Li2  1  0.750237  0.249905  0.999921  1
  Li  Li3  1  0.743258  0.918527  0.999471  1
  Li  Li4  1  0.992555  0.169334  0.749709  1
  Li  Li5  1  0.761029  0.580748  0.499936  1
  Li  Li6  1  0.874785  0.377037  0.874819  1
  Li  Li7  1  0.752554  0.251318  0.500019  1
  Li  Li8  1  0.740905  0.918226  0.500120  1
  Li  Li9  1  0.625117  0.124962  0.124972  1
  Li  Li10  1  0.759668  0.580669  0.999196  1
  Li  Li11  1  0.509921  0.330197  0.250630  1
  Li  Li12  1  0.623117  0.125419  0.625238  1
  Li  Li13  1  0.500879  0.000792  0.250342  1
  Li  Li14  1  0.491003  0.668778  0.250029  1
  Li  Li15  1  0.505056  0.329562  0.749724  1
  Li  Li16  1  0.374864  0.874530  0.375016  1
  Li  Li17  1  0.499890  0.000553  0.750033  1
  Li  Li18  1  0.244828  0.750993  0.999630  1
  Li  Li19  1  0.495908  0.670358  0.750606  1
  Li  Li20  1  0.241960  0.419885  0.000293  1
  Li  Li21  1  0.374462  0.874143  0.875122  1
  Li  Li22  1  0.256728  0.081601  0.499711  1
  Li  Li23  1  0.249360  0.750283  0.499970  1
  Li  Li24  1  0.124912  0.625013  0.124926  1
  Li  Li25  1  0.238517  0.417874  0.500076  1
  Li  Li26  1  0.008236  0.829385  0.249605  1
  Li  Li27  1  0.259406  0.079834  0.999962  1
  Li  Li28  1  0.124136  0.622957  0.624853  1
  Li  Li29  1  0.997846  0.500881  0.249660  1
  Li  Li30  1  0.007988  0.830069  0.750796  1
  Li  Li31  1  0.999039  0.500521  0.750380  1
  Ti  Ti32  1  0.873856  0.709733  0.374970  1
  Ti  Ti33  1  0.875895  0.045858  0.375073  1
  Ti  Ti34  1  0.878637  0.040176  0.875905  1
  Ti  Ti35  1  0.626092  0.791185  0.124788  1
  Ti  Ti36  1  0.623816  0.458803  0.124864  1
  Ti  Ti37  1  0.631201  0.790993  0.624684  1
  Ti  Ti38  1  0.620389  0.457695  0.623483  1
  Ti  Ti39  1  0.376282  0.538799  0.375186  1
  Ti  Ti40  1  0.376002  0.541555  0.874096  1
  Ti  Ti41  1  0.374628  0.208544  0.874869  1
  Ti  Ti42  1  0.123792  0.958690  0.124955  1
  Ti  Ti43  1  0.126646  0.291178  0.124962  1
  Ti  Ti44  1  0.130694  0.960747  0.627208  1
  Cr  Cr45  1  0.871282  0.709535  0.875019  1
  Cr  Cr46  1  0.373680  0.206857  0.374941  1
  Cr  Cr47  1  0.120165  0.290289  0.625053  1
  O  O48  1  0.962608  0.106269  0.068249  1
  O  O49  1  0.928685  0.784358  0.068419  1
  O  O50  1  0.927876  0.427532  0.067125  1
  O  O51  1  0.963816  0.112235  0.569085  1
  O  O52  1  0.821975  0.965736  0.181867  1
  O  O53  1  0.822775  0.322483  0.182797  1
  O  O54  1  0.927583  0.785995  0.568263  1
  O  O55  1  0.924106  0.428706  0.567009  1
  O  O56  1  0.787759  0.643501  0.181650  1
  O  O57  1  0.714177  0.857207  0.318246  1
  O  O58  1  0.821163  0.966027  0.681839  1
  O  O59  1  0.831297  0.320953  0.682107  1
  O  O60  1  0.678222  0.534457  0.318296  1
  O  O61  1  0.680040  0.178059  0.317074  1
  O  O62  1  0.784797  0.643159  0.681684  1
  O  O63  1  0.713032  0.852366  0.818894  1
  O  O64  1  0.462346  0.606418  0.068165  1
  O  O65  1  0.571049  0.714487  0.431803  1
  O  O66  1  0.567258  0.075778  0.432217  1
  O  O67  1  0.676517  0.533946  0.818244  1
  O  O68  1  0.677036  0.176204  0.817247  1
  O  O69  1  0.427688  0.927312  0.067174  1
  O  O70  1  0.428832  0.284371  0.068304  1
  O  O71  1  0.536567  0.389784  0.430993  1
  O  O72  1  0.463071  0.605823  0.567862  1
  O  O73  1  0.579421  0.716703  0.930915  1
  O  O74  1  0.572355  0.072217  0.932739  1
  O  O75  1  0.322485  0.822533  0.182867  1
  O  O76  1  0.321533  0.465549  0.181738  1
  O  O77  1  0.427250  0.927835  0.567130  1
  O  O78  1  0.423999  0.282921  0.569429  1
  O  O79  1  0.535955  0.394649  0.931886  1
  O  O80  1  0.287732  0.143543  0.181576  1
  O  O81  1  0.213502  0.353121  0.319289  1
  O  O82  1  0.321597  0.823312  0.683021  1
  O  O83  1  0.319001  0.462591  0.680850  1
  O  O84  1  0.177855  0.676252  0.317159  1
  O  O85  1  0.184401  0.038119  0.319151  1
  O  O86  1  0.290937  0.142327  0.681978  1
  O  O87  1  0.213831  0.357012  0.818311  1
  O  O88  1  0.072478  0.572687  0.432860  1
  O  O89  1  0.068911  0.216163  0.431782  1
  O  O90  1  0.173361  0.679503  0.818101  1
  O  O91  1  0.178423  0.034037  0.818189  1
  O  O92  1  0.035499  0.894623  0.431915  1
  O  O93  1  0.069994  0.574108  0.931918  1
  O  O94  1  0.071385  0.214444  0.931662  1
  O  O95  1  0.039697  0.893255  0.931353  1
