# generated using pymatgen
data_Li3Sb3P8O29
_symmetry_space_group_name_H-M   'P 1'
_cell_length_a   9.81433819
_cell_length_b   9.84211289
_cell_length_c   14.34933460
_cell_angle_alpha   90.00029286
_cell_angle_beta   89.75985280
_cell_angle_gamma   59.90604331
_symmetry_Int_Tables_number   1
_chemical_formula_structural   Li3Sb3P8O29
_chemical_formula_sum   'Li6 Sb6 P16 O58'
_cell_volume   1199.20849863
_cell_formula_units_Z   2
loop_
 _symmetry_equiv_pos_site_id
 _symmetry_equiv_pos_as_xyz
  1  'x, y, z'
loop_
 _atom_site_type_symbol
 _atom_site_label
 _atom_site_symmetry_multiplicity
 _atom_site_fract_x
 _atom_site_fract_y
 _atom_site_fract_z
 _atom_site_occupancy
  Li  Li0  1  0.018087  0.034730  0.496524  1
  Li  Li1  1  0.018086  0.947201  0.996528  1
  Li  Li2  1  0.228233  0.096390  0.051233  1
  Li  Li3  1  0.228241  0.675391  0.551239  1
  Li  Li4  1  0.671937  0.101922  0.551811  1
  Li  Li5  1  0.671942  0.226144  0.051816  1
  Sb  Sb6  1  0.997944  0.438461  0.749403  1
  Sb  Sb7  1  0.997942  0.563600  0.249403  1
  Sb  Sb8  1  0.435903  0.998157  0.253402  1
  Sb  Sb9  1  0.565238  0.996046  0.749370  1
  Sb  Sb10  1  0.435906  0.565932  0.753403  1
  Sb  Sb11  1  0.565226  0.438725  0.249365  1
  P  P12  1  0.081025  0.223815  0.345844  1
  P  P13  1  0.222964  0.086947  0.842480  1
  P  P14  1  0.081021  0.695175  0.845844  1
  P  P15  1  0.335240  0.330772  0.128124  1
  P  P16  1  0.335246  0.333978  0.628125  1
  P  P17  1  0.222947  0.690102  0.342481  1
  P  P18  1  0.303365  0.780101  0.157128  1
  P  P19  1  0.688442  0.087882  0.344513  1
  P  P20  1  0.303378  0.916532  0.657122  1
  P  P21  1  0.688451  0.223675  0.844522  1
  P  P22  1  0.778976  0.306218  0.661112  1
  P  P23  1  0.667001  0.666307  0.872200  1
  P  P24  1  0.666998  0.666683  0.372204  1
  P  P25  1  0.920056  0.303762  0.157957  1
  P  P26  1  0.778967  0.914807  0.161106  1
  P  P27  1  0.920062  0.776185  0.657958  1
  O  O28  1  0.994459  0.211823  0.252786  1
  O  O29  1  0.008325  0.204856  0.077149  1
  O  O30  1  0.080450  0.255901  0.833823  1
  O  O31  1  0.214646  0.989688  0.755127  1
  O  O32  1  0.202730  0.996979  0.576674  1
  O  O33  1  0.253356  0.082845  0.338951  1
  O  O34  1  0.084974  0.380127  0.336618  1
  O  O35  1  0.196812  0.322390  0.675061  1
  O  O36  1  0.084966  0.534915  0.836618  1
  O  O37  1  0.008330  0.786815  0.577146  1
  O  O38  1  0.994469  0.793728  0.752782  1
  O  O39  1  0.080423  0.663677  0.333827  1
  O  O40  1  0.324005  0.186603  0.169881  1
  O  O41  1  0.377123  0.096036  0.831762  1
  O  O42  1  0.196816  0.480797  0.175069  1
  O  O43  1  0.339336  0.322644  0.025171  1
  O  O44  1  0.339363  0.337977  0.525170  1
  O  O45  1  0.324006  0.489394  0.669871  1
  O  O46  1  0.524531  0.099151  0.333408  1
  O  O47  1  0.493217  0.186904  0.666359  1
  O  O48  1  0.253359  0.663801  0.838952  1
  O  O49  1  0.214630  0.795683  0.255133  1
  O  O50  1  0.202722  0.800295  0.076683  1
  O  O51  1  0.213598  0.771619  0.431226  1
  O  O52  1  0.377102  0.526852  0.331754  1
  O  O53  1  0.493216  0.319892  0.166338  1
  O  O54  1  0.337870  0.741652  0.660048  1
  O  O55  1  0.524534  0.376318  0.833418  1
  O  O56  1  0.662991  0.080613  0.834235  1
  O  O57  1  0.213605  0.014786  0.931224  1
  O  O58  1  0.788772  0.007466  0.082286  1
  O  O59  1  0.796655  0.987886  0.258424  1
  O  O60  1  0.337854  0.920491  0.160050  1
  O  O61  1  0.464740  0.622699  0.162461  1
  O  O62  1  0.662975  0.256404  0.334224  1
  O  O63  1  0.510845  0.683629  0.827194  1
  O  O64  1  0.621139  0.465926  0.667110  1
  O  O65  1  0.788779  0.203752  0.582291  1
  O  O66  1  0.768024  0.214207  0.933809  1
  O  O67  1  0.796661  0.215455  0.758430  1
  O  O68  1  0.745911  0.335539  0.157292  1
  O  O69  1  0.510843  0.805524  0.327195  1
  O  O70  1  0.464747  0.912570  0.662456  1
  O  O71  1  0.681693  0.512220  0.326046  1
  O  O72  1  0.665976  0.666762  0.974591  1
  O  O73  1  0.665957  0.667245  0.474592  1
  O  O74  1  0.805716  0.511984  0.826175  1
  O  O75  1  0.621126  0.912943  0.167101  1
  O  O76  1  0.681698  0.806077  0.826048  1
  O  O77  1  0.917704  0.339430  0.660092  1
  O  O78  1  0.000174  0.207994  0.427999  1
  O  O79  1  0.910935  0.466350  0.163885  1
  O  O80  1  0.805712  0.682289  0.326177  1
  O  O81  1  0.910934  0.622723  0.663889  1
  O  O82  1  0.745917  0.918559  0.657296  1
  O  O83  1  0.768020  0.017786  0.433800  1
  O  O84  1  0.917695  0.742863  0.160087  1
  O  O85  1  0.000167  0.791860  0.927991  1
