# generated using pymatgen
data_Ba2La4Mn5SnO18
_symmetry_space_group_name_H-M   'P 1'
_cell_length_a   5.62074541
_cell_length_b   16.96576063
_cell_length_c   14.92071843
_cell_angle_alpha   19.19940352
_cell_angle_beta   56.08152147
_cell_angle_gamma   60.63028542
_symmetry_Int_Tables_number   1
_chemical_formula_structural   Ba2La4Mn5SnO18
_chemical_formula_sum   'Ba2 La4 Mn5 Sn1 O18'
_cell_volume   384.79314442
_cell_formula_units_Z   1
loop_
 _symmetry_equiv_pos_site_id
 _symmetry_equiv_pos_as_xyz
  1  'x, y, z'
loop_
 _atom_site_type_symbol
 _atom_site_label
 _atom_site_symmetry_multiplicity
 _atom_site_fract_x
 _atom_site_fract_y
 _atom_site_fract_z
 _atom_site_occupancy
  Ba  Ba0  1  0.757275  0.083999  0.742940  1
  Ba  Ba1  1  0.743741  0.410857  0.761542  1
  La  La2  1  0.250155  0.251423  0.248241  1
  La  La3  1  0.266867  0.589977  0.230115  1
  La  La4  1  0.231311  0.905226  0.275742  1
  La  La5  1  0.749371  0.757878  0.741951  1
  Mn  Mn6  1  0.995175  0.333186  0.003984  1
  Mn  Mn7  1  0.005527  0.667322  0.995645  1
  Mn  Mn8  1  0.509255  0.169042  0.490877  1
  Mn  Mn9  1  0.501302  0.497167  0.502122  1
  Mn  Mn10  1  0.489129  0.832008  0.508339  1
  Sn  Sn11  1  0.998752  0.998923  0.001107  1
  O  O12  1  0.268510  0.095233  0.233583  1
  O  O13  1  0.311095  0.452606  0.188874  1
  O  O14  1  0.799874  0.052348  0.270881  1
  O  O15  1  0.252203  0.154586  0.675043  1
  O  O16  1  0.753069  0.194150  0.303510  1
  O  O17  1  0.220683  0.271396  0.738705  1
  O  O18  1  0.293295  0.769311  0.220061  1
  O  O19  1  0.815908  0.410508  0.225119  1
  O  O20  1  0.238540  0.483723  0.692370  1
  O  O21  1  0.766526  0.556195  0.267278  1
  O  O22  1  0.188230  0.597329  0.761562  1
  O  O23  1  0.666777  0.201803  0.824648  1
  O  O24  1  0.822679  0.716059  0.257900  1
  O  O25  1  0.251612  0.815527  0.683949  1
  O  O26  1  0.737568  0.880410  0.293178  1
  O  O27  1  0.234013  0.924935  0.746285  1
  O  O28  1  0.680810  0.550399  0.814443  1
  O  O29  1  0.700749  0.876474  0.800006  1
