# generated using pymatgen
data_Sr2La6Mn7CuO24
_symmetry_space_group_name_H-M   'P 1'
_cell_length_a   5.50490944
_cell_length_b   22.06399668
_cell_length_c   19.82317494
_cell_angle_alpha   14.08031175
_cell_angle_beta   57.20106500
_cell_angle_gamma   60.87851185
_symmetry_Int_Tables_number   1
_chemical_formula_structural   Sr2La6Mn7CuO24
_chemical_formula_sum   'Sr2 La6 Mn7 Cu1 O24'
_cell_volume   483.45054333
_cell_formula_units_Z   1
loop_
 _symmetry_equiv_pos_site_id
 _symmetry_equiv_pos_as_xyz
  1  'x, y, z'
loop_
 _atom_site_type_symbol
 _atom_site_label
 _atom_site_symmetry_multiplicity
 _atom_site_fract_x
 _atom_site_fract_y
 _atom_site_fract_z
 _atom_site_occupancy
  Sr  Sr0  1  0.252786  0.125497  0.248107  1
  Sr  Sr1  1  0.247186  0.872089  0.254324  1
  La  La2  1  0.252451  0.375608  0.249292  1
  La  La3  1  0.246956  0.629750  0.245240  1
  La  La4  1  0.748713  0.127519  0.746494  1
  La  La5  1  0.743950  0.371140  0.756777  1
  La  La6  1  0.755643  0.627674  0.744433  1
  La  La7  1  0.750905  0.871662  0.754248  1
  Mn  Mn8  1  0.998854  0.998437  0.001670  1
  Mn  Mn9  1  0.000287  0.249432  0.000571  1
  Mn  Mn10  1  0.000900  0.501416  0.998474  1
  Mn  Mn11  1  0.999370  0.751238  0.998727  1
  Mn  Mn12  1  0.502415  0.000196  0.499000  1
  Mn  Mn13  1  0.497569  0.499728  0.501131  1
  Mn  Mn14  1  0.499488  0.748951  0.501137  1
  Cu  Cu15  1  0.500285  0.251126  0.498807  1
  O  O16  1  0.188315  0.206523  0.312676  1
  O  O17  1  0.706449  0.006526  0.255639  1
  O  O18  1  0.747943  0.187490  0.188506  1
  O  O19  1  0.171320  0.454650  0.312373  1
  O  O20  1  0.689331  0.259350  0.257864  1
  O  O21  1  0.244852  0.058036  0.819811  1
  O  O22  1  0.759403  0.443700  0.178677  1
  O  O23  1  0.186981  0.700468  0.313466  1
  O  O24  1  0.687056  0.532276  0.233188  1
  O  O25  1  0.311967  0.245052  0.735880  1
  O  O26  1  0.828323  0.046451  0.686748  1
  O  O27  1  0.252735  0.326615  0.797883  1
  O  O28  1  0.752525  0.691809  0.182016  1
  O  O29  1  0.193948  0.958401  0.306405  1
  O  O30  1  0.703028  0.760800  0.250838  1
  O  O31  1  0.306186  0.487978  0.747241  1
  O  O32  1  0.810537  0.293726  0.688976  1
  O  O33  1  0.246844  0.575115  0.800736  1
  O  O34  1  0.752194  0.939845  0.183957  1
  O  O35  1  0.313349  0.728673  0.757408  1
  O  O36  1  0.793281  0.530906  0.707068  1
  O  O37  1  0.245865  0.810079  0.815731  1
  O  O38  1  0.313388  0.969538  0.764723  1
  O  O39  1  0.796425  0.784527  0.703761  1
