# generated using pymatgen
data_SrH3C3O7
_symmetry_space_group_name_H-M   'P 1'
_cell_length_a   6.41556039
_cell_length_b   17.04841070
_cell_length_c   5.80551884
_cell_angle_alpha   90.00000000
_cell_angle_beta   97.52082068
_cell_angle_gamma   90.00000000
_symmetry_Int_Tables_number   1
_chemical_formula_structural   SrH3C3O7
_chemical_formula_sum   'Sr4 H12 C12 O28'
_cell_volume   629.51675748
_cell_formula_units_Z   4
loop_
 _symmetry_equiv_pos_site_id
 _symmetry_equiv_pos_as_xyz
  1  'x, y, z'
loop_
 _atom_site_type_symbol
 _atom_site_label
 _atom_site_symmetry_multiplicity
 _atom_site_fract_x
 _atom_site_fract_y
 _atom_site_fract_z
 _atom_site_occupancy
  Sr  Sr0  1  0.621035  0.918481  0.764235  1
  Sr  Sr1  1  0.121035  0.581519  0.264235  1
  Sr  Sr2  1  0.378965  0.081519  0.235765  1
  Sr  Sr3  1  0.878965  0.418481  0.735765  1
  H  H4  1  0.718475  0.569263  0.474651  1
  H  H5  1  0.218475  0.930737  0.974651  1
  H  H6  1  0.281525  0.430737  0.525349  1
  H  H7  1  0.781525  0.069263  0.025349  1
  H  H8  1  0.871209  0.603975  0.698690  1
  H  H9  1  0.371209  0.896025  0.198690  1
  H  H10  1  0.128791  0.396025  0.301310  1
  H  H11  1  0.628791  0.103975  0.801310  1
  H  H12  1  0.355168  0.745841  0.998940  1
  H  H13  1  0.855168  0.754159  0.498940  1
  H  H14  1  0.644832  0.254159  0.001060  1
  H  H15  1  0.144832  0.245841  0.501060  1
  C  C16  1  0.870459  0.738115  0.924871  1
  C  C17  1  0.370459  0.761885  0.424871  1
  C  C18  1  0.129541  0.261885  0.075129  1
  C  C19  1  0.629541  0.238115  0.575129  1
  C  C20  1  0.914795  0.017810  0.405400  1
  C  C21  1  0.414795  0.482190  0.905400  1
  C  C22  1  0.085205  0.982190  0.594600  1
  C  C23  1  0.585205  0.517810  0.094600  1
  C  C24  1  0.848662  0.779176  0.160524  1
  C  C25  1  0.348662  0.720824  0.660524  1
  C  C26  1  0.151338  0.220824  0.839476  1
  C  C27  1  0.651338  0.279176  0.339476  1
  O  O28  1  0.880534  0.730494  0.339161  1
  O  O29  1  0.380534  0.769506  0.839161  1
  O  O30  1  0.119466  0.269506  0.660839  1
  O  O31  1  0.619466  0.230494  0.160839  1
  O  O32  1  0.825196  0.781032  0.745842  1
  O  O33  1  0.325196  0.718968  0.245842  1
  O  O34  1  0.174804  0.218968  0.254158  1
  O  O35  1  0.674804  0.281032  0.754158  1
  O  O36  1  0.641345  0.064057  0.927253  1
  O  O37  1  0.141345  0.435943  0.427253  1
  O  O38  1  0.358655  0.935943  0.072747  1
  O  O39  1  0.858655  0.564057  0.572747  1
  O  O40  1  0.723388  0.007838  0.430491  1
  O  O41  1  0.223388  0.492162  0.930491  1
  O  O42  1  0.276612  0.992162  0.569509  1
  O  O43  1  0.776612  0.507838  0.069509  1
  O  O44  1  0.925660  0.667319  0.930037  1
  O  O45  1  0.425660  0.832681  0.430037  1
  O  O46  1  0.074340  0.332681  0.069963  1
  O  O47  1  0.574340  0.167319  0.569963  1
  O  O48  1  0.982571  0.054603  0.240029  1
  O  O49  1  0.482571  0.445397  0.740029  1
  O  O50  1  0.017429  0.945397  0.759971  1
  O  O51  1  0.517429  0.554603  0.259971  1
  O  O52  1  0.803146  0.849195  0.170754  1
  O  O53  1  0.303146  0.650805  0.670754  1
  O  O54  1  0.196854  0.150805  0.829246  1
  O  O55  1  0.696854  0.349195  0.329246  1
