# generated using pymatgen
data_LiFeBO3
_symmetry_space_group_name_H-M   'P 1'
_cell_length_a   8.24054862
_cell_length_b   8.23664692
_cell_length_c   3.12530414
_cell_angle_alpha   90.00000000
_cell_angle_beta   90.00000000
_cell_angle_gamma   119.99831192
_symmetry_Int_Tables_number   1
_chemical_formula_structural   LiFeBO3
_chemical_formula_sum   'Li3 Fe3 B3 O9'
_cell_volume   183.71172782
_cell_formula_units_Z   3
loop_
 _symmetry_equiv_pos_site_id
 _symmetry_equiv_pos_as_xyz
  1  'x, y, z'
loop_
 _atom_site_type_symbol
 _atom_site_label
 _atom_site_symmetry_multiplicity
 _atom_site_fract_x
 _atom_site_fract_y
 _atom_site_fract_z
 _atom_site_occupancy
  Li  Li0  1  0.286139  0.984076  0.500000  1
  Li  Li1  1  0.015865  0.302114  0.500000  1
  Li  Li2  1  0.697922  0.713773  0.500000  1
  Fe  Fe3  1  0.367292  0.359505  0.000000  1
  Fe  Fe4  1  0.640474  0.007832  0.000000  1
  Fe  Fe5  1  0.992155  0.632580  0.000000  1
  B  B6  1  0.333589  0.666735  0.500000  1
  B  B7  1  0.000362  0.000502  0.000000  1
  B  B8  1  0.666663  0.333362  0.500000  1
  O  O9  1  0.109758  0.915351  0.000000  1
  O  O10  1  0.139092  0.580545  0.500000  1
  O  O11  1  0.084381  0.194060  0.000000  1
  O  O12  1  0.441348  0.860829  0.500000  1
  O  O13  1  0.419455  0.558778  0.500000  1
  O  O14  1  0.472532  0.253886  0.500000  1
  O  O15  1  0.805382  0.890053  0.000000  1
  O  O16  1  0.781447  0.527469  0.500000  1
  O  O17  1  0.746144  0.218553  0.500000  1
