# generated using pymatgen
data_Li3Fe2(CuO4)2
_symmetry_space_group_name_H-M   'P 1'
_cell_length_a   6.28185661
_cell_length_b   6.34306656
_cell_length_c   6.31968156
_cell_angle_alpha   126.34713048
_cell_angle_beta   52.59182031
_cell_angle_gamma   101.43672241
_symmetry_Int_Tables_number   1
_chemical_formula_structural   Li3Fe2(CuO4)2
_chemical_formula_sum   'Li3 Fe2 Cu2 O8'
_cell_volume   155.87320590
_cell_formula_units_Z   1
loop_
 _symmetry_equiv_pos_site_id
 _symmetry_equiv_pos_as_xyz
  1  'x, y, z'
loop_
 _atom_site_type_symbol
 _atom_site_label
 _atom_site_symmetry_multiplicity
 _atom_site_fract_x
 _atom_site_fract_y
 _atom_site_fract_z
 _atom_site_occupancy
  Li  Li0  1  0.500000  0.000000  0.000000  1
  Li  Li1  1  0.500000  0.500000  0.000000  1
  Li  Li2  1  0.500000  0.500000  0.500000  1
  Fe  Fe3  1  0.000000  0.500000  0.000000  1
  Fe  Fe4  1  0.000000  0.000000  0.500000  1
  Cu  Cu5  1  0.000000  0.000000  0.000000  1
  Cu  Cu6  1  0.500000  0.000000  0.500000  1
  O  O7  1  0.262034  0.717261  0.004388  1
  O  O8  1  0.232094  0.264705  0.523988  1
  O  O9  1  0.221160  0.810427  0.533785  1
  O  O10  1  0.222612  0.243184  0.968629  1
  O  O11  1  0.777388  0.756816  0.031371  1
  O  O12  1  0.778840  0.189573  0.466215  1
  O  O13  1  0.767906  0.735295  0.476012  1
  O  O14  1  0.737966  0.282739  0.995612  1
