# generated using pymatgen
data_Li4Mn3Fe(BO3)4
_symmetry_space_group_name_H-M   'P 1'
_cell_length_a   9.38823305
_cell_length_b   5.24338887
_cell_length_c   6.23634770
_cell_angle_alpha   65.33751581
_cell_angle_beta   80.29649468
_cell_angle_gamma   105.04746069
_symmetry_Int_Tables_number   1
_chemical_formula_structural   Li4Mn3Fe(BO3)4
_chemical_formula_sum   'Li4 Mn3 Fe1 B4 O12'
_cell_volume   255.66218543
_cell_formula_units_Z   1
loop_
 _symmetry_equiv_pos_site_id
 _symmetry_equiv_pos_as_xyz
  1  'x, y, z'
loop_
 _atom_site_type_symbol
 _atom_site_label
 _atom_site_symmetry_multiplicity
 _atom_site_fract_x
 _atom_site_fract_y
 _atom_site_fract_z
 _atom_site_occupancy
  Li  Li0  1  0.116566  0.629012  0.555787  1
  Li  Li1  1  0.618028  0.631885  0.052797  1
  Li  Li2  1  0.382523  0.368568  0.945700  1
  Li  Li3  1  0.881500  0.366840  0.448141  1
  Mn  Mn4  1  0.197283  0.747352  0.036915  1
  Mn  Mn5  1  0.303099  0.252780  0.462576  1
  Mn  Mn6  1  0.697272  0.748173  0.532907  1
  Fe  Fe7  1  0.801508  0.258704  0.963497  1
  B  B8  1  0.034445  0.073684  0.225963  1
  B  B9  1  0.466520  0.929564  0.269838  1
  B  B10  1  0.535732  0.073268  0.727719  1
  B  B11  1  0.964337  0.924142  0.776183  1
  O  O12  1  0.024874  0.786387  0.272604  1
  O  O13  1  0.178487  0.302072  0.145483  1
  O  O14  1  0.101773  0.871048  0.723749  1
  O  O15  1  0.322877  0.698482  0.354218  1
  O  O16  1  0.475352  0.214498  0.227560  1
  O  O17  1  0.603922  0.874661  0.218119  1
  O  O18  1  0.399090  0.131243  0.775199  1
  O  O19  1  0.526191  0.787035  0.771420  1
  O  O20  1  0.679129  0.302655  0.646164  1
  O  O21  1  0.898168  0.132666  0.272379  1
  O  O22  1  0.821778  0.688818  0.859988  1
  O  O23  1  0.969543  0.206466  0.735095  1
