# generated using pymatgen
data_Li2Sn(BO3)2
_symmetry_space_group_name_H-M   'P 1'
_cell_length_a   5.26268073
_cell_length_b   8.94113361
_cell_length_c   10.28822550
_cell_angle_alpha   89.67190145
_cell_angle_beta   92.67450144
_cell_angle_gamma   90.81838830
_symmetry_Int_Tables_number   1
_chemical_formula_structural   Li2Sn(BO3)2
_chemical_formula_sum   'Li8 Sn4 B8 O24'
_cell_volume   483.52272312
_cell_formula_units_Z   4
loop_
 _symmetry_equiv_pos_site_id
 _symmetry_equiv_pos_as_xyz
  1  'x, y, z'
loop_
 _atom_site_type_symbol
 _atom_site_label
 _atom_site_symmetry_multiplicity
 _atom_site_fract_x
 _atom_site_fract_y
 _atom_site_fract_z
 _atom_site_occupancy
  Li  Li0  1  0.316406  0.479993  0.417769  1
  Li  Li1  1  0.366929  0.460022  0.820846  1
  Li  Li2  1  0.627769  0.545206  0.165247  1
  Li  Li3  1  0.687920  0.527978  0.608236  1
  Li  Li4  1  0.666274  0.862193  0.106920  1
  Li  Li5  1  0.875759  0.042490  0.900275  1
  Li  Li6  1  0.810181  0.353197  0.382618  1
  Li  Li7  1  0.859750  0.033416  0.321765  1
  Sn  Sn8  1  0.124073  0.296252  0.124228  1
  Sn  Sn9  1  0.361264  0.812215  0.368980  1
  Sn  Sn10  1  0.621411  0.184272  0.629122  1
  Sn  Sn11  1  0.880348  0.702184  0.872861  1
  B  B12  1  0.167190  0.305061  0.609055  1
  B  B13  1  0.155933  0.648633  0.133944  1
  B  B14  1  0.333054  0.801880  0.893097  1
  B  B15  1  0.333440  0.156166  0.368782  1
  B  B16  1  0.654077  0.844486  0.630903  1
  B  B17  1  0.659943  0.200998  0.126437  1
  B  B18  1  0.850845  0.350228  0.865783  1
  B  B19  1  0.830636  0.682758  0.373202  1
  O  O20  1  0.089905  0.334939  0.926190  1
  O  O21  1  0.085264  0.652064  0.392220  1
  O  O22  1  0.124708  0.892329  0.900195  1
  O  O23  1  0.215027  0.019464  0.350066  1
  O  O24  1  0.188997  0.282946  0.334506  1
  O  O25  1  0.267189  0.652707  0.864142  1
  O  O26  1  0.236302  0.158746  0.630480  1
  O  O27  1  0.318163  0.768445  0.172115  1
  O  O28  1  0.264618  0.508870  0.149905  1
  O  O29  1  0.364860  0.410273  0.608765  1
  O  O30  1  0.430396  0.824566  0.559068  1
  O  O31  1  0.415044  0.156612  0.110140  1
  O  O32  1  0.585390  0.844081  0.919760  1
  O  O33  1  0.587929  0.170173  0.415701  1
  O  O34  1  0.650235  0.571076  0.385368  1
  O  O35  1  0.736523  0.486965  0.845069  1
  O  O36  1  0.716046  0.223745  0.823502  1
  O  O37  1  0.749389  0.827538  0.335857  1
  O  O38  1  0.745644  0.345997  0.161293  1
  O  O39  1  0.777964  0.718147  0.678998  1
  O  O40  1  0.759874  0.981923  0.663731  1
  O  O41  1  0.856874  0.100182  0.114168  1
  O  O42  1  0.909887  0.341592  0.584928  1
  O  O43  1  0.907572  0.669194  0.083762  1
