# generated using pymatgen
data_Li2Mn3(BO3)3
_symmetry_space_group_name_H-M   'P 1'
_cell_length_a   8.29543585
_cell_length_b   14.65306288
_cell_length_c   6.34392096
_cell_angle_alpha   102.52430991
_cell_angle_beta   89.97601685
_cell_angle_gamma   90.37795067
_symmetry_Int_Tables_number   1
_chemical_formula_structural   Li2Mn3(BO3)3
_chemical_formula_sum   'Li8 Mn12 B12 O36'
_cell_volume   752.75963823
_cell_formula_units_Z   4
loop_
 _symmetry_equiv_pos_site_id
 _symmetry_equiv_pos_as_xyz
  1  'x, y, z'
loop_
 _atom_site_type_symbol
 _atom_site_label
 _atom_site_symmetry_multiplicity
 _atom_site_fract_x
 _atom_site_fract_y
 _atom_site_fract_z
 _atom_site_occupancy
  Li  Li0  1  0.287058  0.990787  0.244474  1
  Li  Li1  1  0.339519  0.358879  0.427806  1
  Li  Li2  1  0.337636  0.360870  0.931719  1
  Li  Li3  1  0.367989  0.648260  0.072350  1
  Li  Li4  1  0.789497  0.490249  0.496093  1
  Li  Li5  1  0.842887  0.859452  0.178610  1
  Li  Li6  1  0.833852  0.858582  0.678924  1
  Li  Li7  1  0.869788  0.149512  0.825678  1
  Mn  Mn8  1  0.133698  0.509872  0.754527  1
  Mn  Mn9  1  0.126168  0.509326  0.252700  1
  Mn  Mn10  1  0.182194  0.815784  0.904547  1
  Mn  Mn11  1  0.182000  0.813991  0.410567  1
  Mn  Mn12  1  0.184924  0.174655  0.588531  1
  Mn  Mn13  1  0.187953  0.176750  0.086143  1
  Mn  Mn14  1  0.632277  0.009493  0.503964  1
  Mn  Mn15  1  0.629185  0.009351  0.006182  1
  Mn  Mn16  1  0.681984  0.314271  0.656309  1
  Mn  Mn17  1  0.682990  0.315515  0.157929  1
  Mn  Mn18  1  0.685620  0.675655  0.838183  1
  Mn  Mn19  1  0.686677  0.675761  0.334067  1
  B  B20  1  0.995550  0.997716  0.998382  1
  B  B21  1  0.995934  0.995552  0.496680  1
  B  B22  1  0.000169  0.335111  0.415261  1
  B  B23  1  0.007702  0.333527  0.917962  1
  B  B24  1  0.996143  0.665445  0.580438  1
  B  B25  1  -0.000049  0.671531  0.085333  1
  B  B26  1  0.496460  0.496210  0.747538  1
  B  B27  1  0.495509  0.497712  0.248803  1
  B  B28  1  0.503106  0.173001  0.838034  1
  B  B29  1  0.493573  0.165592  0.331179  1
  B  B30  1  0.501863  0.832750  0.167836  1
  B  B31  1  0.505959  0.835517  0.667677  1
  O  O32  1  0.034401  0.428754  0.965845  1
  O  O33  1  0.021589  0.431799  0.462575  1
  O  O34  1  0.026947  0.768459  0.134013  1
  O  O35  1  0.018227  0.761936  0.632970  1
  O  O36  1  0.127994  0.606700  0.546654  1
  O  O37  1  0.134286  0.612282  0.059934  1
  O  O38  1  0.130923  0.276609  0.385916  1
  O  O39  1  0.139872  0.274849  0.889028  1
  O  O40  1  0.142122  0.953356  0.994873  1
  O  O41  1  0.143169  0.951909  0.455466  1
  O  O42  1  0.337977  0.127017  0.310609  1
  O  O43  1  0.351393  0.136615  0.821935  1
  O  O44  1  0.352216  0.788977  0.144870  1
  O  O45  1  0.346486  0.807456  0.653212  1
  O  O46  1  0.355113  0.442513  0.721895  1
  O  O47  1  0.353142  0.444788  0.222217  1
  O  O48  1  0.488990  0.591576  0.811500  1
  O  O49  1  0.489941  0.592774  0.275909  1
  O  O50  1  0.546568  0.929510  0.715794  1
  O  O51  1  0.510546  0.929803  0.216077  1
  O  O52  1  0.515640  0.261663  0.379759  1
  O  O53  1  0.527447  0.270845  0.886455  1
  O  O54  1  0.624768  0.106372  0.302526  1
  O  O55  1  0.637758  0.114686  0.806820  1
  O  O56  1  0.640132  0.779841  0.141495  1
  O  O57  1  0.630119  0.771305  0.635159  1
  O  O58  1  0.643525  0.452340  0.707949  1
  O  O59  1  0.642083  0.453451  0.246845  1
  O  O60  1  0.841506  0.626829  0.560427  1
  O  O61  1  0.847512  0.635637  0.064004  1
  O  O62  1  0.842413  0.302605  0.401281  1
  O  O63  1  0.854511  0.294060  0.896637  1
  O  O64  1  0.853807  0.944201  0.971403  1
  O  O65  1  0.854711  0.941777  0.469990  1
  O  O66  1  0.988352  0.090799  0.563135  1
  O  O67  1  0.990241  0.093028  0.028131  1
