# generated using pymatgen
data_Bi2PO6
_symmetry_space_group_name_H-M   'P 1'
_cell_length_a   5.72981600
_cell_length_b   5.76117803
_cell_length_c   7.85953921
_cell_angle_alpha   90.00000000
_cell_angle_beta   111.37764458
_cell_angle_gamma   90.00000000
_symmetry_Int_Tables_number   1
_chemical_formula_structural   Bi2PO6
_chemical_formula_sum   'Bi4 P2 O12'
_cell_volume   241.59678080
_cell_formula_units_Z   2
loop_
 _symmetry_equiv_pos_site_id
 _symmetry_equiv_pos_as_xyz
  1  'x, y, z'
loop_
 _atom_site_type_symbol
 _atom_site_label
 _atom_site_symmetry_multiplicity
 _atom_site_fract_x
 _atom_site_fract_y
 _atom_site_fract_z
 _atom_site_occupancy
  Bi  Bi0  1  0.211738  0.499706  0.331013  1
  Bi  Bi1  1  0.380724  0.999706  0.668987  1
  Bi  Bi2  1  0.880724  0.500294  0.668987  1
  Bi  Bi3  1  0.711738  0.000294  0.331013  1
  P  P4  1  0.044584  0.000000  0.000000  1
  P  P5  1  0.544584  0.500000  0.000000  1
  O  O6  1  0.127728  0.851146  0.866915  1
  O  O7  1  0.961958  0.851273  0.133058  1
  O  O8  1  0.328899  0.351273  0.866942  1
  O  O9  1  0.260813  0.148854  0.133085  1
  O  O10  1  0.627728  0.648854  0.866915  1
  O  O11  1  0.546420  0.261628  0.499283  1
  O  O12  1  0.547137  0.761628  0.500717  1
  O  O13  1  0.461958  0.648727  0.133058  1
  O  O14  1  0.828899  0.148727  0.866942  1
  O  O15  1  0.760813  0.351146  0.133085  1
  O  O16  1  0.046420  0.238372  0.499283  1
  O  O17  1  0.047137  0.738372  0.500717  1
