# generated using pymatgen
data_Sb5O7F
_symmetry_space_group_name_H-M   'P 1'
_cell_length_a   5.28540393
_cell_length_b   14.44174051
_cell_length_c   14.44174051
_cell_angle_alpha   114.31233026
_cell_angle_beta   79.45600272
_cell_angle_gamma   100.54399728
_symmetry_Int_Tables_number   1
_chemical_formula_structural   Sb5O7F
_chemical_formula_sum   'Sb20 O28 F4'
_cell_volume   980.46451793
_cell_formula_units_Z   4
loop_
 _symmetry_equiv_pos_site_id
 _symmetry_equiv_pos_as_xyz
  1  'x, y, z'
loop_
 _atom_site_type_symbol
 _atom_site_label
 _atom_site_symmetry_multiplicity
 _atom_site_fract_x
 _atom_site_fract_y
 _atom_site_fract_z
 _atom_site_occupancy
  Sb  Sb0  1  0.341163  0.225543  0.111399  1
  Sb  Sb1  1  0.727020  0.111399  0.225543  1
  Sb  Sb2  1  0.227020  0.274457  0.388601  1
  Sb  Sb3  1  0.841163  0.388601  0.274457  1
  Sb  Sb4  1  0.366464  0.510732  0.148075  1
  Sb  Sb5  1  0.133536  0.648075  0.010732  1
  Sb  Sb6  1  0.996194  0.010732  0.648075  1
  Sb  Sb7  1  0.503806  0.148075  0.510732  1
  Sb  Sb8  1  0.701767  0.451767  0.548233  1
  Sb  Sb9  1  0.201767  0.951767  0.048233  1
  Sb  Sb10  1  0.798233  0.048233  0.951767  1
  Sb  Sb11  1  0.298233  0.548233  0.451767  1
  Sb  Sb12  1  0.496194  0.851925  0.489268  1
  Sb  Sb13  1  0.633536  0.489268  0.851925  1
  Sb  Sb14  1  0.003806  0.989268  0.351925  1
  Sb  Sb15  1  0.866464  0.351925  0.989268  1
  Sb  Sb16  1  0.772980  0.725543  0.611399  1
  Sb  Sb17  1  0.158837  0.611399  0.725543  1
  Sb  Sb18  1  0.272980  0.888601  0.774457  1
  Sb  Sb19  1  0.658837  0.774457  0.888601  1
  O  O20  1  0.479691  0.084291  0.075916  1
  O  O21  1  0.971316  0.075916  0.084291  1
  O  O22  1  0.056466  0.078752  0.273432  1
  O  O23  1  0.751147  0.273432  0.078752  1
  O  O24  1  0.522948  0.404356  0.018780  1
  O  O25  1  0.637372  0.018780  0.404356  1
  O  O26  1  0.956606  0.250000  0.250000  1
  O  O27  1  0.456606  0.250000  0.250000  1
  O  O28  1  0.022948  0.481220  0.095644  1
  O  O29  1  0.137372  0.095644  0.481220  1
  O  O30  1  0.251147  0.421248  0.226568  1
  O  O31  1  0.556466  0.226568  0.421248  1
  O  O32  1  0.471316  0.415709  0.424084  1
  O  O33  1  0.979691  0.424084  0.415709  1
  O  O34  1  0.020309  0.575916  0.584291  1
  O  O35  1  0.528684  0.584291  0.575916  1
  O  O36  1  0.443534  0.773432  0.578752  1
  O  O37  1  0.748853  0.578752  0.773432  1
  O  O38  1  0.977052  0.518780  0.904356  1
  O  O39  1  0.862628  0.904356  0.518780  1
  O  O40  1  0.043394  0.750000  0.750000  1
  O  O41  1  0.543394  0.750000  0.750000  1
  O  O42  1  0.362628  0.981220  0.595644  1
  O  O43  1  0.477052  0.595644  0.981220  1
  O  O44  1  0.248853  0.726568  0.921248  1
  O  O45  1  0.943534  0.921248  0.726568  1
  O  O46  1  0.520309  0.915709  0.924084  1
  O  O47  1  0.028684  0.924084  0.915709  1
  F  F48  1  0.153617  0.403617  0.596383  1
  F  F49  1  0.653617  0.903617  0.096383  1
  F  F50  1  0.346383  0.096383  0.903617  1
  F  F51  1  0.846383  0.596383  0.403617  1
