# generated using pymatgen
data_Li3V3P8O29
_symmetry_space_group_name_H-M   'P 1'
_cell_length_a   9.72020384
_cell_length_b   9.71987565
_cell_length_c   14.12621505
_cell_angle_alpha   90.38119052
_cell_angle_beta   90.38439004
_cell_angle_gamma   60.19577627
_symmetry_Int_Tables_number   1
_chemical_formula_structural   Li3V3P8O29
_chemical_formula_sum   'Li6 V6 P16 O58'
_cell_volume   1158.06507456
_cell_formula_units_Z   2
loop_
 _symmetry_equiv_pos_site_id
 _symmetry_equiv_pos_as_xyz
  1  'x, y, z'
loop_
 _atom_site_type_symbol
 _atom_site_label
 _atom_site_symmetry_multiplicity
 _atom_site_fract_x
 _atom_site_fract_y
 _atom_site_fract_z
 _atom_site_occupancy
  Li  Li0  1  0.767596  0.329781  0.055087  1
  Li  Li1  1  0.670430  0.232358  0.444845  1
  Li  Li2  1  0.329479  0.767717  0.555112  1
  Li  Li3  1  0.232297  0.670417  0.944950  1
  Li  Li4  1  0.998715  0.999886  0.999943  1
  Li  Li5  1  0.000150  0.001424  0.500055  1
  V  V6  1  0.565098  0.434852  0.249936  1
  V  V7  1  0.434870  0.565174  0.750068  1
  V  V8  1  0.564858  0.997258  0.754635  1
  V  V9  1  0.435172  0.002745  0.245287  1
  V  V10  1  0.997269  0.564786  0.254637  1
  V  V11  1  0.002792  0.435212  0.745431  1
  P  P12  1  0.917867  0.776624  0.840006  1
  P  P13  1  0.776607  0.917905  0.339913  1
  P  P14  1  0.917245  0.303168  0.346713  1
  P  P15  1  0.667945  0.664599  0.131536  1
  P  P16  1  0.664618  0.667963  0.631601  1
  P  P17  1  0.778573  0.314693  0.839787  1
  P  P18  1  0.685217  0.221554  0.660218  1
  P  P19  1  0.303405  0.917232  0.846977  1
  P  P20  1  0.696578  0.082852  0.153168  1
  P  P21  1  0.314869  0.778450  0.339741  1
  P  P22  1  0.221448  0.685210  0.160237  1
  P  P23  1  0.335394  0.332017  0.368368  1
  P  P24  1  0.332074  0.335390  0.868510  1
  P  P25  1  0.082771  0.696705  0.653185  1
  P  P26  1  0.223336  0.082167  0.660127  1
  P  P27  1  0.082103  0.223372  0.159948  1
  O  O28  1  0.009007  0.791378  0.567405  1
  O  O29  1  0.913055  0.742672  0.335383  1
  O  O30  1  0.791489  0.008956  0.067318  1
  O  O31  1  0.742702  0.913160  0.835420  1
  O  O32  1  0.920344  0.617165  0.826443  1
  O  O33  1  0.813696  0.663562  0.180403  1
  O  O34  1  0.918959  0.461464  0.332821  1
  O  O35  1  0.994193  0.212290  0.076158  1
  O  O36  1  0.917985  0.346816  0.830010  1
  O  O37  1  0.663774  0.813717  0.680386  1
  O  O38  1  0.617162  0.920400  0.326259  1
  O  O39  1  0.812441  0.520620  0.675181  1
  O  O40  1  0.671909  0.652092  0.026893  1
  O  O41  1  0.651961  0.671900  0.526996  1
  O  O42  1  0.670181  0.511409  0.173975  1
  O  O43  1  0.461896  0.918613  0.832703  1
  O  O44  1  0.520608  0.812399  0.175074  1
  O  O45  1  0.739837  0.342009  0.337216  1
  O  O46  1  0.795940  0.204003  0.750019  1
  O  O47  1  0.764131  0.217820  0.569709  1
  O  O48  1  0.782282  0.235789  0.930316  1
  O  O49  1  0.619655  0.472702  0.823873  1
  O  O50  1  0.511457  0.670288  0.674174  1
  O  O51  1  0.657913  0.260183  0.162598  1
  O  O52  1  0.472930  0.619616  0.323778  1
  O  O53  1  0.346952  0.917872  0.329890  1
  O  O54  1  0.799772  0.999139  0.246665  1
  O  O55  1  0.787844  0.005762  0.423681  1
  O  O56  1  0.211902  0.994364  0.576422  1
  O  O57  1  0.653077  0.082132  0.670025  1
  O  O58  1  0.527231  0.380451  0.676177  1
  O  O59  1  0.342101  0.739830  0.837333  1
  O  O60  1  0.488583  0.329734  0.325896  1
  O  O61  1  0.380271  0.527116  0.176162  1
  O  O62  1  0.217820  0.763926  0.069641  1
  O  O63  1  0.236162  0.782071  0.430337  1
  O  O64  1  0.203947  0.795993  0.250014  1
  O  O65  1  0.260181  0.657869  0.662776  1
  O  O66  1  0.479407  0.187609  0.824883  1
  O  O67  1  0.538336  0.081178  0.167141  1
  O  O68  1  0.329796  0.488565  0.826007  1
  O  O69  1  0.328138  0.347926  0.973122  1
  O  O70  1  0.347944  0.328082  0.473007  1
  O  O71  1  0.187580  0.479414  0.324849  1
  O  O72  1  0.382879  0.079542  0.673654  1
  O  O73  1  0.336257  0.186326  0.319538  1
  O  O74  1  0.082032  0.653089  0.170010  1
  O  O75  1  0.999183  0.799703  0.746801  1
  O  O76  1  0.005664  0.787945  0.923762  1
  O  O77  1  0.081333  0.538253  0.667374  1
  O  O78  1  0.186302  0.336310  0.819706  1
  O  O79  1  0.079669  0.382785  0.173658  1
  O  O80  1  0.257284  0.086884  0.164533  1
  O  O81  1  0.208912  0.990844  0.932738  1
  O  O82  1  0.200239  0.001070  0.753429  1
  O  O83  1  0.086894  0.257372  0.664646  1
  O  O84  1  0.991018  0.208215  0.432463  1
  O  O85  1  0.000792  0.200101  0.253131  1
