# generated using pymatgen
data_LiTi2(PO4)3
_symmetry_space_group_name_H-M   'P 1'
_cell_length_a   8.61741981
_cell_length_b   11.99879606
_cell_length_c   8.68141403
_cell_angle_alpha   89.93975226
_cell_angle_beta   90.09025682
_cell_angle_gamma   90.48944930
_symmetry_Int_Tables_number   1
_chemical_formula_structural   LiTi2(PO4)3
_chemical_formula_sum   'Li4 Ti8 P12 O48'
_cell_volume   897.61225365
_cell_formula_units_Z   4
loop_
 _symmetry_equiv_pos_site_id
 _symmetry_equiv_pos_as_xyz
  1  'x, y, z'
loop_
 _atom_site_type_symbol
 _atom_site_label
 _atom_site_symmetry_multiplicity
 _atom_site_fract_x
 _atom_site_fract_y
 _atom_site_fract_z
 _atom_site_occupancy
  Li  Li0  1  0.700588  0.680903  0.721785  1
  Li  Li1  1  0.798564  0.820169  0.222243  1
  Li  Li2  1  0.920278  0.237407  0.298468  1
  Li  Li3  1  0.930245  0.298014  0.917896  1
  Ti  Ti4  1  0.247654  0.620875  0.531112  1
  Ti  Ti5  1  0.252114  0.877587  0.032978  1
  Ti  Ti6  1  0.253094  0.118511  0.466647  1
  Ti  Ti7  1  0.260015  0.383038  0.967751  1
  Ti  Ti8  1  0.753139  0.611044  0.040770  1
  Ti  Ti9  1  0.748577  0.890227  0.540710  1
  Ti  Ti10  1  0.736670  0.111433  0.965799  1
  Ti  Ti11  1  0.741599  0.386141  0.475470  1
  P  P12  1  0.035924  0.492097  0.249352  1
  P  P13  1  0.103781  0.855363  0.384661  1
  P  P14  1  0.107313  0.143261  0.105359  1
  P  P15  1  0.396853  0.646253  0.883458  1
  P  P16  1  0.389978  0.356623  0.609592  1
  P  P17  1  0.462729  0.003179  0.747813  1
  P  P18  1  0.529593  0.994011  0.253363  1
  P  P19  1  0.602901  0.647438  0.391168  1
  P  P20  1  0.607905  0.351117  0.116269  1
  P  P21  1  0.896510  0.854510  0.892444  1
  P  P22  1  0.899094  0.149354  0.616301  1
  P  P23  1  0.967760  0.506724  0.751277  1
  O  O24  1  0.048789  0.428086  0.865193  1
  O  O25  1  0.073610  0.859693  0.891093  1
  O  O26  1  0.076845  0.593106  0.679672  1
  O  O27  1  0.072464  0.163262  0.583562  1
  O  O28  1  0.106265  0.569185  0.372284  1
  O  O29  1  0.129853  0.829966  0.211445  1
  O  O30  1  0.152581  0.975076  0.422870  1
  O  O31  1  0.151993  0.237884  0.991665  1
  O  O32  1  0.149954  0.176427  0.272825  1
  O  O33  1  0.164622  0.437363  0.155453  1
  O  O34  1  0.177618  0.032834  0.058274  1
  O  O35  1  0.189960  0.772945  0.490046  1
  O  O36  1  0.309057  0.726209  0.990719  1
  O  O37  1  0.324537  0.469313  0.559698  1
  O  O38  1  0.335585  0.063071  0.658504  1
  O  O39  1  0.336968  0.327647  0.773945  1
  O  O40  1  0.348138  0.525679  0.922317  1
  O  O41  1  0.338673  0.265017  0.495875  1
  O  O42  1  0.369780  0.671207  0.711047  1
  O  O43  1  0.392404  0.927218  0.871374  1
  O  O44  1  0.425148  0.905753  0.178120  1
  O  O45  1  0.425820  0.642063  0.389115  1
  O  O46  1  0.434799  0.331727  0.082734  1
  O  O47  1  0.441286  0.069409  0.363767  1
  O  O48  1  0.561136  0.930262  0.637623  1
  O  O49  1  0.574153  0.661243  0.910841  1
  O  O50  1  0.571643  0.360895  0.608022  1
  O  O51  1  0.573754  0.091436  0.821068  1
  O  O52  1  0.608138  0.070525  0.130132  1
  O  O53  1  0.641377  0.325046  0.287049  1
  O  O54  1  0.661721  0.732961  0.512223  1
  O  O55  1  0.651394  0.474671  0.081141  1
  O  O56  1  0.667733  0.682020  0.231113  1
  O  O57  1  0.665744  0.932596  0.335004  1
  O  O58  1  0.673690  0.533455  0.436485  1
  O  O59  1  0.707411  0.277515  0.008103  1
  O  O60  1  0.812276  0.225840  0.501029  1
  O  O61  1  0.825471  0.968296  0.938275  1
  O  O62  1  0.833836  0.570363  0.833948  1
  O  O63  1  0.832427  0.819685  0.732092  1
  O  O64  1  0.838225  0.768532  0.013197  1
  O  O65  1  0.846524  0.026979  0.585073  1
  O  O66  1  0.865431  0.177957  0.785937  1
  O  O67  1  0.887446  0.431369  0.628700  1
  O  O68  1  0.925613  0.840109  0.411059  1
  O  O69  1  0.929467  0.400394  0.318434  1
  O  O70  1  0.924932  0.143787  0.105024  1
  O  O71  1  0.935828  0.566749  0.140148  1
