# generated using pymatgen
data_Li3MnCr3O8
_symmetry_space_group_name_H-M   'P 1'
_cell_length_a   5.91073574
_cell_length_b   5.95042615
_cell_length_c   5.93094227
_cell_angle_alpha   120.33726222
_cell_angle_beta   60.30795102
_cell_angle_gamma   89.55640072
_symmetry_Int_Tables_number   1
_chemical_formula_structural   Li3MnCr3O8
_chemical_formula_sum   'Li3 Mn1 Cr3 O8'
_cell_volume   146.85039614
_cell_formula_units_Z   1
loop_
 _symmetry_equiv_pos_site_id
 _symmetry_equiv_pos_as_xyz
  1  'x, y, z'
loop_
 _atom_site_type_symbol
 _atom_site_label
 _atom_site_symmetry_multiplicity
 _atom_site_fract_x
 _atom_site_fract_y
 _atom_site_fract_z
 _atom_site_occupancy
  Li  Li0  1  0.500000  0.500005  0.000006  1
  Li  Li1  1  0.000000  0.500004  0.000004  1
  Li  Li2  1  0.499999  0.000007  0.500005  1
  Mn  Mn3  1  0.000002  -0.000001  -0.000001  1
  Cr  Cr4  1  0.500005  0.500005  0.499992  1
  Cr  Cr5  1  0.500001  0.999985  -0.000005  1
  Cr  Cr6  1  -0.000012  0.499992  0.499992  1
  O  O7  1  0.735018  0.734841  0.519941  1
  O  O8  1  0.237469  0.743724  0.530669  1
  O  O9  1  0.743983  0.237269  0.024152  1
  O  O10  1  0.763652  0.763853  0.986047  1
  O  O11  1  0.236357  0.236141  0.013947  1
  O  O12  1  0.256020  0.762736  0.975855  1
  O  O13  1  0.762522  0.256279  0.469337  1
  O  O14  1  0.264983  0.265158  0.480061  1
