# generated using pymatgen
data_Na4Bi2O5
_symmetry_space_group_name_H-M   'P 1'
_cell_length_a   14.45576098
_cell_length_b   6.18566259
_cell_length_c   8.74394006
_cell_angle_alpha   90.00000000
_cell_angle_beta   95.18265006
_cell_angle_gamma   90.00000000
_symmetry_Int_Tables_number   1
_chemical_formula_structural   Na4Bi2O5
_chemical_formula_sum   'Na16 Bi8 O20'
_cell_volume   778.67321299
_cell_formula_units_Z   4
loop_
 _symmetry_equiv_pos_site_id
 _symmetry_equiv_pos_as_xyz
  1  'x, y, z'
loop_
 _atom_site_type_symbol
 _atom_site_label
 _atom_site_symmetry_multiplicity
 _atom_site_fract_x
 _atom_site_fract_y
 _atom_site_fract_z
 _atom_site_occupancy
  Na  Na0  1  0.031565  0.033949  0.803065  1
  Na  Na1  1  0.050146  0.458822  0.359578  1
  Na  Na2  1  0.099844  0.881972  0.493817  1
  Na  Na3  1  0.078621  0.659140  0.005697  1
  Na  Na4  1  0.400156  0.381972  0.006183  1
  Na  Na5  1  0.421379  0.159140  0.494303  1
  Na  Na6  1  0.468435  0.533949  0.696935  1
  Na  Na7  1  0.550146  0.041178  0.859578  1
  Na  Na8  1  0.449854  0.958822  0.140423  1
  Na  Na9  1  0.531565  0.466051  0.303065  1
  Na  Na10  1  0.578621  0.840860  0.505697  1
  Na  Na11  1  0.599844  0.618028  0.993817  1
  Na  Na12  1  0.921379  0.340860  0.994303  1
  Na  Na13  1  0.900156  0.118028  0.506183  1
  Na  Na14  1  0.949854  0.541178  0.640422  1
  Na  Na15  1  0.968435  0.966051  0.196935  1
  Bi  Bi16  1  0.168207  0.421534  0.704681  1
  Bi  Bi17  1  0.331793  0.921534  0.795319  1
  Bi  Bi18  1  0.193457  0.163051  0.154876  1
  Bi  Bi19  1  0.306543  0.663051  0.345124  1
  Bi  Bi20  1  0.693457  0.336949  0.654876  1
  Bi  Bi21  1  0.806543  0.836949  0.845124  1
  Bi  Bi22  1  0.668207  0.078466  0.204681  1
  Bi  Bi23  1  0.831793  0.578466  0.295319  1
  O  O24  1  0.058956  0.244555  0.589984  1
  O  O25  1  0.090805  0.699523  0.740518  1
  O  O26  1  0.091757  0.281864  0.985399  1
  O  O27  1  0.125390  0.879890  0.215135  1
  O  O28  1  0.201194  0.539409  0.479581  1
  O  O29  1  0.409195  0.199523  0.759482  1
  O  O30  1  0.298806  0.039409  0.020419  1
  O  O31  1  0.374610  0.379890  0.284865  1
  O  O32  1  0.441044  0.744555  0.910016  1
  O  O33  1  0.408243  0.781864  0.514601  1
  O  O34  1  0.591757  0.218136  0.485399  1
  O  O35  1  0.558956  0.255445  0.089984  1
  O  O36  1  0.625390  0.620110  0.715135  1
  O  O37  1  0.701194  0.960591  0.979581  1
  O  O38  1  0.590805  0.800477  0.240518  1
  O  O39  1  0.798806  0.460591  0.520419  1
  O  O40  1  0.874610  0.120110  0.784865  1
  O  O41  1  0.908243  0.718136  0.014601  1
  O  O42  1  0.909195  0.300477  0.259482  1
  O  O43  1  0.941044  0.755445  0.410016  1
