# generated using pymatgen
data_Mn6OF11
_symmetry_space_group_name_H-M   'P 1'
_cell_length_a   4.96651966
_cell_length_b   5.89226364
_cell_length_c   16.19399264
_cell_angle_alpha   90.44177404
_cell_angle_beta   90.00000000
_cell_angle_gamma   90.00000000
_symmetry_Int_Tables_number   1
_chemical_formula_structural   Mn6OF11
_chemical_formula_sum   'Mn12 O2 F22'
_cell_volume   473.88761384
_cell_formula_units_Z   2
loop_
 _symmetry_equiv_pos_site_id
 _symmetry_equiv_pos_as_xyz
  1  'x, y, z'
loop_
 _atom_site_type_symbol
 _atom_site_label
 _atom_site_symmetry_multiplicity
 _atom_site_fract_x
 _atom_site_fract_y
 _atom_site_fract_z
 _atom_site_occupancy
  Mn  Mn0  1  0.000821  0.170299  0.416832  1
  Mn  Mn1  1  0.012344  0.829932  0.246066  1
  Mn  Mn2  1  0.976249  0.187819  0.077815  1
  Mn  Mn3  1  0.020112  0.170376  0.746335  1
  Mn  Mn4  1  0.008016  0.855001  0.586890  1
  Mn  Mn5  1  0.996643  0.833262  0.916751  1
  Mn  Mn6  1  0.476249  0.312181  0.588852  1
  Mn  Mn7  1  0.520112  0.329624  0.920332  1
  Mn  Mn8  1  0.500821  0.329701  0.249835  1
  Mn  Mn9  1  0.508016  0.644999  0.079776  1
  Mn  Mn10  1  0.512344  0.670068  0.420601  1
  Mn  Mn11  1  0.496643  0.666738  0.749916  1
  O  O12  1  0.206474  0.089342  0.635499  1
  O  O13  1  0.706474  0.410658  0.031168  1
  F  F14  1  0.232708  0.103455  0.306900  1
  F  F15  1  0.216985  0.115147  0.973032  1
  F  F16  1  0.251057  0.874359  0.133524  1
  F  F17  1  0.220969  0.888152  0.475966  1
  F  F18  1  0.231154  0.890495  0.808551  1
  F  F19  1  0.261206  0.393660  0.142096  1
  F  F20  1  0.273574  0.606703  0.308609  1
  F  F21  1  0.283704  0.391998  0.473698  1
  F  F22  1  0.259442  0.605225  0.639096  1
  F  F23  1  0.278090  0.390230  0.811546  1
  F  F24  1  0.270453  0.617093  0.976431  1
  F  F25  1  0.720969  0.611848  0.190700  1
  F  F26  1  0.732708  0.396545  0.359767  1
  F  F27  1  0.751057  0.625641  0.533142  1
  F  F28  1  0.731154  0.609505  0.858116  1
  F  F29  1  0.716985  0.384853  0.693635  1
  F  F30  1  0.783704  0.108002  0.192969  1
  F  F31  1  0.761206  0.106340  0.524571  1
  F  F32  1  0.773574  0.893297  0.358057  1
  F  F33  1  0.759442  0.894775  0.027571  1
  F  F34  1  0.778090  0.109770  0.855120  1
  F  F35  1  0.770453  0.882907  0.690236  1
