# generated using pymatgen
data_Na3CrSiCO7
_symmetry_space_group_name_H-M   'P 1'
_cell_length_a   8.96778362
_cell_length_b   6.63856961
_cell_length_c   5.19683403
_cell_angle_alpha   90.00000000
_cell_angle_beta   88.59135597
_cell_angle_gamma   90.00000000
_symmetry_Int_Tables_number   1
_chemical_formula_structural   Na3CrSiCO7
_chemical_formula_sum   'Na6 Cr2 Si2 C2 O14'
_cell_volume   309.29095148
_cell_formula_units_Z   2
loop_
 _symmetry_equiv_pos_site_id
 _symmetry_equiv_pos_as_xyz
  1  'x, y, z'
loop_
 _atom_site_type_symbol
 _atom_site_label
 _atom_site_symmetry_multiplicity
 _atom_site_fract_x
 _atom_site_fract_y
 _atom_site_fract_z
 _atom_site_occupancy
  Na  Na0  1  0.089621  0.250000  0.767027  1
  Na  Na1  1  0.273727  0.014313  0.255458  1
  Na  Na2  1  0.273727  0.485687  0.255458  1
  Na  Na3  1  0.726273  0.514313  0.744542  1
  Na  Na4  1  0.726273  0.985687  0.744542  1
  Na  Na5  1  0.910379  0.750000  0.232973  1
  Cr  Cr6  1  0.342820  0.750000  0.787728  1
  Cr  Cr7  1  0.657180  0.250000  0.212272  1
  Si  Si8  1  0.421653  0.250000  0.709235  1
  Si  Si9  1  0.578347  0.750000  0.290765  1
  C  C10  1  0.062029  0.750000  0.727397  1
  C  C11  1  0.937971  0.250000  0.272603  1
  O  O12  1  0.079980  0.250000  0.293618  1
  O  O13  1  0.123556  0.750000  0.952881  1
  O  O14  1  0.152405  0.750000  0.526701  1
  O  O15  1  0.314871  0.053473  0.778698  1
  O  O16  1  0.314871  0.446527  0.778698  1
  O  O17  1  0.460956  0.250000  0.396303  1
  O  O18  1  0.421851  0.750000  0.136442  1
  O  O19  1  0.578149  0.250000  0.863558  1
  O  O20  1  0.539044  0.750000  0.603697  1
  O  O21  1  0.685129  0.553473  0.221302  1
  O  O22  1  0.685129  0.946527  0.221302  1
  O  O23  1  0.847595  0.250000  0.473299  1
  O  O24  1  0.876444  0.250000  0.047119  1
  O  O25  1  0.920020  0.750000  0.706382  1
