# generated using pymatgen
data_Fe5O3F7
_symmetry_space_group_name_H-M   'P 1'
_cell_length_a   4.76925908
_cell_length_b   4.78355610
_cell_length_c   15.60001137
_cell_angle_alpha   90.00000000
_cell_angle_beta   90.00000000
_cell_angle_gamma   89.64720705
_symmetry_Int_Tables_number   1
_chemical_formula_structural   Fe5O3F7
_chemical_formula_sum   'Fe10 O6 F14'
_cell_volume   355.89219902
_cell_formula_units_Z   2
loop_
 _symmetry_equiv_pos_site_id
 _symmetry_equiv_pos_as_xyz
  1  'x, y, z'
loop_
 _atom_site_type_symbol
 _atom_site_label
 _atom_site_symmetry_multiplicity
 _atom_site_fract_x
 _atom_site_fract_y
 _atom_site_fract_z
 _atom_site_occupancy
  Fe  Fe0  1  0.961114  0.952917  0.000000  1
  Fe  Fe1  1  0.028282  0.018485  0.204592  1
  Fe  Fe2  1  0.020597  0.973976  0.399056  1
  Fe  Fe3  1  0.020597  0.973976  0.600944  1
  Fe  Fe4  1  0.028282  0.018485  0.795408  1
  Fe  Fe5  1  0.498145  0.489536  0.098717  1
  Fe  Fe6  1  0.483368  0.520831  0.500000  1
  Fe  Fe7  1  0.466289  0.511360  0.291639  1
  Fe  Fe8  1  0.466289  0.511360  0.708361  1
  Fe  Fe9  1  0.498145  0.489536  0.901283  1
  O  O10  1  0.200484  0.809875  0.303590  1
  O  O11  1  0.183642  0.808866  0.500000  1
  O  O12  1  0.200484  0.809875  0.696410  1
  O  O13  1  0.323197  0.319782  0.196402  1
  O  O14  1  0.323197  0.319782  0.803598  1
  O  O15  1  0.673582  0.659595  0.000000  1
  F  F16  1  0.207250  0.795886  0.101490  1
  F  F17  1  0.207250  0.795886  0.898510  1
  F  F18  1  0.289130  0.280330  0.000000  1
  F  F19  1  0.301213  0.300463  0.395806  1
  F  F20  1  0.301213  0.300463  0.604194  1
  F  F21  1  0.709634  0.707987  0.199286  1
  F  F22  1  0.697060  0.698902  0.393998  1
  F  F23  1  0.697060  0.698902  0.606002  1
  F  F24  1  0.709634  0.707987  0.800714  1
  F  F25  1  0.803802  0.196135  0.102740  1
  F  F26  1  0.797949  0.198511  0.500000  1
  F  F27  1  0.799655  0.217086  0.308387  1
  F  F28  1  0.803802  0.196135  0.897260  1
  F  F29  1  0.799655  0.217086  0.691613  1
