# generated using pymatgen
data_Tm2TeO6
_symmetry_space_group_name_H-M   'P 1'
_cell_length_a   4.94594646
_cell_length_b   4.94580619
_cell_length_c   9.96382532
_cell_angle_alpha   90.00000000
_cell_angle_beta   90.00000000
_cell_angle_gamma   89.99940038
_symmetry_Int_Tables_number   1
_chemical_formula_structural   Tm2TeO6
_chemical_formula_sum   'Tm4 Te2 O12'
_cell_volume   243.73203226
_cell_formula_units_Z   2
loop_
 _symmetry_equiv_pos_site_id
 _symmetry_equiv_pos_as_xyz
  1  'x, y, z'
loop_
 _atom_site_type_symbol
 _atom_site_label
 _atom_site_symmetry_multiplicity
 _atom_site_fract_x
 _atom_site_fract_y
 _atom_site_fract_z
 _atom_site_occupancy
  Tm  Tm0  1  0.999968  0.999975  0.334527  1
  Tm  Tm1  1  0.999968  0.999975  0.665473  1
  Tm  Tm2  1  0.500051  0.500040  0.165472  1
  Tm  Tm3  1  0.500051  0.500040  0.834528  1
  Te  Te4  1  0.000078  0.000068  0.000000  1
  Te  Te5  1  0.499977  0.499986  0.500000  1
  O  O6  1  0.184286  0.184277  0.147928  1
  O  O7  1  0.184286  0.184277  0.852072  1
  O  O8  1  0.219249  0.219089  0.500000  1
  O  O9  1  0.280904  0.719277  0.000000  1
  O  O10  1  0.315698  0.684179  0.352082  1
  O  O11  1  0.315698  0.684179  0.647918  1
  O  O12  1  0.684285  0.315821  0.352085  1
  O  O13  1  0.684285  0.315821  0.647915  1
  O  O14  1  0.719295  0.280900  0.000000  1
  O  O15  1  0.780691  0.780871  0.500000  1
  O  O16  1  0.815815  0.815812  0.147903  1
  O  O17  1  0.815815  0.815812  0.852097  1
