# generated using pymatgen
data_Li5(NbS2)7
_symmetry_space_group_name_H-M   'P 1'
_cell_length_a   12.17978738
_cell_length_b   5.84954424
_cell_length_c   13.36633765
_cell_angle_alpha   77.35144048
_cell_angle_beta   79.92053836
_cell_angle_gamma   76.11707343
_symmetry_Int_Tables_number   1
_chemical_formula_structural   Li5(NbS2)7
_chemical_formula_sum   'Li10 Nb14 S28'
_cell_volume   894.47454841
_cell_formula_units_Z   2
loop_
 _symmetry_equiv_pos_site_id
 _symmetry_equiv_pos_as_xyz
  1  'x, y, z'
loop_
 _atom_site_type_symbol
 _atom_site_label
 _atom_site_symmetry_multiplicity
 _atom_site_fract_x
 _atom_site_fract_y
 _atom_site_fract_z
 _atom_site_occupancy
  Li  Li0  1  0.998365  0.000810  0.999972  1
  Li  Li1  1  0.142857  0.428571  0.000002  1
  Li  Li2  1  0.071499  0.214064  0.500017  1
  Li  Li3  1  0.714231  0.142716  0.999970  1
  Li  Li4  1  0.287343  0.856334  0.000035  1
  Li  Li5  1  0.214222  0.643065  0.499985  1
  Li  Li6  1  0.571491  0.714410  0.000025  1
  Li  Li7  1  0.498367  0.500862  0.499963  1
  Li  Li8  1  0.787346  0.356284  0.500030  1
  Li  Li9  1  0.642866  0.928568  0.500000  1
  Nb  Nb10  1  0.107101  0.323444  0.250055  1
  Nb  Nb11  1  0.035322  0.108248  0.749864  1
  Nb  Nb12  1  0.392842  0.178706  0.249989  1
  Nb  Nb13  1  0.250352  0.748853  0.250125  1
  Nb  Nb14  1  0.178551  0.533722  0.749951  1
  Nb  Nb15  1  0.678606  0.037781  0.249944  1
  Nb  Nb16  1  0.463683  0.393532  0.750731  1
  Nb  Nb17  1  0.535333  0.606352  0.249886  1
  Nb  Nb18  1  0.750379  0.250750  0.750101  1
  Nb  Nb19  1  0.322055  0.965063  0.749300  1
  Nb  Nb20  1  0.822033  0.463681  0.249288  1
  Nb  Nb21  1  0.607103  0.819360  0.750050  1
  Nb  Nb22  1  0.892906  0.678391  0.749988  1
  Nb  Nb23  1  0.963664  0.892141  0.250720  1
  S  S24  1  0.124337  0.040033  0.128549  1
  S  S25  1  0.267895  0.467738  0.128784  1
  S  S26  1  0.233320  0.363544  0.371179  1
  S  S27  1  0.052408  0.493523  0.628772  1
  S  S28  1  0.017790  0.389284  0.871238  1
  S  S29  1  0.552414  0.325226  0.128772  1
  S  S30  1  0.304609  0.245503  0.871294  1
  S  S31  1  0.089428  0.935953  0.370858  1
  S  S32  1  0.338760  0.348687  0.628841  1
  S  S33  1  0.517796  0.221457  0.371242  1
  S  S34  1  0.838782  0.183791  0.128810  1
  S  S35  1  0.410183  0.898242  0.128924  1
  S  S36  1  0.804632  0.078575  0.371293  1
  S  S37  1  0.161376  0.817132  0.871467  1
  S  S38  1  0.624320  0.207204  0.628561  1
  S  S39  1  0.589450  0.103744  0.870838  1
  S  S40  1  0.196273  0.921222  0.629179  1
  S  S41  1  0.375499  0.794536  0.371057  1
  S  S42  1  0.696279  0.753371  0.129181  1
  S  S43  1  0.661405  0.649981  0.371468  1
  S  S44  1  0.446908  0.673393  0.871215  1
  S  S45  1  0.481069  0.778648  0.628686  1
  S  S46  1  0.910164  0.062620  0.628890  1
  S  S47  1  0.981081  0.611783  0.128708  1
  S  S48  1  0.946912  0.508572  0.371196  1
  S  S49  1  0.767949  0.635618  0.628773  1
  S  S50  1  0.733329  0.531878  0.871169  1
  S  S51  1  0.875485  0.958849  0.871061  1
