# generated using pymatgen
data_LiSn2P4H3O16
_symmetry_space_group_name_H-M   'P 1'
_cell_length_a   4.97706797
_cell_length_b   8.15995560
_cell_length_c   7.63296451
_cell_angle_alpha   89.19987268
_cell_angle_beta   102.62839866
_cell_angle_gamma   88.40653230
_symmetry_Int_Tables_number   1
_chemical_formula_structural   LiSn2P4H3O16
_chemical_formula_sum   'Li1 Sn2 P4 H3 O16'
_cell_volume   302.31488292
_cell_formula_units_Z   1
loop_
 _symmetry_equiv_pos_site_id
 _symmetry_equiv_pos_as_xyz
  1  'x, y, z'
loop_
 _atom_site_type_symbol
 _atom_site_label
 _atom_site_symmetry_multiplicity
 _atom_site_fract_x
 _atom_site_fract_y
 _atom_site_fract_z
 _atom_site_occupancy
  Li  Li0  1  0.873734  0.656239  0.333885  1
  Sn  Sn1  1  0.001629  0.003136  0.499956  1
  Sn  Sn2  1  0.494891  0.500295  0.994995  1
  P  P3  1  0.119901  0.335275  0.246925  1
  P  P4  1  0.376167  0.846895  0.233547  1
  P  P5  1  0.617482  0.159117  0.757229  1
  P  P6  1  0.882970  0.672629  0.753842  1
  H  H7  1  0.441798  0.358009  0.482302  1
  H  H8  1  0.561053  0.563947  0.554413  1
  H  H9  1  0.953597  0.016752  0.973759  1
  O  O10  1  0.114085  0.555484  0.846573  1
  O  O11  1  0.023201  0.170206  0.298145  1
  O  O12  1  0.185444  0.816937  0.375715  1
  O  O13  1  0.276006  0.423238  0.426360  1
  O  O14  1  0.358725  0.070402  0.665249  1
  O  O15  1  0.544359  0.338411  0.800867  1
  O  O16  1  0.227354  0.937706  0.069138  1
  O  O17  1  0.320877  0.317364  0.121177  1
  O  O18  1  0.654250  0.684023  0.860583  1
  O  O19  1  0.756320  0.067451  0.931785  1
  O  O20  1  0.477783  0.667488  0.195383  1
  O  O21  1  0.641943  0.924352  0.340918  1
  O  O22  1  0.754167  0.590899  0.564189  1
  O  O23  1  0.802047  0.180097  0.617113  1
  O  O24  1  0.980400  0.838793  0.705720  1
  O  O25  1  0.880065  0.459414  0.174981  1
