# generated using pymatgen
data_K4N2O5
_symmetry_space_group_name_H-M   'P 1'
_cell_length_a   7.40550144
_cell_length_b   8.83709366
_cell_length_c   7.39843215
_cell_angle_alpha   90.00250026
_cell_angle_beta   89.99403280
_cell_angle_gamma   114.77152994
_symmetry_Int_Tables_number   1
_chemical_formula_structural   K4N2O5
_chemical_formula_sum   'K8 N4 O10'
_cell_volume   439.62529574
_cell_formula_units_Z   2
loop_
 _symmetry_equiv_pos_site_id
 _symmetry_equiv_pos_as_xyz
  1  'x, y, z'
loop_
 _atom_site_type_symbol
 _atom_site_label
 _atom_site_symmetry_multiplicity
 _atom_site_fract_x
 _atom_site_fract_y
 _atom_site_fract_z
 _atom_site_occupancy
  K  K0  1  0.662382  0.324763  0.000000  1
  K  K1  1  0.750000  0.000000  0.250000  1
  K  K2  1  0.250000  0.000000  0.250000  1
  K  K3  1  0.837618  0.675237  0.500000  1
  K  K4  1  0.337630  0.675259  0.000000  1
  K  K5  1  0.750000  0.000000  0.750000  1
  K  K6  1  0.250000  0.000000  0.750000  1
  K  K7  1  0.162370  0.324741  0.500000  1
  N  N8  1  0.879508  0.759016  0.000000  1
  N  N9  1  0.120490  0.240980  0.000000  1
  N  N10  1  0.620492  0.240984  0.500000  1
  N  N11  1  0.379510  0.759020  0.500000  1
  O  O12  1  0.942488  0.674285  0.101026  1
  O  O13  1  0.500136  0.000272  0.000000  1
  O  O14  1  0.768203  0.325715  0.601026  1
  O  O15  1  0.557512  0.325715  0.398974  1
  O  O16  1  0.061852  0.325668  0.105376  1
  O  O17  1  0.438148  0.674332  0.394624  1
  O  O18  1  0.999864  0.999728  0.500000  1
  O  O19  1  0.731797  0.674285  0.898974  1
  O  O20  1  0.236184  0.674332  0.605376  1
  O  O21  1  0.263816  0.325668  0.894624  1
