# generated using pymatgen
data_Li4MnFe3O8
_symmetry_space_group_name_H-M   'P 1'
_cell_length_a   5.53105223
_cell_length_b   6.65194046
_cell_length_c   5.09372623
_cell_angle_alpha   89.81917737
_cell_angle_beta   87.97217579
_cell_angle_gamma   90.24102890
_symmetry_Int_Tables_number   1
_chemical_formula_structural   Li4MnFe3O8
_chemical_formula_sum   'Li4 Mn1 Fe3 O8'
_cell_volume   187.28950320
_cell_formula_units_Z   1
loop_
 _symmetry_equiv_pos_site_id
 _symmetry_equiv_pos_as_xyz
  1  'x, y, z'
loop_
 _atom_site_type_symbol
 _atom_site_label
 _atom_site_symmetry_multiplicity
 _atom_site_fract_x
 _atom_site_fract_y
 _atom_site_fract_z
 _atom_site_occupancy
  Li  Li0  1  0.082868  0.621881  0.997501  1
  Li  Li1  1  0.416850  0.124026  0.493573  1
  Li  Li2  1  0.580209  0.876157  0.990296  1
  Li  Li3  1  0.913328  0.375959  0.498546  1
  Mn  Mn4  1  0.916451  0.872213  0.498959  1
  Fe  Fe5  1  0.083763  0.129058  0.002452  1
  Fe  Fe6  1  0.413359  0.625988  0.494482  1
  Fe  Fe7  1  0.583211  0.375665  0.995529  1
  O  O8  1  0.059877  0.124340  0.377664  1
  O  O9  1  0.082818  0.625951  0.401327  1
  O  O10  1  0.417017  0.137178  0.890839  1
  O  O11  1  0.432835  0.615033  0.871139  1
  O  O12  1  0.567316  0.385600  0.372536  1
  O  O13  1  0.583845  0.860691  0.375024  1
  O  O14  1  0.916245  0.364510  0.891438  1
  O  O15  1  0.950004  0.885751  0.875094  1
