# generated using pymatgen
data_LiMn2(BO3)2
_symmetry_space_group_name_H-M   'P 1'
_cell_length_a   5.79768127
_cell_length_b   5.26418492
_cell_length_c   5.24401213
_cell_angle_alpha   60.27357013
_cell_angle_beta   112.24145163
_cell_angle_gamma   88.75439578
_symmetry_Int_Tables_number   1
_chemical_formula_structural   LiMn2(BO3)2
_chemical_formula_sum   'Li1 Mn2 B2 O6'
_cell_volume   124.20155513
_cell_formula_units_Z   1
loop_
 _symmetry_equiv_pos_site_id
 _symmetry_equiv_pos_as_xyz
  1  'x, y, z'
loop_
 _atom_site_type_symbol
 _atom_site_label
 _atom_site_symmetry_multiplicity
 _atom_site_fract_x
 _atom_site_fract_y
 _atom_site_fract_z
 _atom_site_occupancy
  Li  Li0  1  0.660358  0.606870  0.444867  1
  Mn  Mn1  1  0.244229  0.774234  0.829131  1
  Mn  Mn2  1  0.744689  0.229546  0.152100  1
  B  B3  1  0.257594  0.085890  0.183048  1
  B  B4  1  0.745711  0.917180  0.817788  1
  O  O5  1  0.373236  0.310398  0.034883  1
  O  O6  1  0.118860  0.144560  0.327005  1
  O  O7  1  0.295499  0.816759  0.213898  1
  O  O8  1  0.728238  0.192359  0.786676  1
  O  O9  1  0.820958  0.874641  0.612806  1
  O  O10  1  0.679145  0.681566  0.032527  1
