# generated using pymatgen
data_TiCr(PO4)2
_symmetry_space_group_name_H-M   'P 1'
_cell_length_a   8.75594966
_cell_length_b   8.63609590
_cell_length_c   8.64577692
_cell_angle_alpha   59.73886526
_cell_angle_beta   59.29482141
_cell_angle_gamma   59.22049523
_symmetry_Int_Tables_number   1
_chemical_formula_structural   TiCr(PO4)2
_chemical_formula_sum   'Ti3 Cr3 P6 O24'
_cell_volume   456.14133122
_cell_formula_units_Z   3
loop_
 _symmetry_equiv_pos_site_id
 _symmetry_equiv_pos_as_xyz
  1  'x, y, z'
loop_
 _atom_site_type_symbol
 _atom_site_label
 _atom_site_symmetry_multiplicity
 _atom_site_fract_x
 _atom_site_fract_y
 _atom_site_fract_z
 _atom_site_occupancy
  Ti  Ti0  1  0.063319  0.644369  0.644747  1
  Ti  Ti1  1  0.432892  0.856866  0.856824  1
  Ti  Ti2  1  0.936702  0.355696  0.355589  1
  Cr  Cr3  1  0.000494  0.999259  0.999309  1
  Cr  Cr4  1  0.571763  0.142336  0.142059  1
  Cr  Cr5  1  0.497192  0.501083  0.500755  1
  P  P6  1  0.251275  0.249183  0.540035  1
  P  P7  1  0.255332  0.957322  0.249177  1
  P  P8  1  0.252401  0.541591  0.956348  1
  P  P9  1  0.748771  0.455360  0.044802  1
  P  P10  1  0.746465  0.043852  0.751490  1
  P  P11  1  0.750413  0.751341  0.456779  1
  O  O12  1  0.071097  0.120549  0.307675  1
  O  O13  1  0.071055  0.501020  0.117499  1
  O  O14  1  0.072573  0.305293  0.499974  1
  O  O15  1  0.235705  0.086183  0.736356  1
  O  O16  1  0.432391  0.194677  0.381159  1
  O  O17  1  0.252929  0.416450  0.561265  1
  O  O18  1  0.242868  0.942688  0.084526  1
  O  O19  1  0.261294  0.762070  0.414585  1
  O  O20  1  0.569792  0.615996  0.003177  1
  O  O21  1  0.265550  0.559023  0.760339  1
  O  O22  1  0.770104  0.259359  0.056242  1
  O  O23  1  0.570596  0.003164  0.805585  1
  O  O24  1  0.431212  0.992392  0.196645  1
  O  O25  1  0.229350  0.739477  0.944628  1
  O  O26  1  0.730467  0.444152  0.240114  1
  O  O27  1  0.431429  0.384843  0.991995  1
  O  O28  1  0.735486  0.238403  0.584924  1
  O  O29  1  0.758872  0.057483  0.915339  1
  O  O30  1  0.743385  0.583188  0.442114  1
  O  O31  1  0.569387  0.807764  0.619874  1
  O  O32  1  0.764696  0.914226  0.262426  1
  O  O33  1  0.926795  0.693894  0.498641  1
  O  O34  1  0.927849  0.497481  0.885435  1
  O  O35  1  0.928105  0.881970  0.691568  1
