# generated using pymatgen
data_Li8Fe7Sn(PO4)12
_symmetry_space_group_name_H-M   'P 1'
_cell_length_a   8.67976448
_cell_length_b   8.81660247
_cell_length_c   12.26096517
_cell_angle_alpha   90.04042820
_cell_angle_beta   89.96785046
_cell_angle_gamma   90.02698804
_symmetry_Int_Tables_number   1
_chemical_formula_structural   Li8Fe7Sn(PO4)12
_chemical_formula_sum   'Li8 Fe7 Sn1 P12 O48'
_cell_volume   938.28253932
_cell_formula_units_Z   1
loop_
 _symmetry_equiv_pos_site_id
 _symmetry_equiv_pos_as_xyz
  1  'x, y, z'
loop_
 _atom_site_type_symbol
 _atom_site_label
 _atom_site_symmetry_multiplicity
 _atom_site_fract_x
 _atom_site_fract_y
 _atom_site_fract_z
 _atom_site_occupancy
  Li  Li0  1  0.217124  0.722401  0.181915  1
  Li  Li1  1  0.217144  0.777643  0.818721  1
  Li  Li2  1  0.283296  0.221932  0.317680  1
  Li  Li3  1  0.281489  0.277493  0.681763  1
  Li  Li4  1  0.717117  0.722432  0.317711  1
  Li  Li5  1  0.717198  0.784012  0.682119  1
  Li  Li6  1  0.782847  0.222023  0.181230  1
  Li  Li7  1  0.784056  0.274765  0.823853  1
  Fe  Fe8  1  0.249135  0.958615  0.612576  1
  Fe  Fe9  1  0.249349  0.540858  0.387546  1
  Fe  Fe10  1  0.250657  0.041029  0.112796  1
  Fe  Fe11  1  0.251033  0.459238  0.886530  1
  Fe  Fe12  1  0.748866  0.541107  0.112596  1
  Fe  Fe13  1  0.749018  0.958754  0.888033  1
  Fe  Fe14  1  0.751316  0.040048  0.386648  1
  Sn  Sn15  1  0.750883  0.460761  0.613967  1
  P  P16  1  0.042300  0.248075  0.498849  1
  P  P17  1  0.460310  0.749877  -0.000026  1
  P  P18  1  0.539267  0.249922  0.000435  1
  P  P19  1  0.961297  0.752162  0.498399  1
  P  P20  1  0.106086  0.392695  0.146781  1
  P  P21  1  0.106153  0.106959  0.853273  1
  P  P22  1  0.391343  0.606609  0.647019  1
  P  P23  1  0.394058  0.892347  0.352840  1
  P  P24  1  0.604322  0.104544  0.646982  1
  P  P25  1  0.603518  0.392018  0.349723  1
  P  P26  1  0.895400  0.607823  0.854222  1
  P  P27  1  0.894187  0.892632  0.146894  1
  O  O28  1  0.055329  0.641091  0.429799  1
  O  O29  1  0.057093  0.858711  0.569264  1
  O  O30  1  0.072833  0.895905  0.155635  1
  O  O31  1  0.072922  0.604771  0.843995  1
  O  O32  1  0.150303  0.161529  0.578079  1
  O  O33  1  0.149469  0.336058  0.419796  1
  O  O34  1  0.156533  0.433760  0.030687  1
  O  O35  1  0.156424  0.066012  0.969238  1
  O  O36  1  0.162711  0.232747  0.179544  1
  O  O37  1  0.162259  0.267141  0.820373  1
  O  O38  1  0.173038  0.513978  0.225622  1
  O  O39  1  0.173697  0.986083  0.774221  1
  O  O40  1  0.326255  0.013300  0.273868  1
  O  O41  1  0.326200  0.485085  0.725702  1
  O  O42  1  0.336815  0.766839  0.680284  1
  O  O43  1  0.337020  0.732523  0.320102  1
  O  O44  1  0.345198  0.565731  0.530401  1
  O  O45  1  0.344730  0.934026  0.469013  1
  O  O46  1  0.351782  0.837469  0.079013  1
  O  O47  1  0.352196  0.662469  0.920958  1
  O  O48  1  0.426664  0.104632  0.656125  1
  O  O49  1  0.425739  0.395263  0.340986  1
  O  O50  1  0.443097  0.142794  0.070966  1
  O  O51  1  0.443516  0.357080  0.929571  1
  O  O52  1  0.556303  0.643244  0.070894  1
  O  O53  1  0.556647  0.857028  0.929327  1
  O  O54  1  0.572425  0.608867  0.657283  1
  O  O55  1  0.572789  0.895595  0.343846  1
  O  O56  1  0.647912  0.337517  0.079099  1
  O  O57  1  0.647570  0.161792  0.921596  1
  O  O58  1  0.657063  0.069150  0.530914  1
  O  O59  1  0.651492  0.434881  0.466581  1
  O  O60  1  0.662079  0.232060  0.319003  1
  O  O61  1  0.662048  0.265554  0.684001  1
  O  O62  1  0.673789  0.513357  0.272555  1
  O  O63  1  0.673525  0.986671  0.726478  1
  O  O64  1  0.826094  0.013877  0.225518  1
  O  O65  1  0.825449  0.482930  0.776715  1
  O  O66  1  0.837584  0.732723  0.179654  1
  O  O67  1  0.836238  0.766035  0.819546  1
  O  O68  1  0.843605  0.566305  0.969508  1
  O  O69  1  0.844061  0.933207  0.030679  1
  O  O70  1  0.852120  0.667636  0.580975  1
  O  O71  1  0.851887  0.837959  0.419784  1
  O  O72  1  0.927336  0.103801  0.844697  1
  O  O73  1  0.927299  0.395258  0.155188  1
  O  O74  1  0.943204  0.143031  0.429438  1
  O  O75  1  0.950887  0.357752  0.572399  1
