# generated using pymatgen
data_Li3Fe(CoO2)4
_symmetry_space_group_name_H-M   'P 1'
_cell_length_a   5.95815865
_cell_length_b   5.96383502
_cell_length_c   5.95346026
_cell_angle_alpha   88.38161705
_cell_angle_beta   59.32542884
_cell_angle_gamma   58.80510363
_symmetry_Int_Tables_number   1
_chemical_formula_structural   Li3Fe(CoO2)4
_chemical_formula_sum   'Li3 Fe1 Co4 O8'
_cell_volume   147.41515128
_cell_formula_units_Z   1
loop_
 _symmetry_equiv_pos_site_id
 _symmetry_equiv_pos_as_xyz
  1  'x, y, z'
loop_
 _atom_site_type_symbol
 _atom_site_label
 _atom_site_symmetry_multiplicity
 _atom_site_fract_x
 _atom_site_fract_y
 _atom_site_fract_z
 _atom_site_occupancy
  Li  Li0  1  0.000000  0.000000  0.500000  1
  Li  Li1  1  0.500000  0.000000  0.500000  1
  Li  Li2  1  0.500000  0.500000  0.500000  1
  Fe  Fe3  1  0.500000  0.500000  0.000000  1
  Co  Co4  1  0.000000  0.500000  0.500000  1
  Co  Co5  1  0.000000  0.000000  0.000000  1
  Co  Co6  1  0.500000  0.000000  0.000000  1
  Co  Co7  1  0.000000  0.500000  0.000000  1
  O  O8  1  0.464931  0.273873  0.783409  1
  O  O9  1  0.990200  0.246909  0.748696  1
  O  O10  1  0.498797  0.746916  0.757680  1
  O  O11  1  0.998577  0.734455  0.764925  1
  O  O12  1  0.001423  0.265545  0.235075  1
  O  O13  1  0.501203  0.253084  0.242320  1
  O  O14  1  0.009800  0.753091  0.251304  1
  O  O15  1  0.535069  0.726127  0.216591  1
