# generated using pymatgen
data_Li3Sn(PO4)2
_symmetry_space_group_name_H-M   'P 1'
_cell_length_a   8.51901244
_cell_length_b   8.51898722
_cell_length_c   7.70899437
_cell_angle_alpha   90.00154271
_cell_angle_beta   90.00247012
_cell_angle_gamma   120.00000208
_symmetry_Int_Tables_number   1
_chemical_formula_structural   Li3Sn(PO4)2
_chemical_formula_sum   'Li9 Sn3 P6 O24'
_cell_volume   484.51315110
_cell_formula_units_Z   3
loop_
 _symmetry_equiv_pos_site_id
 _symmetry_equiv_pos_as_xyz
  1  'x, y, z'
loop_
 _atom_site_type_symbol
 _atom_site_label
 _atom_site_symmetry_multiplicity
 _atom_site_fract_x
 _atom_site_fract_y
 _atom_site_fract_z
 _atom_site_occupancy
  Li  Li0  1  0.350499  0.008087  0.640321  1
  Li  Li1  1  0.991927  0.342364  0.640436  1
  Li  Li2  1  0.999989  0.999972  0.601232  1
  Li  Li3  1  0.333287  0.666637  0.529047  1
  Li  Li4  1  0.306903  0.348441  0.354733  1
  Li  Li5  1  0.657602  0.649553  0.640393  1
  Li  Li6  1  0.666708  0.333376  0.499182  1
  Li  Li7  1  0.041536  0.693126  0.354756  1
  Li  Li8  1  0.651551  0.958453  0.354735  1
  Sn  Sn9  1  0.000004  0.000012  0.050046  1
  Sn  Sn10  1  0.333319  0.666663  0.027378  1
  Sn  Sn11  1  0.666673  0.333340  0.946421  1
  P  P12  1  0.021511  0.685273  0.747538  1
  P  P13  1  0.314730  0.336200  0.747472  1
  P  P14  1  0.663759  0.978493  0.747505  1
  P  P15  1  0.370248  0.037751  0.245252  1
  P  P16  1  0.667512  0.629802  0.245271  1
  P  P17  1  0.962291  0.332486  0.245328  1
  O  O18  1  0.159556  0.939090  0.254546  1
  O  O19  1  0.143592  0.709398  0.588023  1
  O  O20  1  0.144093  0.768557  0.908630  1
  O  O21  1  0.432008  0.894459  0.218413  1
  O  O22  1  0.105570  0.537567  0.218535  1
  O  O23  1  0.060942  0.220473  0.254546  1
  O  O24  1  0.624469  0.855885  0.908587  1
  O  O25  1  0.227913  0.133406  0.708719  1
  O  O26  1  0.231401  0.375434  0.908575  1
  O  O27  1  0.290622  0.434196  0.587995  1
  O  O28  1  0.565740  0.856386  0.587994  1
  O  O29  1  0.462462  0.568010  0.218485  1
  O  O30  1  0.527734  0.417132  0.774968  1
  O  O31  1  0.448528  0.136853  0.416147  1
  O  O32  1  0.688424  0.551594  0.416197  1
  O  O33  1  0.744688  0.567292  0.091407  1
  O  O34  1  0.779548  0.840489  0.254530  1
  O  O35  1  0.432712  0.177425  0.091390  1
  O  O36  1  0.905544  0.772110  0.708816  1
  O  O37  1  0.889422  0.472271  0.774997  1
  O  O38  1  0.582853  0.110581  0.775004  1
  O  O39  1  0.822604  0.255330  0.091444  1
  O  O40  1  0.863201  0.311625  0.416231  1
  O  O41  1  0.866525  0.094407  0.708777  1
