# generated using pymatgen
data_LiFe(PO3)3
_symmetry_space_group_name_H-M   'P 1'
_cell_length_a   6.37602078
_cell_length_b   6.37509376
_cell_length_c   6.37005376
_cell_angle_alpha   108.07922787
_cell_angle_beta   108.09715948
_cell_angle_gamma   108.10317749
_symmetry_Int_Tables_number   1
_chemical_formula_structural   LiFe(PO3)3
_chemical_formula_sum   'Li1 Fe1 P3 O9'
_cell_volume   208.87397946
_cell_formula_units_Z   1
loop_
 _symmetry_equiv_pos_site_id
 _symmetry_equiv_pos_as_xyz
  1  'x, y, z'
loop_
 _atom_site_type_symbol
 _atom_site_label
 _atom_site_symmetry_multiplicity
 _atom_site_fract_x
 _atom_site_fract_y
 _atom_site_fract_z
 _atom_site_occupancy
  Li  Li0  1  0.472617  0.472610  0.472615  1
  Fe  Fe1  1  0.006797  0.006795  0.006791  1
  P  P2  1  0.028912  0.901483  0.481444  1
  P  P3  1  0.901496  0.481408  0.028805  1
  P  P4  1  0.481498  0.028950  0.901595  1
  O  O5  1  0.260651  0.860206  0.625959  1
  O  O6  1  0.084350  0.387184  0.118598  1
  O  O7  1  0.630166  0.890652  0.936890  1
  O  O8  1  0.890690  0.936931  0.630222  1
  O  O9  1  0.118547  0.084372  0.387138  1
  O  O10  1  0.860206  0.626016  0.260743  1
  O  O11  1  0.387212  0.118591  0.084421  1
  O  O12  1  0.936845  0.630113  0.890576  1
  O  O13  1  0.626003  0.260678  0.860192  1
