# generated using pymatgen
data_Fe3NiSn2(PO4)6
_symmetry_space_group_name_H-M   'P 1'
_cell_length_a   8.64600063
_cell_length_b   8.64600099
_cell_length_c   8.64600152
_cell_angle_alpha   60.34647370
_cell_angle_beta   60.34647808
_cell_angle_gamma   60.34647227
_symmetry_Int_Tables_number   1
_chemical_formula_structural   Fe3NiSn2(PO4)6
_chemical_formula_sum   'Fe3 Ni1 Sn2 P6 O24'
_cell_volume   460.59755313
_cell_formula_units_Z   1
loop_
 _symmetry_equiv_pos_site_id
 _symmetry_equiv_pos_as_xyz
  1  'x, y, z'
loop_
 _atom_site_type_symbol
 _atom_site_label
 _atom_site_symmetry_multiplicity
 _atom_site_fract_x
 _atom_site_fract_y
 _atom_site_fract_z
 _atom_site_occupancy
  Fe  Fe0  1  0.149573  0.149573  0.149573  1
  Fe  Fe1  1  0.352127  0.352127  0.352127  1
  Fe  Fe2  1  0.648591  0.648591  0.648591  1
  Ni  Ni3  1  0.852509  0.852509  0.852509  1
  Sn  Sn4  1  0.999090  0.999090  0.999090  1
  Sn  Sn5  1  0.499191  0.499191  0.499191  1
  P  P6  1  0.750473  0.455852  0.041581  1
  P  P7  1  0.250090  0.546302  0.957833  1
  P  P8  1  0.546302  0.957833  0.250090  1
  P  P9  1  0.957833  0.250090  0.546302  1
  P  P10  1  0.041581  0.750473  0.455852  1
  P  P11  1  0.455852  0.041581  0.750473  1
  O  O12  1  0.111478  0.315954  0.504767  1
  O  O13  1  0.315954  0.504767  0.111478  1
  O  O14  1  0.057324  0.911898  0.251474  1
  O  O15  1  0.504767  0.111478  0.315954  1
  O  O16  1  0.011905  0.816444  0.602353  1
  O  O17  1  0.239621  0.590710  0.429255  1
  O  O18  1  0.251474  0.057324  0.911898  1
  O  O19  1  0.429255  0.239621  0.590710  1
  O  O20  1  0.183079  0.393487  0.995079  1
  O  O21  1  0.590710  0.429255  0.239621  1
  O  O22  1  0.090434  0.746441  0.942642  1
  O  O23  1  0.393487  0.995079  0.183079  1
  O  O24  1  0.602353  0.011905  0.816444  1
  O  O25  1  0.911898  0.251474  0.057324  1
  O  O26  1  0.409991  0.564411  0.761304  1
  O  O27  1  0.816444  0.602353  0.011905  1
  O  O28  1  0.564411  0.761304  0.409991  1
  O  O29  1  0.746441  0.942642  0.090434  1
  O  O30  1  0.761304  0.409991  0.564411  1
  O  O31  1  0.995079  0.183079  0.393487  1
  O  O32  1  0.492219  0.887293  0.687226  1
  O  O33  1  0.942642  0.090434  0.746441  1
  O  O34  1  0.687226  0.492219  0.887293  1
  O  O35  1  0.887293  0.687226  0.492219  1
