# generated using pymatgen
data_Li3La5Ti6Nb2O26
_symmetry_space_group_name_H-M   'P 1'
_cell_length_a   17.16234725
_cell_length_b   11.08620584
_cell_length_c   5.54799669
_cell_angle_alpha   90.00000000
_cell_angle_beta   90.00000000
_cell_angle_gamma   80.95824575
_symmetry_Int_Tables_number   1
_chemical_formula_structural   Li3La5Ti6Nb2O26
_chemical_formula_sum   'Li6 La10 Ti12 Nb4 O52'
_cell_volume   1042.47463732
_cell_formula_units_Z   2
loop_
 _symmetry_equiv_pos_site_id
 _symmetry_equiv_pos_as_xyz
  1  'x, y, z'
loop_
 _atom_site_type_symbol
 _atom_site_label
 _atom_site_symmetry_multiplicity
 _atom_site_fract_x
 _atom_site_fract_y
 _atom_site_fract_z
 _atom_site_occupancy
  Li  Li0  1  0.500554  0.007168  0.757468  1
  Li  Li1  1  0.499446  0.992832  0.242532  1
  Li  Li2  1  0.499446  0.492832  0.757468  1
  Li  Li3  1  0.500000  0.250000  0.222408  1
  Li  Li4  1  0.500554  0.507168  0.242532  1
  Li  Li5  1  0.500000  0.750000  0.777592  1
  La  La6  1  0.763088  0.055465  0.493142  1
  La  La7  1  0.236912  0.444535  0.493142  1
  La  La8  1  0.235595  0.189427  0.006203  1
  La  La9  1  0.000000  0.250000  0.011497  1
  La  La10  1  0.763088  0.555465  0.506858  1
  La  La11  1  0.764405  0.310573  0.006203  1
  La  La12  1  0.236912  0.944535  0.506858  1
  La  La13  1  0.000000  0.750000  0.988503  1
  La  La14  1  0.235595  0.689427  0.993797  1
  La  La15  1  0.764405  0.810573  0.993797  1
  Ti  Ti16  1  0.114444  0.221535  0.502550  1
  Ti  Ti17  1  0.885556  0.278465  0.502550  1
  Ti  Ti18  1  0.884872  0.028304  0.998235  1
  Ti  Ti19  1  0.636877  0.089503  0.995880  1
  Ti  Ti20  1  0.115128  0.471696  0.998235  1
  Ti  Ti21  1  0.114444  0.721535  0.497450  1
  Ti  Ti22  1  0.363123  0.410497  0.995880  1
  Ti  Ti23  1  0.885556  0.778465  0.497450  1
  Ti  Ti24  1  0.884872  0.528304  0.001765  1
  Ti  Ti25  1  0.636877  0.589503  0.004120  1
  Ti  Ti26  1  0.115128  0.971696  0.001765  1
  Ti  Ti27  1  0.363123  0.910497  0.004120  1
  Nb  Nb28  1  0.365012  0.162145  0.504080  1
  Nb  Nb29  1  0.634988  0.337855  0.504080  1
  Nb  Nb30  1  0.365012  0.662145  0.495920  1
  Nb  Nb31  1  0.634988  0.837855  0.495920  1
  O  O32  1  0.119159  0.102854  0.760498  1
  O  O33  1  0.342526  0.042536  0.754480  1
  O  O34  1  0.333987  0.294498  0.749598  1
  O  O35  1  0.126008  0.341024  0.755184  1
  O  O36  1  0.873992  0.158976  0.755184  1
  O  O37  1  0.230998  0.186140  0.488170  1
  O  O38  1  0.666013  0.205502  0.749598  1
  O  O39  1  0.472777  0.128373  0.486322  1
  O  O40  1  0.120102  0.099858  0.239524  1
  O  O41  1  0.000000  0.250000  0.495037  1
  O  O42  1  0.000000  0.000000  0.000000  1
  O  O43  1  0.341211  0.038543  0.253919  1
  O  O44  1  0.120708  0.338589  0.236524  1
  O  O45  1  0.657474  0.457464  0.754480  1
  O  O46  1  0.341211  0.538543  0.746081  1
  O  O47  1  0.120102  0.599858  0.760476  1
  O  O48  1  0.769002  0.313860  0.488170  1
  O  O49  1  0.880841  0.397146  0.760498  1
  O  O50  1  0.879292  0.161411  0.236524  1
  O  O51  1  0.527223  0.371627  0.486322  1
  O  O52  1  0.658276  0.208038  0.249144  1
  O  O53  1  0.341724  0.291962  0.249144  1
  O  O54  1  0.769674  0.050239  0.017491  1
  O  O55  1  0.533996  0.110920  0.007417  1
  O  O56  1  0.230998  0.686140  0.511830  1
  O  O57  1  0.230326  0.449761  0.017491  1
  O  O58  1  0.879292  0.661411  0.763476  1
  O  O59  1  0.472777  0.628373  0.513678  1
  O  O60  1  0.342526  0.542536  0.245520  1
  O  O61  1  0.466004  0.389080  0.007417  1
  O  O62  1  0.879898  0.400142  0.239524  1
  O  O63  1  0.658276  0.708038  0.750856  1
  O  O64  1  0.341724  0.791962  0.750856  1
  O  O65  1  0.120708  0.838589  0.763476  1
  O  O66  1  0.000000  0.500000  0.000000  1
  O  O67  1  0.119159  0.602854  0.239502  1
  O  O68  1  0.658789  0.461457  0.253919  1
  O  O69  1  0.000000  0.750000  0.504963  1
  O  O70  1  0.126008  0.841024  0.244816  1
  O  O71  1  0.879898  0.900142  0.760476  1
  O  O72  1  0.658789  0.961457  0.746081  1
  O  O73  1  0.769002  0.813860  0.511830  1
  O  O74  1  0.769674  0.550239  0.982509  1
  O  O75  1  0.527223  0.871627  0.513678  1
  O  O76  1  0.533996  0.610920  0.992583  1
  O  O77  1  0.873992  0.658976  0.244816  1
  O  O78  1  0.666013  0.705502  0.250402  1
  O  O79  1  0.333987  0.794498  0.250402  1
  O  O80  1  0.880841  0.897146  0.239502  1
  O  O81  1  0.466004  0.889080  0.992583  1
  O  O82  1  0.230326  0.949761  0.982509  1
  O  O83  1  0.657474  0.957464  0.245520  1
