# generated using pymatgen
data_MnH5SO7
_symmetry_space_group_name_H-M   'P 1'
_cell_length_a   10.77580553
_cell_length_b   7.27400822
_cell_length_c   7.20641592
_cell_angle_alpha   90.00000000
_cell_angle_beta   97.24148796
_cell_angle_gamma   90.00000000
_symmetry_Int_Tables_number   1
_chemical_formula_structural   MnH5SO7
_chemical_formula_sum   'Mn4 H20 S4 O28'
_cell_volume   560.35712513
_cell_formula_units_Z   4
loop_
 _symmetry_equiv_pos_site_id
 _symmetry_equiv_pos_as_xyz
  1  'x, y, z'
loop_
 _atom_site_type_symbol
 _atom_site_label
 _atom_site_symmetry_multiplicity
 _atom_site_fract_x
 _atom_site_fract_y
 _atom_site_fract_z
 _atom_site_occupancy
  Mn  Mn0  1  0.500000  0.500000  0.500000  1
  Mn  Mn1  1  0.000000  0.000000  0.000000  1
  Mn  Mn2  1  0.500000  0.000000  0.500000  1
  Mn  Mn3  1  0.000000  0.500000  0.000000  1
  H  H4  1  0.473242  0.749987  0.728628  1
  H  H5  1  0.973242  0.750013  0.228628  1
  H  H6  1  0.526758  0.250013  0.271372  1
  H  H7  1  0.026758  0.249987  0.771372  1
  H  H8  1  0.753688  0.642045  0.504673  1
  H  H9  1  0.253688  0.857955  0.004673  1
  H  H10  1  0.246312  0.357955  0.495327  1
  H  H11  1  0.746312  0.142045  0.995327  1
  H  H12  1  0.761077  0.427094  0.493061  1
  H  H13  1  0.261077  0.072906  0.993061  1
  H  H14  1  0.238923  0.572906  0.506939  1
  H  H15  1  0.738923  0.927094  0.006939  1
  H  H16  1  0.760297  0.040714  0.489186  1
  H  H17  1  0.260297  0.459286  0.989186  1
  H  H18  1  0.239703  0.959286  0.510814  1
  H  H19  1  0.739703  0.540714  0.010814  1
  H  H20  1  0.737404  0.992244  0.694772  1
  H  H21  1  0.237404  0.507756  0.194772  1
  H  H22  1  0.262596  0.007756  0.305228  1
  H  H23  1  0.762596  0.492244  0.805228  1
  S  S24  1  0.521006  0.745972  0.133813  1
  S  S25  1  0.021006  0.754028  0.633813  1
  S  S26  1  0.478994  0.254028  0.866187  1
  S  S27  1  0.978994  0.245972  0.366187  1
  O  O28  1  0.481215  0.582634  0.243006  1
  O  O29  1  0.981215  0.917366  0.743006  1
  O  O30  1  0.518785  0.417366  0.756994  1
  O  O31  1  0.018785  0.082634  0.256994  1
  O  O32  1  0.500761  0.917486  0.244581  1
  O  O33  1  0.000761  0.582514  0.744581  1
  O  O34  1  0.499239  0.082514  0.755419  1
  O  O35  1  0.999239  0.417486  0.255419  1
  O  O36  1  0.436717  0.754505  0.959869  1
  O  O37  1  0.936717  0.745495  0.459869  1
  O  O38  1  0.563283  0.245495  0.040131  1
  O  O39  1  0.063283  0.254505  0.540131  1
  O  O40  1  0.653730  0.730815  0.109831  1
  O  O41  1  0.153730  0.769185  0.609831  1
  O  O42  1  0.346270  0.269185  0.890169  1
  O  O43  1  0.846270  0.230815  0.390169  1
  O  O44  1  0.482082  0.749061  0.592533  1
  O  O45  1  0.982082  0.750939  0.092533  1
  O  O46  1  0.517918  0.250939  0.407467  1
  O  O47  1  0.017918  0.249061  0.907467  1
  O  O48  1  0.717214  0.528877  0.549484  1
  O  O49  1  0.217214  0.971123  0.049484  1
  O  O50  1  0.282786  0.471123  0.450516  1
  O  O51  1  0.782786  0.028877  0.950516  1
  O  O52  1  0.706396  0.967078  0.562253  1
  O  O53  1  0.206396  0.532922  0.062253  1
  O  O54  1  0.293604  0.032922  0.437747  1
  O  O55  1  0.793604  0.467078  0.937747  1
