# generated using pymatgen
data_Li5V3P8O29
_symmetry_space_group_name_H-M   'P 1'
_cell_length_a   9.75594115
_cell_length_b   9.83193963
_cell_length_c   14.04892077
_cell_angle_alpha   90.44094555
_cell_angle_beta   90.17809643
_cell_angle_gamma   60.10118126
_symmetry_Int_Tables_number   1
_chemical_formula_structural   Li5V3P8O29
_chemical_formula_sum   'Li10 V6 P16 O58'
_cell_volume   1168.18290651
_cell_formula_units_Z   2
loop_
 _symmetry_equiv_pos_site_id
 _symmetry_equiv_pos_as_xyz
  1  'x, y, z'
loop_
 _atom_site_type_symbol
 _atom_site_label
 _atom_site_symmetry_multiplicity
 _atom_site_fract_x
 _atom_site_fract_y
 _atom_site_fract_z
 _atom_site_occupancy
  Li  Li0  1  0.770262  0.913742  0.562294  1
  Li  Li1  1  0.905047  0.324382  0.560885  1
  Li  Li2  1  0.766232  0.337534  0.056909  1
  Li  Li3  1  0.330053  0.902795  0.056756  1
  Li  Li4  1  0.321357  0.772329  0.562268  1
  Li  Li5  1  0.233614  0.673286  0.937323  1
  Li  Li6  1  0.331709  0.328194  0.109418  1
  Li  Li7  1  0.087629  0.680081  0.437757  1
  Li  Li8  1  0.225054  0.091548  0.443203  1
  Li  Li9  1  0.953186  0.014180  0.992059  1
  V  V10  1  0.573201  0.427750  0.255926  1
  V  V11  1  0.435087  0.565586  0.747465  1
  V  V12  1  0.568777  0.001534  0.754502  1
  V  V13  1  0.434913  0.998900  0.250349  1
  V  V14  1  0.993092  0.569869  0.242377  1
  V  V15  1  0.003777  0.432489  0.756056  1
  P  P16  1  0.916169  0.776415  0.839699  1
  P  P17  1  0.770618  0.914857  0.343092  1
  P  P18  1  0.916935  0.320235  0.344571  1
  P  P19  1  0.661463  0.661290  0.128002  1
  P  P20  1  0.670767  0.667242  0.630369  1
  P  P21  1  0.772618  0.314365  0.843743  1
  P  P22  1  0.684855  0.228561  0.660727  1
  P  P23  1  0.313726  0.911586  0.842828  1
  P  P24  1  0.692173  0.088815  0.158914  1
  P  P25  1  0.318347  0.768558  0.341096  1
  P  P26  1  0.230110  0.680416  0.156963  1
  P  P27  1  0.326935  0.339026  0.369491  1
  P  P28  1  0.334294  0.336974  0.872062  1
  P  P29  1  0.086514  0.678433  0.654868  1
  P  P30  1  0.230648  0.088080  0.661431  1
  P  P31  1  0.087891  0.222106  0.160320  1
  O  O32  1  0.997598  0.750933  0.564468  1
  O  O33  1  0.916188  0.749622  0.335633  1
  O  O34  1  0.794576  0.008208  0.075732  1
  O  O35  1  0.743951  0.912250  0.836919  1
  O  O36  1  0.918310  0.617515  0.830881  1
  O  O37  1  0.810668  0.663349  0.171071  1
  O  O38  1  0.905291  0.478170  0.325648  1
  O  O39  1  0.991170  0.216357  0.080326  1
  O  O40  1  0.916095  0.342295  0.829487  1
  O  O41  1  0.673008  0.816346  0.668419  1
  O  O42  1  0.618462  0.905629  0.316806  1
  O  O43  1  0.818574  0.518852  0.676221  1
  O  O44  1  0.666174  0.640330  0.022827  1
  O  O45  1  0.678554  0.655122  0.524294  1
  O  O46  1  0.669278  0.510877  0.175338  1
  O  O47  1  0.470744  0.908592  0.830059  1
  O  O48  1  0.511162  0.811024  0.164440  1
  O  O49  1  0.748400  0.339027  0.336271  1
  O  O50  1  0.787880  0.201095  0.757165  1
  O  O51  1  0.770594  0.240776  0.577721  1
  O  O52  1  0.792309  0.230122  0.935121  1
  O  O53  1  0.618816  0.469400  0.831266  1
  O  O54  1  0.516039  0.671741  0.668322  1
  O  O55  1  0.660567  0.262695  0.163732  1
  O  O56  1  0.479430  0.619028  0.321413  1
  O  O57  1  0.335623  0.916590  0.342003  1
  O  O58  1  0.786189  0.012879  0.256815  1
  O  O59  1  0.753606  0.993365  0.436212  1
  O  O60  1  0.239799  0.000043  0.571030  1
  O  O61  1  0.661617  0.084178  0.660046  1
  O  O62  1  0.522662  0.380319  0.678692  1
  O  O63  1  0.338269  0.742380  0.832030  1
  O  O64  1  0.476822  0.338686  0.322082  1
  O  O65  1  0.382251  0.518839  0.170887  1
  O  O66  1  0.236822  0.765191  0.069903  1
  O  O67  1  0.243886  0.753655  0.431196  1
  O  O68  1  0.209388  0.787940  0.250608  1
  O  O69  1  0.252108  0.662954  0.655609  1
  O  O70  1  0.481175  0.193397  0.830201  1
  O  O71  1  0.528055  0.100028  0.166718  1
  O  O72  1  0.322934  0.491690  0.835803  1
  O  O73  1  0.321776  0.340864  0.978265  1
  O  O74  1  0.331281  0.346596  0.474926  1
  O  O75  1  0.180257  0.486633  0.325888  1
  O  O76  1  0.383326  0.093711  0.679342  1
  O  O77  1  0.327924  0.187733  0.331083  1
  O  O78  1  0.087536  0.655729  0.157222  1
  O  O79  1  0.991833  0.795080  0.741647  1
  O  O80  1  0.006735  0.790585  0.921380  1
  O  O81  1  0.098054  0.520061  0.677728  1
  O  O82  1  0.184462  0.333732  0.827106  1
  O  O83  1  0.104721  0.370982  0.168135  1
  O  O84  1  0.259773  0.078328  0.159587  1
  O  O85  1  0.226729  0.981912  0.933164  1
  O  O86  1  0.204269  0.002906  0.751188  1
  O  O87  1  0.085040  0.255851  0.660809  1
  O  O88  1  0.998316  0.244928  0.435741  1
  O  O89  1  0.016577  0.201228  0.259601  1
