# generated using pymatgen
data_Li5Mn2Fe5O12
_symmetry_space_group_name_H-M   'P 1'
_cell_length_a   5.21215958
_cell_length_b   5.21215979
_cell_length_c   10.05027751
_cell_angle_alpha   84.45141118
_cell_angle_beta   95.54858904
_cell_angle_gamma   59.35979128
_symmetry_Int_Tables_number   1
_chemical_formula_structural   Li5Mn2Fe5O12
_chemical_formula_sum   'Li5 Mn2 Fe5 O12'
_cell_volume   230.39019827
_cell_formula_units_Z   1
loop_
 _symmetry_equiv_pos_site_id
 _symmetry_equiv_pos_as_xyz
  1  'x, y, z'
loop_
 _atom_site_type_symbol
 _atom_site_label
 _atom_site_symmetry_multiplicity
 _atom_site_fract_x
 _atom_site_fract_y
 _atom_site_fract_z
 _atom_site_occupancy
  Li  Li0  1  0.156570  0.665762  0.502423  1
  Li  Li1  1  0.332281  0.837600  0.997420  1
  Li  Li2  1  0.665762  0.156570  0.997577  1
  Li  Li3  1  0.837600  0.332281  0.502580  1
  Li  Li4  1  0.917644  0.917644  0.750000  1
  Mn  Mn5  1  0.250716  0.250716  0.750000  1
  Mn  Mn6  1  0.753548  0.753548  0.250000  1
  Fe  Fe7  1  0.081895  0.081895  0.250000  1
  Fe  Fe8  1  0.001055  0.503324  0.996218  1
  Fe  Fe9  1  0.503324  0.001055  0.503782  1
  Fe  Fe10  1  0.422377  0.422377  0.250000  1
  Fe  Fe11  1  0.579100  0.579100  0.750000  1
  O  O12  1  0.974618  0.228179  0.866184  1
  O  O13  1  0.228179  0.974618  0.633816  1
  O  O14  1  0.116566  0.403576  0.363952  1
  O  O15  1  0.403576  0.116566  0.136048  1
  O  O16  1  0.304722  0.510532  0.861041  1
  O  O17  1  0.510532  0.304722  0.638959  1
  O  O18  1  0.458919  0.703634  0.368346  1
  O  O19  1  0.703634  0.458919  0.131654  1
  O  O20  1  0.599242  0.878774  0.864697  1
  O  O21  1  0.878774  0.599242  0.635303  1
  O  O22  1  0.769512  0.049856  0.376663  1
  O  O23  1  0.049856  0.769512  0.123337  1
