# generated using pymatgen
data_LiCo2(PO4)3
_symmetry_space_group_name_H-M   'P 1'
_cell_length_a   8.70159262
_cell_length_b   12.02927858
_cell_length_c   8.76691000
_cell_angle_alpha   90.00000000
_cell_angle_beta   90.00000000
_cell_angle_gamma   90.29293774
_symmetry_Int_Tables_number   1
_chemical_formula_structural   LiCo2(PO4)3
_chemical_formula_sum   'Li4 Co8 P12 O48'
_cell_volume   917.65450664
_cell_formula_units_Z   4
loop_
 _symmetry_equiv_pos_site_id
 _symmetry_equiv_pos_as_xyz
  1  'x, y, z'
loop_
 _atom_site_type_symbol
 _atom_site_label
 _atom_site_symmetry_multiplicity
 _atom_site_fract_x
 _atom_site_fract_y
 _atom_site_fract_z
 _atom_site_occupancy
  Li  Li0  1  0.584366  0.253895  0.789326  1
  Li  Li1  1  0.711851  0.681398  0.727766  1
  Li  Li2  1  0.788149  0.818602  0.227766  1
  Li  Li3  1  0.915634  0.246105  0.289326  1
  Co  Co4  1  0.248223  0.119144  0.460960  1
  Co  Co5  1  0.248426  0.877192  0.037796  1
  Co  Co6  1  0.251574  0.622808  0.537796  1
  Co  Co7  1  0.251777  0.380856  0.960960  1
  Co  Co8  1  0.750292  0.610853  0.044897  1
  Co  Co9  1  0.741110  0.386596  0.464901  1
  Co  Co10  1  0.758890  0.113404  0.964901  1
  Co  Co11  1  0.749708  0.889147  0.544897  1
  P  P12  1  0.036368  0.495960  0.249787  1
  P  P13  1  0.104051  0.855094  0.387879  1
  P  P14  1  0.110679  0.144822  0.105613  1
  P  P15  1  0.389321  0.355178  0.605613  1
  P  P16  1  0.395949  0.644906  0.887879  1
  P  P17  1  0.463632  0.004040  0.749787  1
  P  P18  1  0.534794  0.998515  0.250184  1
  P  P19  1  0.605693  0.352354  0.112896  1
  P  P20  1  0.603509  0.648791  0.396082  1
  P  P21  1  0.896491  0.851209  0.896082  1
  P  P22  1  0.894307  0.147646  0.612896  1
  P  P23  1  0.965206  0.501485  0.750184  1
  O  O24  1  0.058744  0.424181  0.851491  1
  O  O25  1  0.070125  0.584397  0.662533  1
  O  O26  1  0.073997  0.847387  0.902318  1
  O  O27  1  0.070061  0.156784  0.597981  1
  O  O28  1  0.127680  0.567893  0.363803  1
  O  O29  1  0.143020  0.826264  0.220578  1
  O  O30  1  0.151304  0.434139  0.147421  1
  O  O31  1  0.157484  0.973205  0.426930  1
  O  O32  1  0.164231  0.028700  0.064173  1
  O  O33  1  0.142880  0.176805  0.274190  1
  O  O34  1  0.179879  0.230454  0.992916  1
  O  O35  1  0.178713  0.772358  0.500314  1
  O  O36  1  0.321287  0.727642  0.000314  1
  O  O37  1  0.320121  0.269546  0.492916  1
  O  O38  1  0.357120  0.323195  0.774190  1
  O  O39  1  0.335769  0.471300  0.564173  1
  O  O40  1  0.342516  0.526795  0.926930  1
  O  O41  1  0.348696  0.065861  0.647421  1
  O  O42  1  0.356980  0.673736  0.720578  1
  O  O43  1  0.372320  0.932107  0.863803  1
  O  O44  1  0.429939  0.343216  0.097981  1
  O  O45  1  0.426003  0.652613  0.402318  1
  O  O46  1  0.429875  0.915603  0.162533  1
  O  O47  1  0.441256  0.075819  0.351491  1
  O  O48  1  0.557535  0.923223  0.650747  1
  O  O49  1  0.564220  0.091940  0.829694  1
  O  O50  1  0.568223  0.341362  0.597092  1
  O  O51  1  0.572498  0.656971  0.904965  1
  O  O52  1  0.626094  0.069114  0.133162  1
  O  O53  1  0.658087  0.319476  0.274795  1
  O  O54  1  0.654499  0.927899  0.337854  1
  O  O55  1  0.659534  0.472946  0.078245  1
  O  O56  1  0.659440  0.530839  0.436197  1
  O  O57  1  0.660813  0.683064  0.236514  1
  O  O58  1  0.669891  0.729636  0.518513  1
  O  O59  1  0.675311  0.274110  0.990587  1
  O  O60  1  0.824689  0.225890  0.490587  1
  O  O61  1  0.830109  0.770364  0.018513  1
  O  O62  1  0.839187  0.816936  0.736514  1
  O  O63  1  0.840560  0.969161  0.936197  1
  O  O64  1  0.840466  0.027054  0.578245  1
  O  O65  1  0.845501  0.572101  0.837854  1
  O  O66  1  0.841913  0.180524  0.774795  1
  O  O67  1  0.873906  0.430886  0.633162  1
  O  O68  1  0.927502  0.843029  0.404965  1
  O  O69  1  0.931777  0.158638  0.097092  1
  O  O70  1  0.935780  0.408060  0.329694  1
  O  O71  1  0.942465  0.576777  0.150747  1
