# generated using pymatgen
data_Li4Mn2Ni5O12
_symmetry_space_group_name_H-M   'P 1'
_cell_length_a   5.00317686
_cell_length_b   8.82775018
_cell_length_c   9.73656368
_cell_angle_alpha   89.99999948
_cell_angle_beta   100.34017177
_cell_angle_gamma   90.00000073
_symmetry_Int_Tables_number   1
_chemical_formula_structural   Li4Mn2Ni5O12
_chemical_formula_sum   'Li8 Mn4 Ni10 O24'
_cell_volume   423.04883949
_cell_formula_units_Z   2
loop_
 _symmetry_equiv_pos_site_id
 _symmetry_equiv_pos_as_xyz
  1  'x, y, z'
loop_
 _atom_site_type_symbol
 _atom_site_label
 _atom_site_symmetry_multiplicity
 _atom_site_fract_x
 _atom_site_fract_y
 _atom_site_fract_z
 _atom_site_occupancy
  Li  Li0  1  0.246739  0.086359  0.994016  1
  Li  Li1  1  0.751617  0.075883  0.506683  1
  Li  Li2  1  0.493820  0.416039  0.751204  1
  Li  Li3  1  0.751518  0.415872  0.506873  1
  Li  Li4  1  0.253261  0.586359  0.505984  1
  Li  Li5  1  0.748383  0.575883  0.993317  1
  Li  Li6  1  0.006180  0.916039  0.748796  1
  Li  Li7  1  0.748482  0.915872  0.993127  1
  Mn  Mn8  1  0.998966  0.254563  0.747540  1
  Mn  Mn9  1  0.501309  0.250534  0.247265  1
  Mn  Mn10  1  0.998691  0.750534  0.252735  1
  Mn  Mn11  1  0.501034  0.754563  0.752460  1
  Ni  Ni12  1  0.001133  0.079962  0.253518  1
  Ni  Ni13  1  0.497925  0.082834  0.747365  1
  Ni  Ni14  1  0.261022  0.249150  0.504897  1
  Ni  Ni15  1  0.004748  0.418332  0.248697  1
  Ni  Ni16  1  0.743543  0.259333  0.993741  1
  Ni  Ni17  1  0.002075  0.582834  0.752635  1
  Ni  Ni18  1  0.498867  0.579962  0.246482  1
  Ni  Ni19  1  0.238978  0.749150  0.995103  1
  Ni  Ni20  1  0.756457  0.759333  0.506259  1
  Ni  Ni21  1  0.495252  0.918332  0.251303  1
  O  O22  1  0.140273  0.099766  0.637739  1
  O  O23  1  0.388437  0.099362  0.364748  1
  O  O24  1  0.368894  0.232284  0.859099  1
  O  O25  1  0.130155  0.240077  0.138335  1
  O  O26  1  0.617718  0.097184  0.130893  1
  O  O27  1  0.857403  0.101036  0.865286  1
  O  O28  1  0.121166  0.403791  0.628946  1
  O  O29  1  0.646951  0.245807  0.627748  1
  O  O30  1  0.386658  0.405842  0.367007  1
  O  O31  1  0.868027  0.249119  0.364035  1
  O  O32  1  0.624677  0.408709  0.134295  1
  O  O33  1  0.878071  0.412469  0.858014  1
  O  O34  1  0.111563  0.599362  0.135252  1
  O  O35  1  0.359727  0.599766  0.862261  1
  O  O36  1  0.131106  0.732284  0.640901  1
  O  O37  1  0.642597  0.601036  0.634714  1
  O  O38  1  0.369845  0.740077  0.361665  1
  O  O39  1  0.882282  0.597184  0.369107  1
  O  O40  1  0.113342  0.905842  0.132993  1
  O  O41  1  0.853049  0.745807  0.872252  1
  O  O42  1  0.631973  0.749119  0.135965  1
  O  O43  1  0.378834  0.903791  0.871054  1
  O  O44  1  0.621929  0.912469  0.641986  1
  O  O45  1  0.875323  0.908709  0.365705  1
