# generated using pymatgen
data_Li10Si(PSe6)2
_symmetry_space_group_name_H-M   'P 1'
_cell_length_a   9.27420994
_cell_length_b   9.27420994
_cell_length_c   13.29230078
_cell_angle_alpha   90.00000000
_cell_angle_beta   90.00000000
_cell_angle_gamma   90.00000000
_symmetry_Int_Tables_number   1
_chemical_formula_structural   Li10Si(PSe6)2
_chemical_formula_sum   'Li20 Si2 P4 Se24'
_cell_volume   1143.28368377
_cell_formula_units_Z   2
loop_
 _symmetry_equiv_pos_site_id
 _symmetry_equiv_pos_as_xyz
  1  'x, y, z'
loop_
 _atom_site_type_symbol
 _atom_site_label
 _atom_site_symmetry_multiplicity
 _atom_site_fract_x
 _atom_site_fract_y
 _atom_site_fract_z
 _atom_site_occupancy
  Li  Li0  1  0.231792  0.773899  0.295281  1
  Li  Li1  1  0.768208  0.226101  0.295281  1
  Li  Li2  1  0.273899  0.268208  0.795281  1
  Li  Li3  1  0.726101  0.731792  0.795281  1
  Li  Li4  1  0.231792  0.226101  0.295281  1
  Li  Li5  1  0.768208  0.773899  0.295281  1
  Li  Li6  1  0.273899  0.731792  0.795281  1
  Li  Li7  1  0.726101  0.268208  0.795281  1
  Li  Li8  1  0.000000  0.500000  0.941298  1
  Li  Li9  1  0.000000  0.500000  0.441298  1
  Li  Li10  1  0.500000  0.000000  0.546583  1
  Li  Li11  1  0.500000  0.000000  0.046583  1
  Li  Li12  1  0.259476  0.226759  0.034873  1
  Li  Li13  1  0.740524  0.773241  0.034873  1
  Li  Li14  1  0.273241  0.759476  0.534873  1
  Li  Li15  1  0.726759  0.240524  0.534873  1
  Li  Li16  1  0.273241  0.240524  0.534873  1
  Li  Li17  1  0.726759  0.759476  0.534873  1
  Li  Li18  1  0.259476  0.773241  0.034873  1
  Li  Li19  1  0.740524  0.226759  0.034873  1
  Si  Si20  1  0.500000  0.000000  0.801125  1
  Si  Si21  1  0.500000  0.000000  0.301125  1
  P  P22  1  0.000000  0.500000  0.685886  1
  P  P23  1  0.000000  0.500000  0.185886  1
  P  P24  1  0.000000  0.000000  0.504118  1
  P  P25  1  0.500000  0.500000  0.004118  1
  Se  Se26  1  0.000000  0.199637  0.409274  1
  Se  Se27  1  0.000000  0.800363  0.409274  1
  Se  Se28  1  0.300363  0.500000  0.909274  1
  Se  Se29  1  0.699637  0.500000  0.909274  1
  Se  Se30  1  0.500000  0.693866  0.101856  1
  Se  Se31  1  0.500000  0.306134  0.101856  1
  Se  Se32  1  0.193866  0.000000  0.601856  1
  Se  Se33  1  0.806134  0.000000  0.601856  1
  Se  Se34  1  0.000000  0.297444  0.092936  1
  Se  Se35  1  0.000000  0.702556  0.092936  1
  Se  Se36  1  0.202556  0.500000  0.592936  1
  Se  Se37  1  0.797444  0.500000  0.592936  1
  Se  Se38  1  0.500000  0.793371  0.399801  1
  Se  Se39  1  0.500000  0.206629  0.399801  1
  Se  Se40  1  0.293371  0.000000  0.899801  1
  Se  Se41  1  0.706629  0.000000  0.899801  1
  Se  Se42  1  0.000000  0.697426  0.779257  1
  Se  Se43  1  0.000000  0.302574  0.779257  1
  Se  Se44  1  0.802574  0.500000  0.279257  1
  Se  Se45  1  0.197426  0.500000  0.279257  1
  Se  Se46  1  0.500000  0.201954  0.700666  1
  Se  Se47  1  0.500000  0.798046  0.700666  1
  Se  Se48  1  0.701954  0.000000  0.200666  1
  Se  Se49  1  0.298046  0.000000  0.200666  1
