# generated using pymatgen
data_CaZnP2H5O8
_symmetry_space_group_name_H-M   'P 1'
_cell_length_a   7.29523074
_cell_length_b   8.09231250
_cell_length_c   14.41177516
_cell_angle_alpha   90.00000000
_cell_angle_beta   95.56432373
_cell_angle_gamma   90.00000000
_symmetry_Int_Tables_number   1
_chemical_formula_structural   CaZnP2H5O8
_chemical_formula_sum   'Ca4 Zn4 P8 H20 O32'
_cell_volume   846.79427016
_cell_formula_units_Z   4
loop_
 _symmetry_equiv_pos_site_id
 _symmetry_equiv_pos_as_xyz
  1  'x, y, z'
loop_
 _atom_site_type_symbol
 _atom_site_label
 _atom_site_symmetry_multiplicity
 _atom_site_fract_x
 _atom_site_fract_y
 _atom_site_fract_z
 _atom_site_occupancy
  Ca  Ca0  1  0.018294  0.051394  0.633862  1
  Ca  Ca1  1  0.518294  0.448606  0.133862  1
  Ca  Ca2  1  0.981706  0.948606  0.366138  1
  Ca  Ca3  1  0.481706  0.551394  0.866138  1
  Zn  Zn4  1  0.125289  0.571147  0.642692  1
  Zn  Zn5  1  0.625289  0.928853  0.142692  1
  Zn  Zn6  1  0.874711  0.428853  0.357308  1
  Zn  Zn7  1  0.374711  0.071147  0.857308  1
  P  P8  1  0.220574  0.296552  0.490276  1
  P  P9  1  0.720574  0.203448  0.990276  1
  P  P10  1  0.779426  0.703448  0.509724  1
  P  P11  1  0.279426  0.796552  0.009724  1
  P  P12  1  0.412196  0.864550  0.679115  1
  P  P13  1  0.912196  0.635450  0.179115  1
  P  P14  1  0.587804  0.135450  0.320885  1
  P  P15  1  0.087804  0.364550  0.820885  1
  H  H16  1  0.406655  0.288663  0.471217  1
  H  H17  1  0.906655  0.211337  0.971217  1
  H  H18  1  0.593345  0.711337  0.528783  1
  H  H19  1  0.093345  0.788663  0.028783  1
  H  H20  1  0.533642  0.930480  0.617714  1
  H  H21  1  0.033642  0.569520  0.117714  1
  H  H22  1  0.466358  0.069520  0.382286  1
  H  H23  1  0.966358  0.430480  0.882286  1
  H  H24  1  0.727240  0.213045  0.506783  1
  H  H25  1  0.227240  0.286955  0.006783  1
  H  H26  1  0.272760  0.786955  0.493217  1
  H  H27  1  0.772760  0.713045  0.993217  1
  H  H28  1  0.644864  0.240226  0.605150  1
  H  H29  1  0.144864  0.259774  0.105150  1
  H  H30  1  0.355136  0.759774  0.394850  1
  H  H31  1  0.855136  0.740226  0.894850  1
  H  H32  1  0.773010  0.827922  0.745808  1
  H  H33  1  0.273010  0.672078  0.245808  1
  H  H34  1  0.226990  0.172078  0.254192  1
  H  H35  1  0.726990  0.327922  0.754192  1
  O  O36  1  0.253820  0.780943  0.614990  1
  O  O37  1  0.753820  0.719057  0.114990  1
  O  O38  1  0.746180  0.219057  0.385010  1
  O  O39  1  0.246180  0.280943  0.885010  1
  O  O40  1  0.870898  0.593687  0.588657  1
  O  O41  1  0.370898  0.906313  0.088657  1
  O  O42  1  0.129102  0.406313  0.411343  1
  O  O43  1  0.629102  0.093687  0.911343  1
  O  O44  1  0.978482  0.249368  0.753452  1
  O  O45  1  0.478482  0.250632  0.253452  1
  O  O46  1  0.021518  0.750632  0.246548  1
  O  O47  1  0.521518  0.749368  0.746548  1
  O  O48  1  0.223463  0.372037  0.588259  1
  O  O49  1  0.723463  0.127963  0.088259  1
  O  O50  1  0.776537  0.627963  0.411741  1
  O  O51  1  0.276537  0.872037  0.911741  1
  O  O52  1  0.174395  0.517371  0.776441  1
  O  O53  1  0.674395  0.982629  0.276441  1
  O  O54  1  0.825605  0.482629  0.223559  1
  O  O55  1  0.325605  0.017371  0.723559  1
  O  O56  1  0.748962  0.197160  0.575236  1
  O  O57  1  0.248962  0.302840  0.075236  1
  O  O58  1  0.251038  0.802840  0.424764  1
  O  O59  1  0.751038  0.697160  0.924764  1
  O  O60  1  0.905651  0.850584  0.738327  1
  O  O61  1  0.405651  0.649416  0.238327  1
  O  O62  1  0.094349  0.149417  0.261673  1
  O  O63  1  0.594349  0.350583  0.761673  1
  O  O64  1  0.860116  0.878522  0.509476  1
  O  O65  1  0.360116  0.621478  0.009476  1
  O  O66  1  0.139884  0.121478  0.490524  1
  O  O67  1  0.639884  0.378522  0.990524  1
