# generated using pymatgen
data_BaLa4TiCr4O15
_symmetry_space_group_name_H-M   'P 1'
_cell_length_a   5.58076123
_cell_length_b   27.82148268
_cell_length_c   9.61918112
_cell_angle_alpha   30.22802532
_cell_angle_beta   55.40176087
_cell_angle_gamma   60.62537918
_symmetry_Int_Tables_number   1
_chemical_formula_structural   BaLa4TiCr4O15
_chemical_formula_sum   'Ba2 La8 Ti2 Cr8 O30'
_cell_volume   618.93179195
_cell_formula_units_Z   2
loop_
 _symmetry_equiv_pos_site_id
 _symmetry_equiv_pos_as_xyz
  1  'x, y, z'
loop_
 _atom_site_type_symbol
 _atom_site_label
 _atom_site_symmetry_multiplicity
 _atom_site_fract_x
 _atom_site_fract_y
 _atom_site_fract_z
 _atom_site_occupancy
  Ba  Ba0  1  0.249860  0.997348  0.256607  1
  Ba  Ba1  1  0.750382  0.002163  0.744451  1
  La  La2  1  0.252063  0.201821  0.245363  1
  La  La3  1  0.249220  0.399842  0.250498  1
  La  La4  1  0.252148  0.602927  0.241990  1
  La  La5  1  0.750302  0.201984  0.744959  1
  La  La6  1  0.251160  0.797466  0.255602  1
  La  La7  1  0.750657  0.397157  0.757361  1
  La  La8  1  0.748396  0.599579  0.751703  1
  La  La9  1  0.746564  0.797283  0.756664  1
  Ti  Ti10  1  0.999680  0.999717  0.000595  1
  Ti  Ti11  1  0.500387  0.999803  0.500390  1
  Cr  Cr12  1  0.995804  0.202694  0.993962  1
  Cr  Cr13  1  0.999545  0.401597  0.997041  1
  Cr  Cr14  1  0.504781  0.202738  0.492981  1
  Cr  Cr15  1  0.004426  0.796824  0.007005  1
  Cr  Cr16  1  0.500359  0.401520  0.495311  1
  Cr  Cr17  1  0.499077  0.597913  0.506025  1
  Cr  Cr18  1  0.000862  0.597980  0.003892  1
  Cr  Cr19  1  0.495991  0.796940  0.507495  1
  O  O20  1  0.298845  0.111795  0.200380  1
  O  O21  1  0.251498  0.018345  0.703777  1
  O  O22  1  0.200376  0.112089  0.740266  1
  O  O23  1  0.315589  0.316843  0.180919  1
  O  O24  1  0.773521  0.095405  0.240218  1
  O  O25  1  0.249914  0.225984  0.685349  1
  O  O26  1  0.748032  0.191678  0.271198  1
  O  O27  1  0.185795  0.315743  0.739119  1
  O  O28  1  0.726777  0.095143  0.782941  1
  O  O29  1  0.322494  0.514196  0.177249  1
  O  O30  1  0.823905  0.286917  0.251304  1
  O  O31  1  0.249653  0.429053  0.677500  1
  O  O32  1  0.749702  0.371399  0.321547  1
  O  O33  1  0.173724  0.515331  0.749931  1
  O  O34  1  0.679133  0.288244  0.811514  1
  O  O35  1  0.319445  0.711612  0.190716  1
  O  O36  1  0.823261  0.485647  0.246901  1
  O  O37  1  0.254484  0.628193  0.679346  1
  O  O38  1  0.744643  0.570809  0.322739  1
  O  O39  1  0.177834  0.710893  0.757368  1
  O  O40  1  0.675787  0.483980  0.825722  1
  O  O41  1  0.272179  0.903781  0.219719  1
  O  O42  1  0.815679  0.683936  0.259075  1
  O  O43  1  0.260365  0.808008  0.729294  1
  O  O44  1  0.746311  0.773256  0.316279  1
  O  O45  1  0.226439  0.904056  0.761497  1
  O  O46  1  0.689615  0.684175  0.815323  1
  O  O47  1  0.800710  0.888004  0.257677  1
  O  O48  1  0.749541  0.981424  0.296225  1
  O  O49  1  0.702383  0.887708  0.799817  1
