# generated using pymatgen
data_LiCuPO4
_symmetry_space_group_name_H-M   'P 1'
_cell_length_a   8.48373746
_cell_length_b   15.35972692
_cell_length_c   7.75858017
_cell_angle_alpha   90.00000000
_cell_angle_beta   90.00000000
_cell_angle_gamma   91.37869831
_symmetry_Int_Tables_number   1
_chemical_formula_structural   LiCuPO4
_chemical_formula_sum   'Li12 Cu12 P12 O48'
_cell_volume   1010.71153412
_cell_formula_units_Z   12
loop_
 _symmetry_equiv_pos_site_id
 _symmetry_equiv_pos_as_xyz
  1  'x, y, z'
loop_
 _atom_site_type_symbol
 _atom_site_label
 _atom_site_symmetry_multiplicity
 _atom_site_fract_x
 _atom_site_fract_y
 _atom_site_fract_z
 _atom_site_occupancy
  Li  Li0  1  0.219446  0.941255  0.970686  1
  Li  Li1  1  0.229939  0.591529  0.046465  1
  Li  Li2  1  0.231557  0.246400  0.851014  1
  Li  Li3  1  0.268443  0.253600  0.351014  1
  Li  Li4  1  0.270061  0.908471  0.546465  1
  Li  Li5  1  0.280554  0.558745  0.470686  1
  Li  Li6  1  0.719446  0.441255  0.529314  1
  Li  Li7  1  0.729939  0.091528  0.453535  1
  Li  Li8  1  0.731557  0.746400  0.648986  1
  Li  Li9  1  0.768443  0.753600  0.148986  1
  Li  Li10  1  0.770061  0.408471  0.953535  1
  Li  Li11  1  0.780554  0.058745  0.029314  1
  Cu  Cu12  1  0.037302  0.410066  0.261768  1
  Cu  Cu13  1  0.110255  0.773534  0.233650  1
  Cu  Cu14  1  0.118639  0.075655  0.270021  1
  Cu  Cu15  1  0.381361  0.424345  0.770021  1
  Cu  Cu16  1  0.389745  0.726466  0.733650  1
  Cu  Cu17  1  0.462698  0.089934  0.761768  1
  Cu  Cu18  1  0.537302  0.910066  0.238232  1
  Cu  Cu19  1  0.610255  0.273534  0.266350  1
  Cu  Cu20  1  0.618639  0.575655  0.229979  1
  Cu  Cu21  1  0.881361  0.924345  0.729979  1
  Cu  Cu22  1  0.889745  0.226466  0.766350  1
  Cu  Cu23  1  0.962698  0.589934  0.738232  1
  P  P24  1  0.043374  0.405835  0.660016  1
  P  P25  1  0.078861  0.776774  0.820931  1
  P  P26  1  0.107205  0.075089  0.672037  1
  P  P27  1  0.392795  0.424911  0.172037  1
  P  P28  1  0.421139  0.723226  0.320931  1
  P  P29  1  0.456626  0.094165  0.160016  1
  P  P30  1  0.543374  0.905835  0.839984  1
  P  P31  1  0.578861  0.276774  0.679069  1
  P  P32  1  0.607205  0.575089  0.827963  1
  P  P33  1  0.892795  0.924911  0.327963  1
  P  P34  1  0.921139  0.223226  0.179069  1
  P  P35  1  0.956626  0.594165  0.339984  1
  O  O36  1  0.054700  0.608229  0.506656  1
  O  O37  1  0.090853  0.677111  0.856833  1
  O  O38  1  0.072195  0.996095  0.793302  1
  O  O39  1  0.043025  0.871887  0.359671  1
  O  O40  1  0.057251  0.535021  0.219801  1
  O  O41  1  0.081108  0.827595  0.993590  1
  O  O42  1  0.071087  0.317654  0.750318  1
  O  O43  1  0.073729  0.203644  0.278771  1
  O  O44  1  0.169092  0.035727  0.500679  1
  O  O45  1  0.204936  0.451252  0.618464  1
  O  O46  1  0.277388  0.691937  0.208653  1
  O  O47  1  0.261632  0.365628  0.250414  1
  O  O48  1  0.222612  0.808063  0.708653  1
  O  O49  1  0.238368  0.134372  0.750414  1
  O  O50  1  0.295064  0.048748  0.118464  1
  O  O51  1  0.330908  0.464273  0.000679  1
  O  O52  1  0.426271  0.296356  0.778771  1
  O  O53  1  0.418892  0.672405  0.493590  1
  O  O54  1  0.428913  0.182346  0.250318  1
  O  O55  1  0.442749  0.964979  0.719801  1
  O  O56  1  0.456975  0.628113  0.859671  1
  O  O57  1  0.427805  0.503905  0.293302  1
  O  O58  1  0.409147  0.822889  0.356833  1
  O  O59  1  0.445300  0.891771  0.006656  1
  O  O60  1  0.554700  0.108229  0.993344  1
  O  O61  1  0.590853  0.177111  0.643167  1
  O  O62  1  0.572195  0.496095  0.706698  1
  O  O63  1  0.543025  0.371887  0.140329  1
  O  O64  1  0.557251  0.035021  0.280199  1
  O  O65  1  0.571087  0.817654  0.749682  1
  O  O66  1  0.581108  0.327595  0.506410  1
  O  O67  1  0.573729  0.703644  0.221229  1
  O  O68  1  0.669092  0.535727  0.999321  1
  O  O69  1  0.704936  0.951252  0.881536  1
  O  O70  1  0.761632  0.865628  0.249586  1
  O  O71  1  0.777388  0.191937  0.291347  1
  O  O72  1  0.738368  0.634372  0.749586  1
  O  O73  1  0.722612  0.308063  0.791347  1
  O  O74  1  0.795064  0.548748  0.381536  1
  O  O75  1  0.830908  0.964273  0.499321  1
  O  O76  1  0.926271  0.796356  0.721229  1
  O  O77  1  0.928913  0.682346  0.249682  1
  O  O78  1  0.918892  0.172405  0.006410  1
  O  O79  1  0.942749  0.464979  0.780199  1
  O  O80  1  0.956975  0.128113  0.640329  1
  O  O81  1  0.927805  0.003905  0.206698  1
  O  O82  1  0.909147  0.322889  0.143167  1
  O  O83  1  0.945300  0.391771  0.493344  1
