# generated using pymatgen
data_FeH12(NF2)3
_symmetry_space_group_name_H-M   'P 1'
_cell_length_a   9.14989006
_cell_length_b   9.14031061
_cell_length_c   9.13516879
_cell_angle_alpha   90.00000000
_cell_angle_beta   90.00000000
_cell_angle_gamma   90.00000000
_symmetry_Int_Tables_number   1
_chemical_formula_structural   FeH12(NF2)3
_chemical_formula_sum   'Fe4 H48 N12 F24'
_cell_volume   764.00008417
_cell_formula_units_Z   4
loop_
 _symmetry_equiv_pos_site_id
 _symmetry_equiv_pos_as_xyz
  1  'x, y, z'
loop_
 _atom_site_type_symbol
 _atom_site_label
 _atom_site_symmetry_multiplicity
 _atom_site_fract_x
 _atom_site_fract_y
 _atom_site_fract_z
 _atom_site_occupancy
  Fe  Fe0  1  0.000765  0.498545  0.498815  1
  Fe  Fe1  1  0.499235  0.501455  0.998815  1
  Fe  Fe2  1  0.500765  0.001455  0.501185  1
  Fe  Fe3  1  0.999235  0.998545  0.001185  1
  H  H4  1  0.820690  0.697877  0.321352  1
  H  H5  1  0.679310  0.302123  0.821352  1
  H  H6  1  0.320690  0.802123  0.678648  1
  H  H7  1  0.179310  0.197877  0.178648  1
  H  H8  1  0.815430  0.818587  0.184099  1
  H  H9  1  0.684570  0.181413  0.684099  1
  H  H10  1  0.315430  0.681413  0.815901  1
  H  H11  1  0.184570  0.318587  0.315901  1
  H  H12  1  0.676411  0.819363  0.301710  1
  H  H13  1  0.823589  0.180637  0.801710  1
  H  H14  1  0.176411  0.680637  0.698290  1
  H  H15  1  0.323589  0.319363  0.198290  1
  H  H16  1  0.696933  0.678906  0.179430  1
  H  H17  1  0.803067  0.321094  0.679431  1
  H  H18  1  0.196933  0.821094  0.820569  1
  H  H19  1  0.303067  0.178906  0.320570  1
  H  H20  1  0.823020  0.694197  0.814281  1
  H  H21  1  0.676980  0.305803  0.314281  1
  H  H22  1  0.323020  0.805803  0.185719  1
  H  H23  1  0.176980  0.194197  0.685719  1
  H  H24  1  0.805475  0.817648  0.678216  1
  H  H25  1  0.694525  0.182352  0.178216  1
  H  H26  1  0.305475  0.682352  0.321784  1
  H  H27  1  0.194525  0.317648  0.821784  1
  H  H28  1  0.686181  0.813913  0.815256  1
  H  H29  1  0.813819  0.186087  0.315256  1
  H  H30  1  0.186181  0.686087  0.184744  1
  H  H31  1  0.313819  0.313913  0.684744  1
  H  H32  1  0.683208  0.678990  0.693449  1
  H  H33  1  0.816792  0.321010  0.193449  1
  H  H34  1  0.183208  0.821010  0.306551  1
  H  H35  1  0.316792  0.178990  0.806551  1
  H  H36  1  0.430930  0.937939  0.937936  1
  H  H37  1  0.069070  0.062061  0.437936  1
  H  H38  1  0.930930  0.562061  0.062064  1
  H  H39  1  0.569070  0.437939  0.562064  1
  H  H40  1  0.562834  0.937159  0.067275  1
  H  H41  1  0.937166  0.062841  0.567275  1
  H  H42  1  0.062834  0.562841  0.932725  1
  H  H43  1  0.437166  0.437159  0.432725  1
  H  H44  1  0.561074  0.068217  0.936208  1
  H  H45  1  0.938926  0.931783  0.436208  1
  H  H46  1  0.061074  0.431783  0.063792  1
  H  H47  1  0.438926  0.568217  0.563792  1
  H  H48  1  0.434465  0.065216  0.065200  1
  H  H49  1  0.065535  0.934784  0.565200  1
  H  H50  1  0.934465  0.434784  0.934800  1
  H  H51  1  0.565535  0.565216  0.434800  1
  N  N52  1  0.751266  0.751337  0.248285  1
  N  N53  1  0.748734  0.248663  0.748285  1
  N  N54  1  0.251266  0.748663  0.751715  1
  N  N55  1  0.248734  0.251337  0.251715  1
  N  N56  1  0.750316  0.750329  0.749477  1
  N  N57  1  0.749684  0.249671  0.249477  1
  N  N58  1  0.250316  0.749671  0.250523  1
  N  N59  1  0.249684  0.250329  0.750523  1
  N  N60  1  0.499413  0.000586  0.000541  1
  N  N61  1  0.000587  -0.000586  0.500541  1
  N  N62  1  -0.000587  0.499414  0.999459  1
  N  N63  1  0.500587  0.500586  0.499459  1
  F  F64  1  0.965947  0.707301  0.455858  1
  F  F65  1  0.534053  0.292699  0.955858  1
  F  F66  1  0.465947  0.792699  0.544142  1
  F  F67  1  0.034053  0.207301  0.044142  1
  F  F68  1  0.025060  0.289496  0.539381  1
  F  F69  1  0.474940  0.710504  0.039381  1
  F  F70  1  0.525060  0.210504  0.460619  1
  F  F71  1  0.974940  0.789496  0.960619  1
  F  F72  1  0.211743  0.517673  0.464990  1
  F  F73  1  0.288257  0.482327  0.964990  1
  F  F74  1  0.711743  0.982327  0.535010  1
  F  F75  1  0.788257  0.017673  0.035010  1
  F  F76  1  0.790484  0.474347  0.539695  1
  F  F77  1  0.709516  0.525653  0.039695  1
  F  F78  1  0.290484  0.025653  0.460305  1
  F  F79  1  0.209516  0.974347  0.960305  1
  F  F80  1  0.973999  0.456330  0.290300  1
  F  F81  1  0.526001  0.543670  0.790300  1
  F  F82  1  0.473999  0.043670  0.709700  1
  F  F83  1  0.026001  0.956330  0.209700  1
  F  F84  1  0.035286  0.549272  0.706076  1
  F  F85  1  0.464714  0.450728  0.206076  1
  F  F86  1  0.535286  0.950728  0.293924  1
  F  F87  1  0.964714  0.049272  0.793924  1
