# generated using pymatgen
data_Li3Fe8(BO3)8
_symmetry_space_group_name_H-M   'P 1'
_cell_length_a   5.29724530
_cell_length_b   9.07614233
_cell_length_c   10.18732842
_cell_angle_alpha   89.94861340
_cell_angle_beta   90.85425616
_cell_angle_gamma   89.92641706
_symmetry_Int_Tables_number   1
_chemical_formula_structural   Li3Fe8(BO3)8
_chemical_formula_sum   'Li3 Fe8 B8 O24'
_cell_volume   489.73695461
_cell_formula_units_Z   1
loop_
 _symmetry_equiv_pos_site_id
 _symmetry_equiv_pos_as_xyz
  1  'x, y, z'
loop_
 _atom_site_type_symbol
 _atom_site_label
 _atom_site_symmetry_multiplicity
 _atom_site_fract_x
 _atom_site_fract_y
 _atom_site_fract_z
 _atom_site_occupancy
  Li  Li0  1  0.652082  0.000423  0.095087  1
  Li  Li1  1  0.851601  0.491567  0.337254  1
  Li  Li2  1  0.852772  0.515511  0.827929  1
  Fe  Fe3  1  0.160079  0.169344  0.122204  1
  Fe  Fe4  1  0.838865  0.155710  0.377150  1
  Fe  Fe5  1  0.340349  0.326665  0.867196  1
  Fe  Fe6  1  0.645007  0.336446  0.617295  1
  Fe  Fe7  1  0.341542  0.674213  0.369391  1
  Fe  Fe8  1  0.165445  0.829679  0.629291  1
  Fe  Fe9  1  0.652504  0.658815  0.114116  1
  Fe  Fe10  1  0.834739  0.849570  0.866810  1
  B  B11  1  0.155050  0.161285  0.624616  1
  B  B12  1  0.331422  0.337626  0.364909  1
  B  B13  1  0.821680  0.180718  0.883758  1
  B  B14  1  0.667132  0.322043  0.128806  1
  B  B15  1  0.343772  0.656191  0.866511  1
  B  B16  1  0.671619  0.675266  0.620695  1
  B  B17  1  0.154033  0.841745  0.126410  1
  B  B18  1  0.836980  0.824525  0.371964  1
  O  O19  1  0.262459  0.026557  0.630714  1
  O  O20  1  0.073088  0.195929  0.928862  1
  O  O21  1  0.700605  0.051658  0.896583  1
  O  O22  1  0.189952  0.215277  0.321492  1
  O  O23  1  0.282817  0.282791  0.677040  1
  O  O24  1  0.793442  0.189007  0.166456  1
  O  O25  1  0.918652  0.184693  0.563801  1
  O  O26  1  0.428398  0.303076  0.071074  1
  O  O27  1  0.219452  0.472930  0.369320  1
  O  O28  1  0.585448  0.318451  0.400925  1
  O  O29  1  0.706786  0.309746  0.835660  1
  O  O30  1  0.216539  0.523189  0.870665  1
  O  O31  1  0.772173  0.453561  0.149796  1
  O  O32  1  0.286241  0.719659  0.175576  1
  O  O33  1  0.427225  0.694128  0.566295  1
  O  O34  1  0.769447  0.539083  0.636722  1
  O  O35  1  0.598062  0.663558  0.904418  1
  O  O36  1  0.078993  0.809041  0.424709  1
  O  O37  1  0.212993  0.780303  0.823364  1
  O  O38  1  0.706741  0.695614  0.337305  1
  O  O39  1  0.803776  0.801494  0.658318  1
  O  O40  1  0.284624  0.974700  0.121325  1
  O  O41  1  0.905512  0.833183  0.084915  1
  O  O42  1  0.734495  0.960654  0.351864  1
