# generated using pymatgen
data_VH20C2S2N6O13
_symmetry_space_group_name_H-M   'P 1'
_cell_length_a   7.39776057
_cell_length_b   12.48422842
_cell_length_c   19.49368120
_cell_angle_alpha   106.68559606
_cell_angle_beta   94.23130917
_cell_angle_gamma   90.07504479
_symmetry_Int_Tables_number   1
_chemical_formula_structural   VH20C2S2N6O13
_chemical_formula_sum   'V4 H80 C8 S8 N24 O52'
_cell_volume   1719.36389869
_cell_formula_units_Z   4
loop_
 _symmetry_equiv_pos_site_id
 _symmetry_equiv_pos_as_xyz
  1  'x, y, z'
loop_
 _atom_site_type_symbol
 _atom_site_label
 _atom_site_symmetry_multiplicity
 _atom_site_fract_x
 _atom_site_fract_y
 _atom_site_fract_z
 _atom_site_occupancy
  V  V0  1  0.442891  0.605126  0.791985  1
  V  V1  1  0.557109  0.394874  0.208015  1
  V  V2  1  0.975465  0.103414  0.790395  1
  V  V3  1  0.024535  0.896586  0.209605  1
  H  H4  1  0.391512  0.389027  0.779579  1
  H  H5  1  0.608488  0.610973  0.220421  1
  H  H6  1  0.195790  0.426542  0.749111  1
  H  H7  1  0.804210  0.573458  0.250889  1
  H  H8  1  0.497856  0.797695  0.755810  1
  H  H9  1  0.502144  0.202305  0.244190  1
  H  H10  1  0.696310  0.753830  0.781702  1
  H  H11  1  0.303690  0.246170  0.218298  1
  H  H12  1  0.790621  0.549227  0.792466  1
  H  H13  1  0.209379  0.450773  0.207534  1
  H  H14  1  0.700951  0.485846  0.712548  1
  H  H15  1  0.299049  0.514154  0.287452  1
  H  H16  1  0.296752  0.512048  0.650126  1
  H  H17  1  0.703248  0.487952  0.349874  1
  H  H18  1  0.389956  0.627724  0.650136  1
  H  H19  1  0.610044  0.372276  0.349864  1
  H  H20  1  0.977235  0.126007  0.648911  1
  H  H21  1  0.022765  0.873993  0.351089  1
  H  H22  1  0.070584  0.010566  0.648863  1
  H  H23  1  0.929416  0.989434  0.351137  1
  H  H24  1  0.206028  0.924819  0.748190  1
  H  H25  1  0.793972  0.075181  0.251810  1
  H  H26  1  0.021576  0.887441  0.778675  1
  H  H27  1  0.978424  0.112559  0.221325  1
  H  H28  1  0.686601  0.984015  0.711924  1
  H  H29  1  0.313399  0.015985  0.288076  1
  H  H30  1  0.625960  0.049348  0.791510  1
  H  H31  1  0.374040  0.950652  0.208490  1
  H  H32  1  0.718439  0.252083  0.780321  1
  H  H33  1  0.281561  0.747917  0.219679  1
  H  H34  1  0.907411  0.296761  0.755472  1
  H  H35  1  0.092589  0.703239  0.244528  1
  H  H36  1  0.742602  0.539628  0.585270  1
  H  H37  1  0.257398  0.460372  0.414730  1
  H  H38  1  0.617719  0.655846  0.577522  1
  H  H39  1  0.382281  0.344154  0.422478  1
  H  H40  1  0.771439  0.821877  0.583267  1
  H  H41  1  0.228561  0.178123  0.416733  1
  H  H42  1  0.003997  0.818463  0.570808  1
  H  H43  1  0.996003  0.181537  0.429192  1
  H  H44  1  0.167863  0.660721  0.569691  1
  H  H45  1  0.832137  0.339279  0.430309  1
  H  H46  1  0.052779  0.536946  0.569116  1
  H  H47  1  0.947221  0.463054  0.430884  1
  H  H48  1  0.346676  0.444037  0.043648  1
  H  H49  1  0.653324  0.555963  0.956352  1
  H  H50  1  0.367093  0.577742  0.101904  1
  H  H51  1  0.632907  0.422258  0.898096  1
  H  H52  1  0.214394  0.419365  0.924775  1
  H  H53  1  0.785606  0.580635  0.075225  1
  H  H54  1  0.103776  0.533155  0.903978  1
  H  H55  1  0.896224  0.466845  0.096022  1
  H  H56  1  0.214944  0.726959  0.073628  1
  H  H57  1  0.785056  0.273041  0.926372  1
  H  H58  1  0.155960  0.712751  0.983180  1
  H  H59  1  0.844040  0.287249  0.016820  1
  H  H60  1  0.720136  0.155825  0.578222  1
  H  H61  1  0.279864  0.844175  0.421778  1
  H  H62  1  0.597061  0.036710  0.581325  1
  H  H63  1  0.402939  0.963290  0.418675  1
  H  H64  1  0.282803  0.036947  0.568765  1
  H  H65  1  0.717197  0.963053  0.431235  1
  H  H66  1  0.167019  0.159061  0.566136  1
  H  H67  1  0.832981  0.840939  0.433864  1
  H  H68  1  0.333242  0.318248  0.573616  1
  H  H69  1  0.666758  0.681752  0.426384  1
  H  H70  1  0.572070  0.319540  0.580593  1
  H  H71  1  0.427930  0.680460  0.419407  1
  H  H72  1  0.813135  0.061866  0.956690  1
  H  H73  1  0.186865  0.938134  0.043310  1
  H  H74  1  0.825703  0.928045  0.898785  1
  H  H75  1  0.174297  0.071955  0.101215  1
  H  H76  1  0.746005  0.081670  0.077096  1
  H  H77  1  0.253995  0.918330  0.922904  1
  H  H78  1  0.638825  0.967829  0.096124  1
  H  H79  1  0.361175  0.032171  0.903876  1
  H  H80  1  0.670067  0.788682  0.017517  1
  H  H81  1  0.329933  0.211318  0.982483  1
  H  H82  1  0.685423  0.775681  0.926347  1
  H  H83  1  0.314577  0.224319  0.073653  1
  C  C84  1  0.889927  0.669076  0.569625  1
  C  C85  1  0.110073  0.330924  0.430375  1
  C  C86  1  0.226512  0.567182  0.005790  1
  C  C87  1  0.773488  0.432818  0.994210  1
  C  C88  1  0.445172  0.168366  0.568410  1
  C  C89  1  0.554828  0.831634  0.431590  1
  C  C90  1  0.724315  0.935236  0.994849  1
  C  C91  1  0.275685  0.064764  0.005151  1
  S  S92  1  0.395738  0.856340  0.634377  1
  S  S93  1  0.604262  0.143660  0.365623  1
  S  S94  1  0.964269  0.357104  0.635221  1
  S  S95  1  0.035731  0.642896  0.364779  1
  S  S96  1  0.055995  0.714378  0.839054  1
  S  S97  1  0.944005  0.285622  0.160946  1
  S  S98  1  0.381015  0.214555  0.838597  1
  S  S99  1  0.618985  0.785445  0.161403  1
  N  N100  1  0.736483  0.613112  0.571694  1
  N  N101  1  0.263517  0.386888  0.428306  1
  N  N102  1  0.884400  0.775998  0.568546  1
  N  N103  1  0.115600  0.224002  0.431454  1
  N  N104  1  0.048184  0.616517  0.564815  1
  N  N105  1  0.951816  0.383483  0.435185  1
  N  N106  1  0.307196  0.524300  0.055917  1
  N  N107  1  0.692804  0.475699  0.944083  1
  N  N108  1  0.174739  0.500615  0.940391  1
  N  N109  1  0.825261  0.499385  0.059609  1
  N  N110  1  0.193905  0.676255  0.022660  1
  N  N111  1  0.806095  0.323745  0.977340  1
  N  N112  1  0.598872  0.113006  0.571924  1
  N  N113  1  0.401128  0.886994  0.428076  1
  N  N114  1  0.284608  0.114835  0.561577  1
  N  N115  1  0.715392  0.885165  0.438423  1
  N  N116  1  0.451155  0.275254  0.568087  1
  N  N117  1  0.548845  0.724746  0.431913  1
  N  N118  1  0.782990  0.978749  0.945014  1
  N  N119  1  0.217010  0.021251  0.054986  1
  N  N120  1  0.696352  0.000485  0.060382  1
  N  N121  1  0.303648  0.999515  0.939618  1
  N  N122  1  0.689078  0.825214  0.977840  1
  N  N123  1  0.310922  0.174786  0.022160  1
  O  O124  1  0.493007  0.630551  0.878036  1
  O  O125  1  0.506993  0.369449  0.121964  1
  O  O126  1  0.323073  0.452403  0.769712  1
  O  O127  1  0.676927  0.547597  0.230288  1
  O  O128  1  0.562021  0.746137  0.780135  1
  O  O129  1  0.437979  0.253863  0.219865  1
  O  O130  1  0.675068  0.516766  0.763391  1
  O  O131  1  0.324932  0.483234  0.236609  1
  O  O132  1  0.402900  0.562824  0.669476  1
  O  O133  1  0.597100  0.437176  0.330524  1
  O  O134  1  0.957270  0.128855  0.876251  1
  O  O135  1  0.042730  0.871146  0.123749  1
  O  O136  1  0.971377  0.060799  0.667943  1
  O  O137  1  0.028623  0.939201  0.332057  1
  O  O138  1  0.086489  0.950583  0.768642  1
  O  O139  1  0.913511  0.049417  0.231358  1
  O  O140  1  0.730865  0.016712  0.762776  1
  O  O141  1  0.269135  0.983288  0.237224  1
  O  O142  1  0.851938  0.244253  0.779018  1
  O  O143  1  0.148062  0.755747  0.220982  1
  O  O144  1  0.396432  0.732832  0.599326  1
  O  O145  1  0.603568  0.267168  0.400674  1
  O  O146  1  0.569028  0.909153  0.623893  1
  O  O147  1  0.430972  0.090847  0.376107  1
  O  O148  1  0.382321  0.876644  0.713726  1
  O  O149  1  0.617679  0.123356  0.286274  1
  O  O150  1  0.237486  0.906244  0.603807  1
  O  O151  1  0.762514  0.093756  0.396193  1
  O  O152  1  0.788436  0.410506  0.623762  1
  O  O153  1  0.211564  0.589494  0.376238  1
  O  O154  1  0.114085  0.407204  0.606461  1
  O  O155  1  0.885915  0.592796  0.393539  1
  O  O156  1  0.005591  0.376298  0.714657  1
  O  O157  1  0.994409  0.623702  0.285343  1
  O  O158  1  0.948407  0.233767  0.599287  1
  O  O159  1  0.051593  0.766233  0.400713  1
  O  O160  1  0.134742  0.783054  0.909466  1
  O  O161  1  0.865258  0.216946  0.090534  1
  O  O162  1  0.963113  0.613203  0.846355  1
  O  O163  1  0.036887  0.386797  0.153645  1
  O  O164  1  0.925762  0.780600  0.805489  1
  O  O165  1  0.074238  0.219400  0.194512  1
  O  O166  1  0.203899  0.680910  0.787522  1
  O  O167  1  0.796101  0.319090  0.212478  1
  O  O168  1  0.328595  0.282310  0.909137  1
  O  O169  1  0.671405  0.717690  0.090863  1
  O  O170  1  0.478897  0.114165  0.845944  1
  O  O171  1  0.521103  0.885835  0.154056  1
  O  O172  1  0.497199  0.282227  0.805572  1
  O  O173  1  0.502801  0.717773  0.194428  1
  O  O174  1  0.214011  0.179517  0.786788  1
  O  O175  1  0.785989  0.820483  0.213212  1
