# generated using pymatgen
data_Li2YPCO7
_symmetry_space_group_name_H-M   'P 1'
_cell_length_a   9.08642008
_cell_length_b   6.80625427
_cell_length_c   4.91531415
_cell_angle_alpha   90.00000000
_cell_angle_beta   86.90790572
_cell_angle_gamma   90.00000000
_symmetry_Int_Tables_number   1
_chemical_formula_structural   Li2YPCO7
_chemical_formula_sum   'Li4 Y2 P2 C2 O14'
_cell_volume   303.54250935
_cell_formula_units_Z   2
loop_
 _symmetry_equiv_pos_site_id
 _symmetry_equiv_pos_as_xyz
  1  'x, y, z'
loop_
 _atom_site_type_symbol
 _atom_site_label
 _atom_site_symmetry_multiplicity
 _atom_site_fract_x
 _atom_site_fract_y
 _atom_site_fract_z
 _atom_site_occupancy
  Li  Li0  1  0.202438  0.479178  0.201169  1
  Li  Li1  1  0.202438  0.020822  0.201169  1
  Li  Li2  1  0.797562  0.520822  0.798831  1
  Li  Li3  1  0.797562  0.979178  0.798831  1
  Y  Y4  1  0.362682  0.750000  0.745276  1
  Y  Y5  1  0.637318  0.250000  0.254724  1
  P  P6  1  0.407493  0.250000  0.723674  1
  P  P7  1  0.592507  0.750000  0.276326  1
  C  C8  1  0.059854  0.750000  0.739947  1
  C  C9  1  0.940146  0.250000  0.260053  1
  O  O10  1  0.079840  0.250000  0.276158  1
  O  O11  1  0.123181  0.750000  0.973940  1
  O  O12  1  0.150005  0.750000  0.521086  1
  O  O13  1  0.337872  0.065781  0.861187  1
  O  O14  1  0.337872  0.434219  0.861187  1
  O  O15  1  0.420379  0.750000  0.245052  1
  O  O16  1  0.390872  0.250000  0.411117  1
  O  O17  1  0.609128  0.750000  0.588883  1
  O  O18  1  0.579621  0.250000  0.754948  1
  O  O19  1  0.662128  0.565781  0.138813  1
  O  O20  1  0.662128  0.934219  0.138813  1
  O  O21  1  0.849995  0.250000  0.478914  1
  O  O22  1  0.876819  0.250000  0.026060  1
  O  O23  1  0.920160  0.750000  0.723842  1
