# generated using pymatgen
data_Ti3Mn2Nb(PO4)6
_symmetry_space_group_name_H-M   'P 1'
_cell_length_a   8.69164546
_cell_length_b   8.69164572
_cell_length_c   8.69164525
_cell_angle_alpha   60.58613370
_cell_angle_beta   60.58613262
_cell_angle_gamma   60.58613473
_symmetry_Int_Tables_number   1
_chemical_formula_structural   Ti3Mn2Nb(PO4)6
_chemical_formula_sum   'Ti3 Mn2 Nb1 P6 O24'
_cell_volume   470.43859782
_cell_formula_units_Z   1
loop_
 _symmetry_equiv_pos_site_id
 _symmetry_equiv_pos_as_xyz
  1  'x, y, z'
loop_
 _atom_site_type_symbol
 _atom_site_label
 _atom_site_symmetry_multiplicity
 _atom_site_fract_x
 _atom_site_fract_y
 _atom_site_fract_z
 _atom_site_occupancy
  Ti  Ti0  1  0.145410  0.145410  0.145410  1
  Ti  Ti1  1  0.355211  0.355211  0.355211  1
  Ti  Ti2  1  0.645153  0.645153  0.645153  1
  Mn  Mn3  1  0.000960  0.000960  0.000960  1
  Mn  Mn4  1  0.499270  0.499270  0.499270  1
  Nb  Nb5  1  0.856723  0.856723  0.856723  1
  P  P6  1  0.045108  0.749063  0.452075  1
  P  P7  1  0.452075  0.045108  0.749063  1
  P  P8  1  0.255668  0.538392  0.957000  1
  P  P9  1  0.538392  0.957000  0.255668  1
  P  P10  1  0.957000  0.255668  0.538392  1
  P  P11  1  0.749063  0.452075  0.045108  1
  O  O12  1  0.115519  0.314030  0.500401  1
  O  O13  1  0.314030  0.500401  0.115519  1
  O  O14  1  0.060235  0.911856  0.262289  1
  O  O15  1  0.500401  0.115519  0.314030  1
  O  O16  1  0.007331  0.811766  0.610238  1
  O  O17  1  0.236233  0.588203  0.439184  1
  O  O18  1  0.262289  0.060235  0.911856  1
  O  O19  1  0.439184  0.236233  0.588203  1
  O  O20  1  0.190188  0.383303  0.996723  1
  O  O21  1  0.588203  0.439184  0.236233  1
  O  O22  1  0.093275  0.732157  0.941443  1
  O  O23  1  0.383303  0.996723  0.190188  1
  O  O24  1  0.610238  0.007331  0.811766  1
  O  O25  1  0.911856  0.262289  0.060235  1
  O  O26  1  0.414209  0.557002  0.764044  1
  O  O27  1  0.811766  0.610238  0.007331  1
  O  O28  1  0.557002  0.764044  0.414209  1
  O  O29  1  0.732157  0.941443  0.093275  1
  O  O30  1  0.764044  0.414209  0.557002  1
  O  O31  1  0.996723  0.190188  0.383303  1
  O  O32  1  0.496181  0.885067  0.689085  1
  O  O33  1  0.941443  0.093275  0.732157  1
  O  O34  1  0.689085  0.496181  0.885067  1
  O  O35  1  0.885067  0.689085  0.496181  1
