# generated using pymatgen
data_LiVOF3
_symmetry_space_group_name_H-M   'P 1'
_cell_length_a   5.74854511
_cell_length_b   5.74854589
_cell_length_c   5.04540185
_cell_angle_alpha   89.05717236
_cell_angle_beta   90.94282341
_cell_angle_gamma   117.25706215
_symmetry_Int_Tables_number   1
_chemical_formula_structural   LiVOF3
_chemical_formula_sum   'Li2 V2 O2 F6'
_cell_volume   148.18819341
_cell_formula_units_Z   2
loop_
 _symmetry_equiv_pos_site_id
 _symmetry_equiv_pos_as_xyz
  1  'x, y, z'
loop_
 _atom_site_type_symbol
 _atom_site_label
 _atom_site_symmetry_multiplicity
 _atom_site_fract_x
 _atom_site_fract_y
 _atom_site_fract_z
 _atom_site_occupancy
  Li  Li0  1  0.349193  0.952548  0.762782  1
  Li  Li1  1  0.952548  0.349193  0.737218  1
  V  V2  1  0.351361  0.351361  0.250000  1
  V  V3  1  0.626102  0.626102  0.750000  1
  O  O4  1  0.312202  0.509476  0.936264  1
  O  O5  1  0.509476  0.312202  0.563736  1
  F  F6  1  0.257517  0.027348  0.103617  1
  F  F7  1  0.479298  0.712363  0.434197  1
  F  F8  1  0.724005  0.983022  0.834427  1
  F  F9  1  0.712363  0.479298  0.065803  1
  F  F10  1  0.983022  0.724005  0.665573  1
  F  F11  1  0.027348  0.257517  0.396383  1
