# generated using pymatgen
data_SrBi5O9
_symmetry_space_group_name_H-M   'P 1'
_cell_length_a   4.06570089
_cell_length_b   10.00544445
_cell_length_c   6.89485177
_cell_angle_alpha   81.78853348
_cell_angle_beta   90.08465870
_cell_angle_gamma   101.84192292
_symmetry_Int_Tables_number   1
_chemical_formula_structural   SrBi5O9
_chemical_formula_sum   'Sr1 Bi5 O9'
_cell_volume   271.58091539
_cell_formula_units_Z   1
loop_
 _symmetry_equiv_pos_site_id
 _symmetry_equiv_pos_as_xyz
  1  'x, y, z'
loop_
 _atom_site_type_symbol
 _atom_site_label
 _atom_site_symmetry_multiplicity
 _atom_site_fract_x
 _atom_site_fract_y
 _atom_site_fract_z
 _atom_site_occupancy
  Sr  Sr0  1  0.015666  0.988357  0.000714  1
  Bi  Bi1  1  0.861080  0.682136  0.416569  1
  Bi  Bi2  1  0.681048  0.317246  0.101797  1
  Bi  Bi3  1  0.509005  0.987290  0.502854  1
  Bi  Bi4  1  0.347577  0.668814  0.876256  1
  Bi  Bi5  1  0.188111  0.325706  0.604395  1
  O  O6  1  0.693128  0.335527  0.433883  1
  O  O7  1  0.881050  0.692963  0.092694  1
  O  O8  1  0.972524  0.903241  0.380336  1
  O  O9  1  0.823017  0.600176  0.737632  1
  O  O10  1  0.572639  0.102906  0.149214  1
  O  O11  1  0.179413  0.315815  0.940149  1
  O  O12  1  0.385706  0.732883  0.516961  1
  O  O13  1  0.463117  0.888207  0.832605  1
  O  O14  1  0.084377  0.112336  0.638360  1
