# generated using pymatgen
data_ZnH12(IN2)2
_symmetry_space_group_name_H-M   'P 1'
_cell_length_a   12.43115674
_cell_length_b   7.80316950
_cell_length_c   12.23996263
_cell_angle_alpha   90.00000000
_cell_angle_beta   90.00000000
_cell_angle_gamma   90.00000000
_symmetry_Int_Tables_number   1
_chemical_formula_structural   ZnH12(IN2)2
_chemical_formula_sum   'Zn4 H48 I8 N16'
_cell_volume   1187.30603405
_cell_formula_units_Z   4
loop_
 _symmetry_equiv_pos_site_id
 _symmetry_equiv_pos_as_xyz
  1  'x, y, z'
loop_
 _atom_site_type_symbol
 _atom_site_label
 _atom_site_symmetry_multiplicity
 _atom_site_fract_x
 _atom_site_fract_y
 _atom_site_fract_z
 _atom_site_occupancy
  Zn  Zn0  1  0.281958  0.250000  0.100543  1
  Zn  Zn1  1  0.781958  0.250000  0.399457  1
  Zn  Zn2  1  0.718042  0.750000  0.899457  1
  Zn  Zn3  1  0.218042  0.750000  0.600543  1
  H  H4  1  0.198292  0.143883  0.911820  1
  H  H5  1  0.698292  0.356117  0.588180  1
  H  H6  1  0.801708  0.643883  0.088180  1
  H  H7  1  0.301708  0.856117  0.411820  1
  H  H8  1  0.801708  0.856117  0.088180  1
  H  H9  1  0.301708  0.643883  0.411820  1
  H  H10  1  0.198292  0.356117  0.911820  1
  H  H11  1  0.698292  0.143883  0.588180  1
  H  H12  1  0.311422  0.250000  0.900486  1
  H  H13  1  0.811422  0.250000  0.599514  1
  H  H14  1  0.688578  0.750000  0.099514  1
  H  H15  1  0.188578  0.750000  0.400486  1
  H  H16  1  0.476053  0.143256  0.140799  1
  H  H17  1  0.976053  0.356744  0.359201  1
  H  H18  1  0.523947  0.643256  0.859201  1
  H  H19  1  0.023947  0.856744  0.640799  1
  H  H20  1  0.523947  0.856744  0.859201  1
  H  H21  1  0.023947  0.643256  0.640799  1
  H  H22  1  0.476053  0.356744  0.140799  1
  H  H23  1  0.976053  0.143256  0.359201  1
  H  H24  1  0.483186  0.250000  0.021841  1
  H  H25  1  0.983186  0.250000  0.478159  1
  H  H26  1  0.516814  0.750000  0.978159  1
  H  H27  1  0.016814  0.750000  0.521841  1
  H  H28  1  0.220269  0.798028  0.092930  1
  H  H29  1  0.720269  0.701972  0.407070  1
  H  H30  1  0.779731  0.298028  0.907070  1
  H  H31  1  0.279731  0.201972  0.592930  1
  H  H32  1  0.779731  0.201972  0.907070  1
  H  H33  1  0.279731  0.298028  0.592930  1
  H  H34  1  0.220269  0.701972  0.092930  1
  H  H35  1  0.720269  0.798028  0.407070  1
  H  H36  1  0.303212  0.004860  0.312258  1
  H  H37  1  0.803212  0.495140  0.187742  1
  H  H38  1  0.696788  0.504860  0.687742  1
  H  H39  1  0.196788  0.995140  0.812258  1
  H  H40  1  0.696788  0.995140  0.687742  1
  H  H41  1  0.196788  0.504860  0.812258  1
  H  H42  1  0.303212  0.495140  0.312258  1
  H  H43  1  0.803212  0.004860  0.187742  1
  H  H44  1  0.135839  0.038811  0.179124  1
  H  H45  1  0.635839  0.461189  0.320876  1
  H  H46  1  0.864161  0.538811  0.820876  1
  H  H47  1  0.364161  0.961189  0.679124  1
  H  H48  1  0.864161  0.961189  0.820876  1
  H  H49  1  0.364161  0.538811  0.679124  1
  H  H50  1  0.135839  0.461189  0.179124  1
  H  H51  1  0.635839  0.038811  0.320876  1
  I  I52  1  0.788923  0.250000  0.183804  1
  I  I53  1  0.288923  0.250000  0.316196  1
  I  I54  1  0.211077  0.750000  0.816196  1
  I  I55  1  0.711077  0.750000  0.683804  1
  I  I56  1  0.496453  0.250000  0.811079  1
  I  I57  1  0.996453  0.250000  0.688921  1
  I  I58  1  0.503547  0.750000  0.188921  1
  I  I59  1  0.003547  0.750000  0.311079  1
  N  N60  1  0.238679  0.250000  0.943347  1
  N  N61  1  0.738679  0.250000  0.556653  1
  N  N62  1  0.761321  0.750000  0.056653  1
  N  N63  1  0.261321  0.750000  0.443347  1
  N  N64  1  0.449380  0.250000  0.099469  1
  N  N65  1  0.949380  0.250000  0.400531  1
  N  N66  1  0.550620  0.750000  0.900531  1
  N  N67  1  0.050620  0.750000  0.599469  1
  N  N68  1  0.011487  0.178837  0.029931  1
  N  N69  1  0.511487  0.321163  0.470069  1
  N  N70  1  0.988513  0.678837  0.970069  1
  N  N71  1  0.488513  0.821163  0.529931  1
  N  N72  1  0.988513  0.821163  0.970069  1
  N  N73  1  0.488513  0.678837  0.529931  1
  N  N74  1  0.011487  0.321163  0.029931  1
  N  N75  1  0.511487  0.178837  0.470069  1
