# generated using pymatgen
data_Li4Nb3Fe3(NiO8)2
_symmetry_space_group_name_H-M   'P 1'
_cell_length_a   6.10045675
_cell_length_b   6.10427506
_cell_length_c   9.81582876
_cell_angle_alpha   90.00520289
_cell_angle_beta   89.69036972
_cell_angle_gamma   120.02500982
_symmetry_Int_Tables_number   1
_chemical_formula_structural   Li4Nb3Fe3(NiO8)2
_chemical_formula_sum   'Li4 Nb3 Fe3 Ni2 O16'
_cell_volume   316.47268262
_cell_formula_units_Z   1
loop_
 _symmetry_equiv_pos_site_id
 _symmetry_equiv_pos_as_xyz
  1  'x, y, z'
loop_
 _atom_site_type_symbol
 _atom_site_label
 _atom_site_symmetry_multiplicity
 _atom_site_fract_x
 _atom_site_fract_y
 _atom_site_fract_z
 _atom_site_occupancy
  Li  Li0  1  0.337412  0.668721  0.900356  1
  Li  Li1  1  0.012928  0.006481  0.006410  1
  Li  Li2  1  0.024483  0.012231  0.491179  1
  Li  Li3  1  0.672739  0.336406  0.375081  1
  Nb  Nb4  1  0.658606  0.829315  0.214545  1
  Nb  Nb5  1  0.828477  0.661373  0.713968  1
  Nb  Nb6  1  0.828400  0.167060  0.713905  1
  Fe  Fe7  1  0.168220  0.829793  0.215724  1
  Fe  Fe8  1  0.168206  0.338452  0.215732  1
  Fe  Fe9  1  0.334511  0.167284  0.717030  1
  Ni  Ni10  1  0.319428  0.659678  0.475447  1
  Ni  Ni11  1  0.652317  0.326127  0.011879  1
  O  O12  1  0.153389  0.839885  0.607373  1
  O  O13  1  0.037218  0.518635  0.333986  1
  O  O14  1  0.340166  0.670068  0.100209  1
  O  O15  1  0.994138  0.997094  0.312485  1
  O  O16  1  0.991642  0.995876  0.820329  1
  O  O17  1  0.153405  0.313569  0.607388  1
  O  O18  1  0.487602  0.964501  0.338361  1
  O  O19  1  0.487567  0.523115  0.338363  1
  O  O20  1  0.316089  0.158030  0.106087  1
  O  O21  1  0.685081  0.842531  0.603750  1
  O  O22  1  0.520911  0.485516  0.828912  1
  O  O23  1  0.520925  0.035444  0.828919  1
  O  O24  1  0.677750  0.338867  0.599814  1
  O  O25  1  0.828566  0.675791  0.101707  1
  O  O26  1  0.971228  0.485673  0.827189  1
  O  O27  1  0.828598  0.152779  0.101708  1
