# generated using pymatgen
data_Li2CrP2O7
_symmetry_space_group_name_H-M   'P 1'
_cell_length_a   12.87254023
_cell_length_b   5.09421283
_cell_length_c   8.56785798
_cell_angle_alpha   90.00000000
_cell_angle_beta   97.84327555
_cell_angle_gamma   90.00000000
_symmetry_Int_Tables_number   1
_chemical_formula_structural   Li2CrP2O7
_chemical_formula_sum   'Li8 Cr4 P8 O28'
_cell_volume   556.58522949
_cell_formula_units_Z   4
loop_
 _symmetry_equiv_pos_site_id
 _symmetry_equiv_pos_as_xyz
  1  'x, y, z'
loop_
 _atom_site_type_symbol
 _atom_site_label
 _atom_site_symmetry_multiplicity
 _atom_site_fract_x
 _atom_site_fract_y
 _atom_site_fract_z
 _atom_site_occupancy
  Li  Li0  1  0.078913  0.275669  0.578460  1
  Li  Li1  1  0.185301  0.743397  0.121513  1
  Li  Li2  1  0.421087  0.775669  0.921540  1
  Li  Li3  1  0.314699  0.243397  0.378487  1
  Li  Li4  1  0.685301  0.756603  0.621513  1
  Li  Li5  1  0.578913  0.224331  0.078460  1
  Li  Li6  1  0.814699  0.256603  0.878487  1
  Li  Li7  1  0.921087  0.724331  0.421540  1
  Cr  Cr8  1  0.019896  0.239173  0.241408  1
  Cr  Cr9  1  0.519896  0.260827  0.741408  1
  Cr  Cr10  1  0.480104  0.739173  0.258592  1
  Cr  Cr11  1  0.980104  0.760827  0.758592  1
  P  P12  1  0.124322  0.251141  0.928524  1
  P  P13  1  0.150180  0.760968  0.472840  1
  P  P14  1  0.375678  0.751141  0.571476  1
  P  P15  1  0.349820  0.260968  0.027160  1
  P  P16  1  0.650180  0.739032  0.972840  1
  P  P17  1  0.624322  0.248859  0.428524  1
  P  P18  1  0.849820  0.239032  0.527160  1
  P  P19  1  0.875678  0.748859  0.071476  1
  O  O20  1  0.063355  0.129641  0.780641  1
  O  O21  1  0.107342  0.545904  0.939253  1
  O  O22  1  0.061588  0.682888  0.568522  1
  O  O23  1  0.146560  0.584645  0.326636  1
  O  O24  1  0.246167  0.191587  0.904470  1
  O  O25  1  0.152820  0.055166  0.437380  1
  O  O26  1  0.112032  0.104608  0.082105  1
  O  O27  1  0.253833  0.691587  0.595530  1
  O  O28  1  0.438412  0.182888  0.931478  1
  O  O29  1  0.392658  0.045904  0.560747  1
  O  O30  1  0.387968  0.604608  0.417895  1
  O  O31  1  0.436645  0.629641  0.719359  1
  O  O32  1  0.347180  0.555166  0.062620  1
  O  O33  1  0.353440  0.084645  0.173364  1
  O  O34  1  0.646560  0.915355  0.826636  1
  O  O35  1  0.652820  0.444834  0.937380  1
  O  O36  1  0.563355  0.370359  0.280641  1
  O  O37  1  0.612032  0.395392  0.582105  1
  O  O38  1  0.607342  0.954096  0.439253  1
  O  O39  1  0.561588  0.817112  0.068522  1
  O  O40  1  0.746167  0.308413  0.404470  1
  O  O41  1  0.887968  0.895392  0.917895  1
  O  O42  1  0.847180  0.944834  0.562620  1
  O  O43  1  0.753833  0.808413  0.095530  1
  O  O44  1  0.853440  0.415355  0.673364  1
  O  O45  1  0.938412  0.317112  0.431478  1
  O  O46  1  0.892658  0.454096  0.060747  1
  O  O47  1  0.936645  0.870359  0.219359  1
