# generated using pymatgen
data_NaScP2(HO4)2
_symmetry_space_group_name_H-M   'P 1'
_cell_length_a   9.77250474
_cell_length_b   9.77250474
_cell_length_c   9.18436067
_cell_angle_alpha   73.12987162
_cell_angle_beta   106.87012838
_cell_angle_gamma   64.92808094
_symmetry_Int_Tables_number   1
_chemical_formula_structural   NaScP2(HO4)2
_chemical_formula_sum   'Na4 Sc4 P8 H8 O32'
_cell_volume   668.35403739
_cell_formula_units_Z   4
loop_
 _symmetry_equiv_pos_site_id
 _symmetry_equiv_pos_as_xyz
  1  'x, y, z'
loop_
 _atom_site_type_symbol
 _atom_site_label
 _atom_site_symmetry_multiplicity
 _atom_site_fract_x
 _atom_site_fract_y
 _atom_site_fract_z
 _atom_site_occupancy
  Na  Na0  1  0.214566  0.131421  0.634394  1
  Na  Na1  1  0.791539  0.585413  0.713818  1
  Na  Na2  1  0.868579  0.785434  0.134394  1
  Na  Na3  1  0.414587  0.208461  0.213818  1
  Sc  Sc4  1  0.584225  0.639219  0.963388  1
  Sc  Sc5  1  0.360781  0.415775  0.463388  1
  Sc  Sc6  1  0.863802  0.867011  0.497172  1
  Sc  Sc7  1  0.132989  0.136198  0.997172  1
  P  P8  1  0.155055  0.842378  0.847831  1
  P  P9  1  0.580686  0.968356  0.674234  1
  P  P10  1  0.157622  0.844945  0.347831  1
  P  P11  1  0.179902  0.434659  0.746030  1
  P  P12  1  0.031644  0.419314  0.174234  1
  P  P13  1  0.565341  0.820098  0.246030  1
  P  P14  1  0.691212  0.339931  0.819283  1
  P  P15  1  0.660069  0.308788  0.319283  1
  H  H16  1  0.327358  0.509888  0.899001  1
  H  H17  1  0.346731  0.781260  0.595489  1
  H  H18  1  0.490112  0.672642  0.399001  1
  H  H19  1  0.218740  0.653269  0.095489  1
  H  H20  1  0.681201  0.090472  0.793344  1
  H  H21  1  0.873471  0.160529  0.579476  1
  H  H22  1  0.909528  0.318799  0.293344  1
  H  H23  1  0.839471  0.126529  0.079476  1
  O  O24  1  0.164827  0.989893  0.864930  1
  O  O25  1  0.114438  0.754131  0.990876  1
  O  O26  1  0.002329  0.918085  0.671820  1
  O  O27  1  0.008472  0.604515  0.672005  1
  O  O28  1  0.327082  0.700415  0.874856  1
  O  O29  1  0.010107  0.835173  0.364930  1
  O  O30  1  0.245869  0.885562  0.490876  1
  O  O31  1  0.695904  0.976677  0.833349  1
  O  O32  1  0.081915  0.997671  0.171820  1
  O  O33  1  0.511403  0.867080  0.750961  1
  O  O34  1  0.316911  0.409601  0.916251  1
  O  O35  1  0.166004  0.280131  0.806865  1
  O  O36  1  0.246269  0.433293  0.614454  1
  O  O37  1  0.395485  0.991528  0.172005  1
  O  O38  1  0.693982  0.877043  0.604668  1
  O  O39  1  0.299585  0.672918  0.374856  1
  O  O40  1  0.589975  0.522292  0.797527  1
  O  O41  1  0.023323  0.304096  0.333349  1
  O  O42  1  0.132920  0.488597  0.250961  1
  O  O43  1  0.590399  0.683089  0.416251  1
  O  O44  1  0.718943  0.197283  0.985854  1
  O  O45  1  0.719869  0.833996  0.306865  1
  O  O46  1  0.593424  0.321315  0.669495  1
  O  O47  1  0.566707  0.753731  0.114454  1
  O  O48  1  0.122957  0.306018  0.104668  1
  O  O49  1  0.432912  0.155286  0.536156  1
  O  O50  1  0.477708  0.410025  0.297527  1
  O  O51  1  0.868105  0.296962  0.839366  1
  O  O52  1  0.802717  0.281057  0.485854  1
  O  O53  1  0.678685  0.406576  0.169495  1
  O  O54  1  0.844714  0.567088  0.036156  1
  O  O55  1  0.703038  0.131895  0.339366  1
