# generated using pymatgen
data_KLi2AlSi4(O5F)2
_symmetry_space_group_name_H-M   'P 1'
_cell_length_a   7.13637372
_cell_length_b   6.34963127
_cell_length_c   33.83214606
_cell_angle_alpha   97.56914647
_cell_angle_beta   94.05832166
_cell_angle_gamma   117.09693564
_symmetry_Int_Tables_number   1
_chemical_formula_structural   KLi2AlSi4(O5F)2
_chemical_formula_sum   'K5 Li10 Al5 Si20 O50 F10'
_cell_volume   1337.94763875
_cell_formula_units_Z   5
loop_
 _symmetry_equiv_pos_site_id
 _symmetry_equiv_pos_as_xyz
  1  'x, y, z'
loop_
 _atom_site_type_symbol
 _atom_site_label
 _atom_site_symmetry_multiplicity
 _atom_site_fract_x
 _atom_site_fract_y
 _atom_site_fract_z
 _atom_site_occupancy
  K  K0  1  0.459018  0.311803  0.784123  1
  K  K1  1  0.500000  0.500000  0.600000  1
  K  K2  1  0.540982  0.688197  0.415877  1
  K  K3  1  0.651284  0.664090  0.197825  1
  K  K4  1  0.348716  0.335910  0.002175  1
  Li  Li5  1  0.416797  0.685004  0.852821  1
  Li  Li6  1  0.044935  0.123053  0.908819  1
  Li  Li7  1  0.966844  0.129481  0.627210  1
  Li  Li8  1  0.207814  0.305662  0.479246  1
  Li  Li9  1  0.033156  0.870519  0.572790  1
  Li  Li10  1  0.955065  0.876947  0.291181  1
  Li  Li11  1  0.186613  0.721668  0.173176  1
  Li  Li12  1  0.792186  0.694338  0.720754  1
  Li  Li13  1  0.583203  0.314996  0.347179  1
  Li  Li14  1  0.813387  0.278332  0.026824  1
  Al  Al15  1  0.263746  0.534906  0.716083  1
  Al  Al16  1  0.364008  0.868658  0.263308  1
  Al  Al17  1  0.000000  0.000000  0.100000  1
  Al  Al18  1  0.635992  0.131342  0.936692  1
  Al  Al19  1  0.736254  0.465094  0.483917  1
  Si  Si20  1  0.989527  0.563164  0.432278  1
  Si  Si21  1  0.057084  0.586319  0.325572  1
  Si  Si22  1  0.219576  0.913380  0.387282  1
  Si  Si23  1  0.098840  0.710690  0.022118  1
  Si  Si24  1  0.517139  0.174810  0.114313  1
  Si  Si25  1  0.755598  0.682837  0.929042  1
  Si  Si26  1  0.238658  0.800483  0.938165  1
  Si  Si27  1  0.968845  0.582511  0.635245  1
  Si  Si28  1  0.272294  0.009461  0.673681  1
  Si  Si29  1  0.437387  0.894947  0.563677  1
  Si  Si30  1  0.727706  0.990539  0.526319  1
  Si  Si31  1  0.761342  0.199517  0.261835  1
  Si  Si32  1  0.244402  0.317163  0.270958  1
  Si  Si33  1  0.482861  0.825190  0.085687  1
  Si  Si34  1  0.901160  0.289310  0.177882  1
  Si  Si35  1  0.780424  0.086620  0.812718  1
  Si  Si36  1  0.942916  0.413681  0.874428  1
  Si  Si37  1  0.562613  0.105053  0.636323  1
  Si  Si38  1  0.010473  0.436836  0.767722  1
  Si  Si39  1  0.031155  0.417489  0.564755  1
  O  O40  1  0.475429  0.086188  0.415936  1
  O  O41  1  0.362641  0.739242  0.130990  1
  O  O42  1  0.131151  0.661490  0.856427  1
  O  O43  1  0.248427  0.676138  0.367208  1
  O  O44  1  0.770417  0.962858  0.945260  1
  O  O45  1  0.093723  0.897717  0.632159  1
  O  O46  1  0.161524  0.388981  0.218064  1
  O  O47  1  0.142837  0.508610  0.918661  1
  O  O48  1  0.611102  0.795521  0.812819  1
  O  O49  1  0.174625  0.510292  0.448613  1
  O  O50  1  0.282717  0.648766  0.049762  1
  O  O51  1  0.178294  0.730787  0.687170  1
  O  O52  1  0.958083  0.158013  0.857565  1
  O  O53  1  0.578333  0.885171  0.606811  1
  O  O54  1  0.300340  0.648807  0.216509  1
  O  O55  1  0.176709  0.607533  0.811867  1
  O  O56  1  0.184375  0.700266  0.549833  1
  O  O57  1  0.248809  0.230259  0.699187  1
  O  O58  1  0.254638  0.847817  0.989479  1
  O  O59  1  0.146568  0.489278  0.615621  1
  O  O60  1  0.246469  0.624712  0.292102  1
  O  O61  1  0.067715  0.847485  0.423676  1
  O  O62  1  0.305224  0.942598  0.140316  1
  O  O63  1  0.973793  0.164307  0.276429  1
  O  O64  1  0.061483  0.905396  0.055264  1
  O  O65  1  0.026207  0.835693  0.923571  1
  O  O66  1  0.932285  0.152515  0.776324  1
  O  O67  1  0.753531  0.375288  0.907898  1
  O  O68  1  0.751191  0.769741  0.500813  1
  O  O69  1  0.815625  0.299734  0.650167  1
  O  O70  1  0.823291  0.392467  0.388133  1
  O  O71  1  0.699660  0.351193  0.983491  1
  O  O72  1  0.041917  0.841987  0.342435  1
  O  O73  1  0.821706  0.269213  0.512830  1
  O  O74  1  0.717283  0.351234  0.150238  1
  O  O75  1  0.825375  0.489708  0.751387  1
  O  O76  1  0.388898  0.204479  0.387181  1
  O  O77  1  0.938517  0.094604  0.144736  1
  O  O78  1  0.857163  0.491390  0.281339  1
  O  O79  1  0.838476  0.611019  0.981936  1
  O  O80  1  0.906277  0.102283  0.567841  1
  O  O81  1  0.229583  0.037142  0.254740  1
  O  O82  1  0.694776  0.057402  0.059684  1
  O  O83  1  0.751573  0.323862  0.832792  1
  O  O84  1  0.868849  0.338510  0.343573  1
  O  O85  1  0.637359  0.260758  0.069010  1
  O  O86  1  0.853432  0.510722  0.584379  1
  O  O87  1  0.745362  0.152183  0.210521  1
  O  O88  1  0.524571  0.913812  0.784064  1
  O  O89  1  0.421667  0.114829  0.593189  1
  F  F90  1  0.508073  0.513868  0.939403  1
  F  F91  1  0.527723  0.689135  0.710705  1
  F  F92  1  0.653756  0.665517  0.880921  1
  F  F93  1  0.207587  0.342037  0.539587  1
  F  F94  1  0.792413  0.657963  0.660413  1
  F  F95  1  0.346244  0.334483  0.319079  1
  F  F96  1  0.472277  0.310865  0.489295  1
  F  F97  1  0.339496  0.287756  0.111820  1
  F  F98  1  0.491927  0.486132  0.260597  1
  F  F99  1  0.660504  0.712244  0.088180  1
