# generated using pymatgen
data_VO2F
_symmetry_space_group_name_H-M   'P 1'
_cell_length_a   5.27332180
_cell_length_b   13.08492717
_cell_length_c   5.27332180
_cell_angle_alpha   91.54639372
_cell_angle_beta   121.37326375
_cell_angle_gamma   88.45360628
_symmetry_Int_Tables_number   1
_chemical_formula_structural   VO2F
_chemical_formula_sum   'V6 O12 F6'
_cell_volume   310.51656470
_cell_formula_units_Z   6
loop_
 _symmetry_equiv_pos_site_id
 _symmetry_equiv_pos_as_xyz
  1  'x, y, z'
loop_
 _atom_site_type_symbol
 _atom_site_label
 _atom_site_symmetry_multiplicity
 _atom_site_fract_x
 _atom_site_fract_y
 _atom_site_fract_z
 _atom_site_occupancy
  V  V0  1  0.930284  0.494935  0.986088  1
  V  V1  1  0.013912  0.994935  0.069716  1
  V  V2  1  0.658741  0.830050  0.370910  1
  V  V3  1  0.272150  0.661520  0.647464  1
  V  V4  1  0.629090  0.330050  0.341259  1
  V  V5  1  0.352536  0.161520  0.727850  1
  O  O6  1  0.009512  0.751445  0.424426  1
  O  O7  1  0.110378  0.083932  0.342559  1
  O  O8  1  0.357887  0.917363  0.247576  1
  O  O9  1  0.575574  0.251445  0.990488  1
  O  O10  1  0.783195  0.918708  0.097422  1
  O  O11  1  0.086065  0.587303  0.738030  1
  O  O12  1  0.427966  0.253566  0.406504  1
  O  O13  1  0.593496  0.753567  0.572034  1
  O  O14  1  0.902578  0.418708  0.216805  1
  O  O15  1  0.261970  0.087303  0.913935  1
  O  O16  1  0.752424  0.417363  0.642113  1
  O  O17  1  0.657441  0.583932  0.889622  1
  F  F18  1  0.433286  0.751140  0.996199  1
  F  F19  1  0.325610  0.417216  0.064929  1
  F  F20  1  0.246062  0.582821  0.319030  1
  F  F21  1  0.003801  0.251140  0.566714  1
  F  F22  1  0.680970  0.082821  0.753938  1
  F  F23  1  0.935071  0.917216  0.674390  1
