# generated using pymatgen
data_Li3Fe(PO4)2
_symmetry_space_group_name_H-M   'P 1'
_cell_length_a   8.31371693
_cell_length_b   10.36715089
_cell_length_c   8.21786572
_cell_angle_alpha   90.00000000
_cell_angle_beta   105.04098856
_cell_angle_gamma   90.00000000
_symmetry_Int_Tables_number   1
_chemical_formula_structural   Li3Fe(PO4)2
_chemical_formula_sum   'Li12 Fe4 P8 O32'
_cell_volume   684.02835325
_cell_formula_units_Z   4
loop_
 _symmetry_equiv_pos_site_id
 _symmetry_equiv_pos_as_xyz
  1  'x, y, z'
loop_
 _atom_site_type_symbol
 _atom_site_label
 _atom_site_symmetry_multiplicity
 _atom_site_fract_x
 _atom_site_fract_y
 _atom_site_fract_z
 _atom_site_occupancy
  Li  Li0  1  0.102218  0.663282  0.609471  1
  Li  Li1  1  0.155819  0.158379  0.644006  1
  Li  Li2  1  0.158122  0.352976  0.170177  1
  Li  Li3  1  0.282421  0.919060  0.543755  1
  Li  Li4  1  0.342283  0.655262  0.358382  1
  Li  Li5  1  0.414314  0.164061  0.403741  1
  Li  Li6  1  0.602218  0.836718  0.609471  1
  Li  Li7  1  0.655819  0.341621  0.644006  1
  Li  Li8  1  0.658122  0.147024  0.170177  1
  Li  Li9  1  0.782421  0.580940  0.543755  1
  Li  Li10  1  0.842283  0.844738  0.358382  1
  Li  Li11  1  0.914314  0.335939  0.403741  1
  Fe  Fe12  1  0.091116  0.835309  0.088815  1
  Fe  Fe13  1  0.405309  0.344496  0.899239  1
  Fe  Fe14  1  0.591116  0.664691  0.088815  1
  Fe  Fe15  1  0.905309  0.155504  0.899239  1
  P  P16  1  0.036745  0.404697  0.767533  1
  P  P17  1  0.029439  0.090451  0.281788  1
  P  P18  1  0.470268  0.590887  0.706176  1
  P  P19  1  0.536745  0.095303  0.767533  1
  P  P20  1  0.456945  0.908602  0.233880  1
  P  P21  1  0.529439  0.409549  0.281788  1
  P  P22  1  0.970268  0.909113  0.706176  1
  P  P23  1  0.956945  0.591398  0.233880  1
  O  O24  1  0.005734  0.058048  0.754856  1
  O  O25  1  0.081910  0.330903  0.624735  1
  O  O26  1  0.192661  0.394841  0.929733  1
  O  O27  1  0.004316  0.450371  0.257652  1
  O  O28  1  0.116406  0.854265  0.648770  1
  O  O29  1  0.059665  0.161510  0.120236  1
  O  O30  1  0.106656  0.669563  0.193288  1
  O  O31  1  0.189789  0.097488  0.426667  1
  O  O32  1  0.306590  0.606228  0.571796  1
  O  O33  1  0.390273  0.171092  0.819411  1
  O  O34  1  0.449441  0.654966  0.872888  1
  O  O35  1  0.379328  0.348051  0.324212  1
  O  O36  1  0.483526  0.957274  0.725291  1
  O  O37  1  0.302604  0.890296  0.077618  1
  O  O38  1  0.413640  0.843534  0.386926  1
  O  O39  1  0.505734  0.441952  0.754856  1
  O  O40  1  0.492725  0.556579  0.232047  1
  O  O41  1  0.581910  0.169097  0.624735  1
  O  O42  1  0.692661  0.105159  0.929733  1
  O  O43  1  0.504316  0.049629  0.257652  1
  O  O44  1  0.616406  0.645735  0.648770  1
  O  O45  1  0.559665  0.338490  0.120236  1
  O  O46  1  0.606656  0.830437  0.193288  1
  O  O47  1  0.689789  0.402512  0.426667  1
  O  O48  1  0.806590  0.893772  0.571796  1
  O  O49  1  0.890273  0.328908  0.819411  1
  O  O50  1  0.949441  0.845034  0.872888  1
  O  O51  1  0.879328  0.151949  0.324212  1
  O  O52  1  0.983526  0.542726  0.725291  1
  O  O53  1  0.802604  0.609704  0.077618  1
  O  O54  1  0.913640  0.656466  0.386926  1
  O  O55  1  0.992725  0.943421  0.232047  1
