# generated using pymatgen
data_Li4Ti2Cu3Sb3O16
_symmetry_space_group_name_H-M   'P 1'
_cell_length_a   6.18225525
_cell_length_b   6.05609173
_cell_length_c   9.83768196
_cell_angle_alpha   90.00155277
_cell_angle_beta   86.79221213
_cell_angle_gamma   119.35305400
_symmetry_Int_Tables_number   1
_chemical_formula_structural   Li4Ti2Cu3Sb3O16
_chemical_formula_sum   'Li4 Ti2 Cu3 Sb3 O16'
_cell_volume   320.37661866
_cell_formula_units_Z   1
loop_
 _symmetry_equiv_pos_site_id
 _symmetry_equiv_pos_as_xyz
  1  'x, y, z'
loop_
 _atom_site_type_symbol
 _atom_site_label
 _atom_site_symmetry_multiplicity
 _atom_site_fract_x
 _atom_site_fract_y
 _atom_site_fract_z
 _atom_site_occupancy
  Li  Li0  1  0.351977  0.676047  0.905146  1
  Li  Li1  1  0.017302  0.008721  0.001357  1
  Li  Li2  1  0.036812  0.018375  0.478295  1
  Li  Li3  1  0.663262  0.331594  0.392482  1
  Ti  Ti4  1  0.276188  0.637939  0.465977  1
  Ti  Ti5  1  0.642477  0.321297  0.004864  1
  Cu  Cu6  1  0.157747  0.822437  0.207086  1
  Cu  Cu7  1  0.157766  0.335406  0.207068  1
  Cu  Cu8  1  0.341823  0.171008  0.711727  1
  Sb  Sb9  1  0.650865  0.825504  0.218339  1
  Sb  Sb10  1  0.834905  0.665188  0.716283  1
  Sb  Sb11  1  0.834831  0.169663  0.716318  1
  O  O12  1  0.142870  0.813258  0.590389  1
  O  O13  1  0.028918  0.514317  0.353478  1
  O  O14  1  0.338409  0.669591  0.115095  1
  O  O15  1  0.989371  0.994401  0.292553  1
  O  O16  1  0.003719  0.001828  0.812612  1
  O  O17  1  0.143095  0.329367  0.590489  1
  O  O18  1  0.499446  0.962301  0.358414  1
  O  O19  1  0.499760  0.537427  0.358557  1
  O  O20  1  0.338650  0.169360  0.082582  1
  O  O21  1  0.700110  0.850091  0.608028  1
  O  O22  1  0.547794  0.503153  0.848854  1
  O  O23  1  0.547400  0.044823  0.848709  1
  O  O24  1  0.679869  0.339944  0.607785  1
  O  O25  1  0.798264  0.653213  0.091843  1
  O  O26  1  0.978403  0.489123  0.831838  1
  O  O27  1  0.797965  0.144925  0.091670  1
