# generated using pymatgen
data_Li8Mn7Fe(BO3)8
_symmetry_space_group_name_H-M   'P 1'
_cell_length_a   5.24888021
_cell_length_b   9.11632246
_cell_length_c   10.51135540
_cell_angle_alpha   91.78196373
_cell_angle_beta   90.87013941
_cell_angle_gamma   89.85792455
_symmetry_Int_Tables_number   1
_chemical_formula_structural   Li8Mn7Fe(BO3)8
_chemical_formula_sum   'Li8 Mn7 Fe1 B8 O24'
_cell_volume   502.67122340
_cell_formula_units_Z   1
loop_
 _symmetry_equiv_pos_site_id
 _symmetry_equiv_pos_as_xyz
  1  'x, y, z'
loop_
 _atom_site_type_symbol
 _atom_site_label
 _atom_site_symmetry_multiplicity
 _atom_site_fract_x
 _atom_site_fract_y
 _atom_site_fract_z
 _atom_site_occupancy
  Li  Li0  1  0.853355  0.825412  0.667763  1
  Li  Li1  1  0.811749  0.839208  0.168011  1
  Li  Li2  1  0.678960  0.669084  0.417991  1
  Li  Li3  1  0.663058  0.673876  0.917848  1
  Li  Li4  1  0.352592  0.326516  0.667465  1
  Li  Li5  1  0.311509  0.339834  0.167808  1
  Li  Li6  1  0.179495  0.169249  0.417670  1
  Li  Li7  1  0.162331  0.174355  0.917847  1
  Mn  Mn8  1  0.823784  0.501388  0.131305  1
  Mn  Mn9  1  0.841017  0.161516  0.632709  1
  Mn  Mn10  1  0.668250  0.335932  0.383074  1
  Mn  Mn11  1  0.668607  0.001613  0.883277  1
  Mn  Mn12  1  0.340568  0.660575  0.635347  1
  Mn  Mn13  1  0.321410  0.001155  0.133480  1
  Mn  Mn14  1  0.168546  0.835000  0.383583  1
  Fe  Fe15  1  0.176268  0.500311  0.882779  1
  B  B16  1  0.826412  0.170689  0.125689  1
  B  B17  1  0.842466  0.498424  0.626719  1
  B  B18  1  0.663172  0.002346  0.375732  1
  B  B19  1  0.673701  0.335387  0.875575  1
  B  B20  1  0.327186  0.670315  0.124666  1
  B  B21  1  0.343059  0.998426  0.626104  1
  B  B22  1  0.162953  0.502391  0.375761  1
  B  B23  1  0.169562  0.831805  0.876421  1
  O  O24  1  0.903506  0.518580  0.344961  1
  O  O25  1  0.908337  0.820790  0.861352  1
  O  O26  1  0.822049  0.211128  0.845536  1
  O  O27  1  0.806016  0.124095  0.417679  1
  O  O28  1  0.776108  0.865490  0.361336  1
  O  O29  1  0.789899  0.466463  0.915272  1
  O  O30  1  0.733823  0.635817  0.611705  1
  O  O31  1  0.711023  0.034895  0.095775  1
  O  O32  1  0.696378  0.372944  0.596052  1
  O  O33  1  0.677701  0.289998  0.166355  1
  O  O34  1  0.587784  0.684926  0.110999  1
  O  O35  1  0.595863  0.983595  0.666836  1
  O  O36  1  0.403417  0.018494  0.345231  1
  O  O37  1  0.409659  0.325490  0.863285  1
  O  O38  1  0.321249  0.708424  0.847174  1
  O  O39  1  0.306125  0.623786  0.417862  1
  O  O40  1  0.275765  0.365354  0.361295  1
  O  O41  1  0.282334  0.964208  0.917078  1
  O  O42  1  0.212064  0.534886  0.093587  1
  O  O43  1  0.234627  0.136123  0.612056  1
  O  O44  1  0.197285  0.872819  0.596077  1
  O  O45  1  0.177772  0.789145  0.166387  1
  O  O46  1  0.087075  0.184895  0.111162  1
  O  O47  1  0.094724  0.483444  0.667923  1
