# generated using pymatgen
data_H2Ru3C8SO8
_symmetry_space_group_name_H-M   'P 1'
_cell_length_a   11.52850984
_cell_length_b   12.81557357
_cell_length_c   19.19174702
_cell_angle_alpha   77.58035884
_cell_angle_beta   72.40734897
_cell_angle_gamma   63.76322689
_symmetry_Int_Tables_number   1
_chemical_formula_structural   H2Ru3C8SO8
_chemical_formula_sum   'H12 Ru18 C48 S6 O48'
_cell_volume   2413.36949855
_cell_formula_units_Z   6
loop_
 _symmetry_equiv_pos_site_id
 _symmetry_equiv_pos_as_xyz
  1  'x, y, z'
loop_
 _atom_site_type_symbol
 _atom_site_label
 _atom_site_symmetry_multiplicity
 _atom_site_fract_x
 _atom_site_fract_y
 _atom_site_fract_z
 _atom_site_occupancy
  H  H0  1  0.963633  0.185710  0.639620  1
  H  H1  1  0.036367  0.814290  0.360380  1
  H  H2  1  0.435534  0.525600  0.809011  1
  H  H3  1  0.564466  0.474400  0.190989  1
  H  H4  1  0.360070  0.155788  0.760261  1
  H  H5  1  0.639930  0.844212  0.239739  1
  H  H6  1  0.769281  0.226006  0.587495  1
  H  H7  1  0.230719  0.773994  0.412505  1
  H  H8  1  0.513742  0.955161  0.809673  1
  H  H9  1  0.486258  0.044839  0.190327  1
  H  H10  1  0.460136  0.443317  0.923489  1
  H  H11  1  0.539864  0.556683  0.076511  1
  Ru  Ru12  1  0.478735  0.098772  0.817321  1
  Ru  Ru13  1  0.521265  0.901228  0.182679  1
  Ru  Ru14  1  0.628034  0.914003  0.717549  1
  Ru  Ru15  1  0.371966  0.085997  0.282451  1
  Ru  Ru16  1  0.447743  0.126035  0.665288  1
  Ru  Ru17  1  0.552257  0.873965  0.334712  1
  Ru  Ru18  1  0.825509  0.151094  0.671761  1
  Ru  Ru19  1  0.174491  0.848906  0.328239  1
  Ru  Ru20  1  0.915455  0.334739  0.667175  1
  Ru  Ru21  1  0.084545  0.665261  0.332825  1
  Ru  Ru22  1  0.722265  0.381284  0.591404  1
  Ru  Ru23  1  0.277735  0.618716  0.408596  1
  Ru  Ru24  1  0.325000  0.390874  0.951016  1
  Ru  Ru25  1  0.675000  0.609126  0.048984  1
  Ru  Ru26  1  0.288685  0.500776  0.812602  1
  Ru  Ru27  1  0.711314  0.499224  0.187398  1
  Ru  Ru28  1  0.557999  0.390954  0.840762  1
  Ru  Ru29  1  0.442001  0.609046  0.159238  1
  C  C30  1  0.326801  0.086894  0.887414  1
  C  C31  1  0.673199  0.913106  0.112586  1
  C  C32  1  0.583913  0.036902  0.887358  1
  C  C33  1  0.416087  0.963098  0.112642  1
  C  C34  1  0.768503  0.811496  0.765305  1
  C  C35  1  0.231497  0.188504  0.234695  1
  C  C36  1  0.533185  0.816970  0.731950  1
  C  C37  1  0.466815  0.183030  0.268050  1
  C  C38  1  0.728089  0.870008  0.622187  1
  C  C39  1  0.271911  0.129992  0.377813  1
  C  C40  1  0.523115  0.109667  0.562941  1
  C  C41  1  0.476885  0.890333  0.437059  1
  C  C42  1  0.329436  0.056290  0.670330  1
  C  C43  1  0.670564  0.943710  0.329670  1
  C  C44  1  0.329109  0.286816  0.654199  1
  C  C45  1  0.670891  0.713184  0.345801  1
  C  C46  1  0.888395  0.055978  0.753842  1
  C  C47  1  0.111605  0.944022  0.246158  1
  C  C48  1  0.941943  0.025131  0.614097  1
  C  C49  1  0.058057  0.974869  0.385903  1
  C  C50  1  0.062229  0.325914  0.585120  1
  C  C51  1  0.937771  0.674086  0.414880  1
  C  C52  1  0.003786  0.274368  0.746696  1
  C  C53  1  0.996214  0.725632  0.253304  1
  C  C54  1  0.877805  0.492467  0.673441  1
  C  C55  1  0.122195  0.507533  0.326559  1
  C  C56  1  0.843508  0.373642  0.497779  1
  C  C57  1  0.156492  0.626358  0.502221  1
  C  C58  1  0.580651  0.383267  0.558320  1
  C  C59  1  0.419349  0.616733  0.441680  1
  C  C60  1  0.658529  0.546623  0.590035  1
  C  C61  1  0.341471  0.453377  0.409965  1
  C  C62  1  0.413698  0.278632  0.021904  1
  C  C63  1  0.586302  0.721368  0.978096  1
  C  C64  1  0.168192  0.362780  0.984300  1
  C  C65  1  0.831808  0.637220  0.015700  1
  C  C66  1  0.245425  0.530091  0.000126  1
  C  C67  1  0.754575  0.469909  0.999874  1
  C  C68  1  0.122200  0.492212  0.824787  1
  C  C69  1  0.877800  0.507788  0.175213  1
  C  C70  1  0.315212  0.548256  0.709115  1
  C  C71  1  0.684788  0.451744  0.290885  1
  C  C72  1  0.208229  0.655343  0.841347  1
  C  C73  1  0.791771  0.344657  0.158653  1
  C  C74  1  0.686647  0.265948  0.885965  1
  C  C75  1  0.313353  0.734052  0.114035  1
  C  C76  1  0.630129  0.497502  0.841924  1
  C  C77  1  0.369871  0.502498  0.158076  1
  S  S78  1  0.638943  0.095413  0.704452  1
  S  S79  1  0.361057  0.904587  0.295548  1
  S  S80  1  0.701774  0.336237  0.720164  1
  S  S81  1  0.298226  0.663763  0.279836  1
  S  S82  1  0.417470  0.299098  0.842045  1
  S  S83  1  0.582530  0.700902  0.157955  1
  O  O84  1  0.234058  0.077953  0.928215  1
  O  O85  1  0.765942  0.922047  0.071785  1
  O  O86  1  0.646927  0.994619  0.930875  1
  O  O87  1  0.353073  0.005381  0.069125  1
  O  O88  1  0.853006  0.751915  0.794727  1
  O  O89  1  0.146994  0.248085  0.205273  1
  O  O90  1  0.475105  0.758696  0.742595  1
  O  O91  1  0.524895  0.241304  0.257405  1
  O  O92  1  0.789657  0.846675  0.563251  1
  O  O93  1  0.210343  0.153325  0.436749  1
  O  O94  1  0.568821  0.100854  0.500800  1
  O  O95  1  0.431179  0.899146  0.499200  1
  O  O96  1  0.256981  0.014289  0.673526  1
  O  O97  1  0.743019  0.985711  0.326474  1
  O  O98  1  0.246432  0.380820  0.653040  1
  O  O99  1  0.753568  0.619180  0.346960  1
  O  O100  1  0.929861  0.995320  0.802740  1
  O  O101  1  0.070139  0.004680  0.197260  1
  O  O102  1  0.016182  0.945828  0.581258  1
  O  O103  1  0.983818  0.054172  0.418742  1
  O  O104  1  0.149417  0.322500  0.534535  1
  O  O105  1  0.850583  0.677500  0.465465  1
  O  O106  1  0.055292  0.239033  0.795235  1
  O  O107  1  0.944708  0.760967  0.204765  1
  O  O108  1  0.853350  0.589697  0.676609  1
  O  O109  1  0.146650  0.410303  0.323391  1
  O  O110  1  0.915399  0.369845  0.440299  1
  O  O111  1  0.084601  0.630155  0.559701  1
  O  O112  1  0.505118  0.376346  0.533009  1
  O  O113  1  0.494882  0.623654  0.466991  1
  O  O114  1  0.614633  0.647038  0.590661  1
  O  O115  1  0.385367  0.352962  0.409339  1
  O  O116  1  0.469061  0.211008  0.064278  1
  O  O117  1  0.530939  0.788992  0.935722  1
  O  O118  1  0.071361  0.346877  0.005755  1
  O  O119  1  0.928639  0.653123  0.994245  1
  O  O120  1  0.201505  0.614523  0.029067  1
  O  O121  1  0.798495  0.385477  0.970933  1
  O  O122  1  0.020997  0.486490  0.833600  1
  O  O123  1  0.979003  0.513510  0.166400  1
  O  O124  1  0.324484  0.587417  0.648328  1
  O  O125  1  0.675516  0.412583  0.351672  1
  O  O126  1  0.164060  0.749208  0.858391  1
  O  O127  1  0.835940  0.250792  0.141609  1
  O  O128  1  0.764847  0.189841  0.913771  1
  O  O129  1  0.235153  0.810159  0.086229  1
  O  O130  1  0.675967  0.562710  0.840003  1
  O  O131  1  0.324033  0.437290  0.159997  1
