# generated using pymatgen
data_KHfPCO7
_symmetry_space_group_name_H-M   'P 1'
_cell_length_a   9.97619301
_cell_length_b   6.64734383
_cell_length_c   5.78318305
_cell_angle_alpha   90.00000000
_cell_angle_beta   89.07536290
_cell_angle_gamma   90.00000000
_symmetry_Int_Tables_number   1
_chemical_formula_structural   KHfPCO7
_chemical_formula_sum   'K2 Hf2 P2 C2 O14'
_cell_volume   383.46291546
_cell_formula_units_Z   2
loop_
 _symmetry_equiv_pos_site_id
 _symmetry_equiv_pos_as_xyz
  1  'x, y, z'
loop_
 _atom_site_type_symbol
 _atom_site_label
 _atom_site_symmetry_multiplicity
 _atom_site_fract_x
 _atom_site_fract_y
 _atom_site_fract_z
 _atom_site_occupancy
  K  K0  1  0.217867  0.449512  0.252498  1
  K  K1  1  0.782133  0.949512  0.747503  1
  Hf  Hf2  1  0.346580  0.774986  0.777573  1
  Hf  Hf3  1  0.653420  0.274986  0.222427  1
  P  P4  1  0.448764  0.269190  0.729472  1
  P  P5  1  0.551236  0.769190  0.270528  1
  C  C6  1  0.094976  0.731784  0.721347  1
  C  C7  1  0.905024  0.231784  0.278653  1
  O  O8  1  0.025943  0.205175  0.306266  1
  O  O9  1  0.155679  0.742759  0.927571  1
  O  O10  1  0.186517  0.752140  0.548956  1
  O  O11  1  0.359085  0.082514  0.769577  1
  O  O12  1  0.362079  0.457812  0.770945  1
  O  O13  1  0.433403  0.762944  0.099163  1
  O  O14  1  0.506306  0.269034  0.479036  1
  O  O15  1  0.493694  0.769034  0.520965  1
  O  O16  1  0.566597  0.262944  0.900837  1
  O  O17  1  0.637921  0.957812  0.229055  1
  O  O18  1  0.640915  0.582514  0.230423  1
  O  O19  1  0.813483  0.252140  0.451044  1
  O  O20  1  0.844321  0.242759  0.072429  1
  O  O21  1  0.974057  0.705175  0.693734  1
