# generated using pymatgen
data_Ni3OF5
_symmetry_space_group_name_H-M   'P 1'
_cell_length_a   7.27886026
_cell_length_b   5.62444592
_cell_length_c   5.62444592
_cell_angle_alpha   73.00420166
_cell_angle_beta   72.76545960
_cell_angle_gamma   72.76545960
_symmetry_Int_Tables_number   1
_chemical_formula_structural   Ni3OF5
_chemical_formula_sum   'Ni6 O2 F10'
_cell_volume   204.70182763
_cell_formula_units_Z   2
loop_
 _symmetry_equiv_pos_site_id
 _symmetry_equiv_pos_as_xyz
  1  'x, y, z'
loop_
 _atom_site_type_symbol
 _atom_site_label
 _atom_site_symmetry_multiplicity
 _atom_site_fract_x
 _atom_site_fract_y
 _atom_site_fract_z
 _atom_site_occupancy
  Ni  Ni0  1  0.833333  0.666667  0.666667  1
  Ni  Ni1  1  0.333333  0.666667  0.666667  1
  Ni  Ni2  1  0.670679  0.326019  0.326019  1
  Ni  Ni3  1  0.161204  0.329600  0.329600  1
  Ni  Ni4  1  0.505463  0.003733  0.003733  1
  Ni  Ni5  1  0.995987  0.007314  0.007314  1
  O  O6  1  0.963890  0.233313  0.233313  1
  O  O7  1  0.702776  0.100021  0.100021  1
  F  F8  1  0.666231  0.027267  0.636049  1
  F  F9  1  0.333333  0.364854  0.968479  1
  F  F10  1  0.298809  0.901681  0.901681  1
  F  F11  1  0.631503  0.561858  0.561858  1
  F  F12  1  0.035164  0.771476  0.771476  1
  F  F13  1  0.367857  0.431653  0.431653  1
  F  F14  1  0.000436  0.306066  0.697284  1
  F  F15  1  0.333333  0.968479  0.364854  1
  F  F16  1  0.666231  0.636049  0.027267  1
  F  F17  1  0.000436  0.697284  0.306066  1
