# generated using pymatgen
data_Na3MnBAsO7
_symmetry_space_group_name_H-M   'P 1'
_cell_length_a   8.96256295
_cell_length_b   7.24007715
_cell_length_c   5.26170277
_cell_angle_alpha   90.00000000
_cell_angle_beta   88.23122519
_cell_angle_gamma   90.00000000
_symmetry_Int_Tables_number   1
_chemical_formula_structural   Na3MnBAsO7
_chemical_formula_sum   'Na6 Mn2 B2 As2 O14'
_cell_volume   341.26735539
_cell_formula_units_Z   2
loop_
 _symmetry_equiv_pos_site_id
 _symmetry_equiv_pos_as_xyz
  1  'x, y, z'
loop_
 _atom_site_type_symbol
 _atom_site_label
 _atom_site_symmetry_multiplicity
 _atom_site_fract_x
 _atom_site_fract_y
 _atom_site_fract_z
 _atom_site_occupancy
  Na  Na0  1  0.076447  0.250000  0.761845  1
  Na  Na1  1  0.251083  0.003710  0.254048  1
  Na  Na2  1  0.251083  0.496290  0.254048  1
  Na  Na3  1  0.748917  0.503710  0.745952  1
  Na  Na4  1  0.748917  0.996290  0.745952  1
  Na  Na5  1  0.923553  0.750000  0.238155  1
  Mn  Mn6  1  0.330866  0.750000  0.785713  1
  Mn  Mn7  1  0.669134  0.250000  0.214287  1
  B  B8  1  0.064585  0.750000  0.728411  1
  B  B9  1  0.935415  0.250000  0.271589  1
  As  As10  1  0.418206  0.250000  0.713784  1
  As  As11  1  0.581794  0.750000  0.286216  1
  O  O12  1  0.083820  0.250000  0.301321  1
  O  O13  1  0.133946  0.750000  0.964540  1
  O  O14  1  0.173247  0.750000  0.529727  1
  O  O15  1  0.308020  0.061932  0.778926  1
  O  O16  1  0.308020  0.438068  0.778926  1
  O  O17  1  0.468287  0.250000  0.391349  1
  O  O18  1  0.415444  0.750000  0.130969  1
  O  O19  1  0.584556  0.250000  0.869031  1
  O  O20  1  0.531713  0.750000  0.608651  1
  O  O21  1  0.691980  0.561932  0.221074  1
  O  O22  1  0.691980  0.938068  0.221074  1
  O  O23  1  0.826753  0.250000  0.470273  1
  O  O24  1  0.866054  0.250000  0.035460  1
  O  O25  1  0.916180  0.750000  0.698679  1
