# generated using pymatgen
data_MnP2H36C12N6(ClO)2
_symmetry_space_group_name_H-M   'P 1'
_cell_length_a   12.66337768
_cell_length_b   12.66337768
_cell_length_c   16.07455269
_cell_angle_alpha   54.87215400
_cell_angle_beta   125.12784600
_cell_angle_gamma   141.51448533
_symmetry_Int_Tables_number   1
_chemical_formula_structural   MnP2H36C12N6(ClO)2
_chemical_formula_sum   'Mn2 P4 H72 C24 N12 Cl4 O4'
_cell_volume   1271.81963852
_cell_formula_units_Z   2
loop_
 _symmetry_equiv_pos_site_id
 _symmetry_equiv_pos_as_xyz
  1  'x, y, z'
loop_
 _atom_site_type_symbol
 _atom_site_label
 _atom_site_symmetry_multiplicity
 _atom_site_fract_x
 _atom_site_fract_y
 _atom_site_fract_z
 _atom_site_occupancy
  Mn  Mn0  1  0.300557  0.300557  0.750000  1
  Mn  Mn1  1  0.699443  0.699443  0.250000  1
  P  P2  1  0.663916  0.462926  0.955848  1
  P  P3  1  0.462926  0.663916  0.544152  1
  P  P4  1  0.336084  0.537074  0.044152  1
  P  P5  1  0.537074  0.336084  0.455848  1
  H  H6  1  0.787865  0.849858  0.916887  1
  H  H7  1  0.849858  0.787865  0.583113  1
  H  H8  1  0.212135  0.150142  0.083113  1
  H  H9  1  0.150142  0.212135  0.416887  1
  H  H10  1  0.584818  0.628358  0.932835  1
  H  H11  1  0.628358  0.584818  0.567165  1
  H  H12  1  0.415182  0.371642  0.067165  1
  H  H13  1  0.371642  0.415182  0.432835  1
  H  H14  1  0.757056  0.710963  0.045751  1
  H  H15  1  0.710963  0.757056  0.454249  1
  H  H16  1  0.242944  0.289037  0.954249  1
  H  H17  1  0.289037  0.242944  0.545751  1
  H  H18  1  0.039306  0.787544  0.075440  1
  H  H19  1  0.787544  0.039306  0.424560  1
  H  H20  1  0.960694  0.212456  0.924560  1
  H  H21  1  0.212456  0.960694  0.575440  1
  H  H22  1  0.033826  0.756974  0.976523  1
  H  H23  1  0.756974  0.033826  0.523477  1
  H  H24  1  0.966174  0.243026  0.023477  1
  H  H25  1  0.243026  0.966174  0.476523  1
  H  H26  1  0.037885  0.919843  0.944458  1
  H  H27  1  0.919843  0.037885  0.555542  1
  H  H28  1  0.962115  0.080157  0.055542  1
  H  H29  1  0.080157  0.962115  0.444458  1
  H  H30  1  0.701764  0.501916  0.759794  1
  H  H31  1  0.501916  0.701764  0.740206  1
  H  H32  1  0.298236  0.498084  0.240206  1
  H  H33  1  0.498084  0.298236  0.259794  1
  H  H34  1  0.828718  0.692599  0.795294  1
  H  H35  1  0.692599  0.828718  0.704706  1
  H  H36  1  0.171282  0.307401  0.204706  1
  H  H37  1  0.307401  0.171282  0.295294  1
  H  H38  1  0.932150  0.630378  0.820123  1
  H  H39  1  0.630378  0.932150  0.679877  1
  H  H40  1  0.067850  0.369622  0.179877  1
  H  H41  1  0.369622  0.067850  0.320123  1
  H  H42  1  0.859933  0.361946  0.952302  1
  H  H43  1  0.361946  0.859933  0.547698  1
  H  H44  1  0.140067  0.638054  0.047698  1
  H  H45  1  0.638054  0.140067  0.452302  1
  H  H46  1  0.739048  0.251584  0.039785  1
  H  H47  1  0.251584  0.739048  0.460215  1
  H  H48  1  0.260952  0.748416  0.960215  1
  H  H49  1  0.748416  0.260952  0.539785  1
  H  H50  1  0.626807  0.224953  0.908559  1
  H  H51  1  0.224953  0.626807  0.591441  1
  H  H52  1  0.373193  0.775047  0.091441  1
  H  H53  1  0.775047  0.373193  0.408559  1
  H  H54  1  0.818605  0.311389  0.193609  1
  H  H55  1  0.311389  0.818605  0.306391  1
  H  H56  1  0.181395  0.688611  0.806391  1
  H  H57  1  0.688611  0.181395  0.693609  1
  H  H58  1  0.871628  0.509437  0.157772  1
  H  H59  1  0.509437  0.871628  0.342228  1
  H  H60  1  0.128372  0.490563  0.842228  1
  H  H61  1  0.490563  0.128372  0.657772  1
  H  H62  1  0.713525  0.314552  0.231614  1
  H  H63  1  0.314552  0.713525  0.268386  1
  H  H64  1  0.286475  0.685448  0.768386  1
  H  H65  1  0.685448  0.286475  0.731614  1
  H  H66  1  0.412142  0.089227  0.140591  1
  H  H67  1  0.089227  0.412142  0.359409  1
  H  H68  1  0.587858  0.910773  0.859409  1
  H  H69  1  0.910773  0.587858  0.640591  1
  H  H70  1  0.372561  0.112922  0.007311  1
  H  H71  1  0.112922  0.372561  0.492689  1
  H  H72  1  0.627439  0.887078  0.992689  1
  H  H73  1  0.887078  0.627439  0.507311  1
  H  H74  1  0.501954  0.059686  0.109881  1
  H  H75  1  0.059686  0.501954  0.390119  1
  H  H76  1  0.498046  0.940314  0.890119  1
  H  H77  1  0.940314  0.498046  0.609881  1
  C  C78  1  0.726866  0.714970  0.965047  1
  C  C79  1  0.714970  0.726866  0.534953  1
  C  C80  1  0.273134  0.285030  0.034953  1
  C  C81  1  0.285030  0.273134  0.465047  1
  C  C82  1  0.986906  0.787392  0.991813  1
  C  C83  1  0.787392  0.986906  0.508187  1
  C  C84  1  0.013094  0.212608  0.008187  1
  C  C85  1  0.212608  0.013094  0.491813  1
  C  C86  1  0.810784  0.579866  0.818796  1
  C  C87  1  0.579866  0.810784  0.681204  1
  C  C88  1  0.189216  0.420134  0.181204  1
  C  C89  1  0.420134  0.189216  0.318796  1
  C  C90  1  0.747346  0.318930  0.957760  1
  C  C91  1  0.318930  0.747346  0.542240  1
  C  C92  1  0.252654  0.681070  0.042240  1
  C  C93  1  0.681070  0.252654  0.457760  1
  C  C94  1  0.765000  0.367051  0.168205  1
  C  C95  1  0.367051  0.765000  0.331795  1
  C  C96  1  0.235000  0.632949  0.831795  1
  C  C97  1  0.632949  0.235000  0.668205  1
  C  C98  1  0.469843  0.136171  0.082805  1
  C  C99  1  0.136171  0.469843  0.417195  1
  C  C100  1  0.530157  0.863829  0.917195  1
  C  C101  1  0.863829  0.530157  0.582805  1
  N  N102  1  0.795919  0.664138  0.961752  1
  N  N103  1  0.664138  0.795919  0.538248  1
  N  N104  1  0.204081  0.335862  0.038248  1
  N  N105  1  0.335862  0.204081  0.461752  1
  N  N106  1  0.776283  0.473809  0.923529  1
  N  N107  1  0.473809  0.776283  0.576471  1
  N  N108  1  0.223717  0.526191  0.076471  1
  N  N109  1  0.526191  0.223717  0.423529  1
  N  N110  1  0.625628  0.323269  0.072215  1
  N  N111  1  0.323269  0.625628  0.427785  1
  N  N112  1  0.374372  0.676731  0.927785  1
  N  N113  1  0.676731  0.374372  0.572215  1
  Cl  Cl114  1  0.065241  0.254271  0.728135  1
  Cl  Cl115  1  0.254271  0.065241  0.771865  1
  Cl  Cl116  1  0.934759  0.745729  0.271865  1
  Cl  Cl117  1  0.745729  0.934759  0.228135  1
  O  O118  1  0.489304  0.404182  0.879988  1
  O  O119  1  0.404182  0.489304  0.620012  1
  O  O120  1  0.510696  0.595818  0.120012  1
  O  O121  1  0.595818  0.510696  0.379988  1
