# generated using pymatgen
data_Ag2O
_symmetry_space_group_name_H-M   'P 1'
_cell_length_a   6.43030885
_cell_length_b   6.78034286
_cell_length_c   6.78034294
_cell_angle_alpha   95.48880873
_cell_angle_beta   61.69353539
_cell_angle_gamma   61.69353447
_symmetry_Int_Tables_number   1
_chemical_formula_structural   Ag2O
_chemical_formula_sum   'Ag8 O4'
_cell_volume   208.64387051
_cell_formula_units_Z   4
loop_
 _symmetry_equiv_pos_site_id
 _symmetry_equiv_pos_as_xyz
  1  'x, y, z'
loop_
 _atom_site_type_symbol
 _atom_site_label
 _atom_site_symmetry_multiplicity
 _atom_site_fract_x
 _atom_site_fract_y
 _atom_site_fract_z
 _atom_site_occupancy
  Ag  Ag0  1  0.000000  0.500000  0.000000  1
  Ag  Ag1  1  0.500000  0.500000  0.000000  1
  Ag  Ag2  1  0.000000  0.000000  0.000000  1
  Ag  Ag3  1  0.250000  0.500000  0.500000  1
  Ag  Ag4  1  0.500000  0.000000  0.000000  1
  Ag  Ag5  1  0.000000  0.000000  0.500000  1
  Ag  Ag6  1  0.750000  0.500000  0.500000  1
  Ag  Ag7  1  0.500000  0.000000  0.500000  1
  O  O8  1  0.221704  0.390404  0.166189  1
  O  O9  1  0.278296  0.833812  0.609596  1
  O  O10  1  0.721704  0.166189  0.390404  1
  O  O11  1  0.778296  0.609596  0.833812  1
