# generated using pymatgen
data_LiMn2(BO3)2
_symmetry_space_group_name_H-M   'P 1'
_cell_length_a   5.38864110
_cell_length_b   9.02127912
_cell_length_c   10.24820573
_cell_angle_alpha   89.15554302
_cell_angle_beta   92.46575057
_cell_angle_gamma   90.15481530
_symmetry_Int_Tables_number   1
_chemical_formula_structural   LiMn2(BO3)2
_chemical_formula_sum   'Li4 Mn8 B8 O24'
_cell_volume   497.67384916
_cell_formula_units_Z   4
loop_
 _symmetry_equiv_pos_site_id
 _symmetry_equiv_pos_as_xyz
  1  'x, y, z'
loop_
 _atom_site_type_symbol
 _atom_site_label
 _atom_site_symmetry_multiplicity
 _atom_site_fract_x
 _atom_site_fract_y
 _atom_site_fract_z
 _atom_site_occupancy
  Li  Li0  1  0.133902  0.007026  0.076364  1
  Li  Li1  1  0.601226  0.485986  0.676417  1
  Li  Li2  1  0.655476  0.507048  0.171500  1
  Li  Li3  1  0.859191  0.980982  0.409796  1
  Mn  Mn4  1  0.131328  0.699156  0.632008  1
  Mn  Mn5  1  0.171614  0.350243  0.131976  1
  Mn  Mn6  1  0.360148  0.190392  0.875942  1
  Mn  Mn7  1  0.337785  0.843965  0.376801  1
  Mn  Mn8  1  0.667091  0.137939  0.631768  1
  Mn  Mn9  1  0.646500  0.828129  0.123575  1
  Mn  Mn10  1  0.843417  0.650203  0.883885  1
  Mn  Mn11  1  0.860122  0.318879  0.381636  1
  B  B12  1  0.161943  0.343340  0.630870  1
  B  B13  1  0.173555  0.681179  0.128306  1
  B  B14  1  0.330357  0.840307  0.882763  1
  B  B15  1  0.330219  0.177103  0.380103  1
  B  B16  1  0.668515  0.810603  0.621079  1
  B  B17  1  0.675570  0.170116  0.131838  1
  B  B18  1  0.831301  0.306012  0.874200  1
  B  B19  1  0.835182  0.673324  0.371181  1
  O  O20  1  0.068511  0.296720  0.931905  1
  O  O21  1  0.050828  0.710178  0.442276  1
  O  O22  1  0.197825  0.725172  0.819912  1
  O  O23  1  0.234682  0.975358  0.898419  1
  O  O24  1  0.189757  0.052045  0.381322  1
  O  O25  1  0.223183  0.312491  0.342371  1
  O  O26  1  0.254835  0.480974  0.634576  1
  O  O27  1  0.297723  0.222091  0.686075  1
  O  O28  1  0.274269  0.820368  0.162185  1
  O  O29  1  0.318722  0.559548  0.126947  1
  O  O30  1  0.419861  0.811727  0.583477  1
  O  O31  1  0.436509  0.190702  0.075481  1
  O  O32  1  0.566037  0.800054  0.938447  1
  O  O33  1  0.585499  0.171321  0.417628  1
  O  O34  1  0.713126  0.437719  0.857247  1
  O  O35  1  0.711067  0.173655  0.837232  1
  O  O36  1  0.707069  0.801175  0.316254  1
  O  O37  1  0.773793  0.678429  0.671542  1
  O  O38  1  0.750469  0.535778  0.351989  1
  O  O39  1  0.810427  0.932024  0.598996  1
  O  O40  1  0.789744  0.298864  0.187168  1
  O  O41  1  0.794854  0.038365  0.133702  1
  O  O42  1  0.922704  0.310479  0.572819  1
  O  O43  1  0.917918  0.673220  0.092929  1
