# generated using pymatgen
data_H8C2SeS2(N2Cl)2
_symmetry_space_group_name_H-M   'P 1'
_cell_length_a   8.59996206
_cell_length_b   16.75984067
_cell_length_c   8.66881621
_cell_angle_alpha   90.00000000
_cell_angle_beta   123.27683236
_cell_angle_gamma   90.00000000
_symmetry_Int_Tables_number   1
_chemical_formula_structural   H8C2SeS2(N2Cl)2
_chemical_formula_sum   'H32 C8 Se4 S8 N16 Cl8'
_cell_volume   1044.59444074
_cell_formula_units_Z   4
loop_
 _symmetry_equiv_pos_site_id
 _symmetry_equiv_pos_as_xyz
  1  'x, y, z'
loop_
 _atom_site_type_symbol
 _atom_site_label
 _atom_site_symmetry_multiplicity
 _atom_site_fract_x
 _atom_site_fract_y
 _atom_site_fract_z
 _atom_site_occupancy
  H  H0  1  0.230405  0.614112  0.697054  1
  H  H1  1  0.769595  0.114112  0.802946  1
  H  H2  1  0.769595  0.385888  0.302946  1
  H  H3  1  0.230405  0.885888  0.197054  1
  H  H4  1  0.266643  0.516827  0.779866  1
  H  H5  1  0.733357  0.016827  0.720134  1
  H  H6  1  0.733357  0.483173  0.220134  1
  H  H7  1  0.266643  0.983173  0.279866  1
  H  H8  1  0.217460  0.639867  0.410537  1
  H  H9  1  0.782540  0.139867  0.089463  1
  H  H10  1  0.782540  0.360133  0.589463  1
  H  H11  1  0.217460  0.860133  0.910537  1
  H  H12  1  0.247135  0.558343  0.302037  1
  H  H13  1  0.752865  0.058343  0.197963  1
  H  H14  1  0.752865  0.441657  0.697963  1
  H  H15  1  0.247135  0.941657  0.802037  1
  H  H16  1  0.039829  0.103775  0.553337  1
  H  H17  1  0.960171  0.603775  0.946663  1
  H  H18  1  0.960171  0.896225  0.446663  1
  H  H19  1  0.039829  0.396225  0.053337  1
  H  H20  1  0.911985  0.182011  0.570718  1
  H  H21  1  0.088015  0.682011  0.929282  1
  H  H22  1  0.088015  0.817989  0.429282  1
  H  H23  1  0.911985  0.317989  0.070718  1
  H  H24  1  0.346523  0.126367  0.644756  1
  H  H25  1  0.653477  0.626367  0.855244  1
  H  H26  1  0.653477  0.873633  0.355244  1
  H  H27  1  0.346523  0.373633  0.144756  1
  H  H28  1  0.451263  0.221354  0.730629  1
  H  H29  1  0.548737  0.721354  0.769371  1
  H  H30  1  0.548737  0.778646  0.269371  1
  H  H31  1  0.451263  0.278646  0.230629  1
  C  C32  1  0.257171  0.530560  0.538238  1
  C  C33  1  0.742829  0.030560  0.961762  1
  C  C34  1  0.742829  0.469440  0.461762  1
  C  C35  1  0.257171  0.969440  0.038238  1
  C  C36  1  0.179621  0.209320  0.651544  1
  C  C37  1  0.820379  0.709320  0.848456  1
  C  C38  1  0.820379  0.790680  0.348456  1
  C  C39  1  0.179621  0.290680  0.151544  1
  Se  Se40  1  0.410375  0.372456  0.782618  1
  Se  Se41  1  0.589625  0.872456  0.717382  1
  Se  Se42  1  0.589625  0.627544  0.217382  1
  Se  Se43  1  0.410375  0.127544  0.282618  1
  S  S44  1  0.304571  0.431134  0.511484  1
  S  S45  1  0.695429  0.931134  0.988516  1
  S  S46  1  0.695429  0.568866  0.488516  1
  S  S47  1  0.304571  0.068866  0.011484  1
  S  S48  1  0.151785  0.306339  0.710038  1
  S  S49  1  0.848215  0.806339  0.789962  1
  S  S50  1  0.848215  0.693661  0.289962  1
  S  S51  1  0.151785  0.193661  0.210038  1
  N  N52  1  0.245801  0.554520  0.677112  1
  N  N53  1  0.754199  0.054520  0.822888  1
  N  N54  1  0.754199  0.445480  0.322888  1
  N  N55  1  0.245801  0.945480  0.177112  1
  N  N56  1  0.234137  0.579177  0.406526  1
  N  N57  1  0.765863  0.079177  0.093474  1
  N  N58  1  0.765863  0.420823  0.593474  1
  N  N59  1  0.234137  0.920823  0.906526  1
  N  N60  1  0.031376  0.162558  0.581893  1
  N  N61  1  0.968624  0.662558  0.918107  1
  N  N62  1  0.968624  0.837442  0.418107  1
  N  N63  1  0.031376  0.337442  0.081893  1
  N  N64  1  0.338933  0.184315  0.680204  1
  N  N65  1  0.661067  0.684315  0.819796  1
  N  N66  1  0.661067  0.815685  0.319796  1
  N  N67  1  0.338933  0.315685  0.180204  1
  Cl  Cl68  1  0.745058  0.496696  0.936886  1
  Cl  Cl69  1  0.254942  0.996696  0.563114  1
  Cl  Cl70  1  0.254942  0.503304  0.063114  1
  Cl  Cl71  1  0.745058  0.003304  0.436886  1
  Cl  Cl72  1  0.708350  0.269184  0.148504  1
  Cl  Cl73  1  0.291650  0.769184  0.351496  1
  Cl  Cl74  1  0.291650  0.730816  0.851496  1
  Cl  Cl75  1  0.708350  0.230816  0.648504  1
