# generated using pymatgen
data_Fe3Co2Cu(PO4)6
_symmetry_space_group_name_H-M   'P 1'
_cell_length_a   8.38893795
_cell_length_b   8.63731716
_cell_length_c   8.63731642
_cell_angle_alpha   59.99999694
_cell_angle_beta   59.01565214
_cell_angle_gamma   59.01564628
_symmetry_Int_Tables_number   1
_chemical_formula_structural   Fe3Co2Cu(PO4)6
_chemical_formula_sum   'Fe3 Co2 Cu1 P6 O24'
_cell_volume   435.83810608
_cell_formula_units_Z   1
loop_
 _symmetry_equiv_pos_site_id
 _symmetry_equiv_pos_as_xyz
  1  'x, y, z'
loop_
 _atom_site_type_symbol
 _atom_site_label
 _atom_site_symmetry_multiplicity
 _atom_site_fract_x
 _atom_site_fract_y
 _atom_site_fract_z
 _atom_site_occupancy
  Fe  Fe0  1  0.063996  0.645335  0.645335  1
  Fe  Fe1  1  0.431635  0.856122  0.856122  1
  Fe  Fe2  1  0.933274  0.355575  0.355575  1
  Co  Co3  1  0.996358  0.001214  0.001214  1
  Co  Co4  1  0.497986  0.500671  0.500671  1
  Cu  Cu5  1  0.564396  0.145202  0.145202  1
  P  P6  1  0.251576  0.249938  0.545170  1
  P  P7  1  0.251576  0.953316  0.249938  1
  P  P8  1  0.251576  0.545170  0.953316  1
  P  P9  1  0.747490  0.452716  0.048296  1
  P  P10  1  0.747490  0.048296  0.751498  1
  P  P11  1  0.747490  0.751498  0.452716  1
  O  O12  1  0.066835  0.109247  0.322028  1
  O  O13  1  0.066835  0.501889  0.109247  1
  O  O14  1  0.066835  0.322028  0.501889  1
  O  O15  1  0.216732  0.094753  0.747841  1
  O  O16  1  0.444146  0.182161  0.390116  1
  O  O17  1  0.281043  0.404952  0.564401  1
  O  O18  1  0.216732  0.940675  0.094753  1
  O  O19  1  0.281043  0.749604  0.404952  1
  O  O20  1  0.562273  0.608390  0.006011  1
  O  O21  1  0.281043  0.564401  0.749604  1
  O  O22  1  0.783845  0.250259  0.058618  1
  O  O23  1  0.562273  0.006011  0.823326  1
  O  O24  1  0.444146  0.983577  0.182161  1
  O  O25  1  0.216732  0.747841  0.940675  1
  O  O26  1  0.715694  0.437063  0.250645  1
  O  O27  1  0.444146  0.390116  0.983577  1
  O  O28  1  0.715694  0.250645  0.596598  1
  O  O29  1  0.783845  0.058618  0.907278  1
  O  O30  1  0.715694  0.596598  0.437063  1
  O  O31  1  0.562273  0.823326  0.608390  1
  O  O32  1  0.783845  0.907278  0.250259  1
  O  O33  1  0.934484  0.679200  0.493830  1
  O  O34  1  0.934484  0.493830  0.892487  1
  O  O35  1  0.934484  0.892487  0.679200  1
