# generated using pymatgen
data_Mn(SbO3)2
_symmetry_space_group_name_H-M   'P 1'
_cell_length_a   4.79380722
_cell_length_b   4.79378084
_cell_length_c   9.55560055
_cell_angle_alpha   90.00042382
_cell_angle_beta   89.99992368
_cell_angle_gamma   90.00008952
_symmetry_Int_Tables_number   1
_chemical_formula_structural   Mn(SbO3)2
_chemical_formula_sum   'Mn2 Sb4 O12'
_cell_volume   219.59210770
_cell_formula_units_Z   2
loop_
 _symmetry_equiv_pos_site_id
 _symmetry_equiv_pos_as_xyz
  1  'x, y, z'
loop_
 _atom_site_type_symbol
 _atom_site_label
 _atom_site_symmetry_multiplicity
 _atom_site_fract_x
 _atom_site_fract_y
 _atom_site_fract_z
 _atom_site_occupancy
  Mn  Mn0  1  0.000029  0.000315  0.333240  1
  Mn  Mn1  1  0.500066  0.499017  0.833298  1
  Sb  Sb2  1  0.000016  0.999916  0.001035  1
  Sb  Sb3  1  0.000014  0.999915  0.665651  1
  Sb  Sb4  1  0.500015  0.500120  0.165643  1
  Sb  Sb5  1  0.500014  0.500122  0.501026  1
  O  O6  1  0.185481  0.814606  0.833356  1
  O  O7  1  0.200821  0.799232  0.157276  1
  O  O8  1  0.200812  0.799234  0.509424  1
  O  O9  1  0.299096  0.299204  0.009462  1
  O  O10  1  0.314627  0.314753  0.333331  1
  O  O11  1  0.299084  0.299190  0.657201  1
  O  O12  1  0.700755  0.700861  0.009387  1
  O  O13  1  0.685366  0.685492  0.333332  1
  O  O14  1  0.700766  0.700874  0.657278  1
  O  O15  1  0.799145  0.200908  0.157235  1
  O  O16  1  0.814744  0.185337  0.833358  1
  O  O17  1  0.799150  0.200903  0.509464  1
