# generated using pymatgen
data_Ca3Ta2O8
_symmetry_space_group_name_H-M   'P 1'
_cell_length_a   9.75489537
_cell_length_b   9.75489537
_cell_length_c   9.75489537
_cell_angle_alpha   105.63945827
_cell_angle_beta   105.63945827
_cell_angle_gamma   117.44092878
_symmetry_Int_Tables_number   1
_chemical_formula_structural   Ca3Ta2O8
_chemical_formula_sum   'Ca12 Ta8 O32'
_cell_volume   704.06860553
_cell_formula_units_Z   4
loop_
 _symmetry_equiv_pos_site_id
 _symmetry_equiv_pos_as_xyz
  1  'x, y, z'
loop_
 _atom_site_type_symbol
 _atom_site_label
 _atom_site_symmetry_multiplicity
 _atom_site_fract_x
 _atom_site_fract_y
 _atom_site_fract_z
 _atom_site_occupancy
  Ca  Ca0  1  0.726090  0.148858  0.176074  1
  Ca  Ca1  1  0.375000  0.125000  0.250000  1
  Ca  Ca2  1  0.875000  0.625000  0.250000  1
  Ca  Ca3  1  0.351142  0.027216  0.577232  1
  Ca  Ca4  1  0.050015  0.226090  0.077232  1
  Ca  Ca5  1  0.472784  0.550015  0.323926  1
  Ca  Ca6  1  0.527216  0.449985  0.676074  1
  Ca  Ca7  1  0.949985  0.773910  0.922768  1
  Ca  Ca8  1  0.648858  0.972784  0.422768  1
  Ca  Ca9  1  0.625000  0.875000  0.750000  1
  Ca  Ca10  1  0.125000  0.375000  0.750000  1
  Ca  Ca11  1  0.273910  0.851142  0.823926  1
  Ta  Ta12  1  0.570223  0.705948  0.025720  1
  Ta  Ta13  1  0.819773  0.455496  0.525720  1
  Ta  Ta14  1  0.794052  0.319773  0.864277  1
  Ta  Ta15  1  0.044504  0.070223  0.364277  1
  Ta  Ta16  1  0.955496  0.929777  0.635723  1
  Ta  Ta17  1  0.205948  0.680227  0.135723  1
  Ta  Ta18  1  0.180227  0.544504  0.474280  1
  Ta  Ta19  1  0.429777  0.294052  0.974280  1
  O  O20  1  0.786882  0.187132  0.980297  1
  O  O21  1  0.950058  0.587285  0.058877  1
  O  O22  1  0.971593  0.108820  0.558877  1
  O  O23  1  0.499784  0.169574  0.059762  1
  O  O24  1  0.687132  0.206835  0.400250  1
  O  O25  1  0.912715  0.471593  0.362773  1
  O  O26  1  0.608820  0.549942  0.137227  1
  O  O27  1  0.669574  0.109811  0.669790  1
  O  O28  1  0.059978  0.000216  0.169790  1
  O  O29  1  0.306585  0.286882  0.099750  1
  O  O30  1  0.609811  0.440021  0.440238  1
  O  O31  1  0.808179  0.457261  0.725471  1
  O  O32  1  0.768210  0.917292  0.225471  1
  O  O33  1  0.293165  0.193415  0.480297  1
  O  O34  1  0.417292  0.691821  0.149082  1
  O  O35  1  0.957261  0.731790  0.649082  1
  O  O36  1  0.042739  0.268210  0.350918  1
  O  O37  1  0.582708  0.308179  0.850918  1
  O  O38  1  0.706835  0.806585  0.519703  1
  O  O39  1  0.191821  0.542739  0.274529  1
  O  O40  1  0.231790  0.082708  0.774529  1
  O  O41  1  0.390189  0.559979  0.559762  1
  O  O42  1  0.693415  0.713118  0.900250  1
  O  O43  1  0.330426  0.890189  0.330210  1
  O  O44  1  0.940021  0.999784  0.830210  1
  O  O45  1  0.391180  0.450058  0.862773  1
  O  O46  1  0.087285  0.528407  0.637227  1
  O  O47  1  0.312868  0.793165  0.599750  1
  O  O48  1  0.500216  0.830426  0.940238  1
  O  O49  1  0.028407  0.891180  0.441123  1
  O  O50  1  0.049942  0.412715  0.941123  1
  O  O51  1  0.213118  0.812868  0.019703  1
