# generated using pymatgen
data_U4BiO10
_symmetry_space_group_name_H-M   'P 1'
_cell_length_a   6.66679015
_cell_length_b   5.44229167
_cell_length_c   6.66679015
_cell_angle_alpha   114.08957195
_cell_angle_beta   99.59008438
_cell_angle_gamma   65.91042805
_symmetry_Int_Tables_number   1
_chemical_formula_structural   U4BiO10
_chemical_formula_sum   'U4 Bi1 O10'
_cell_volume   201.59040892
_cell_formula_units_Z   1
loop_
 _symmetry_equiv_pos_site_id
 _symmetry_equiv_pos_as_xyz
  1  'x, y, z'
loop_
 _atom_site_type_symbol
 _atom_site_label
 _atom_site_symmetry_multiplicity
 _atom_site_fract_x
 _atom_site_fract_y
 _atom_site_fract_z
 _atom_site_occupancy
  U  U0  1  0.400278  0.200614  0.801507  1
  U  U1  1  0.999722  0.999386  0.998493  1
  U  U2  1  0.798493  0.400892  0.600278  1
  U  U3  1  0.601507  0.799108  0.199722  1
  Bi  Bi4  1  0.200000  0.600000  0.400000  1
  O  O5  1  0.093955  0.064386  0.709034  1
  O  O6  1  0.093955  0.550693  0.709034  1
  O  O7  1  0.306045  0.649307  0.090966  1
  O  O8  1  0.700000  0.850000  0.900000  1
  O  O9  1  0.700000  0.350000  0.900000  1
  O  O10  1  0.509034  0.241658  0.506045  1
  O  O11  1  0.509034  0.755353  0.506045  1
  O  O12  1  0.306045  0.135614  0.090966  1
  O  O13  1  0.890966  0.444647  0.293955  1
  O  O14  1  0.890966  0.958342  0.293955  1
