# generated using pymatgen
data_Li3Cr(PO4)2
_symmetry_space_group_name_H-M   'P 1'
_cell_length_a   8.42142183
_cell_length_b   8.42142182
_cell_length_c   8.42142175
_cell_angle_alpha   63.67410243
_cell_angle_beta   63.67410242
_cell_angle_gamma   63.67410390
_symmetry_Int_Tables_number   1
_chemical_formula_structural   Li3Cr(PO4)2
_chemical_formula_sum   'Li9 Cr3 P6 O24'
_cell_volume   456.58368995
_cell_formula_units_Z   3
loop_
 _symmetry_equiv_pos_site_id
 _symmetry_equiv_pos_as_xyz
  1  'x, y, z'
loop_
 _atom_site_type_symbol
 _atom_site_label
 _atom_site_symmetry_multiplicity
 _atom_site_fract_x
 _atom_site_fract_y
 _atom_site_fract_z
 _atom_site_occupancy
  Li  Li0  1  0.243542  0.850305  0.653295  1
  Li  Li1  1  0.326165  0.804922  0.142446  1
  Li  Li2  1  0.142446  0.326165  0.804922  1
  Li  Li3  1  0.152307  0.152307  0.152307  1
  Li  Li4  1  0.009478  0.009478  0.009478  1
  Li  Li5  1  0.497595  0.497595  0.497595  1
  Li  Li6  1  0.850305  0.653295  0.243542  1
  Li  Li7  1  0.653295  0.243542  0.850305  1
  Li  Li8  1  0.804922  0.142446  0.326165  1
  Cr  Cr9  1  0.356647  0.356647  0.356647  1
  Cr  Cr10  1  0.857245  0.857245  0.857245  1
  Cr  Cr11  1  0.641837  0.641837  0.641837  1
  P  P12  1  0.046115  0.745305  0.453654  1
  P  P13  1  0.548161  0.949912  0.246567  1
  P  P14  1  0.246567  0.548161  0.949912  1
  P  P15  1  0.745305  0.453654  0.046115  1
  P  P16  1  0.453654  0.046115  0.745305  1
  P  P17  1  0.949912  0.246567  0.548161  1
  O  O18  1  0.051478  0.902996  0.267984  1
  O  O19  1  0.091499  0.744516  0.932661  1
  O  O20  1  0.495276  0.889300  0.671766  1
  O  O21  1  0.617358  0.018922  0.803159  1
  O  O22  1  0.242389  0.593369  0.430052  1
  O  O23  1  0.188832  0.391979  0.971941  1
  O  O24  1  0.114564  0.303722  0.515770  1
  O  O25  1  0.578988  0.754205  0.401776  1
  O  O26  1  0.744516  0.932661  0.091499  1
  O  O27  1  0.971941  0.188832  0.391979  1
  O  O28  1  0.303722  0.515770  0.114564  1
  O  O29  1  0.401776  0.578988  0.754205  1
  O  O30  1  0.593369  0.430052  0.242389  1
  O  O31  1  0.671766  0.495276  0.889300  1
  O  O32  1  0.018922  0.803159  0.617358  1
  O  O33  1  0.430052  0.242389  0.593369  1
  O  O34  1  0.267984  0.051478  0.902996  1
  O  O35  1  0.803159  0.617358  0.018922  1
  O  O36  1  0.889300  0.671766  0.495276  1
  O  O37  1  0.754205  0.401776  0.578988  1
  O  O38  1  0.391979  0.971941  0.188832  1
  O  O39  1  0.515770  0.114564  0.303722  1
  O  O40  1  0.902996  0.267984  0.051478  1
  O  O41  1  0.932661  0.091499  0.744516  1
