# generated using pymatgen
data_LiMnF3
_symmetry_space_group_name_H-M   'P 1'
_cell_length_a   4.77667975
_cell_length_b   7.82582026
_cell_length_c   7.82582026
_cell_angle_alpha   81.12396725
_cell_angle_beta   107.76942432
_cell_angle_gamma   72.23057568
_symmetry_Int_Tables_number   1
_chemical_formula_structural   LiMnF3
_chemical_formula_sum   'Li4 Mn4 F12'
_cell_volume   255.22734497
_cell_formula_units_Z   4
loop_
 _symmetry_equiv_pos_site_id
 _symmetry_equiv_pos_as_xyz
  1  'x, y, z'
loop_
 _atom_site_type_symbol
 _atom_site_label
 _atom_site_symmetry_multiplicity
 _atom_site_fract_x
 _atom_site_fract_y
 _atom_site_fract_z
 _atom_site_occupancy
  Li  Li0  1  0.250000  0.136040  0.136040  1
  Li  Li1  1  0.750000  0.136040  0.136040  1
  Li  Li2  1  0.250000  0.863960  0.863960  1
  Li  Li3  1  0.750000  0.863960  0.863960  1
  Mn  Mn4  1  0.642641  0.252195  0.537476  1
  Mn  Mn5  1  0.857359  0.537476  0.252195  1
  Mn  Mn6  1  0.142641  0.462524  0.747805  1
  Mn  Mn7  1  0.357359  0.747805  0.462524  1
  F  F8  1  0.608093  0.118688  0.334874  1
  F  F9  1  0.891907  0.334874  0.118688  1
  F  F10  1  0.102198  0.318153  0.522549  1
  F  F11  1  0.397802  0.522549  0.318153  1
  F  F12  1  0.363959  0.209506  0.937424  1
  F  F13  1  0.136041  0.937424  0.209506  1
  F  F14  1  0.636041  0.790494  0.062576  1
  F  F15  1  0.863959  0.062576  0.790494  1
  F  F16  1  0.897802  0.681847  0.477451  1
  F  F17  1  0.602198  0.477451  0.681847  1
  F  F18  1  0.391907  0.881312  0.665126  1
  F  F19  1  0.108093  0.665126  0.881312  1
