# generated using pymatgen
data_K4Nb15O24
_symmetry_space_group_name_H-M   'P 1'
_cell_length_a   8.27641615
_cell_length_b   9.34231679
_cell_length_c   9.41493964
_cell_angle_alpha   66.47184614
_cell_angle_beta   90.00000000
_cell_angle_gamma   63.70754781
_symmetry_Int_Tables_number   1
_chemical_formula_structural   K4Nb15O24
_chemical_formula_sum   'K4 Nb15 O24'
_cell_volume   584.39039224
_cell_formula_units_Z   1
loop_
 _symmetry_equiv_pos_site_id
 _symmetry_equiv_pos_as_xyz
  1  'x, y, z'
loop_
 _atom_site_type_symbol
 _atom_site_label
 _atom_site_symmetry_multiplicity
 _atom_site_fract_x
 _atom_site_fract_y
 _atom_site_fract_z
 _atom_site_occupancy
  K  K0  1  0.000000  0.000000  0.000000  1
  K  K1  1  0.500000  0.000000  0.000000  1
  K  K2  1  0.252230  0.495541  0.002597  1
  K  K3  1  0.747770  0.504459  0.997403  1
  Nb  Nb4  1  0.174080  0.134341  0.231603  1
  Nb  Nb5  1  0.117062  0.252479  0.500292  1
  Nb  Nb6  1  0.063094  0.374474  0.750865  1
  Nb  Nb7  1  0.500000  0.000000  0.500000  1
  Nb  Nb8  1  0.252832  0.494336  0.500232  1
  Nb  Nb9  1  0.691578  0.134341  0.231603  1
  Nb  Nb10  1  0.437568  0.625526  0.249135  1
  Nb  Nb11  1  0.630459  0.252479  0.500292  1
  Nb  Nb12  1  0.369541  0.747521  0.499708  1
  Nb  Nb13  1  0.562432  0.374474  0.750865  1
  Nb  Nb14  1  0.308422  0.865659  0.768397  1
  Nb  Nb15  1  0.747168  0.505664  0.499768  1
  Nb  Nb16  1  0.936906  0.625526  0.249135  1
  Nb  Nb17  1  0.882938  0.747521  0.499708  1
  Nb  Nb18  1  0.825920  0.865659  0.768397  1
  O  O19  1  0.059781  0.373935  0.247547  1
  O  O20  1  0.186209  0.121417  0.752770  1
  O  O21  1  0.129689  0.249343  0.001014  1
  O  O22  1  0.436763  0.126474  0.246953  1
  O  O23  1  0.376222  0.247556  0.499958  1
  O  O24  1  0.187645  0.624712  0.246516  1
  O  O25  1  0.126083  0.747834  0.499894  1
  O  O26  1  0.314006  0.371988  0.752267  1
  O  O27  1  0.065015  0.869969  0.760040  1
  O  O28  1  0.620966  0.249343  0.001014  1
  O  O29  1  0.379034  0.750657  0.998986  1
  O  O30  1  0.566284  0.373935  0.247547  1
  O  O31  1  0.307625  0.878583  0.247230  1
  O  O32  1  0.692375  0.121417  0.752770  1
  O  O33  1  0.433716  0.626065  0.752453  1
  O  O34  1  0.812355  0.375288  0.753484  1
  O  O35  1  0.563237  0.873526  0.753046  1
  O  O36  1  0.934985  0.130031  0.239960  1
  O  O37  1  0.873917  0.252166  0.500106  1
  O  O38  1  0.685994  0.628012  0.247733  1
  O  O39  1  0.623778  0.752444  0.500042  1
  O  O40  1  0.940219  0.626065  0.752453  1
  O  O41  1  0.813791  0.878583  0.247230  1
  O  O42  1  0.870311  0.750657  0.998986  1
