# generated using pymatgen
data_Li3Ti2(PO4)3
_symmetry_space_group_name_H-M   'P 1'
_cell_length_a   8.59478922
_cell_length_b   8.61880103
_cell_length_c   8.61880130
_cell_angle_alpha   62.49808236
_cell_angle_beta   62.50859094
_cell_angle_gamma   62.50858992
_symmetry_Int_Tables_number   1
_chemical_formula_structural   Li3Ti2(PO4)3
_chemical_formula_sum   'Li6 Ti4 P6 O24'
_cell_volume   476.65664087
_cell_formula_units_Z   2
loop_
 _symmetry_equiv_pos_site_id
 _symmetry_equiv_pos_as_xyz
  1  'x, y, z'
loop_
 _atom_site_type_symbol
 _atom_site_label
 _atom_site_symmetry_multiplicity
 _atom_site_fract_x
 _atom_site_fract_y
 _atom_site_fract_z
 _atom_site_occupancy
  Li  Li0  1  0.027147  0.005336  0.995744  1
  Li  Li1  1  0.750000  0.153352  0.346648  1
  Li  Li2  1  0.472853  0.504256  0.494664  1
  Li  Li3  1  0.250000  0.841456  0.658544  1
  Li  Li4  1  0.661183  0.250629  0.839453  1
  Li  Li5  1  0.838817  0.660547  0.249371  1
  Ti  Ti6  1  0.145927  0.145851  0.137956  1
  Ti  Ti7  1  0.354073  0.362044  0.354149  1
  Ti  Ti8  1  0.646739  0.648622  0.648308  1
  Ti  Ti9  1  0.853261  0.851692  0.851378  1
  P  P10  1  0.051910  0.751191  0.446754  1
  P  P11  1  0.448090  0.053246  0.748809  1
  P  P12  1  0.750000  0.449883  0.050117  1
  P  P13  1  0.250000  0.544266  0.955734  1
  P  P14  1  0.546242  0.959511  0.250271  1
  P  P15  1  0.953758  0.249729  0.540489  1
  O  O16  1  0.122975  0.298224  0.496592  1
  O  O17  1  0.308261  0.507968  0.115539  1
  O  O18  1  0.052495  0.917967  0.266092  1
  O  O19  1  0.528585  0.117709  0.301144  1
  O  O20  1  0.239239  0.595371  0.427377  1
  O  O21  1  0.017886  0.808412  0.609430  1
  O  O22  1  0.260761  0.072623  0.904629  1
  O  O23  1  0.447505  0.233908  0.582033  1
  O  O24  1  0.596329  0.427941  0.241689  1
  O  O25  1  0.191739  0.384461  0.992032  1
  O  O26  1  0.092744  0.735550  0.933027  1
  O  O27  1  0.377025  0.003408  0.201776  1
  O  O28  1  0.609375  0.015773  0.810031  1
  O  O29  1  0.903671  0.258311  0.072059  1
  O  O30  1  0.810542  0.608509  0.016565  1
  O  O31  1  0.407256  0.566973  0.764450  1
  O  O32  1  0.565262  0.769640  0.408703  1
  O  O33  1  0.734362  0.930745  0.090236  1
  O  O34  1  0.971415  0.198856  0.382291  1
  O  O35  1  0.765638  0.409764  0.569255  1
  O  O36  1  0.482114  0.890570  0.691588  1
  O  O37  1  0.934738  0.091297  0.730360  1
  O  O38  1  0.689458  0.483435  0.891491  1
  O  O39  1  0.890625  0.689969  0.484227  1
