# generated using pymatgen
data_Al2CrO5
_symmetry_space_group_name_H-M   'P 1'
_cell_length_a   4.96103859
_cell_length_b   5.38266042
_cell_length_c   6.83265921
_cell_angle_alpha   70.91546119
_cell_angle_beta   89.98676683
_cell_angle_gamma   62.53787470
_symmetry_Int_Tables_number   1
_chemical_formula_structural   Al2CrO5
_chemical_formula_sum   'Al4 Cr2 O10'
_cell_volume   150.51216414
_cell_formula_units_Z   2
loop_
 _symmetry_equiv_pos_site_id
 _symmetry_equiv_pos_as_xyz
  1  'x, y, z'
loop_
 _atom_site_type_symbol
 _atom_site_label
 _atom_site_symmetry_multiplicity
 _atom_site_fract_x
 _atom_site_fract_y
 _atom_site_fract_z
 _atom_site_occupancy
  Al  Al0  1  0.639342  0.741466  0.713323  1
  Al  Al1  1  0.381641  0.256567  0.782464  1
  Al  Al2  1  0.618030  0.740680  0.213715  1
  Al  Al3  1  0.360305  0.255884  0.282157  1
  Cr  Cr4  1  0.999578  0.998433  0.498165  1
  Cr  Cr5  1  0.998859  0.999554  0.997641  1
  O  O6  1  0.035396  0.620555  0.652987  1
  O  O7  1  0.735124  0.829944  0.944546  1
  O  O8  1  0.432720  0.829475  0.444644  1
  O  O9  1  0.657236  0.377328  0.842776  1
  O  O10  1  0.339702  0.622146  0.154737  1
  O  O11  1  0.200523  0.998301  0.748112  1
  O  O12  1  0.567004  0.166767  0.551926  1
  O  O13  1  0.262514  0.168895  0.050752  1
  O  O14  1  0.963322  0.375446  0.342168  1
  O  O15  1  0.797095  0.999221  0.247911  1
