# generated using pymatgen
data_Li13Mn3(SbO8)2
_symmetry_space_group_name_H-M   'P 1'
_cell_length_a   6.08951952
_cell_length_b   6.01933444
_cell_length_c   10.01915791
_cell_angle_alpha   91.04271067
_cell_angle_beta   89.99108738
_cell_angle_gamma   59.60715409
_symmetry_Int_Tables_number   1
_chemical_formula_structural   Li13Mn3(SbO8)2
_chemical_formula_sum   'Li13 Mn3 Sb2 O16'
_cell_volume   316.71089673
_cell_formula_units_Z   1
loop_
 _symmetry_equiv_pos_site_id
 _symmetry_equiv_pos_as_xyz
  1  'x, y, z'
loop_
 _atom_site_type_symbol
 _atom_site_label
 _atom_site_symmetry_multiplicity
 _atom_site_fract_x
 _atom_site_fract_y
 _atom_site_fract_z
 _atom_site_occupancy
  Li  Li0  1  0.737781  0.919545  0.224522  1
  Li  Li1  1  0.819905  0.766566  0.984144  1
  Li  Li2  1  0.342750  0.919410  0.224481  1
  Li  Li3  1  0.113607  0.773082  0.492396  1
  Li  Li4  1  0.413446  0.766590  0.984172  1
  Li  Li5  1  0.004637  0.990571  0.010590  1
  Li  Li6  1  0.667490  0.664358  0.753663  1
  Li  Li7  1  0.172362  0.655367  0.256680  1
  Li  Li8  1  0.169560  0.660916  0.735398  1
  Li  Li9  1  0.817318  0.365183  0.947564  1
  Li  Li10  1  0.323240  0.353768  0.431626  1
  Li  Li11  1  0.718622  0.162601  0.448303  1
  Li  Li12  1  0.118874  0.162725  0.448164  1
  Mn  Mn13  1  0.662660  0.170071  0.717432  1
  Mn  Mn14  1  0.167172  0.170136  0.717398  1
  Mn  Mn15  1  0.823367  0.353294  0.216079  1
  Sb  Sb16  1  0.650189  0.699940  0.480794  1
  Sb  Sb17  1  0.340422  0.319023  0.982230  1
  O  O18  1  0.815970  0.855039  0.598362  1
  O  O19  1  0.494263  0.011332  0.370680  1
  O  O20  1  0.329392  0.854756  0.598486  1
  O  O21  1  0.973563  0.529730  0.365338  1
  O  O22  1  0.673827  0.652293  0.114897  1
  O  O23  1  0.170117  0.659767  0.069539  1
  O  O24  1  0.497340  0.529493  0.365219  1
  O  O25  1  0.813956  0.372281  0.588963  1
  O  O26  1  0.500972  0.465721  0.850740  1
  O  O27  1  0.985925  0.028196  0.316507  1
  O  O28  1  0.667021  0.171971  0.085166  1
  O  O29  1  0.982598  0.034787  0.813994  1
  O  O30  1  0.341686  0.316632  0.623890  1
  O  O31  1  0.033193  0.465742  0.850786  1
  O  O32  1  0.160737  0.172051  0.085219  1
  O  O33  1  0.504019  0.991905  0.867404  1
