# generated using pymatgen
data_LiV2OF5
_symmetry_space_group_name_H-M   'P 1'
_cell_length_a   5.14371288
_cell_length_b   5.50423626
_cell_length_c   7.66875962
_cell_angle_alpha   84.66749234
_cell_angle_beta   89.99689458
_cell_angle_gamma   90.00080007
_symmetry_Int_Tables_number   1
_chemical_formula_structural   LiV2OF5
_chemical_formula_sum   'Li2 V4 O2 F10'
_cell_volume   216.17987461
_cell_formula_units_Z   2
loop_
 _symmetry_equiv_pos_site_id
 _symmetry_equiv_pos_as_xyz
  1  'x, y, z'
loop_
 _atom_site_type_symbol
 _atom_site_label
 _atom_site_symmetry_multiplicity
 _atom_site_fract_x
 _atom_site_fract_y
 _atom_site_fract_z
 _atom_site_occupancy
  Li  Li0  1  0.485459  0.081796  0.784746  1
  Li  Li1  1  0.514453  0.081796  0.284781  1
  V  V2  1  0.016173  0.010676  0.506569  1
  V  V3  1  0.516892  0.492803  0.001954  1
  V  V4  1  0.483134  0.492780  0.501966  1
  V  V5  1  0.983818  0.010721  0.006552  1
  O  O6  1  0.310532  0.192878  0.555644  1
  O  O7  1  0.689476  0.192915  0.055657  1
  F  F8  1  0.148135  0.002123  0.252495  1
  F  F9  1  0.180473  0.694612  0.567484  1
  F  F10  1  0.209559  0.291071  0.926809  1
  F  F11  1  0.316821  0.816146  0.936571  1
  F  F12  1  0.382715  0.497922  0.247124  1
  F  F13  1  0.617352  0.497915  0.747118  1
  F  F14  1  0.683174  0.816132  0.436629  1
  F  F15  1  0.790479  0.291042  0.426817  1
  F  F16  1  0.819524  0.694657  0.067452  1
  F  F17  1  0.851827  0.002149  0.752501  1
