# generated using pymatgen
data_V3H4NO8
_symmetry_space_group_name_H-M   'P 1'
_cell_length_a   5.06067404
_cell_length_b   8.57638749
_cell_length_c   7.97213334
_cell_angle_alpha   90.00000000
_cell_angle_beta   97.40270228
_cell_angle_gamma   90.00000000
_symmetry_Int_Tables_number   1
_chemical_formula_structural   V3H4NO8
_chemical_formula_sum   'V6 H8 N2 O16'
_cell_volume   343.12498071
_cell_formula_units_Z   2
loop_
 _symmetry_equiv_pos_site_id
 _symmetry_equiv_pos_as_xyz
  1  'x, y, z'
loop_
 _atom_site_type_symbol
 _atom_site_label
 _atom_site_symmetry_multiplicity
 _atom_site_fract_x
 _atom_site_fract_y
 _atom_site_fract_z
 _atom_site_occupancy
  V  V0  1  0.059927  0.554009  0.317576  1
  V  V1  1  0.059927  0.945991  0.317576  1
  V  V2  1  0.426823  0.250000  0.577885  1
  V  V3  1  0.573177  0.750000  0.422115  1
  V  V4  1  0.940073  0.054009  0.682424  1
  V  V5  1  0.940073  0.445991  0.682424  1
  H  H6  1  0.334476  0.250000  0.945963  1
  H  H7  1  0.438600  0.846018  0.911026  1
  H  H8  1  0.438600  0.653982  0.911026  1
  H  H9  1  0.300145  0.250000  0.151444  1
  H  H10  1  0.699855  0.750000  0.848556  1
  H  H11  1  0.561400  0.153982  0.088974  1
  H  H12  1  0.561400  0.346018  0.088974  1
  H  H13  1  0.665524  0.750000  0.054037  1
  N  N14  1  0.561447  0.750000  0.932118  1
  N  N15  1  0.438553  0.250000  0.067882  1
  O  O16  1  0.067920  0.566479  0.829954  1
  O  O17  1  0.067920  0.933521  0.829954  1
  O  O18  1  0.090903  0.250000  0.756417  1
  O  O19  1  0.181636  0.087494  0.505687  1
  O  O20  1  0.181636  0.412506  0.505687  1
  O  O21  1  0.380492  0.750000  0.571222  1
  O  O22  1  0.384728  0.600028  0.270354  1
  O  O23  1  0.384728  0.899972  0.270354  1
  O  O24  1  0.615272  0.399972  0.729646  1
  O  O25  1  0.615272  0.100028  0.729646  1
  O  O26  1  0.619508  0.250000  0.428778  1
  O  O27  1  0.818364  0.587494  0.494313  1
  O  O28  1  0.818364  0.912506  0.494313  1
  O  O29  1  0.909097  0.750000  0.243583  1
  O  O30  1  0.932080  0.066479  0.170046  1
  O  O31  1  0.932080  0.433521  0.170046  1
