# generated using pymatgen
data_LiMnSiO4
_symmetry_space_group_name_H-M   'P 1'
_cell_length_a   6.31832478
_cell_length_b   9.60046912
_cell_length_c   5.92197882
_cell_angle_alpha   93.65445552
_cell_angle_beta   100.51125126
_cell_angle_gamma   76.02344058
_symmetry_Int_Tables_number   1
_chemical_formula_structural   LiMnSiO4
_chemical_formula_sum   'Li4 Mn4 Si4 O16'
_cell_volume   342.66326728
_cell_formula_units_Z   4
loop_
 _symmetry_equiv_pos_site_id
 _symmetry_equiv_pos_as_xyz
  1  'x, y, z'
loop_
 _atom_site_type_symbol
 _atom_site_label
 _atom_site_symmetry_multiplicity
 _atom_site_fract_x
 _atom_site_fract_y
 _atom_site_fract_z
 _atom_site_occupancy
  Li  Li0  1  0.158905  0.263407  0.571057  1
  Li  Li1  1  0.349989  0.667426  0.431075  1
  Li  Li2  1  0.650011  0.332574  0.568925  1
  Li  Li3  1  0.841095  0.736593  0.428943  1
  Mn  Mn4  1  0.066282  0.724363  0.002487  1
  Mn  Mn5  1  0.368241  0.921598  0.806410  1
  Mn  Mn6  1  0.631759  0.078402  0.193590  1
  Mn  Mn7  1  0.933718  0.275637  0.997513  1
  Si  Si8  1  0.282354  0.385068  0.136121  1
  Si  Si9  1  0.174439  0.001401  0.288064  1
  Si  Si10  1  0.825561  0.998599  0.711936  1
  Si  Si11  1  0.717646  0.614932  0.863879  1
  O  O12  1  0.254453  0.054866  0.546940  1
  O  O13  1  0.082533  0.354867  0.267458  1
  O  O14  1  0.194746  0.322744  0.880673  1
  O  O15  1  0.073757  0.892357  0.814188  1
  O  O16  1  0.343160  0.032228  0.120942  1
  O  O17  1  0.293514  0.552451  0.161223  1
  O  O18  1  0.169409  0.831952  0.273798  1
  O  O19  1  0.477638  0.714137  0.737491  1
  O  O20  1  0.522362  0.285863  0.262509  1
  O  O21  1  0.830591  0.168048  0.726202  1
  O  O22  1  0.706486  0.447549  0.838777  1
  O  O23  1  0.656840  0.967772  0.879058  1
  O  O24  1  0.926243  0.107643  0.185812  1
  O  O25  1  0.805254  0.677256  0.119327  1
  O  O26  1  0.917467  0.645133  0.732542  1
  O  O27  1  0.745547  0.945134  0.453060  1
