# generated using pymatgen
data_Li4Ti2Mn4Cr3O18
_symmetry_space_group_name_H-M   'P 1'
_cell_length_a   9.02911695
_cell_length_b   25.23211323
_cell_length_c   2.92884816
_cell_angle_alpha   89.99993626
_cell_angle_beta   90.00008837
_cell_angle_gamma   89.99622774
_symmetry_Int_Tables_number   1
_chemical_formula_structural   Li4Ti2Mn4Cr3O18
_chemical_formula_sum   'Li8 Ti4 Mn8 Cr6 O36'
_cell_volume   667.26102722
_cell_formula_units_Z   2
loop_
 _symmetry_equiv_pos_site_id
 _symmetry_equiv_pos_as_xyz
  1  'x, y, z'
loop_
 _atom_site_type_symbol
 _atom_site_label
 _atom_site_symmetry_multiplicity
 _atom_site_fract_x
 _atom_site_fract_y
 _atom_site_fract_z
 _atom_site_occupancy
  Li  Li0  1  0.180302  0.000655  0.999999  1
  Li  Li1  1  0.197686  0.202994  0.000000  1
  Li  Li2  1  0.302259  0.702957  0.000001  1
  Li  Li3  1  0.319702  0.500682  0.999999  1
  Li  Li4  1  0.680312  0.499333  0.000000  1
  Li  Li5  1  0.697553  0.297027  0.000000  1
  Li  Li6  1  0.802510  0.797066  1.000000  1
  Li  Li7  1  0.819719  0.999320  0.000000  1
  Ti  Ti8  1  0.000445  0.106781  -0.000000  1
  Ti  Ti9  1  0.499544  0.606741  0.999999  1
  Ti  Ti10  1  0.500407  0.393227  0.000000  1
  Ti  Ti11  1  0.999626  0.893247  0.000001  1
  Mn  Mn12  1  0.021816  0.309973  0.999999  1
  Mn  Mn13  1  0.138008  0.587575  0.499998  1
  Mn  Mn14  1  0.361988  0.087585  0.500000  1
  Mn  Mn15  1  0.478231  0.809972  -0.000000  1
  Mn  Mn16  1  0.521845  0.190016  0.000000  1
  Mn  Mn17  1  0.638018  0.912433  0.500001  1
  Mn  Mn18  1  0.861987  0.412425  0.500000  1
  Mn  Mn19  1  0.978175  0.690022  0.999998  1
  Cr  Cr20  1  0.000026  0.499986  0.000007  1
  Cr  Cr21  1  0.143647  0.804363  0.500008  1
  Cr  Cr22  1  0.356325  0.304381  0.499998  1
  Cr  Cr23  1  0.500005  0.000008  0.000018  1
  Cr  Cr24  1  0.643580  0.695611  0.500015  1
  Cr  Cr25  1  0.856237  0.195628  0.499992  1
  O  O26  1  0.001032  0.420923  0.999992  1
  O  O27  1  0.998982  0.579069  0.999995  1
  O  O28  1  0.034440  0.940939  0.499999  1
  O  O29  1  0.056462  0.161681  0.499993  1
  O  O30  1  0.103060  0.662320  0.499998  1
  O  O31  1  0.115947  0.755252  0.000005  1
  O  O32  1  0.151919  0.509722  0.499984  1
  O  O33  1  0.141755  0.283133  0.499999  1
  O  O34  1  0.181742  0.856850  0.000006  1
  O  O35  1  0.222103  0.088905  0.000001  1
  O  O36  1  0.277911  0.588869  0.999999  1
  O  O37  1  0.318263  0.356830  0.999999  1
  O  O38  1  0.358320  0.783151  0.500004  1
  O  O39  1  0.348099  0.009743  0.500007  1
  O  O40  1  0.384109  0.255256  0.000001  1
  O  O41  1  0.396967  0.162332  0.499997  1
  O  O42  1  0.443410  0.661645  0.500004  1
  O  O43  1  0.465577  0.440909  0.499998  1
  O  O44  1  0.501029  0.079082  0.000002  1
  O  O45  1  0.498981  0.920942  0.000002  1
  O  O46  1  0.534424  0.559049  0.500001  1
  O  O47  1  0.556480  0.338316  0.500003  1
  O  O48  1  0.603049  0.837692  0.500000  1
  O  O49  1  0.615938  0.744749  0.000008  1
  O  O50  1  0.651901  0.990282  0.500008  1
  O  O51  1  0.641728  0.216853  0.499994  1
  O  O52  1  0.681653  0.643144  0.000007  1
  O  O53  1  0.722090  0.411099  0.000002  1
  O  O54  1  0.777927  0.911124  0.999999  1
  O  O55  1  0.818266  0.143178  0.999989  1
  O  O56  1  0.858240  0.716829  0.500001  1
  O  O57  1  0.848117  0.490268  0.499985  1
  O  O58  1  0.884061  0.244744  0.999989  1
  O  O59  1  0.896971  0.337675  0.499999  1
  O  O60  1  0.943500  0.838346  0.499997  1
  O  O61  1  0.965596  0.059091  0.499998  1
