# generated using pymatgen
data_LiNiPO4
_symmetry_space_group_name_H-M   'P 1'
_cell_length_a   4.73069562
_cell_length_b   5.43573134
_cell_length_c   6.49072597
_cell_angle_alpha   78.92764701
_cell_angle_beta   89.99999998
_cell_angle_gamma   64.20528008
_symmetry_Int_Tables_number   1
_chemical_formula_structural   LiNiPO4
_chemical_formula_sum   'Li2 Ni2 P2 O8'
_cell_volume   146.81836525
_cell_formula_units_Z   2
loop_
 _symmetry_equiv_pos_site_id
 _symmetry_equiv_pos_as_xyz
  1  'x, y, z'
loop_
 _atom_site_type_symbol
 _atom_site_label
 _atom_site_symmetry_multiplicity
 _atom_site_fract_x
 _atom_site_fract_y
 _atom_site_fract_z
 _atom_site_occupancy
  Li  Li0  1  0.976606  1.000000  0.500000  1
  Li  Li1  1  0.966302  1.000000  0.000000  1
  Ni  Ni2  1  0.661807  0.736826  0.708625  1
  Ni  Ni3  1  0.398633  0.263174  0.291375  1
  P  P4  1  0.683994  0.638036  0.225312  1
  P  P5  1  0.322030  0.361964  0.774688  1
  O  O6  1  0.266178  0.671984  0.690965  1
  O  O7  1  0.697950  0.829853  0.377302  1
  O  O8  1  0.759561  0.740519  0.005559  1
  O  O9  1  0.346152  0.660413  0.227415  1
  O  O10  1  0.006565  0.339587  0.772585  1
  O  O11  1  0.500081  0.259481  0.994441  1
  O  O12  1  0.527804  0.170147  0.622698  1
  O  O13  1  0.938163  0.328016  0.309035  1
