# generated using pymatgen
data_Li3AlCoO4
_symmetry_space_group_name_H-M   'P 1'
_cell_length_a   10.11568017
_cell_length_b   10.11568017
_cell_length_c   10.11568017
_cell_angle_alpha   116.75850661
_cell_angle_beta   116.75850661
_cell_angle_gamma   95.71256535
_symmetry_Int_Tables_number   1
_chemical_formula_structural   Li3AlCoO4
_chemical_formula_sum   'Li24 Al8 Co8 O32'
_cell_volume   763.68314360
_cell_formula_units_Z   8
loop_
 _symmetry_equiv_pos_site_id
 _symmetry_equiv_pos_as_xyz
  1  'x, y, z'
loop_
 _atom_site_type_symbol
 _atom_site_label
 _atom_site_symmetry_multiplicity
 _atom_site_fract_x
 _atom_site_fract_y
 _atom_site_fract_z
 _atom_site_occupancy
  Li  Li0  1  0.926327  0.107591  0.154336  1
  Li  Li1  1  0.823673  0.142409  0.345664  1
  Li  Li2  1  0.892409  0.046746  0.818735  1
  Li  Li3  1  0.521989  0.176327  0.318735  1
  Li  Li4  1  0.443519  0.294597  0.135648  1
  Li  Li5  1  0.719576  0.567341  0.146572  1
  Li  Li6  1  0.857591  0.203254  0.681265  1
  Li  Li7  1  0.228011  0.073673  0.181265  1
  Li  Li8  1  0.705403  0.841051  0.148922  1
  Li  Li9  1  0.432659  0.579232  0.152236  1
  Li  Li10  1  0.796746  0.478011  0.654336  1
  Li  Li11  1  0.953254  0.771989  0.845664  1
  Li  Li12  1  0.426996  0.280424  0.847764  1
  Li  Li13  1  0.317341  0.670768  0.347764  1
  Li  Li14  1  0.044597  0.408949  0.351078  1
  Li  Li15  1  0.692129  0.556481  0.851078  1
  Li  Li16  1  0.030424  0.682659  0.353428  1
  Li  Li17  1  0.420768  0.573004  0.853428  1
  Li  Li18  1  0.591051  0.942129  0.635648  1
  Li  Li19  1  0.158949  0.307871  0.864352  1
  Li  Li20  1  0.306481  0.955403  0.364352  1
  Li  Li21  1  0.329232  0.676996  0.646572  1
  Li  Li22  1  0.057871  0.693519  0.648922  1
  Li  Li23  1  0.323004  0.969576  0.652236  1
  Al  Al24  1  0.750354  0.414217  0.302238  1
  Al  Al25  1  0.551885  0.249646  0.663862  1
  Al  Al26  1  0.164217  0.361978  0.163862  1
  Al  Al27  1  0.585783  0.888022  0.336138  1
  Al  Al28  1  0.638022  0.801885  0.802238  1
  Al  Al29  1  0.999646  0.835783  0.197762  1
  Al  Al30  1  0.111978  0.448115  0.697762  1
  Al  Al31  1  0.198115  0.000354  0.836138  1
  Co  Co32  1  0.450191  0.925567  0.998417  1
  Co  Co33  1  0.675567  0.177150  0.975376  1
  Co  Co34  1  0.548226  0.549809  0.475376  1
  Co  Co35  1  0.822850  0.798226  0.498417  1
  Co  Co36  1  0.299809  0.324433  0.501583  1
  Co  Co37  1  0.074433  0.072850  0.524624  1
  Co  Co38  1  0.201774  0.700191  0.024624  1
  Co  Co39  1  0.927150  0.451775  0.001583  1
  O  O40  1  0.832928  0.267096  0.244299  1
  O  O41  1  0.338630  0.082928  0.065832  1
  O  O42  1  0.600910  0.352363  0.079449  1
  O  O43  1  0.864042  0.640788  0.093393  1
  O  O44  1  0.885958  0.609212  0.406607  1
  O  O45  1  0.645057  0.394676  0.397480  1
  O  O46  1  0.411370  0.167072  0.434168  1
  O  O47  1  0.359212  0.452604  0.223254  1
  O  O48  1  0.520649  0.114042  0.723254  1
  O  O49  1  0.917072  0.982904  0.255701  1
  O  O50  1  0.144676  0.247197  0.249619  1
  O  O51  1  0.752422  0.354942  0.749619  1
  O  O52  1  0.647637  0.727086  0.248547  1
  O  O53  1  0.102363  0.522914  0.251453  1
  O  O54  1  0.478538  0.399090  0.751453  1
  O  O55  1  0.605324  0.002803  0.250381  1
  O  O56  1  0.727202  0.661370  0.744299  1
  O  O57  1  0.229351  0.135958  0.776746  1
  O  O58  1  0.390788  0.797396  0.276746  1
  O  O59  1  0.732904  0.977202  0.565832  1
  O  O60  1  0.477086  0.728538  0.579449  1
  O  O61  1  0.104942  0.855324  0.102520  1
  O  O62  1  0.997197  0.247578  0.602520  1
  O  O63  1  0.202604  0.479351  0.593393  1
  O  O64  1  0.547396  0.770649  0.906607  1
  O  O65  1  0.752803  0.002422  0.897480  1
  O  O66  1  0.149090  0.897637  0.420552  1
  O  O67  1  0.272914  0.521462  0.920551  1
  O  O68  1  0.017096  0.272798  0.934168  1
  O  O69  1  0.022798  0.588630  0.755701  1
  O  O70  1  0.271462  0.850910  0.748547  1
  O  O71  1  0.997578  0.895057  0.750381  1
