# generated using pymatgen
data_La2Nb2N2O5
_symmetry_space_group_name_H-M   'P 1'
_cell_length_a   8.05266305
_cell_length_b   13.74421779
_cell_length_c   5.71461481
_cell_angle_alpha   91.17967935
_cell_angle_beta   89.98901213
_cell_angle_gamma   98.38065761
_symmetry_Int_Tables_number   1
_chemical_formula_structural   La2Nb2N2O5
_chemical_formula_sum   'La8 Nb8 N8 O20'
_cell_volume   625.59057195
_cell_formula_units_Z   4
loop_
 _symmetry_equiv_pos_site_id
 _symmetry_equiv_pos_as_xyz
  1  'x, y, z'
loop_
 _atom_site_type_symbol
 _atom_site_label
 _atom_site_symmetry_multiplicity
 _atom_site_fract_x
 _atom_site_fract_y
 _atom_site_fract_z
 _atom_site_occupancy
  La  La0  1  0.133640  0.567631  0.339240  1
  La  La1  1  0.214594  0.909648  0.765226  1
  La  La2  1  0.275300  0.122269  0.253046  1
  La  La3  1  0.338564  0.381437  0.772844  1
  La  La4  1  0.673862  0.616284  0.286862  1
  La  La5  1  0.729413  0.880555  0.751809  1
  La  La6  1  0.779626  0.093096  0.265029  1
  La  La7  1  0.862340  0.432334  0.829869  1
  Nb  Nb8  1  0.058354  0.312104  0.263190  1
  Nb  Nb9  1  0.017364  0.109071  0.739576  1
  Nb  Nb10  1  0.414876  0.673459  0.793852  1
  Nb  Nb11  1  0.470721  0.882442  0.264673  1
  Nb  Nb12  1  0.535166  0.118289  0.766303  1
  Nb  Nb13  1  0.587552  0.326453  0.284238  1
  Nb  Nb14  1  0.963401  0.875232  0.264310  1
  Nb  Nb15  1  0.928015  0.676354  0.786401  1
  N  N16  1  0.029930  0.190118  0.456457  1
  N  N17  1  0.872693  0.772695  0.455070  1
  N  N18  1  0.961109  0.986343  0.539489  1
  N  N19  1  0.873281  0.569237  0.557549  1
  N  N20  1  0.771270  0.108759  0.820880  1
  N  N21  1  0.822935  0.303787  0.192781  1
  N  N22  1  0.974566  0.821788  0.940911  1
  N  N23  1  0.916242  0.590061  0.045922  1
  O  O24  1  0.091874  0.409337  0.540587  1
  O  O25  1  0.182507  0.696092  0.688025  1
  O  O26  1  0.229235  0.889742  0.321314  1
  O  O27  1  0.136136  0.429995  0.053158  1
  O  O28  1  0.051110  0.025703  0.039508  1
  O  O29  1  0.126006  0.230379  0.972772  1
  O  O30  1  0.374576  0.614194  0.078699  1
  O  O31  1  0.431215  0.820768  0.943578  1
  O  O32  1  0.277618  0.086392  0.673657  1
  O  O33  1  0.337169  0.304486  0.352497  1
  O  O34  1  0.409180  0.560803  0.586851  1
  O  O35  1  0.535808  0.980722  0.523858  1
  O  O36  1  0.499159  0.774613  0.453933  1
  O  O37  1  0.497314  0.228054  0.962987  1
  O  O38  1  0.461380  0.019419  0.029680  1
  O  O39  1  0.587002  0.436632  0.080569  1
  O  O40  1  0.663278  0.695053  0.847004  1
  O  O41  1  0.721562  0.912371  0.174135  1
  O  O42  1  0.565017  0.178438  0.444984  1
  O  O43  1  0.618039  0.387360  0.581658  1
