# generated using pymatgen
data_Li3V3P8O29
_symmetry_space_group_name_H-M   'P 1'
_cell_length_a   9.79895917
_cell_length_b   9.78890001
_cell_length_c   14.10947931
_cell_angle_alpha   89.66218293
_cell_angle_beta   89.96766957
_cell_angle_gamma   59.89080133
_symmetry_Int_Tables_number   1
_chemical_formula_structural   Li3V3P8O29
_chemical_formula_sum   'Li6 V6 P16 O58'
_cell_volume   1170.75849185
_cell_formula_units_Z   2
loop_
 _symmetry_equiv_pos_site_id
 _symmetry_equiv_pos_as_xyz
  1  'x, y, z'
loop_
 _atom_site_type_symbol
 _atom_site_label
 _atom_site_symmetry_multiplicity
 _atom_site_fract_x
 _atom_site_fract_y
 _atom_site_fract_z
 _atom_site_occupancy
  Li  Li0  1  0.086915  0.224011  0.944976  1
  Li  Li1  1  0.225255  0.689578  0.944814  1
  Li  Li2  1  0.307016  0.779966  0.552021  1
  Li  Li3  1  0.684777  0.228290  0.436452  1
  Li  Li4  1  0.774182  0.907544  0.554599  1
  Li  Li5  1  0.905120  0.775370  0.061593  1
  V  V6  1  0.003844  0.562400  0.258090  1
  V  V7  1  0.429481  0.001462  0.248796  1
  V  V8  1  0.438448  0.562840  0.751023  1
  V  V9  1  0.570768  0.434417  0.243136  1
  V  V10  1  0.563220  0.004672  0.756591  1
  V  V11  1  0.997060  0.432471  0.742355  1
  P  P12  1  0.085466  0.233025  0.159314  1
  P  P13  1  0.233244  0.083471  0.657187  1
  P  P14  1  0.087906  0.684302  0.658895  1
  P  P15  1  0.341526  0.328693  0.370422  1
  P  P16  1  0.326740  0.337693  0.870312  1
  P  P17  1  0.227376  0.681638  0.159509  1
  P  P18  1  0.319954  0.767889  0.339484  1
  P  P19  1  0.683194  0.086374  0.158362  1
  P  P20  1  0.314892  0.913780  0.842411  1
  P  P21  1  0.682716  0.228302  0.658322  1
  P  P22  1  0.774360  0.311503  0.842363  1
  P  P23  1  0.669344  0.671439  0.129725  1
  P  P24  1  0.662384  0.673147  0.629781  1
  P  P25  1  0.914172  0.312025  0.342937  1
  P  P26  1  0.767051  0.913097  0.341022  1
  P  P27  1  0.914349  0.764530  0.841232  1
  O  O28  1  0.000361  0.235424  0.430683  1
  O  O29  1  0.089641  0.254368  0.665085  1
  O  O30  1  0.210828  0.996850  0.749132  1
  O  O31  1  0.234976  0.004952  0.927999  1
  O  O32  1  0.093671  0.384720  0.180953  1
  O  O33  1  0.254427  0.088162  0.168108  1
  O  O34  1  0.181032  0.333253  0.828391  1
  O  O35  1  0.096210  0.521953  0.676063  1
  O  O36  1  0.997263  0.754438  0.932089  1
  O  O37  1  0.080925  0.660330  0.164069  1
  O  O38  1  0.340448  0.183198  0.324169  1
  O  O39  1  0.187676  0.478643  0.327085  1
  O  O40  1  0.385277  0.091656  0.678402  1
  O  O41  1  0.340456  0.327647  0.475595  1
  O  O42  1  0.328761  0.338574  0.975243  1
  O  O43  1  0.523907  0.092589  0.174621  1
  O  O44  1  0.327925  0.488777  0.828414  1
  O  O45  1  0.477555  0.187363  0.825818  1
  O  O46  1  0.256686  0.660964  0.660221  1
  O  O47  1  0.207909  0.788936  0.249847  1
  O  O48  1  0.237500  0.752787  0.068450  1
  O  O49  1  0.248368  0.758730  0.429973  1
  O  O50  1  0.380921  0.519788  0.178335  1
  O  O51  1  0.490154  0.330778  0.330289  1
  O  O52  1  0.661382  0.081478  0.665524  1
  O  O53  1  0.338634  0.744129  0.839647  1
  O  O54  1  0.520756  0.381207  0.681423  1
  O  O55  1  0.242464  0.995303  0.571069  1
  O  O56  1  0.758573  0.997825  0.431158  1
  O  O57  1  0.479032  0.614998  0.318954  1
  O  O58  1  0.655667  0.256978  0.164231  1
  O  O59  1  0.787591  0.006544  0.253850  1
  O  O60  1  0.344255  0.912043  0.331314  1
  O  O61  1  0.512679  0.671082  0.672511  1
  O  O62  1  0.619191  0.475828  0.820162  1
  O  O63  1  0.760176  0.238116  0.929731  1
  O  O64  1  0.744724  0.242043  0.565538  1
  O  O65  1  0.794306  0.210888  0.746193  1
  O  O66  1  0.743322  0.338511  0.336810  1
  O  O67  1  0.521902  0.817391  0.174621  1
  O  O68  1  0.477821  0.903726  0.823987  1
  O  O69  1  0.666233  0.521104  0.173515  1
  O  O70  1  0.662484  0.669281  0.524831  1
  O  O71  1  0.667658  0.670401  0.024541  1
  O  O72  1  0.616106  0.905386  0.324026  1
  O  O73  1  0.812803  0.521101  0.674303  1
  O  O74  1  0.666614  0.819246  0.670385  1
  O  O75  1  0.918627  0.337671  0.836141  1
  O  O76  1  0.992070  0.213188  0.246789  1
  O  O77  1  0.007989  0.243385  0.067377  1
  O  O78  1  0.904595  0.476244  0.323669  1
  O  O79  1  0.819975  0.668325  0.170451  1
  O  O80  1  0.745799  0.909682  0.833463  1
  O  O81  1  0.907163  0.613509  0.820356  1
  O  O82  1  0.769976  0.994528  0.074171  1
  O  O83  1  0.912369  0.744582  0.335357  1
  O  O84  1  0.992474  0.768688  0.574629  1
  O  O85  1  0.009608  0.785159  0.754653  1
