# generated using pymatgen
data_Fe10O11F9
_symmetry_space_group_name_H-M   'P 1'
_cell_length_a   4.70765188
_cell_length_b   4.70563574
_cell_length_c   15.49676771
_cell_angle_alpha   89.71922249
_cell_angle_beta   89.84044524
_cell_angle_gamma   89.45376535
_symmetry_Int_Tables_number   1
_chemical_formula_structural   Fe10O11F9
_chemical_formula_sum   'Fe10 O11 F9'
_cell_volume   343.27105940
_cell_formula_units_Z   1
loop_
 _symmetry_equiv_pos_site_id
 _symmetry_equiv_pos_as_xyz
  1  'x, y, z'
loop_
 _atom_site_type_symbol
 _atom_site_label
 _atom_site_symmetry_multiplicity
 _atom_site_fract_x
 _atom_site_fract_y
 _atom_site_fract_z
 _atom_site_occupancy
  Fe  Fe0  1  0.031169  0.007469  0.006436  1
  Fe  Fe1  1  0.007118  0.983420  0.194435  1
  Fe  Fe2  1  0.015635  0.973881  0.397630  1
  Fe  Fe3  1  0.039684  0.001383  0.598804  1
  Fe  Fe4  1  0.039842  0.994339  0.802013  1
  Fe  Fe5  1  0.501210  0.479722  0.096552  1
  Fe  Fe6  1  0.474117  0.503594  0.495112  1
  Fe  Fe7  1  0.479645  0.517313  0.310228  1
  Fe  Fe8  1  0.459810  0.493711  0.697727  1
  Fe  Fe9  1  0.459777  0.499309  0.899049  1
  O  O10  1  0.207858  0.791297  0.102625  1
  O  O11  1  0.183499  0.805226  0.295166  1
  O  O12  1  0.191722  0.808144  0.498932  1
  O  O13  1  0.196978  0.814433  0.699744  1
  O  O14  1  0.194767  0.814443  0.903620  1
  O  O15  1  0.314469  0.307887  0.001152  1
  O  O16  1  0.293844  0.296691  0.399059  1
  O  O17  1  0.306342  0.313420  0.596654  1
  O  O18  1  0.302133  0.312451  0.799814  1
  O  O19  1  0.694470  0.696058  0.400920  1
  O  O20  1  0.808439  0.191215  0.102913  1
  F  F21  1  0.309127  0.303186  0.202777  1
  F  F22  1  0.702397  0.697144  0.999201  1
  F  F23  1  0.687324  0.683838  0.201131  1
  F  F24  1  0.699184  0.702783  0.600441  1
  F  F25  1  0.697733  0.704018  0.801498  1
  F  F26  1  0.801459  0.196478  0.500810  1
  F  F27  1  0.795328  0.196934  0.295285  1
  F  F28  1  0.802849  0.205536  0.900949  1
  F  F29  1  0.802067  0.204676  0.699320  1
