# generated using pymatgen
data_LiV6O7F5
_symmetry_space_group_name_H-M   'P 1'
_cell_length_a   4.86361342
_cell_length_b   5.70299058
_cell_length_c   7.80716579
_cell_angle_alpha   85.08279242
_cell_angle_beta   92.39488684
_cell_angle_gamma   93.05933575
_symmetry_Int_Tables_number   1
_chemical_formula_structural   LiV6O7F5
_chemical_formula_sum   'Li1 V6 O7 F5'
_cell_volume   215.29323736
_cell_formula_units_Z   1
loop_
 _symmetry_equiv_pos_site_id
 _symmetry_equiv_pos_as_xyz
  1  'x, y, z'
loop_
 _atom_site_type_symbol
 _atom_site_label
 _atom_site_symmetry_multiplicity
 _atom_site_fract_x
 _atom_site_fract_y
 _atom_site_fract_z
 _atom_site_occupancy
  Li  Li0  1  0.489327  0.744241  0.245738  1
  V  V1  1  0.492925  0.836272  0.668562  1
  V  V2  1  0.539579  0.478573  0.974620  1
  V  V3  1  0.535276  0.167919  0.344464  1
  V  V4  1  0.957254  0.997382  0.002553  1
  V  V5  1  0.995369  0.335697  0.677551  1
  V  V6  1  0.987835  0.680077  0.336177  1
  O  O7  1  0.310211  0.864514  0.429053  1
  O  O8  1  0.304659  0.535083  0.762506  1
  O  O9  1  0.694961  0.799604  0.894951  1
  O  O10  1  0.685375  0.474153  0.230954  1
  O  O11  1  0.703295  0.132560  0.574276  1
  O  O12  1  0.796158  0.959887  0.236517  1
  O  O13  1  0.813404  0.295192  0.899034  1
  F  F14  1  0.195182  0.036539  0.776674  1
  F  F15  1  0.192037  0.374405  0.431929  1
  F  F16  1  0.189226  0.699971  0.102165  1
  F  F17  1  0.305584  0.184078  0.100505  1
  F  F18  1  0.800742  0.633790  0.567741  1
