# generated using pymatgen
data_Cs4HfO4
_symmetry_space_group_name_H-M   'P 1'
_cell_length_a   11.97602197
_cell_length_b   7.46516521
_cell_length_c   11.89942597
_cell_angle_alpha   90.00000000
_cell_angle_beta   111.81066157
_cell_angle_gamma   90.00000000
_symmetry_Int_Tables_number   1
_chemical_formula_structural   Cs4HfO4
_chemical_formula_sum   'Cs16 Hf4 O16'
_cell_volume   987.69070297
_cell_formula_units_Z   4
loop_
 _symmetry_equiv_pos_site_id
 _symmetry_equiv_pos_as_xyz
  1  'x, y, z'
loop_
 _atom_site_type_symbol
 _atom_site_label
 _atom_site_symmetry_multiplicity
 _atom_site_fract_x
 _atom_site_fract_y
 _atom_site_fract_z
 _atom_site_occupancy
  Cs  Cs0  1  0.062476  0.411445  0.701424  1
  Cs  Cs1  1  0.155200  0.884287  0.584064  1
  Cs  Cs2  1  0.062476  0.088555  0.201424  1
  Cs  Cs3  1  0.369054  0.660217  0.892154  1
  Cs  Cs4  1  0.155200  0.615713  0.084064  1
  Cs  Cs5  1  0.425959  0.172652  0.792197  1
  Cs  Cs6  1  0.369054  0.839783  0.392154  1
  Cs  Cs7  1  0.574041  0.672652  0.707803  1
  Cs  Cs8  1  0.425959  0.327348  0.292197  1
  Cs  Cs9  1  0.630946  0.160217  0.607846  1
  Cs  Cs10  1  0.574041  0.827348  0.207803  1
  Cs  Cs11  1  0.844800  0.384287  0.915936  1
  Cs  Cs12  1  0.630946  0.339783  0.107846  1
  Cs  Cs13  1  0.937524  0.911445  0.798576  1
  Cs  Cs14  1  0.844800  0.115713  0.415936  1
  Cs  Cs15  1  0.937524  0.588555  0.298576  1
  Hf  Hf16  1  0.242714  0.125089  0.991391  1
  Hf  Hf17  1  0.242714  0.374911  0.491391  1
  Hf  Hf18  1  0.757286  0.625089  0.508609  1
  Hf  Hf19  1  0.757286  0.874911  0.008609  1
  O  O20  1  0.087338  0.231936  0.977304  1
  O  O21  1  0.217751  0.988930  0.841510  1
  O  O22  1  0.087338  0.268064  0.477304  1
  O  O23  1  0.304108  0.528774  0.637397  1
  O  O24  1  0.217751  0.511070  0.341510  1
  O  O25  1  0.360270  0.181354  0.509875  1
  O  O26  1  0.304108  0.971226  0.137397  1
  O  O27  1  0.639730  0.681354  0.990125  1
  O  O28  1  0.360270  0.318646  0.009875  1
  O  O29  1  0.695892  0.028774  0.862603  1
  O  O30  1  0.639730  0.818646  0.490125  1
  O  O31  1  0.782249  0.488930  0.658490  1
  O  O32  1  0.695892  0.471226  0.362603  1
  O  O33  1  0.912662  0.731936  0.522696  1
  O  O34  1  0.782249  0.011070  0.158490  1
  O  O35  1  0.912662  0.768064  0.022696  1
