# generated using pymatgen
data_Li9V3P8O29
_symmetry_space_group_name_H-M   'P 1'
_cell_length_a   9.86166724
_cell_length_b   9.84333756
_cell_length_c   13.71233430
_cell_angle_alpha   90.21991166
_cell_angle_beta   89.96124495
_cell_angle_gamma   60.12245279
_symmetry_Int_Tables_number   1
_chemical_formula_structural   Li9V3P8O29
_chemical_formula_sum   'Li18 V6 P16 O58'
_cell_volume   1154.15509893
_cell_formula_units_Z   2
loop_
 _symmetry_equiv_pos_site_id
 _symmetry_equiv_pos_as_xyz
  1  'x, y, z'
loop_
 _atom_site_type_symbol
 _atom_site_label
 _atom_site_symmetry_multiplicity
 _atom_site_fract_x
 _atom_site_fract_y
 _atom_site_fract_z
 _atom_site_occupancy
  Li  Li0  1  0.903636  0.759027  0.072149  1
  Li  Li1  1  0.761753  0.897803  0.562294  1
  Li  Li2  1  0.899673  0.340577  0.561644  1
  Li  Li3  1  0.682781  0.658145  0.377201  1
  Li  Li4  1  0.665551  0.667589  0.882013  1
  Li  Li5  1  0.769314  0.331659  0.066534  1
  Li  Li6  1  0.333008  0.900922  0.064820  1
  Li  Li7  1  0.659749  0.237426  0.432281  1
  Li  Li8  1  0.340484  0.761301  0.563553  1
  Li  Li9  1  0.666859  0.098989  0.938238  1
  Li  Li10  1  0.234150  0.668042  0.939439  1
  Li  Li11  1  0.333627  0.332433  0.618306  1
  Li  Li12  1  0.315358  0.347304  0.122613  1
  Li  Li13  1  0.097521  0.655765  0.425395  1
  Li  Li14  1  0.235839  0.105337  0.433084  1
  Li  Li15  1  0.001261  0.565592  0.248652  1
  Li  Li16  1  0.097563  0.235343  0.939863  1
  Li  Li17  1  0.003257  0.999149  0.005479  1
  V  V18  1  0.563887  0.436313  0.248329  1
  V  V19  1  0.435622  0.564832  0.750755  1
  V  V20  1  0.565184  0.999076  0.750483  1
  V  V21  1  0.435348  0.001588  0.249953  1
  V  V22  1  0.999299  0.436256  0.750796  1
  V  V23  1  0.997206  0.001272  0.495929  1
  P  P24  1  0.910297  0.775255  0.845880  1
  P  P25  1  0.778707  0.909948  0.344523  1
  P  P26  1  0.907857  0.314648  0.344773  1
  P  P27  1  0.665621  0.671495  0.124934  1
  P  P28  1  0.666452  0.666579  0.623350  1
  P  P29  1  0.773891  0.315939  0.845461  1
  P  P30  1  0.688637  0.221536  0.655145  1
  P  P31  1  0.315388  0.910577  0.845165  1
  P  P32  1  0.685387  0.087832  0.155621  1
  P  P33  1  0.311801  0.778781  0.343490  1
  P  P34  1  0.224993  0.684403  0.153794  1
  P  P35  1  0.338161  0.332656  0.375665  1
  P  P36  1  0.333602  0.333384  0.875833  1
  P  P37  1  0.089497  0.688936  0.654707  1
  P  P38  1  0.222249  0.089467  0.655353  1
  P  P39  1  0.092631  0.227112  0.155492  1
  O  O40  1  0.996959  0.788885  0.566482  1
  O  O41  1  0.919254  0.750012  0.348773  1
  O  O42  1  0.772876  0.993876  0.065777  1
  O  O43  1  0.749483  0.923684  0.845464  1
  O  O44  1  0.890130  0.629919  0.834633  1
  O  O45  1  0.804883  0.682179  0.160045  1
  O  O46  1  0.892038  0.474226  0.345953  1
  O  O47  1  0.000088  0.218840  0.067543  1
  O  O48  1  0.922975  0.327597  0.845743  1
  O  O49  1  0.677251  0.809884  0.663276  1
  O  O50  1  0.624988  0.903042  0.336102  1
  O  O51  1  0.810165  0.513203  0.662291  1
  O  O52  1  0.644283  0.677023  0.015251  1
  O  O53  1  0.663965  0.668419  0.513360  1
  O  O54  1  0.667292  0.520829  0.164716  1
  O  O55  1  0.479851  0.890712  0.833439  1
  O  O56  1  0.510688  0.819305  0.170365  1
  O  O57  1  0.748072  0.322393  0.342347  1
  O  O58  1  0.787955  0.212111  0.750027  1
  O  O59  1  0.788188  0.215322  0.566517  1
  O  O60  1  0.769214  0.226339  0.934040  1
  O  O61  1  0.629409  0.480270  0.833855  1
  O  O62  1  0.513249  0.676475  0.663571  1
  O  O63  1  0.669006  0.250503  0.153121  1
  O  O64  1  0.472464  0.630733  0.340078  1
  O  O65  1  0.329275  0.925739  0.344668  1
  O  O66  1  0.789047  0.001634  0.250047  1
  O  O67  1  0.777497  0.009079  0.434049  1
  O  O68  1  0.215757  0.996743  0.566115  1
  O  O69  1  0.673738  0.074322  0.654702  1
  O  O70  1  0.526955  0.369194  0.661048  1
  O  O71  1  0.326177  0.750142  0.845021  1
  O  O72  1  0.492525  0.319949  0.336509  1
  O  O73  1  0.372883  0.520874  0.167018  1
  O  O74  1  0.238071  0.772814  0.065846  1
  O  O75  1  0.210472  0.789658  0.432925  1
  O  O76  1  0.212898  0.789540  0.249634  1
  O  O77  1  0.252165  0.672617  0.654521  1
  O  O78  1  0.486218  0.189214  0.834941  1
  O  O79  1  0.521033  0.104648  0.167676  1
  O  O80  1  0.324833  0.486532  0.835860  1
  O  O81  1  0.335708  0.332290  0.985558  1
  O  O82  1  0.346428  0.309435  0.485450  1
  O  O83  1  0.197486  0.480920  0.340849  1
  O  O84  1  0.369870  0.103499  0.661809  1
  O  O85  1  0.334518  0.181879  0.331140  1
  O  O86  1  0.079857  0.672687  0.151531  1
  O  O87  1  0.999484  0.788158  0.749928  1
  O  O88  1  0.004912  0.771728  0.933810  1
  O  O89  1  0.103858  0.526539  0.660335  1
  O  O90  1  0.188545  0.325392  0.836054  1
  O  O91  1  0.113324  0.368056  0.161188  1
  O  O92  1  0.253077  0.072494  0.158430  1
  O  O93  1  0.225436  0.005714  0.933728  1
  O  O94  1  0.212282  0.999492  0.749890  1
  O  O95  1  0.075290  0.251576  0.654950  1
  O  O96  1  0.001127  0.207225  0.432720  1
  O  O97  1  0.001126  0.214143  0.250289  1
