# generated using pymatgen
data_Li3Fe8(BO3)8
_symmetry_space_group_name_H-M   'P 1'
_cell_length_a   5.23599088
_cell_length_b   9.12560771
_cell_length_c   11.41365041
_cell_angle_alpha   66.74073230
_cell_angle_beta   76.99762990
_cell_angle_gamma   89.56189704
_symmetry_Int_Tables_number   1
_chemical_formula_structural   Li3Fe8(BO3)8
_chemical_formula_sum   'Li3 Fe8 B8 O24'
_cell_volume   486.18048561
_cell_formula_units_Z   1
loop_
 _symmetry_equiv_pos_site_id
 _symmetry_equiv_pos_as_xyz
  1  'x, y, z'
loop_
 _atom_site_type_symbol
 _atom_site_label
 _atom_site_symmetry_multiplicity
 _atom_site_fract_x
 _atom_site_fract_y
 _atom_site_fract_z
 _atom_site_occupancy
  Li  Li0  1  0.970330  0.968893  0.395557  1
  Li  Li1  1  0.015433  0.993426  0.661414  1
  Li  Li2  1  0.246533  0.259147  0.147174  1
  Fe  Fe3  1  0.981959  0.643741  0.372338  1
  Fe  Fe4  1  0.726537  0.065344  0.886143  1
  Fe  Fe5  1  0.529190  0.836976  0.629469  1
  Fe  Fe6  1  0.765732  0.439689  0.130946  1
  Fe  Fe7  1  0.235163  0.563236  0.873118  1
  Fe  Fe8  1  0.482283  0.153268  0.386495  1
  Fe  Fe9  1  0.019392  0.353465  0.628572  1
  Fe  Fe10  1  0.254300  0.931746  0.127636  1
  B  B11  1  0.968095  0.311709  0.377507  1
  B  B12  1  0.730937  0.392962  0.881369  1
  B  B13  1  0.510313  0.179498  0.634368  1
  B  B14  1  0.764732  0.114578  0.128960  1
  B  B15  1  0.484882  0.815613  0.375398  1
  B  B16  1  0.236302  0.896276  0.873941  1
  B  B17  1  0.035084  0.689358  0.620289  1
  B  B18  1  0.269640  0.597029  0.130373  1
  O  O19  1  0.989167  0.931246  0.852896  1
  O  O20  1  0.866057  0.292990  0.825975  1
  O  O21  1  0.868948  0.476113  0.931177  1
  O  O22  1  0.919187  0.830500  0.602181  1
  O  O23  1  0.949869  0.580572  0.574941  1
  O  O24  1  0.758246  0.162851  0.668937  1
  O  O25  1  0.746022  0.347540  0.325656  1
  O  O26  1  0.469710  0.404211  0.890286  1
  O  O27  1  0.361360  0.776539  0.843007  1
  O  O28  1  0.570661  0.927385  0.417415  1
  O  O29  1  0.637988  0.698063  0.365968  1
  O  O30  1  0.365695  0.983506  0.922365  1
  O  O31  1  0.653003  0.026171  0.074238  1
  O  O32  1  0.364497  0.302620  0.638070  1
  O  O33  1  0.418206  0.066468  0.596520  1
  O  O34  1  0.606854  0.224268  0.164493  1
  O  O35  1  0.530781  0.593586  0.123824  1
  O  O36  1  0.241964  0.652782  0.681428  1
  O  O37  1  0.235829  0.828223  0.344219  1
  O  O38  1  0.046992  0.413267  0.431935  1
  O  O39  1  0.101243  0.185615  0.371118  1
  O  O40  1  0.147543  0.495442  0.087436  1
  O  O41  1  0.119285  0.694430  0.180059  1
  O  O42  1  0.014498  0.098850  0.146192  1
