# generated using pymatgen
data_Li2V3FeO8
_symmetry_space_group_name_H-M   'P 1'
_cell_length_a   5.90255800
_cell_length_b   5.95473121
_cell_length_c   9.63341534
_cell_angle_alpha   90.05249595
_cell_angle_beta   89.97351755
_cell_angle_gamma   120.29282473
_symmetry_Int_Tables_number   1
_chemical_formula_structural   Li2V3FeO8
_chemical_formula_sum   'Li4 V6 Fe2 O16'
_cell_volume   292.36414557
_cell_formula_units_Z   2
loop_
 _symmetry_equiv_pos_site_id
 _symmetry_equiv_pos_as_xyz
  1  'x, y, z'
loop_
 _atom_site_type_symbol
 _atom_site_label
 _atom_site_symmetry_multiplicity
 _atom_site_fract_x
 _atom_site_fract_y
 _atom_site_fract_z
 _atom_site_occupancy
  Li  Li0  1  0.331421  0.666177  0.894370  1
  Li  Li1  1  0.001191  0.999750  0.995244  1
  Li  Li2  1  -0.001191  0.998559  0.495244  1
  Li  Li3  1  0.668579  0.334757  0.394370  1
  V  V4  1  0.175753  0.834094  0.215673  1
  V  V5  1  0.175322  0.341302  0.215338  1
  V  V6  1  0.656966  0.828738  0.211252  1
  V  V7  1  0.343034  0.171772  0.711252  1
  V  V8  1  0.824247  0.658341  0.715673  1
  V  V9  1  0.824678  0.165979  0.715338  1
  Fe  Fe10  1  0.324617  0.662530  0.492591  1
  Fe  Fe11  1  0.675383  0.337912  0.992591  1
  O  O12  1  0.155661  0.831566  0.604177  1
  O  O13  1  0.037687  0.518851  0.336538  1
  O  O14  1  0.312240  0.656164  0.099533  1
  O  O15  1  0.008629  0.004522  0.310178  1
  O  O16  1  0.991371  0.995892  0.810178  1
  O  O17  1  0.155591  0.324177  0.603727  1
  O  O18  1  0.469841  0.961474  0.337289  1
  O  O19  1  0.469640  0.508570  0.336410  1
  O  O20  1  0.331126  0.165081  0.101601  1
  O  O21  1  0.668874  0.833955  0.601601  1
  O  O22  1  0.530159  0.491632  0.837289  1
  O  O23  1  0.530360  0.038930  0.836410  1
  O  O24  1  0.687760  0.343924  0.599533  1
  O  O25  1  0.844339  0.675904  0.104177  1
  O  O26  1  0.962313  0.481164  0.836538  1
  O  O27  1  0.844409  0.168586  0.103727  1
