# generated using pymatgen
data_Ca5Dy3Ti5Mn3O24
_symmetry_space_group_name_H-M   'P 1'
_cell_length_a   5.38336548
_cell_length_b   5.61603511
_cell_length_c   15.27216300
_cell_angle_alpha   90.12317215
_cell_angle_beta   89.83198427
_cell_angle_gamma   89.64270138
_symmetry_Int_Tables_number   1
_chemical_formula_structural   Ca5Dy3Ti5Mn3O24
_chemical_formula_sum   'Ca5 Dy3 Ti5 Mn3 O24'
_cell_volume   461.71384529
_cell_formula_units_Z   1
loop_
 _symmetry_equiv_pos_site_id
 _symmetry_equiv_pos_as_xyz
  1  'x, y, z'
loop_
 _atom_site_type_symbol
 _atom_site_label
 _atom_site_symmetry_multiplicity
 _atom_site_fract_x
 _atom_site_fract_y
 _atom_site_fract_z
 _atom_site_occupancy
  Ca  Ca0  1  0.012615  0.949139  0.376388  1
  Ca  Ca1  1  0.012605  0.942094  0.871708  1
  Ca  Ca2  1  0.490427  0.447033  0.376399  1
  Ca  Ca3  1  0.510888  0.545303  0.127368  1
  Ca  Ca4  1  0.991580  0.045645  0.127581  1
  Dy  Dy5  1  0.485253  0.430783  0.870726  1
  Dy  Dy6  1  0.517103  0.570678  0.626114  1
  Dy  Dy7  1  0.979502  0.071381  0.625657  1
  Ti  Ti8  1  0.992712  0.482588  0.998794  1
  Ti  Ti9  1  0.011292  0.495773  0.252014  1
  Ti  Ti10  1  0.007670  0.504315  0.499557  1
  Ti  Ti11  1  0.513331  0.001066  0.251006  1
  Ti  Ti12  1  0.506252  0.977106  0.998652  1
  Mn  Mn13  1  0.002213  0.504590  0.749961  1
  Mn  Mn14  1  0.496544  0.999669  0.749481  1
  Mn  Mn15  1  0.493142  0.005772  0.500408  1
  O  O16  1  0.078387  0.478919  0.123833  1
  O  O17  1  0.109045  0.468337  0.625452  1
  O  O18  1  0.185437  0.200856  0.479451  1
  O  O19  1  0.209499  0.218452  0.973367  1
  O  O20  1  0.202974  0.212668  0.271257  1
  O  O21  1  0.211599  0.193098  0.774477  1
  O  O22  1  0.303107  0.681818  0.773015  1
  O  O23  1  0.285783  0.708238  0.270783  1
  O  O24  1  0.295675  0.683265  0.479920  1
  O  O25  1  0.305143  0.704269  0.972264  1
  O  O26  1  0.416335  0.978091  0.123318  1
  O  O27  1  0.390195  0.970164  0.622056  1
  O  O28  1  0.591743  0.034062  0.877502  1
  O  O29  1  0.580163  0.025870  0.375259  1
  O  O30  1  0.706413  0.299493  0.019442  1
  O  O31  1  0.705543  0.286083  0.228368  1
  O  O32  1  0.712051  0.311690  0.533059  1
  O  O33  1  0.707524  0.315552  0.724497  1
  O  O34  1  0.784323  0.790562  0.228290  1
  O  O35  1  0.789386  0.813503  0.719817  1
  O  O36  1  0.796867  0.798180  0.021870  1
  O  O37  1  0.801220  0.797444  0.529851  1
  O  O38  1  0.912579  0.527147  0.374941  1
  O  O39  1  0.895881  0.529305  0.876095  1
