# generated using pymatgen
data_Na3CrPCO7
_symmetry_space_group_name_H-M   'P 1'
_cell_length_a   9.19430954
_cell_length_b   5.38555446
_cell_length_c   6.57713105
_cell_angle_alpha   90.00000000
_cell_angle_beta   90.00000000
_cell_angle_gamma   91.02697888
_symmetry_Int_Tables_number   1
_chemical_formula_structural   Na3CrPCO7
_chemical_formula_sum   'Na6 Cr2 P2 C2 O14'
_cell_volume   325.62389738
_cell_formula_units_Z   2
loop_
 _symmetry_equiv_pos_site_id
 _symmetry_equiv_pos_as_xyz
  1  'x, y, z'
loop_
 _atom_site_type_symbol
 _atom_site_label
 _atom_site_symmetry_multiplicity
 _atom_site_fract_x
 _atom_site_fract_y
 _atom_site_fract_z
 _atom_site_occupancy
  Na  Na0  1  0.007450  0.998840  0.485184  1
  Na  Na1  1  0.176527  0.463593  0.179624  1
  Na  Na2  1  0.483521  0.502529  0.493017  1
  Na  Na3  1  0.516479  0.497471  0.993017  1
  Na  Na4  1  0.823473  0.536407  0.679624  1
  Na  Na5  1  0.992550  0.001160  0.985184  1
  Cr  Cr6  1  0.290992  0.024696  0.747426  1
  Cr  Cr7  1  0.709008  0.975304  0.247426  1
  P  P8  1  0.350265  0.982907  0.242049  1
  P  P9  1  0.649735  0.017093  0.742049  1
  C  C10  1  0.139477  0.491256  0.739332  1
  C  C11  1  0.860523  0.508744  0.239332  1
  O  O12  1  0.035996  0.323331  0.735788  1
  O  O13  1  0.106759  0.726161  0.747640  1
  O  O14  1  0.252857  0.068146  0.059128  1
  O  O15  1  0.259035  0.038614  0.436089  1
  O  O16  1  0.274804  0.426347  0.739675  1
  O  O17  1  0.380085  0.702935  0.224465  1
  O  O18  1  0.493230  0.141369  0.245182  1
  O  O19  1  0.506770  0.858631  0.745182  1
  O  O20  1  0.619915  0.297065  0.724465  1
  O  O21  1  0.725196  0.573653  0.239675  1
  O  O22  1  0.740965  0.961386  0.936089  1
  O  O23  1  0.747143  0.931854  0.559128  1
  O  O24  1  0.893241  0.273839  0.247640  1
  O  O25  1  0.964004  0.676669  0.235788  1
