# generated using pymatgen
data_Li2Si2NiO6
_symmetry_space_group_name_H-M   'P 1'
_cell_length_a   10.04092159
_cell_length_b   7.13199230
_cell_length_c   9.82224803
_cell_angle_alpha   90.00000000
_cell_angle_beta   90.00000000
_cell_angle_gamma   90.00000000
_symmetry_Int_Tables_number   1
_chemical_formula_structural   Li2Si2NiO6
_chemical_formula_sum   'Li12 Si12 Ni6 O36'
_cell_volume   703.38862048
_cell_formula_units_Z   6
loop_
 _symmetry_equiv_pos_site_id
 _symmetry_equiv_pos_as_xyz
  1  'x, y, z'
loop_
 _atom_site_type_symbol
 _atom_site_label
 _atom_site_symmetry_multiplicity
 _atom_site_fract_x
 _atom_site_fract_y
 _atom_site_fract_z
 _atom_site_occupancy
  Li  Li0  1  0.000000  0.788218  0.243620  1
  Li  Li1  1  0.000000  0.770407  0.768491  1
  Li  Li2  1  0.225350  0.288848  0.456823  1
  Li  Li3  1  0.229187  0.220752  0.035567  1
  Li  Li4  1  0.270813  0.779248  0.535567  1
  Li  Li5  1  0.274650  0.711152  0.956823  1
  Li  Li6  1  0.500000  0.229593  0.268491  1
  Li  Li7  1  0.500000  0.211782  0.743620  1
  Li  Li8  1  0.725350  0.711152  0.956823  1
  Li  Li9  1  0.729187  0.779248  0.535567  1
  Li  Li10  1  0.770813  0.220752  0.035567  1
  Li  Li11  1  0.774650  0.288848  0.456823  1
  Si  Si12  1  0.000000  0.980395  0.525756  1
  Si  Si13  1  0.000000  0.517099  0.969639  1
  Si  Si14  1  0.226333  0.023201  0.753156  1
  Si  Si15  1  0.226718  0.475963  0.743081  1
  Si  Si16  1  0.273282  0.524037  0.243081  1
  Si  Si17  1  0.273667  0.976799  0.253156  1
  Si  Si18  1  0.500000  0.482901  0.469639  1
  Si  Si19  1  0.500000  0.019605  0.025756  1
  Si  Si20  1  0.726333  0.976799  0.253156  1
  Si  Si21  1  0.726718  0.524037  0.243081  1
  Si  Si22  1  0.773282  0.475963  0.743081  1
  Si  Si23  1  0.773667  0.023201  0.753156  1
  Ni  Ni24  1  0.000000  0.248997  0.246537  1
  Ni  Ni25  1  0.000000  0.980094  0.023332  1
  Ni  Ni26  1  0.000000  0.518037  0.465711  1
  Ni  Ni27  1  0.500000  0.019906  0.523332  1
  Ni  Ni28  1  0.500000  0.481963  0.965711  1
  Ni  Ni29  1  0.500000  0.751003  0.746537  1
  O  O30  1  0.000000  0.306153  0.031291  1
  O  O31  1  0.000000  0.697100  0.068494  1
  O  O32  1  0.000000  0.189508  0.462085  1
  O  O33  1  0.000000  0.798998  0.428834  1
  O  O34  1  0.130975  0.045481  0.193935  1
  O  O35  1  0.123234  0.556974  0.860504  1
  O  O36  1  0.125054  0.944845  0.633237  1
  O  O37  1  0.133414  0.444472  0.301744  1
  O  O38  1  0.172659  0.946591  0.898637  1
  O  O39  1  0.178883  0.536643  0.591876  1
  O  O40  1  0.276476  0.750481  0.257957  1
  O  O41  1  0.223524  0.249519  0.757957  1
  O  O42  1  0.321117  0.463357  0.091876  1
  O  O43  1  0.327341  0.053409  0.398637  1
  O  O44  1  0.366586  0.555528  0.801744  1
  O  O45  1  0.374946  0.055155  0.133237  1
  O  O46  1  0.376766  0.443026  0.360504  1
  O  O47  1  0.369025  0.954519  0.693935  1
  O  O48  1  0.500000  0.693847  0.531291  1
  O  O49  1  0.500000  0.302900  0.568494  1
  O  O50  1  0.500000  0.201002  0.928834  1
  O  O51  1  0.500000  0.810492  0.962085  1
  O  O52  1  0.630975  0.954519  0.693935  1
  O  O53  1  0.623234  0.443026  0.360504  1
  O  O54  1  0.625054  0.055155  0.133237  1
  O  O55  1  0.633414  0.555528  0.801744  1
  O  O56  1  0.672659  0.053409  0.398637  1
  O  O57  1  0.678883  0.463357  0.091876  1
  O  O58  1  0.776476  0.249519  0.757957  1
  O  O59  1  0.723524  0.750481  0.257957  1
  O  O60  1  0.821117  0.536643  0.591876  1
  O  O61  1  0.827341  0.946591  0.898637  1
  O  O62  1  0.866586  0.444472  0.301744  1
  O  O63  1  0.874946  0.944845  0.633237  1
  O  O64  1  0.876766  0.556974  0.860504  1
  O  O65  1  0.869025  0.045481  0.193935  1
