# generated using pymatgen
data_TmCrO3
_symmetry_space_group_name_H-M   'P 1'
_cell_length_a   5.23632437
_cell_length_b   5.58260378
_cell_length_c   7.58289271
_cell_angle_alpha   90.00000000
_cell_angle_beta   90.00000000
_cell_angle_gamma   90.00000000
_symmetry_Int_Tables_number   1
_chemical_formula_structural   TmCrO3
_chemical_formula_sum   'Tm4 Cr4 O12'
_cell_volume   221.66557823
_cell_formula_units_Z   4
loop_
 _symmetry_equiv_pos_site_id
 _symmetry_equiv_pos_as_xyz
  1  'x, y, z'
loop_
 _atom_site_type_symbol
 _atom_site_label
 _atom_site_symmetry_multiplicity
 _atom_site_fract_x
 _atom_site_fract_y
 _atom_site_fract_z
 _atom_site_occupancy
  Tm  Tm0  1  0.022092  0.927938  0.750000  1
  Tm  Tm1  1  0.477908  0.427938  0.750000  1
  Tm  Tm2  1  0.522092  0.572062  0.250000  1
  Tm  Tm3  1  0.977908  0.072062  0.250000  1
  Cr  Cr4  1  0.000000  0.500000  0.000000  1
  Cr  Cr5  1  0.000000  0.500000  0.500000  1
  Cr  Cr6  1  0.500000  0.000000  0.000000  1
  Cr  Cr7  1  0.500000  0.000000  0.500000  1
  O  O8  1  0.120701  0.454589  0.250000  1
  O  O9  1  0.189632  0.195274  0.561173  1
  O  O10  1  0.189632  0.195274  0.938827  1
  O  O11  1  0.310368  0.695274  0.561173  1
  O  O12  1  0.310368  0.695274  0.938827  1
  O  O13  1  0.379299  0.954589  0.250000  1
  O  O14  1  0.620701  0.045411  0.750000  1
  O  O15  1  0.689632  0.304726  0.061173  1
  O  O16  1  0.689632  0.304726  0.438827  1
  O  O17  1  0.810368  0.804726  0.061173  1
  O  O18  1  0.810368  0.804726  0.438827  1
  O  O19  1  0.879299  0.545411  0.750000  1
