# generated using pymatgen
data_H13Se2N3O8
_symmetry_space_group_name_H-M   'P 1'
_cell_length_a   16.23658446
_cell_length_b   6.12864718
_cell_length_c   6.12864718
_cell_angle_alpha   60.03024808
_cell_angle_beta   103.25497500
_cell_angle_gamma   103.25497500
_symmetry_Int_Tables_number   1
_chemical_formula_structural   H13Se2N3O8
_chemical_formula_sum   'H26 Se4 N6 O16'
_cell_volume   509.44938303
_cell_formula_units_Z   2
loop_
 _symmetry_equiv_pos_site_id
 _symmetry_equiv_pos_as_xyz
  1  'x, y, z'
loop_
 _atom_site_type_symbol
 _atom_site_label
 _atom_site_symmetry_multiplicity
 _atom_site_fract_x
 _atom_site_fract_y
 _atom_site_fract_z
 _atom_site_occupancy
  H  H0  1  0.784302  0.289850  0.612068  1
  H  H1  1  0.284302  0.612068  0.289850  1
  H  H2  1  0.215698  0.710150  0.387932  1
  H  H3  1  0.715698  0.387932  0.710150  1
  H  H4  1  0.793185  0.217540  0.917559  1
  H  H5  1  0.293185  0.917559  0.217540  1
  H  H6  1  0.206815  0.782460  0.082441  1
  H  H7  1  0.706815  0.082441  0.782460  1
  H  H8  1  0.066300  0.341954  0.690820  1
  H  H9  1  0.566300  0.690820  0.341954  1
  H  H10  1  0.933700  0.658046  0.309180  1
  H  H11  1  0.433700  0.309180  0.658046  1
  H  H12  1  0.071337  0.527181  0.833622  1
  H  H13  1  0.571337  0.833622  0.527181  1
  H  H14  1  0.928663  0.472819  0.166378  1
  H  H15  1  0.428663  0.166378  0.472819  1
  H  H16  1  0.983111  0.319153  0.828271  1
  H  H17  1  0.483111  0.828271  0.319153  1
  H  H18  1  0.016889  0.680847  0.171729  1
  H  H19  1  0.516889  0.171729  0.680847  1
  H  H20  1  0.073891  0.207270  0.013023  1
  H  H21  1  0.573891  0.013023  0.207270  1
  H  H22  1  0.926109  0.792730  0.986977  1
  H  H23  1  0.426109  0.986977  0.792730  1
  H  H24  1  0.750000  0.734001  0.265999  1
  H  H25  1  0.250000  0.265999  0.734001  1
  Se  Se26  1  0.135924  0.051671  0.560503  1
  Se  Se27  1  0.635924  0.560503  0.051671  1
  Se  Se28  1  0.864076  0.948329  0.439497  1
  Se  Se29  1  0.364076  0.439497  0.948329  1
  N  N30  1  0.750000  0.246306  0.753694  1
  N  N31  1  0.250000  0.753694  0.246306  1
  N  N32  1  0.048426  0.348459  0.842097  1
  N  N33  1  0.548426  0.842097  0.348459  1
  N  N34  1  0.951574  0.651541  0.157903  1
  N  N35  1  0.451574  0.157903  0.651541  1
  O  O36  1  0.243231  0.151329  0.613592  1
  O  O37  1  0.743231  0.613592  0.151329  1
  O  O38  1  0.756769  0.848671  0.386408  1
  O  O39  1  0.256769  0.386408  0.848671  1
  O  O40  1  0.121333  0.941292  0.354312  1
  O  O41  1  0.621333  0.354312  0.941292  1
  O  O42  1  0.878667  0.058708  0.645688  1
  O  O43  1  0.378667  0.645688  0.058708  1
  O  O44  1  0.108899  0.823292  0.844759  1
  O  O45  1  0.608899  0.844759  0.823292  1
  O  O46  1  0.891101  0.176708  0.155241  1
  O  O47  1  0.391101  0.155241  0.176708  1
  O  O48  1  0.086084  0.304615  0.443695  1
  O  O49  1  0.586084  0.443695  0.304615  1
  O  O50  1  0.913916  0.695385  0.556305  1
  O  O51  1  0.413916  0.556305  0.695385  1
