# generated using pymatgen
data_Li3Fe(Si2O5)3
_symmetry_space_group_name_H-M   'P 1'
_cell_length_a   9.86328217
_cell_length_b   7.97666109
_cell_length_c   14.97597961
_cell_angle_alpha   90.00000000
_cell_angle_beta   90.00000000
_cell_angle_gamma   90.00000000
_symmetry_Int_Tables_number   1
_chemical_formula_structural   Li3Fe(Si2O5)3
_chemical_formula_sum   'Li12 Fe4 Si24 O60'
_cell_volume   1178.25105695
_cell_formula_units_Z   4
loop_
 _symmetry_equiv_pos_site_id
 _symmetry_equiv_pos_as_xyz
  1  'x, y, z'
loop_
 _atom_site_type_symbol
 _atom_site_label
 _atom_site_symmetry_multiplicity
 _atom_site_fract_x
 _atom_site_fract_y
 _atom_site_fract_z
 _atom_site_occupancy
  Li  Li0  1  0.915414  0.250000  0.063739  1
  Li  Li1  1  0.584586  0.250000  0.563739  1
  Li  Li2  1  0.498077  0.999457  0.243868  1
  Li  Li3  1  0.498077  0.500543  0.243868  1
  Li  Li4  1  0.501923  0.000543  0.756132  1
  Li  Li5  1  0.501923  0.499457  0.756132  1
  Li  Li6  1  0.415414  0.750000  0.436261  1
  Li  Li7  1  0.084586  0.750000  0.936261  1
  Li  Li8  1  0.998077  0.000543  0.256132  1
  Li  Li9  1  0.998077  0.499457  0.256132  1
  Li  Li10  1  0.001923  0.999457  0.743868  1
  Li  Li11  1  0.001923  0.500543  0.743868  1
  Fe  Fe12  1  0.746075  0.250000  0.251915  1
  Fe  Fe13  1  0.753925  0.250000  0.751915  1
  Fe  Fe14  1  0.246075  0.750000  0.248085  1
  Fe  Fe15  1  0.253925  0.750000  0.748085  1
  Si  Si16  1  0.973553  0.750000  0.401671  1
  Si  Si17  1  0.975299  0.750000  0.599346  1
  Si  Si18  1  0.792083  0.561230  0.100508  1
  Si  Si19  1  0.792083  0.938770  0.100508  1
  Si  Si20  1  0.794164  0.940632  0.899698  1
  Si  Si21  1  0.794164  0.559368  0.899698  1
  Si  Si22  1  0.705836  0.940632  0.399698  1
  Si  Si23  1  0.705836  0.559368  0.399698  1
  Si  Si24  1  0.707917  0.561230  0.600508  1
  Si  Si25  1  0.707917  0.938770  0.600508  1
  Si  Si26  1  0.524701  0.750000  0.099346  1
  Si  Si27  1  0.526447  0.750000  0.901671  1
  Si  Si28  1  0.475299  0.250000  0.900654  1
  Si  Si29  1  0.473553  0.250000  0.098329  1
  Si  Si30  1  0.292083  0.438770  0.399492  1
  Si  Si31  1  0.292083  0.061230  0.399492  1
  Si  Si32  1  0.294164  0.059368  0.600302  1
  Si  Si33  1  0.294164  0.440632  0.600302  1
  Si  Si34  1  0.205836  0.059368  0.100302  1
  Si  Si35  1  0.207917  0.438770  0.899492  1
  Si  Si36  1  0.207917  0.061230  0.899492  1
  Si  Si37  1  0.205836  0.440632  0.100302  1
  Si  Si38  1  0.026447  0.250000  0.598329  1
  Si  Si39  1  0.024701  0.250000  0.400654  1
  O  O40  1  0.954896  0.250000  0.499767  1
  O  O41  1  0.921472  0.250000  0.318341  1
  O  O42  1  0.924754  0.250000  0.681330  1
  O  O43  1  0.870508  0.587471  0.393308  1
  O  O44  1  0.870508  0.912529  0.393308  1
  O  O45  1  0.873015  0.586106  0.608275  1
  O  O46  1  0.873015  0.913894  0.608275  1
  O  O47  1  0.859875  0.750000  0.109326  1
  O  O48  1  0.866973  0.750000  0.897860  1
  O  O49  1  0.850454  0.073612  0.170021  1
  O  O50  1  0.850454  0.426388  0.170021  1
  O  O51  1  0.845206  0.059304  0.820712  1
  O  O52  1  0.845206  0.440696  0.820712  1
  O  O53  1  0.831410  0.483089  0.000201  1
  O  O54  1  0.831410  0.016911  0.000201  1
  O  O55  1  0.668590  0.483089  0.500201  1
  O  O56  1  0.668590  0.016911  0.500201  1
  O  O57  1  0.649546  0.073612  0.670021  1
  O  O58  1  0.654794  0.059304  0.320712  1
  O  O59  1  0.654794  0.440696  0.320712  1
  O  O60  1  0.649546  0.426388  0.670021  1
  O  O61  1  0.633027  0.750000  0.397860  1
  O  O62  1  0.640125  0.750000  0.609326  1
  O  O63  1  0.626985  0.913894  0.108275  1
  O  O64  1  0.626985  0.586106  0.108275  1
  O  O65  1  0.629492  0.587471  0.893308  1
  O  O66  1  0.629492  0.912529  0.893308  1
  O  O67  1  0.575246  0.250000  0.181330  1
  O  O68  1  0.578528  0.250000  0.818341  1
  O  O69  1  0.545104  0.250000  0.999767  1
  O  O70  1  0.454896  0.750000  0.000233  1
  O  O71  1  0.421472  0.750000  0.181659  1
  O  O72  1  0.424754  0.750000  0.818670  1
  O  O73  1  0.373015  0.086106  0.891725  1
  O  O74  1  0.373015  0.413894  0.891725  1
  O  O75  1  0.370508  0.087471  0.106692  1
  O  O76  1  0.370508  0.412529  0.106692  1
  O  O77  1  0.366973  0.250000  0.602140  1
  O  O78  1  0.359875  0.250000  0.390674  1
  O  O79  1  0.345206  0.559304  0.679288  1
  O  O80  1  0.345206  0.940696  0.679288  1
  O  O81  1  0.350454  0.573612  0.329979  1
  O  O82  1  0.350454  0.926388  0.329979  1
  O  O83  1  0.331410  0.983089  0.499799  1
  O  O84  1  0.331410  0.516911  0.499799  1
  O  O85  1  0.168590  0.983089  0.999799  1
  O  O86  1  0.168590  0.516911  0.999799  1
  O  O87  1  0.154794  0.559304  0.179288  1
  O  O88  1  0.154794  0.940696  0.179288  1
  O  O89  1  0.149546  0.573612  0.829979  1
  O  O90  1  0.149546  0.926388  0.829979  1
  O  O91  1  0.133027  0.250000  0.102140  1
  O  O92  1  0.140125  0.250000  0.890674  1
  O  O93  1  0.129492  0.412529  0.606692  1
  O  O94  1  0.126985  0.413894  0.391725  1
  O  O95  1  0.126985  0.086106  0.391725  1
  O  O96  1  0.129492  0.087471  0.606692  1
  O  O97  1  0.075246  0.750000  0.318670  1
  O  O98  1  0.078528  0.750000  0.681659  1
  O  O99  1  0.045104  0.750000  0.500233  1
