# generated using pymatgen
data_Li2VP2HO8
_symmetry_space_group_name_H-M   'P 1'
_cell_length_a   4.86160925
_cell_length_b   8.17014293
_cell_length_c   7.62529154
_cell_angle_alpha   90.00000000
_cell_angle_beta   104.11155311
_cell_angle_gamma   90.00000000
_symmetry_Int_Tables_number   1
_chemical_formula_structural   Li2VP2HO8
_chemical_formula_sum   'Li4 V2 P4 H2 O16'
_cell_volume   293.73694887
_cell_formula_units_Z   2
loop_
 _symmetry_equiv_pos_site_id
 _symmetry_equiv_pos_as_xyz
  1  'x, y, z'
loop_
 _atom_site_type_symbol
 _atom_site_label
 _atom_site_symmetry_multiplicity
 _atom_site_fract_x
 _atom_site_fract_y
 _atom_site_fract_z
 _atom_site_occupancy
  Li  Li0  1  0.115730  0.366192  0.655316  1
  Li  Li1  1  0.384270  0.866192  0.844684  1
  Li  Li2  1  0.604333  0.135751  0.160042  1
  Li  Li3  1  0.895667  0.635751  0.339958  1
  V  V4  1  0.500125  0.499409  0.004139  1
  V  V5  1  0.999875  0.999409  0.495861  1
  P  P6  1  0.132174  0.348230  0.268455  1
  P  P7  1  0.367826  0.848230  0.231545  1
  P  P8  1  0.629552  0.155168  0.761403  1
  P  P9  1  0.870448  0.655168  0.738597  1
  H  H10  1  0.537561  0.512140  0.513653  1
  H  H11  1  0.962439  0.012140  0.986347  1
  O  O12  1  0.115585  0.543704  0.839370  1
  O  O13  1  0.013158  0.181139  0.308426  1
  O  O14  1  0.150557  0.826077  0.349328  1
  O  O15  1  0.259766  0.439883  0.447429  1
  O  O16  1  0.384415  0.043704  0.660630  1
  O  O17  1  0.515638  0.319001  0.810656  1
  O  O18  1  0.240234  0.939883  0.052571  1
  O  O19  1  0.349443  0.326077  0.150672  1
  O  O20  1  0.645492  0.674753  0.848054  1
  O  O21  1  0.754633  0.061338  0.946728  1
  O  O22  1  0.486842  0.681139  0.191574  1
  O  O23  1  0.616145  0.957116  0.339422  1
  O  O24  1  0.745367  0.561338  0.553272  1
  O  O25  1  0.854508  0.174753  0.651946  1
  O  O26  1  0.984362  0.819001  0.689344  1
  O  O27  1  0.883855  0.457116  0.160578  1
