# generated using pymatgen
data_Fe3P2(HO)16
_symmetry_space_group_name_H-M   'P 1'
_cell_length_a   9.04202400
_cell_length_b   8.42427990
_cell_length_c   9.04202400
_cell_angle_alpha   108.76426451
_cell_angle_beta   84.62786181
_cell_angle_gamma   148.44556306
_symmetry_Int_Tables_number   1
_chemical_formula_structural   Fe3P2(HO)16
_chemical_formula_sum   'Fe3 P2 H16 O16'
_cell_volume   317.82734577
_cell_formula_units_Z   1
loop_
 _symmetry_equiv_pos_site_id
 _symmetry_equiv_pos_as_xyz
  1  'x, y, z'
loop_
 _atom_site_type_symbol
 _atom_site_label
 _atom_site_symmetry_multiplicity
 _atom_site_fract_x
 _atom_site_fract_y
 _atom_site_fract_z
 _atom_site_occupancy
  Fe  Fe0  1  0.000000  0.000000  0.000000  1
  Fe  Fe1  1  0.389883  0.000000  0.389883  1
  Fe  Fe2  1  0.610117  0.000000  0.610117  1
  P  P3  1  0.937670  0.249255  0.311586  1
  P  P4  1  0.062330  0.750745  0.688414  1
  H  H5  1  0.882440  0.563538  0.939507  1
  H  H6  1  0.375969  0.436462  0.318902  1
  H  H7  1  0.117560  0.436462  0.060493  1
  H  H8  1  0.624031  0.563538  0.681098  1
  H  H9  1  0.590321  0.380223  0.956402  1
  H  H10  1  0.576179  0.619777  0.210098  1
  H  H11  1  0.409679  0.619777  0.043598  1
  H  H12  1  0.423821  0.380223  0.789902  1
  H  H13  1  0.051310  0.223635  0.566408  1
  H  H14  1  0.342773  0.776365  0.827675  1
  H  H15  1  0.948690  0.776365  0.433592  1
  H  H16  1  0.657227  0.223635  0.172325  1
  H  H17  1  0.022899  0.198200  0.737797  1
  H  H18  1  0.539597  0.801800  0.824699  1
  H  H19  1  0.977101  0.801800  0.262203  1
  H  H20  1  0.460403  0.198200  0.175301  1
  O  O21  1  0.789027  0.945969  0.156942  1
  O  O22  1  0.210973  0.054031  0.843058  1
  O  O23  1  0.694961  0.084249  0.389288  1
  O  O24  1  0.305039  0.915751  0.610712  1
  O  O25  1  0.025356  0.463955  0.244377  1
  O  O26  1  0.780422  0.536045  0.561401  1
  O  O27  1  0.974644  0.536045  0.755623  1
  O  O28  1  0.219578  0.463955  0.438599  1
  O  O29  1  0.420523  0.405150  0.219373  1
  O  O30  1  0.814223  0.594850  0.015373  1
  O  O31  1  0.579477  0.594850  0.780627  1
  O  O32  1  0.185777  0.405150  0.984627  1
  O  O33  1  0.906773  0.079523  0.620134  1
  O  O34  1  0.540610  0.920477  0.827250  1
  O  O35  1  0.093227  0.920477  0.379866  1
  O  O36  1  0.459390  0.079523  0.172750  1
