# generated using pymatgen
data_Mn8O13F3
_symmetry_space_group_name_H-M   'P 1'
_cell_length_a   6.71595745
_cell_length_b   5.53527878
_cell_length_c   6.74128101
_cell_angle_alpha   89.14401076
_cell_angle_beta   95.90525375
_cell_angle_gamma   89.67333635
_symmetry_Int_Tables_number   1
_chemical_formula_structural   Mn8O13F3
_chemical_formula_sum   'Mn8 O13 F3'
_cell_volume   249.24079385
_cell_formula_units_Z   1
loop_
 _symmetry_equiv_pos_site_id
 _symmetry_equiv_pos_as_xyz
  1  'x, y, z'
loop_
 _atom_site_type_symbol
 _atom_site_label
 _atom_site_symmetry_multiplicity
 _atom_site_fract_x
 _atom_site_fract_y
 _atom_site_fract_z
 _atom_site_occupancy
  Mn  Mn0  1  0.371235  0.350096  0.117451  1
  Mn  Mn1  1  0.127262  0.686613  0.378435  1
  Mn  Mn2  1  0.868971  0.155246  0.120831  1
  Mn  Mn3  1  0.385664  0.136316  0.635048  1
  Mn  Mn4  1  0.134584  0.850627  0.876133  1
  Mn  Mn5  1  0.625746  0.856473  0.372401  1
  Mn  Mn6  1  0.614750  0.630779  0.867594  1
  Mn  Mn7  1  0.878760  0.355334  0.637101  1
  O  O8  1  0.152454  0.109595  0.074237  1
  O  O9  1  0.171691  0.614996  0.099240  1
  O  O10  1  0.575565  0.603366  0.150465  1
  O  O11  1  0.080232  0.620131  0.655467  1
  O  O12  1  0.353419  0.896393  0.429692  1
  O  O13  1  0.099058  0.110219  0.675524  1
  O  O14  1  0.588909  0.113776  0.169400  1
  O  O15  1  0.411459  0.884769  0.832497  1
  O  O16  1  0.660459  0.111847  0.578570  1
  O  O17  1  0.896768  0.893794  0.317452  1
  O  O18  1  0.416946  0.387256  0.842225  1
  O  O19  1  0.669160  0.605229  0.591590  1
  O  O20  1  0.824940  0.388884  0.903091  1
  F  F21  1  0.327745  0.379362  0.410960  1
  F  F22  1  0.927765  0.392235  0.356211  1
  F  F23  1  0.836462  0.866663  0.908387  1
