# generated using pymatgen
data_H2C2S3N2(OF)6
_symmetry_space_group_name_H-M   'P 1'
_cell_length_a   5.39425769
_cell_length_b   5.39425769
_cell_length_c   21.26689424
_cell_angle_alpha   85.66605953
_cell_angle_beta   94.33394047
_cell_angle_gamma   117.01847035
_symmetry_Int_Tables_number   1
_chemical_formula_structural   H2C2S3N2(OF)6
_chemical_formula_sum   'H4 C4 S6 N4 O12 F12'
_cell_volume   549.11692189
_cell_formula_units_Z   2
loop_
 _symmetry_equiv_pos_site_id
 _symmetry_equiv_pos_as_xyz
  1  'x, y, z'
loop_
 _atom_site_type_symbol
 _atom_site_label
 _atom_site_symmetry_multiplicity
 _atom_site_fract_x
 _atom_site_fract_y
 _atom_site_fract_z
 _atom_site_occupancy
  H  H0  1  0.067290  0.428820  0.798834  1
  H  H1  1  0.428820  0.067290  0.701166  1
  H  H2  1  0.932710  0.571180  0.201166  1
  H  H3  1  0.571180  0.932710  0.298834  1
  C  C4  1  0.321666  0.232753  0.928195  1
  C  C5  1  0.232753  0.321666  0.571805  1
  C  C6  1  0.678334  0.767247  0.071805  1
  C  C7  1  0.767247  0.678334  0.428195  1
  S  S8  1  0.112520  0.063435  0.854644  1
  S  S9  1  0.063435  0.112520  0.645356  1
  S  S10  1  0.887480  0.936565  0.145356  1
  S  S11  1  0.936565  0.887480  0.354644  1
  S  S12  1  0.442736  0.442736  0.750000  1
  S  S13  1  0.557264  0.557264  0.250000  1
  N  N14  1  0.195839  0.333412  0.802865  1
  N  N15  1  0.333412  0.195839  0.697135  1
  N  N16  1  0.804161  0.666588  0.197135  1
  N  N17  1  0.666588  0.804161  0.302865  1
  O  O18  1  0.827093  0.966847  0.868541  1
  O  O19  1  0.966847  0.827093  0.631459  1
  O  O20  1  0.172907  0.033153  0.131459  1
  O  O21  1  0.033153  0.172907  0.368541  1
  O  O22  1  0.224112  0.887133  0.834926  1
  O  O23  1  0.887133  0.224112  0.665074  1
  O  O24  1  0.775888  0.112867  0.165074  1
  O  O25  1  0.112867  0.775888  0.334926  1
  O  O26  1  0.688299  0.438808  0.779421  1
  O  O27  1  0.438808  0.688299  0.720579  1
  O  O28  1  0.311701  0.561192  0.220579  1
  O  O29  1  0.561192  0.311701  0.279421  1
  F  F30  1  0.249155  0.427118  0.944587  1
  F  F31  1  0.427118  0.249155  0.555413  1
  F  F32  1  0.750845  0.572882  0.055413  1
  F  F33  1  0.572882  0.750845  0.444587  1
  F  F34  1  0.259517  0.031969  0.974658  1
  F  F35  1  0.031969  0.259517  0.525342  1
  F  F36  1  0.740483  0.968031  0.025342  1
  F  F37  1  0.968031  0.740483  0.474658  1
  F  F38  1  0.595755  0.351775  0.918970  1
  F  F39  1  0.351775  0.595755  0.581030  1
  F  F40  1  0.404245  0.648225  0.081030  1
  F  F41  1  0.648225  0.404245  0.418970  1
