# generated using pymatgen
data_Li5Fe4P4O16F
_symmetry_space_group_name_H-M   'P 1'
_cell_length_a   5.34386779
_cell_length_b   8.30638036
_cell_length_c   8.30638036
_cell_angle_alpha   95.93920695
_cell_angle_beta   108.76409901
_cell_angle_gamma   71.23590099
_symmetry_Int_Tables_number   1
_chemical_formula_structural   Li5Fe4P4O16F
_chemical_formula_sum   'Li5 Fe4 P4 O16 F1'
_cell_volume   330.55415444
_cell_formula_units_Z   1
loop_
 _symmetry_equiv_pos_site_id
 _symmetry_equiv_pos_as_xyz
  1  'x, y, z'
loop_
 _atom_site_type_symbol
 _atom_site_label
 _atom_site_symmetry_multiplicity
 _atom_site_fract_x
 _atom_site_fract_y
 _atom_site_fract_z
 _atom_site_occupancy
  Li  Li0  1  0.500000  0.000000  0.000000  1
  Li  Li1  1  0.996197  0.447756  0.328828  1
  Li  Li2  1  0.556047  0.328828  0.552244  1
  Li  Li3  1  0.332631  0.671172  0.447756  1
  Li  Li4  1  0.115125  0.552244  0.671172  1
  Fe  Fe5  1  0.084519  0.042335  0.279163  1
  Fe  Fe6  1  0.194645  0.720837  0.042335  1
  Fe  Fe7  1  0.873147  0.279163  0.957665  1
  Fe  Fe8  1  0.847690  0.957665  0.720837  1
  P  P9  1  0.440784  0.348141  0.161555  1
  P  P10  1  0.211075  0.161555  0.651859  1
  P  P11  1  0.720771  0.838445  0.348141  1
  P  P12  1  0.627370  0.651859  0.838445  1
  O  O13  1  0.301338  0.204134  0.121359  1
  O  O14  1  0.766167  0.271147  0.191760  1
  O  O15  1  0.683426  0.991295  0.468900  1
  O  O16  1  0.785475  0.531100  0.991295  1
  O  O17  1  0.388979  0.443263  0.323901  1
  O  O18  1  0.167757  0.323901  0.556737  1
  O  O19  1  0.494529  0.121359  0.795866  1
  O  O20  1  0.962686  0.191760  0.728853  1
  O  O21  1  0.425593  0.808240  0.271147  1
  O  O22  1  0.820021  0.878641  0.204134  1
  O  O23  1  0.934923  0.676099  0.443263  1
  O  O24  1  0.508340  0.556737  0.676099  1
  O  O25  1  0.325280  0.468900  0.008705  1
  O  O26  1  0.205820  0.008705  0.531100  1
  O  O27  1  0.845555  0.728853  0.808240  1
  O  O28  1  0.384113  0.795866  0.878641  1
  F  F29  1  0.000000  0.000000  0.000000  1
