# generated using pymatgen
data_Li3CoSiCO7
_symmetry_space_group_name_H-M   'P 1'
_cell_length_a   8.39455075
_cell_length_b   6.28956250
_cell_length_c   5.03636574
_cell_angle_alpha   90.00000000
_cell_angle_beta   85.16944931
_cell_angle_gamma   90.00000000
_symmetry_Int_Tables_number   1
_chemical_formula_structural   Li3CoSiCO7
_chemical_formula_sum   'Li6 Co2 Si2 C2 O14'
_cell_volume   264.96581122
_cell_formula_units_Z   2
loop_
 _symmetry_equiv_pos_site_id
 _symmetry_equiv_pos_as_xyz
  1  'x, y, z'
loop_
 _atom_site_type_symbol
 _atom_site_label
 _atom_site_symmetry_multiplicity
 _atom_site_fract_x
 _atom_site_fract_y
 _atom_site_fract_z
 _atom_site_occupancy
  Li  Li0  1  0.101809  0.250000  0.756239  1
  Li  Li1  1  0.277917  0.020247  0.244890  1
  Li  Li2  1  0.277917  0.479753  0.244890  1
  Li  Li3  1  0.722083  0.520247  0.755110  1
  Li  Li4  1  0.722083  0.979753  0.755110  1
  Li  Li5  1  0.898191  0.750000  0.243761  1
  Co  Co6  1  0.331310  0.750000  0.801816  1
  Co  Co7  1  0.668690  0.250000  0.198184  1
  Si  Si8  1  0.421355  0.250000  0.708501  1
  Si  Si9  1  0.578645  0.750000  0.291499  1
  C  C10  1  0.031971  0.750000  0.709816  1
  C  C11  1  0.968029  0.250000  0.290184  1
  O  O12  1  0.114916  0.250000  0.349934  1
  O  O13  1  0.068918  0.750000  0.954422  1
  O  O14  1  0.147387  0.750000  0.520764  1
  O  O15  1  0.303920  0.049995  0.811745  1
  O  O16  1  0.303920  0.450005  0.811745  1
  O  O17  1  0.447259  0.250000  0.379842  1
  O  O18  1  0.405594  0.750000  0.170071  1
  O  O19  1  0.594406  0.250000  0.829929  1
  O  O20  1  0.552741  0.750000  0.620158  1
  O  O21  1  0.696080  0.549995  0.188255  1
  O  O22  1  0.696080  0.950005  0.188255  1
  O  O23  1  0.852613  0.250000  0.479236  1
  O  O24  1  0.931082  0.250000  0.045578  1
  O  O25  1  0.885084  0.750000  0.650066  1
