# generated using pymatgen
data_Na2Li4Co2C4SO16
_symmetry_space_group_name_H-M   'P 1'
_cell_length_a   9.82605009
_cell_length_b   9.82498749
_cell_length_c   9.60532979
_cell_angle_alpha   120.77955860
_cell_angle_beta   120.73660389
_cell_angle_gamma   90.14630632
_symmetry_Int_Tables_number   1
_chemical_formula_structural   Na2Li4Co2C4SO16
_chemical_formula_sum   'Na4 Li8 Co4 C8 S2 O32'
_cell_volume   639.48414769
_cell_formula_units_Z   2
loop_
 _symmetry_equiv_pos_site_id
 _symmetry_equiv_pos_as_xyz
  1  'x, y, z'
loop_
 _atom_site_type_symbol
 _atom_site_label
 _atom_site_symmetry_multiplicity
 _atom_site_fract_x
 _atom_site_fract_y
 _atom_site_fract_z
 _atom_site_occupancy
  Na  Na0  1  0.902946  0.097078  0.250072  1
  Na  Na1  1  0.652811  0.347461  0.750275  1
  Na  Na2  1  0.347194  0.652543  0.249728  1
  Na  Na3  1  0.097053  0.902920  0.749929  1
  Li  Li4  1  0.487488  0.972313  0.305577  1
  Li  Li5  1  0.182750  0.167193  0.695259  1
  Li  Li6  1  0.166898  0.182530  0.194842  1
  Li  Li7  1  0.971953  0.487045  0.804920  1
  Li  Li8  1  0.028046  0.512957  0.195081  1
  Li  Li9  1  0.833098  0.817479  0.805162  1
  Li  Li10  1  0.817258  0.832809  0.304750  1
  Li  Li11  1  0.512510  0.027692  0.694427  1
  Co  Co12  1  0.500000  0.999999  0.000000  1
  Co  Co13  1  0.500002  0.500001  0.500002  1
  Co  Co14  1  0.000000  0.499998  0.499999  1
  Co  Co15  1  0.500000  0.500000  -0.000000  1
  C  C16  1  0.722783  0.285664  0.449067  1
  C  C17  1  0.274098  0.336136  0.551299  1
  C  C18  1  0.714301  0.277726  0.051222  1
  C  C19  1  0.336176  0.274257  0.051466  1
  C  C20  1  0.663826  0.725746  0.948538  1
  C  C21  1  0.285699  0.722269  0.948776  1
  C  C22  1  0.725903  0.663863  0.448701  1
  C  C23  1  0.277215  0.714333  0.550928  1
  S  S24  1  0.875136  0.125009  0.750065  1
  S  S25  1  0.124862  0.874996  0.249938  1
  O  O26  1  0.940341  0.064310  0.879286  1
  O  O27  1  0.321757  0.127467  0.914579  1
  O  O28  1  0.935658  0.059509  0.620691  1
  O  O29  1  0.684747  0.060665  0.619789  1
  O  O30  1  0.590482  0.284915  0.912260  1
  O  O31  1  0.939245  0.315245  0.880236  1
  O  O32  1  0.596333  0.142729  0.303046  1
  O  O33  1  0.295271  0.337342  0.696312  1
  O  O34  1  0.861739  0.306828  0.466387  1
  O  O35  1  0.395719  0.340741  0.533122  1
  O  O36  1  0.692726  0.138092  0.033634  1
  O  O37  1  0.715013  0.409080  0.587732  1
  O  O38  1  0.659371  0.604620  0.967024  1
  O  O39  1  0.127797  0.321820  0.414441  1
  O  O40  1  0.337509  0.295629  0.196792  1
  O  O41  1  0.143355  0.596528  0.803589  1
  O  O42  1  0.856647  0.403468  0.196409  1
  O  O43  1  0.662496  0.704373  0.803216  1
  O  O44  1  0.872204  0.678176  0.585557  1
  O  O45  1  0.340631  0.395379  0.032979  1
  O  O46  1  0.284988  0.590920  0.412264  1
  O  O47  1  0.307274  0.861903  0.966362  1
  O  O48  1  0.604285  0.659262  0.466884  1
  O  O49  1  0.138259  0.693166  0.533607  1
  O  O50  1  0.704728  0.662657  0.303687  1
  O  O51  1  0.403663  0.857270  0.696949  1
  O  O52  1  0.060749  0.684759  0.119764  1
  O  O53  1  0.409520  0.715084  0.087739  1
  O  O54  1  0.315250  0.939337  0.380208  1
  O  O55  1  0.064345  0.940497  0.379317  1
  O  O56  1  0.678244  0.872532  0.085427  1
  O  O57  1  0.059654  0.935698  0.120720  1
