# generated using pymatgen
data_Sm2TeO6
_symmetry_space_group_name_H-M   'P 1'
_cell_length_a   9.28468115
_cell_length_b   9.28462056
_cell_length_c   5.36946898
_cell_angle_alpha   90.00056585
_cell_angle_beta   90.00000606
_cell_angle_gamma   120.00027581
_symmetry_Int_Tables_number   1
_chemical_formula_structural   Sm2TeO6
_chemical_formula_sum   'Sm6 Te3 O18'
_cell_volume   400.85925608
_cell_formula_units_Z   3
loop_
 _symmetry_equiv_pos_site_id
 _symmetry_equiv_pos_as_xyz
  1  'x, y, z'
loop_
 _atom_site_type_symbol
 _atom_site_label
 _atom_site_symmetry_multiplicity
 _atom_site_fract_x
 _atom_site_fract_y
 _atom_site_fract_z
 _atom_site_occupancy
  Sm  Sm0  1  0.999993  0.613935  0.999994  1
  Sm  Sm1  1  0.000008  0.276375  0.500018  1
  Sm  Sm2  1  0.386058  0.386065  0.000006  1
  Sm  Sm3  1  0.276349  0.000000  0.499999  1
  Sm  Sm4  1  0.723632  0.723625  0.499982  1
  Sm  Sm5  1  0.613916  0.000000  -0.000000  1
  Te  Te6  1  0.333322  0.666657  0.498907  1
  Te  Te7  1  0.000024  0.000000  1.000000  1
  Te  Te8  1  0.666665  0.333342  0.501092  1
  O  O9  1  0.071883  0.876125  0.792018  1
  O  O10  1  0.227017  0.759421  0.288663  1
  O  O11  1  0.136926  0.543009  0.708812  1
  O  O12  1  0.406092  0.863072  0.708813  1
  O  O13  1  0.240567  0.467592  0.288656  1
  O  O14  1  0.123868  0.195757  0.791984  1
  O  O15  1  0.195759  0.123875  0.207982  1
  O  O16  1  0.532405  0.772976  0.288625  1
  O  O17  1  0.456985  0.593906  0.708796  1
  O  O18  1  0.804192  0.928083  0.792008  1
  O  O19  1  0.467597  0.240580  0.711337  1
  O  O20  1  0.593918  0.456991  0.291188  1
  O  O21  1  0.543020  0.136928  0.291187  1
  O  O22  1  0.772975  0.532408  0.711345  1
  O  O23  1  0.928111  0.804243  0.208015  1
  O  O24  1  0.759429  0.227025  0.711376  1
  O  O25  1  0.863080  0.406094  0.291204  1
  O  O26  1  0.876109  0.071917  0.207992  1
