# generated using pymatgen
data_La2P4O13
_symmetry_space_group_name_H-M   'P 1'
_cell_length_a   9.22125899
_cell_length_b   10.17224494
_cell_length_c   14.48132802
_cell_angle_alpha   90.00000000
_cell_angle_beta   106.38933094
_cell_angle_gamma   90.00000000
_symmetry_Int_Tables_number   1
_chemical_formula_structural   La2P4O13
_chemical_formula_sum   'La8 P16 O52'
_cell_volume   1303.16673084
_cell_formula_units_Z   4
loop_
 _symmetry_equiv_pos_site_id
 _symmetry_equiv_pos_as_xyz
  1  'x, y, z'
loop_
 _atom_site_type_symbol
 _atom_site_label
 _atom_site_symmetry_multiplicity
 _atom_site_fract_x
 _atom_site_fract_y
 _atom_site_fract_z
 _atom_site_occupancy
  La  La0  1  0.277925  0.001262  0.993832  1
  La  La1  1  0.221521  0.005890  0.514671  1
  La  La2  1  0.277925  0.498738  0.493832  1
  La  La3  1  0.221521  0.494110  0.014671  1
  La  La4  1  0.778479  0.505890  0.985329  1
  La  La5  1  0.722075  0.501262  0.506168  1
  La  La6  1  0.778479  0.994110  0.485329  1
  La  La7  1  0.722075  0.998738  0.006168  1
  P  P8  1  0.027317  0.276030  0.597248  1
  P  P9  1  0.102537  0.246394  0.811067  1
  P  P10  1  0.228434  0.733583  0.688813  1
  P  P11  1  0.027317  0.223970  0.097248  1
  P  P12  1  0.102537  0.253606  0.311067  1
  P  P13  1  0.455486  0.721898  0.899101  1
  P  P14  1  0.228434  0.766417  0.188813  1
  P  P15  1  0.544514  0.221898  0.600899  1
  P  P16  1  0.455486  0.778102  0.399101  1
  P  P17  1  0.771566  0.233583  0.811187  1
  P  P18  1  0.544514  0.278102  0.100899  1
  P  P19  1  0.897463  0.746394  0.688933  1
  P  P20  1  0.972683  0.776030  0.902752  1
  P  P21  1  0.771566  0.266417  0.311187  1
  P  P22  1  0.897463  0.753606  0.188933  1
  P  P23  1  0.972683  0.723970  0.402752  1
  O  O24  1  0.072540  0.700465  0.714253  1
  O  O25  1  0.123004  0.838049  0.903329  1
  O  O26  1  0.012506  0.131202  0.563259  1
  O  O27  1  0.129369  0.370377  0.869726  1
  O  O28  1  0.129537  0.274874  0.709103  1
  O  O29  1  0.117315  0.356682  0.544375  1
  O  O30  1  0.201181  0.130705  0.853291  1
  O  O31  1  0.072540  0.799535  0.214253  1
  O  O32  1  0.123004  0.661951  0.403329  1
  O  O33  1  0.012506  0.368798  0.063259  1
  O  O34  1  0.373033  0.636212  0.954412  1
  O  O35  1  0.223755  0.869484  0.647655  1
  O  O36  1  0.129369  0.129623  0.369726  1
  O  O37  1  0.129537  0.225126  0.209103  1
  O  O38  1  0.260044  0.622751  0.628330  1
  O  O39  1  0.352653  0.729360  0.788868  1
  O  O40  1  0.117315  0.143318  0.044375  1
  O  O41  1  0.395544  0.161053  0.604819  1
  O  O42  1  0.475937  0.865977  0.936645  1
  O  O43  1  0.201181  0.369295  0.353291  1
  O  O44  1  0.373033  0.863788  0.454412  1
  O  O45  1  0.223755  0.630516  0.147655  1
  O  O46  1  0.260044  0.877249  0.128330  1
  O  O47  1  0.352653  0.770640  0.288868  1
  O  O48  1  0.524063  0.365977  0.563355  1
  O  O49  1  0.604456  0.661053  0.895181  1
  O  O50  1  0.395544  0.338947  0.104819  1
  O  O51  1  0.475937  0.634023  0.436645  1
  O  O52  1  0.647347  0.229360  0.711132  1
  O  O53  1  0.739956  0.122751  0.871670  1
  O  O54  1  0.776245  0.369484  0.852345  1
  O  O55  1  0.626967  0.136212  0.545588  1
  O  O56  1  0.798819  0.630705  0.646709  1
  O  O57  1  0.524063  0.134023  0.063355  1
  O  O58  1  0.604456  0.838947  0.395181  1
  O  O59  1  0.882685  0.856682  0.955625  1
  O  O60  1  0.647347  0.270640  0.211132  1
  O  O61  1  0.739956  0.377249  0.371670  1
  O  O62  1  0.870463  0.774874  0.790897  1
  O  O63  1  0.870631  0.870377  0.630274  1
  O  O64  1  0.776245  0.130516  0.352345  1
  O  O65  1  0.626967  0.363788  0.045588  1
  O  O66  1  0.987494  0.631202  0.936741  1
  O  O67  1  0.876996  0.338049  0.596671  1
  O  O68  1  0.927460  0.200465  0.785747  1
  O  O69  1  0.798819  0.869295  0.146709  1
  O  O70  1  0.882685  0.643318  0.455625  1
  O  O71  1  0.870463  0.725126  0.290897  1
  O  O72  1  0.870631  0.629623  0.130274  1
  O  O73  1  0.987494  0.868798  0.436741  1
  O  O74  1  0.876996  0.161951  0.096671  1
  O  O75  1  0.927460  0.299535  0.285747  1
