# generated using pymatgen
data_Li7Fe8(BO3)8
_symmetry_space_group_name_H-M   'P 1'
_cell_length_a   5.22932736
_cell_length_b   9.06649645
_cell_length_c   11.47295513
_cell_angle_alpha   113.00665274
_cell_angle_beta   78.02124978
_cell_angle_gamma   90.35857886
_symmetry_Int_Tables_number   1
_chemical_formula_structural   Li7Fe8(BO3)8
_chemical_formula_sum   'Li7 Fe8 B8 O24'
_cell_volume   488.08756463
_cell_formula_units_Z   1
loop_
 _symmetry_equiv_pos_site_id
 _symmetry_equiv_pos_as_xyz
  1  'x, y, z'
loop_
 _atom_site_type_symbol
 _atom_site_label
 _atom_site_symmetry_multiplicity
 _atom_site_fract_x
 _atom_site_fract_y
 _atom_site_fract_z
 _atom_site_occupancy
  Li  Li0  1  0.169127  0.153565  0.335146  1
  Li  Li1  1  0.351794  0.288939  0.591255  1
  Li  Li2  1  0.614961  0.048975  0.086929  1
  Li  Li3  1  0.918692  0.423518  0.830838  1
  Li  Li4  1  0.114577  0.551936  0.090767  1
  Li  Li5  1  0.670463  0.667410  0.337344  1
  Li  Li6  1  0.426987  0.926007  0.829929  1
  Fe  Fe7  1  0.406749  0.276641  0.869710  1
  Fe  Fe8  1  0.105578  0.220721  0.113223  1
  Fe  Fe9  1  0.841020  0.124826  0.620341  1
  Fe  Fe10  1  0.655690  0.352502  0.372253  1
  Fe  Fe11  1  0.347430  0.651671  0.621208  1
  Fe  Fe12  1  0.146377  0.844384  0.373414  1
  Fe  Fe13  1  0.902106  0.770642  0.862411  1
  Fe  Fe14  1  0.593816  0.728182  0.118482  1
  B  B15  1  0.653790  0.020008  0.368246  1
  B  B16  1  0.897299  0.106019  0.876961  1
  B  B17  1  0.148002  0.510586  0.367530  1
  B  B18  1  0.398377  0.605705  0.873912  1
  B  B19  1  0.856811  0.470294  0.618718  1
  B  B20  1  0.599228  0.399664  0.130259  1
  B  B21  1  0.346896  0.984805  0.624605  1
  B  B22  1  0.098536  0.895675  0.123201  1
  O  O23  1  0.145681  0.114973  0.906864  1
  O  O24  1  0.443903  0.139172  0.659578  1
  O  O25  1  0.235626  0.032008  0.139838  1
  O  O26  1  0.509426  0.157033  0.377361  1
  O  O27  1  0.897246  0.039008  0.398147  1
  O  O28  1  0.804345  0.219235  0.839250  1
  O  O29  1  0.242894  0.484476  0.885505  1
  O  O30  1  0.040729  0.360748  0.340693  1
  O  O31  1  0.693000  0.283532  0.170041  1
  O  O32  1  0.623224  0.449060  0.568886  1
  O  O33  1  0.973385  0.345106  0.633583  1
  O  O34  1  0.365910  0.378984  0.087568  1
  O  O35  1  0.646052  0.611440  0.903312  1
  O  O36  1  0.395956  0.526918  0.399598  1
  O  O37  1  0.307863  0.719222  0.835696  1
  O  O38  1  0.960342  0.617078  0.653974  1
  O  O39  1  0.737740  0.531186  0.138671  1
  O  O40  1  0.200102  0.773980  0.150725  1
  O  O41  1  0.128149  0.960535  0.571961  1
  O  O42  1  0.469689  0.867199  0.643830  1
  O  O43  1  0.016627  0.633130  0.359095  1
  O  O44  1  0.742338  0.987771  0.892217  1
  O  O45  1  0.547447  0.872865  0.332630  1
  O  O46  1  0.863819  0.883039  0.083782  1
