# generated using pymatgen
data_Sr5(ReO3)12
_symmetry_space_group_name_H-M   'P 1'
_cell_length_a   8.04366999
_cell_length_b   8.11171420
_cell_length_c   13.14526028
_cell_angle_alpha   89.96216883
_cell_angle_beta   89.94870100
_cell_angle_gamma   109.56799717
_symmetry_Int_Tables_number   1
_chemical_formula_structural   Sr5(ReO3)12
_chemical_formula_sum   'Sr5 Re12 O36'
_cell_volume   808.16374997
_cell_formula_units_Z   1
loop_
 _symmetry_equiv_pos_site_id
 _symmetry_equiv_pos_as_xyz
  1  'x, y, z'
loop_
 _atom_site_type_symbol
 _atom_site_label
 _atom_site_symmetry_multiplicity
 _atom_site_fract_x
 _atom_site_fract_y
 _atom_site_fract_z
 _atom_site_occupancy
  Sr  Sr0  1  0.816379  0.812248  0.184533  1
  Sr  Sr1  1  0.998665  0.363134  0.000164  1
  Sr  Sr2  1  0.501243  0.139220  0.499779  1
  Sr  Sr3  1  0.145570  0.501838  0.500283  1
  Sr  Sr4  1  0.812872  0.812404  0.815528  1
  Re  Re5  1  0.820131  0.183554  0.316359  1
  Re  Re6  1  0.670078  0.311297  0.181359  1
  Re  Re7  1  0.432726  0.574762  0.068809  1
  Re  Re8  1  0.932379  0.065484  0.569152  1
  Re  Re9  1  0.609412  0.113950  0.755030  1
  Re  Re10  1  0.885941  0.383644  0.746556  1
  Re  Re11  1  0.383052  0.887189  0.251877  1
  Re  Re12  1  0.112368  0.611301  0.250525  1
  Re  Re13  1  0.565349  0.430947  0.931156  1
  Re  Re14  1  0.062961  0.933707  0.431533  1
  Re  Re15  1  0.182758  0.818194  0.681622  1
  Re  Re16  1  0.315924  0.678816  0.816888  1
  O  O17  1  0.833523  0.165245  0.164031  1
  O  O18  1  0.965701  0.031868  0.323171  1
  O  O19  1  0.674635  0.328459  0.032611  1
  O  O20  1  0.474384  0.111130  0.181929  1
  O  O21  1  0.885732  0.522838  0.176710  1
  O  O22  1  0.333311  0.342326  0.999472  1
  O  O23  1  0.671347  0.671612  0.998673  1
  O  O24  1  0.539865  0.474064  0.170445  1
  O  O25  1  0.829332  0.181139  0.467618  1
  O  O26  1  0.662689  0.324028  0.333718  1
  O  O27  1  0.289205  0.995282  0.355081  1
  O  O28  1  0.003380  0.712323  0.352163  1
  O  O29  1  0.211739  0.508608  0.146198  1
  O  O30  1  0.496307  0.787788  0.148526  1
  O  O31  1  0.027753  0.386893  0.322254  1
  O  O32  1  0.170549  0.170228  0.499768  1
  O  O33  1  0.835637  0.838123  0.499992  1
  O  O34  1  0.387741  0.025098  0.678642  1
  O  O35  1  0.161054  0.831298  0.170953  1
  O  O36  1  0.615693  0.973652  0.319902  1
  O  O37  1  0.326893  0.667781  0.336138  1
  O  O38  1  0.666742  0.325827  0.665488  1
  O  O39  1  0.971522  0.613825  0.678834  1
  O  O40  1  0.836364  0.167102  0.835882  1
  O  O41  1  0.792349  0.495458  0.856215  1
  O  O42  1  0.510333  0.217140  0.853422  1
  O  O43  1  0.996576  0.290746  0.644592  1
  O  O44  1  0.714422  0.008283  0.649840  1
  O  O45  1  0.324309  0.660832  0.665228  1
  O  O46  1  0.475332  0.540777  0.827390  1
  O  O47  1  0.182088  0.829776  0.530586  1
  O  O48  1  0.111109  0.471427  0.821623  1
  O  O49  1  0.527305  0.883587  0.820536  1
  O  O50  1  0.322800  0.665355  0.966004  1
  O  O51  1  0.031743  0.965123  0.674493  1
  O  O52  1  0.159882  0.826841  0.830722  1
