# generated using pymatgen
data_Mg11Mn2O13
_symmetry_space_group_name_H-M   'P 1'
_cell_length_a   3.03854562
_cell_length_b   19.97259013
_cell_length_c   4.30211381
_cell_angle_alpha   96.18277191
_cell_angle_beta   90.00000000
_cell_angle_gamma   85.63741675
_symmetry_Int_Tables_number   1
_chemical_formula_structural   Mg11Mn2O13
_chemical_formula_sum   'Mg11 Mn2 O13'
_cell_volume   258.80554941
_cell_formula_units_Z   1
loop_
 _symmetry_equiv_pos_site_id
 _symmetry_equiv_pos_as_xyz
  1  'x, y, z'
loop_
 _atom_site_type_symbol
 _atom_site_label
 _atom_site_symmetry_multiplicity
 _atom_site_fract_x
 _atom_site_fract_y
 _atom_site_fract_z
 _atom_site_occupancy
  Mg  Mg0  1  0.921981  0.156039  0.078019  1
  Mg  Mg1  1  0.614682  0.770635  0.385318  1
  Mg  Mg2  1  0.539129  0.921744  0.460871  1
  Mg  Mg3  1  0.770327  0.459346  0.229673  1
  Mg  Mg4  1  0.846154  0.307692  0.153846  1
  Mg  Mg5  1  0.384246  0.231508  0.615754  1
  Mg  Mg6  1  0.460422  0.079156  0.539578  1
  Mg  Mg7  1  0.308062  0.383877  0.691938  1
  Mg  Mg8  1  0.231886  0.536229  0.768114  1
  Mg  Mg9  1  0.153179  0.693641  0.846821  1
  Mg  Mg10  1  0.077625  0.844750  0.922375  1
  Mn  Mn11  1  0.692391  0.615218  0.307609  1
  Mn  Mn12  1  0.999917  0.000166  0.000083  1
  O  O13  1  0.458886  0.082228  0.041114  1
  O  O14  1  0.308260  0.383482  0.191740  1
  O  O15  1  0.384048  0.231903  0.115952  1
  O  O16  1  0.233422  0.533157  0.266578  1
  O  O17  1  0.151416  0.697169  0.348584  1
  O  O18  1  0.076749  0.846501  0.423251  1
  O  O19  1  0.769803  0.460393  0.730197  1
  O  O20  1  0.922505  0.154992  0.577495  1
  O  O21  1  0.846154  0.307692  0.653846  1
  O  O22  1  0.692487  0.615025  0.807513  1
  O  O23  1  0.999821  0.000360  0.500179  1
  O  O24  1  0.615558  0.768883  0.884442  1
  O  O25  1  0.540891  0.918216  0.959109  1
