# generated using pymatgen
data_K3Mo4H6O16F
_symmetry_space_group_name_H-M   'P 1'
_cell_length_a   10.71918703
_cell_length_b   10.60426603
_cell_length_c   8.12404701
_cell_angle_alpha   106.42890101
_cell_angle_beta   96.59668925
_cell_angle_gamma   103.98709911
_symmetry_Int_Tables_number   1
_chemical_formula_structural   K3Mo4H6O16F
_chemical_formula_sum   'K6 Mo8 H12 O32 F2'
_cell_volume   842.66590740
_cell_formula_units_Z   2
loop_
 _symmetry_equiv_pos_site_id
 _symmetry_equiv_pos_as_xyz
  1  'x, y, z'
loop_
 _atom_site_type_symbol
 _atom_site_label
 _atom_site_symmetry_multiplicity
 _atom_site_fract_x
 _atom_site_fract_y
 _atom_site_fract_z
 _atom_site_occupancy
  K  K0  1  0.530188  0.857578  0.180861  1
  K  K1  1  0.469812  0.142422  0.819139  1
  K  K2  1  0.168705  0.896777  0.319409  1
  K  K3  1  0.831295  0.103223  0.680591  1
  K  K4  1  0.821039  0.473129  0.083974  1
  K  K5  1  0.178961  0.526872  0.916026  1
  Mo  Mo6  1  0.511283  0.520672  0.725366  1
  Mo  Mo7  1  0.488717  0.479328  0.274634  1
  Mo  Mo8  1  0.822558  0.753908  0.856886  1
  Mo  Mo9  1  0.177442  0.246092  0.143114  1
  Mo  Mo10  1  0.503208  0.212452  0.394711  1
  Mo  Mo11  1  0.496792  0.787548  0.605289  1
  Mo  Mo12  1  0.793412  0.438642  0.594375  1
  Mo  Mo13  1  0.206588  0.561358  0.405625  1
  H  H14  1  0.300092  0.826496  0.911049  1
  H  H15  1  0.699908  0.173504  0.088951  1
  H  H16  1  0.160767  0.814897  0.951664  1
  H  H17  1  0.839233  0.185103  0.048336  1
  H  H18  1  0.914520  0.739456  0.298769  1
  H  H19  1  0.085480  0.260544  0.701231  1
  H  H20  1  0.874700  0.750230  0.478590  1
  H  H21  1  0.125300  0.249770  0.521410  1
  H  H22  1  0.105787  0.974638  0.687733  1
  H  H23  1  0.894213  0.025362  0.312267  1
  H  H24  1  0.107580  0.823479  0.629924  1
  H  H25  1  0.892420  0.176521  0.370076  1
  O  O26  1  0.446065  0.587602  0.905759  1
  O  O27  1  0.553935  0.412398  0.094241  1
  O  O28  1  0.949714  0.739082  0.002440  1
  O  O29  1  0.050286  0.260918  0.997560  1
  O  O30  1  0.881702  0.911085  0.824954  1
  O  O31  1  0.118298  0.088915  0.175046  1
  O  O32  1  0.563366  0.140145  0.208172  1
  O  O33  1  0.436634  0.859855  0.791828  1
  O  O34  1  0.408011  0.070224  0.436615  1
  O  O35  1  0.591989  0.929776  0.563385  1
  O  O36  1  0.845381  0.393870  0.396314  1
  O  O37  1  0.154619  0.606130  0.603686  1
  O  O38  1  0.910690  0.419379  0.749014  1
  O  O39  1  0.089310  0.580621  0.250986  1
  O  O40  1  0.440419  0.339712  0.658272  1
  O  O41  1  0.559581  0.660288  0.341728  1
  O  O42  1  0.849122  0.639105  0.638466  1
  O  O43  1  0.150878  0.360895  0.361534  1
  O  O44  1  0.663048  0.265908  0.572196  1
  O  O45  1  0.336952  0.734092  0.427804  1
  O  O46  1  0.623843  0.719233  0.709589  1
  O  O47  1  0.376157  0.280767  0.290411  1
  O  O48  1  0.690534  0.536061  0.811773  1
  O  O49  1  0.309466  0.463939  0.188227  1
  O  O50  1  0.596658  0.440195  0.456513  1
  O  O51  1  0.403342  0.559805  0.543487  1
  O  O52  1  0.245801  0.806262  0.996113  1
  O  O53  1  0.754199  0.193738  0.003887  1
  O  O54  1  0.904218  0.805222  0.403536  1
  O  O55  1  0.095782  0.194778  0.596464  1
  O  O56  1  0.165095  0.917781  0.672883  1
  O  O57  1  0.834905  0.082219  0.327117  1
  F  F58  1  0.726085  0.802621  0.044263  1
  F  F59  1  0.273915  0.197379  0.955737  1
