# generated using pymatgen
data_NiH4(IO4)2
_symmetry_space_group_name_H-M   'P 1'
_cell_length_a   6.91512980
_cell_length_b   9.14062653
_cell_length_c   12.32341789
_cell_angle_alpha   90.00000000
_cell_angle_beta   90.00000000
_cell_angle_gamma   90.00000000
_symmetry_Int_Tables_number   1
_chemical_formula_structural   NiH4(IO4)2
_chemical_formula_sum   'Ni4 H16 I8 O32'
_cell_volume   778.94622506
_cell_formula_units_Z   4
loop_
 _symmetry_equiv_pos_site_id
 _symmetry_equiv_pos_as_xyz
  1  'x, y, z'
loop_
 _atom_site_type_symbol
 _atom_site_label
 _atom_site_symmetry_multiplicity
 _atom_site_fract_x
 _atom_site_fract_y
 _atom_site_fract_z
 _atom_site_occupancy
  Ni  Ni0  1  0.000000  0.000000  0.000000  1
  Ni  Ni1  1  0.500000  0.500000  0.000000  1
  Ni  Ni2  1  0.000000  0.500000  0.500000  1
  Ni  Ni3  1  0.500000  0.000000  0.500000  1
  I  I4  1  0.221368  0.275939  0.136750  1
  I  I5  1  0.721368  0.224061  0.863250  1
  I  I6  1  0.778632  0.775939  0.363250  1
  I  I7  1  0.278632  0.724061  0.636750  1
  I  I8  1  0.778632  0.724061  0.863250  1
  I  I9  1  0.278632  0.775939  0.136750  1
  I  I10  1  0.221368  0.224061  0.636750  1
  I  I11  1  0.721368  0.275939  0.363250  1
  O  O12  1  0.441110  0.291442  0.053851  1
  O  O13  1  0.941110  0.208559  0.946149  1
  O  O14  1  0.558890  0.791442  0.446149  1
  O  O15  1  0.058890  0.708558  0.553851  1
  O  O16  1  0.558890  0.708558  0.946149  1
  O  O17  1  0.058890  0.791442  0.053851  1
  O  O18  1  0.441110  0.208559  0.553851  1
  O  O19  1  0.941110  0.291442  0.446149  1
  O  O20  1  0.324939  0.276646  0.273530  1
  O  O21  1  0.824939  0.223354  0.726470  1
  O  O22  1  0.675061  0.776646  0.226470  1
  O  O23  1  0.175061  0.723354  0.773530  1
  O  O24  1  0.675061  0.723354  0.726470  1
  O  O25  1  0.175061  0.776646  0.273530  1
  O  O26  1  0.324939  0.223354  0.773530  1
  O  O27  1  0.824939  0.276646  0.226470  1
  O  O28  1  0.178567  0.078569  0.123993  1
  O  O29  1  0.678567  0.421431  0.876007  1
  O  O30  1  0.821433  0.578569  0.376007  1
  O  O31  1  0.321433  0.921431  0.623993  1
  O  O32  1  0.821433  0.921431  0.876007  1
  O  O33  1  0.321433  0.578569  0.123993  1
  O  O34  1  0.178567  0.421431  0.623993  1
  O  O35  1  0.678567  0.078569  0.376007  1
  O  O36  1  0.240893  0.518204  0.400059  1
  O  O37  1  0.740893  0.981796  0.599941  1
  O  O38  1  0.759107  0.018204  0.099941  1
  O  O39  1  0.259107  0.481796  0.900059  1
  O  O40  1  0.759107  0.481796  0.599941  1
  O  O41  1  0.259107  0.018204  0.400059  1
  O  O42  1  0.240893  0.981796  0.900059  1
  O  O43  1  0.740893  0.518204  0.099941  1
  H  H44  1  0.231784  0.604519  0.352034  1
  H  H45  1  0.731784  0.895481  0.647966  1
  H  H46  1  0.768216  0.104519  0.147966  1
  H  H47  1  0.268216  0.395481  0.852034  1
  H  H48  1  0.768216  0.395481  0.647966  1
  H  H49  1  0.268216  0.104519  0.352034  1
  H  H50  1  0.231784  0.895481  0.852034  1
  H  H51  1  0.731784  0.604519  0.147966  1
  H  H52  1  0.263839  0.432117  0.352581  1
  H  H53  1  0.763839  0.067883  0.647419  1
  H  H54  1  0.736161  0.932117  0.147419  1
  H  H55  1  0.236161  0.567883  0.852581  1
  H  H56  1  0.736161  0.567883  0.647419  1
  H  H57  1  0.236161  0.932117  0.352581  1
  H  H58  1  0.263839  0.067883  0.852581  1
  H  H59  1  0.763839  0.432117  0.147419  1
