# generated using pymatgen
data_Na5Fe2P2(CO7)2
_symmetry_space_group_name_H-M   'P 1'
_cell_length_a   10.39082060
_cell_length_b   10.50574912
_cell_length_c   6.64418304
_cell_angle_alpha   90.00000000
_cell_angle_beta   90.00000000
_cell_angle_gamma   60.06978240
_symmetry_Int_Tables_number   1
_chemical_formula_structural   Na5Fe2P2(CO7)2
_chemical_formula_sum   'Na10 Fe4 P4 C4 O28'
_cell_volume   628.57057590
_cell_formula_units_Z   2
loop_
 _symmetry_equiv_pos_site_id
 _symmetry_equiv_pos_as_xyz
  1  'x, y, z'
loop_
 _atom_site_type_symbol
 _atom_site_label
 _atom_site_symmetry_multiplicity
 _atom_site_fract_x
 _atom_site_fract_y
 _atom_site_fract_z
 _atom_site_occupancy
  Na  Na0  1  0.912308  0.430953  0.758424  1
  Na  Na1  1  0.924846  0.915065  0.749627  1
  Na  Na2  1  0.739674  0.262018  0.500304  1
  Na  Na3  1  0.739754  0.264275  0.997227  1
  Na  Na4  1  0.732061  0.752942  0.518837  1
  Na  Na5  1  0.260246  0.235725  0.497227  1
  Na  Na6  1  0.260326  0.237982  0.000304  1
  Na  Na7  1  0.267939  0.747058  0.018837  1
  Na  Na8  1  0.087692  0.069047  0.258424  1
  Na  Na9  1  0.075154  0.584935  0.249627  1
  Fe  Fe10  1  0.647797  0.063513  0.244666  1
  Fe  Fe11  1  0.648563  0.573794  0.242043  1
  Fe  Fe12  1  0.352203  0.436487  0.744666  1
  Fe  Fe13  1  0.351437  0.926206  0.742043  1
  P  P14  1  0.580253  0.067441  0.747591  1
  P  P15  1  0.580671  0.560153  0.750123  1
  P  P16  1  0.419747  0.432559  0.247591  1
  P  P17  1  0.419329  0.939847  0.250123  1
  C  C18  1  0.944206  0.389760  0.256290  1
  C  C19  1  0.928285  0.903397  0.245878  1
  C  C20  1  0.055794  0.110240  0.756290  1
  C  C21  1  0.071715  0.596603  0.745878  1
  O  O22  1  0.912183  0.189578  0.748318  1
  O  O23  1  0.932877  0.679980  0.729914  1
  O  O24  1  0.866292  0.047409  0.244892  1
  O  O25  1  0.880126  0.531933  0.266622  1
  O  O26  1  0.862153  0.328459  0.252510  1
  O  O27  1  0.835915  0.852879  0.262421  1
  O  O28  1  0.675244  0.059229  0.935475  1
  O  O29  1  0.675581  0.059566  0.559930  1
  O  O30  1  0.683941  0.524865  0.934630  1
  O  O31  1  0.676980  0.544742  0.563942  1
  O  O32  1  0.569593  0.282500  0.248869  1
  O  O33  1  0.565863  0.795413  0.263257  1
  O  O34  1  0.542332  0.430106  0.740105  1
  O  O35  1  0.544496  0.943345  0.740567  1
  O  O36  1  0.457668  0.069894  0.240105  1
  O  O37  1  0.455504  0.556655  0.240567  1
  O  O38  1  0.430407  0.217500  0.748869  1
  O  O39  1  0.434137  0.704587  0.763257  1
  O  O40  1  0.324756  0.440771  0.435475  1
  O  O41  1  0.324419  0.440434  0.059930  1
  O  O42  1  0.323020  0.955258  0.063942  1
  O  O43  1  0.316059  0.975135  0.434630  1
  O  O44  1  0.137847  0.171541  0.752510  1
  O  O45  1  0.164085  0.647121  0.762421  1
  O  O46  1  0.133708  0.452591  0.744893  1
  O  O47  1  0.119874  0.968067  0.766622  1
  O  O48  1  0.087817  0.310422  0.248318  1
  O  O49  1  0.067123  0.820020  0.229914  1
