# generated using pymatgen
data_Li8Mn5Fe3(BO3)8
_symmetry_space_group_name_H-M   'P 1'
_cell_length_a   6.03604378
_cell_length_b   5.23504284
_cell_length_c   16.23099884
_cell_angle_alpha   91.06982850
_cell_angle_beta   97.92168924
_cell_angle_gamma   89.23767712
_symmetry_Int_Tables_number   1
_chemical_formula_structural   Li8Mn5Fe3(BO3)8
_chemical_formula_sum   'Li8 Mn5 Fe3 B8 O24'
_cell_volume   507.86985886
_cell_formula_units_Z   1
loop_
 _symmetry_equiv_pos_site_id
 _symmetry_equiv_pos_as_xyz
  1  'x, y, z'
loop_
 _atom_site_type_symbol
 _atom_site_label
 _atom_site_symmetry_multiplicity
 _atom_site_fract_x
 _atom_site_fract_y
 _atom_site_fract_z
 _atom_site_occupancy
  Li  Li0  1  0.064330  0.847053  0.612075  1
  Li  Li1  1  0.436361  0.152709  0.889357  1
  Li  Li2  1  0.183213  0.654054  0.137240  1
  Li  Li3  1  0.316168  0.346992  0.361821  1
  Li  Li4  1  0.687046  0.652111  0.641532  1
  Li  Li5  1  0.814250  0.345034  0.858527  1
  Li  Li6  1  0.561635  0.847015  0.107843  1
  Li  Li7  1  0.937757  0.152524  0.391462  1
  Mn  Mn8  1  0.024511  0.170073  0.210693  1
  Mn  Mn9  1  0.522448  0.168690  0.708897  1
  Mn  Mn10  1  0.474802  0.829381  0.289307  1
  Mn  Mn11  1  0.774835  0.669091  0.460709  1
  Mn  Mn12  1  0.724118  0.330767  0.039761  1
  Fe  Fe13  1  0.273734  0.666010  0.959192  1
  Fe  Fe14  1  0.225504  0.328787  0.539213  1
  Fe  Fe15  1  0.977366  0.831549  0.793433  1
  B  B16  1  0.037349  0.329103  0.703453  1
  B  B17  1  0.287172  0.829062  0.454961  1
  B  B18  1  0.463093  0.671314  0.797643  1
  B  B19  1  0.211803  0.172615  0.044928  1
  B  B20  1  0.786094  0.828868  0.951399  1
  B  B21  1  0.532837  0.328958  0.201841  1
  B  B22  1  0.715428  0.171610  0.547945  1
  B  B23  1  0.966622  0.670860  0.297872  1
  O  O24  1  0.011164  0.588490  0.692053  1
  O  O25  1  0.168929  0.184830  0.654108  1
  O  O26  1  0.173462  0.709213  0.512391  1
  O  O27  1  0.324800  0.295823  0.987958  1
  O  O28  1  0.081658  0.786046  0.239881  1
  O  O29  1  0.330022  0.819731  0.845570  1
  O  O30  1  0.079777  0.316821  0.093740  1
  O  O31  1  0.262752  0.089300  0.442924  1
  O  O32  1  0.488872  0.411742  0.811321  1
  O  O33  1  0.237481  0.912707  0.055724  1
  O  O34  1  0.418525  0.683425  0.406243  1
  O  O35  1  0.418251  0.213772  0.259856  1
  O  O36  1  0.574874  0.789099  0.739839  1
  O  O37  1  0.580070  0.321681  0.593817  1
  O  O38  1  0.762067  0.088376  0.938216  1
  O  O39  1  0.509462  0.587596  0.186861  1
  O  O40  1  0.739398  0.912572  0.562297  1
  O  O41  1  0.919270  0.681070  0.903464  1
  O  O42  1  0.667547  0.177841  0.155737  1
  O  O43  1  0.927051  0.202645  0.760698  1
  O  O44  1  0.675383  0.711689  0.009789  1
  O  O45  1  0.829314  0.287693  0.489909  1
  O  O46  1  0.831591  0.821493  0.343954  1
  O  O47  1  0.989808  0.412114  0.312550  1
