# generated using pymatgen
data_LiNbCoO4
_symmetry_space_group_name_H-M   'P 1'
_cell_length_a   6.19410681
_cell_length_b   6.16600764
_cell_length_c   6.16600774
_cell_angle_alpha   58.76394223
_cell_angle_beta   59.84913767
_cell_angle_gamma   59.84913716
_symmetry_Int_Tables_number   1
_chemical_formula_structural   LiNbCoO4
_chemical_formula_sum   'Li2 Nb2 Co2 O8'
_cell_volume   164.54096472
_cell_formula_units_Z   2
loop_
 _symmetry_equiv_pos_site_id
 _symmetry_equiv_pos_as_xyz
  1  'x, y, z'
loop_
 _atom_site_type_symbol
 _atom_site_label
 _atom_site_symmetry_multiplicity
 _atom_site_fract_x
 _atom_site_fract_y
 _atom_site_fract_z
 _atom_site_occupancy
  Li  Li0  1  0.110383  0.139617  0.139617  1
  Li  Li1  1  0.889617  0.860383  0.860383  1
  Nb  Nb2  1  0.000000  0.500000  0.500000  1
  Nb  Nb3  1  0.500000  0.500000  0.500000  1
  Co  Co4  1  0.500000  0.000000  0.500000  1
  Co  Co5  1  0.500000  0.500000  0.000000  1
  O  O6  1  0.247040  0.273205  0.273205  1
  O  O7  1  0.245782  0.281972  0.726464  1
  O  O8  1  0.245782  0.726464  0.281972  1
  O  O9  1  0.706549  0.273205  0.273205  1
  O  O10  1  0.293451  0.726795  0.726795  1
  O  O11  1  0.754218  0.718028  0.273536  1
  O  O12  1  0.754218  0.273536  0.718028  1
  O  O13  1  0.752960  0.726795  0.726795  1
