# generated using pymatgen
data_Li5Fe(SiO4)2
_symmetry_space_group_name_H-M   'P 1'
_cell_length_a   9.84877809
_cell_length_b   14.22353777
_cell_length_c   9.81325089
_cell_angle_alpha   90.00000000
_cell_angle_beta   90.00000000
_cell_angle_gamma   90.00000000
_symmetry_Int_Tables_number   1
_chemical_formula_structural   Li5Fe(SiO4)2
_chemical_formula_sum   'Li40 Fe8 Si16 O64'
_cell_volume   1374.68402195
_cell_formula_units_Z   8
loop_
 _symmetry_equiv_pos_site_id
 _symmetry_equiv_pos_as_xyz
  1  'x, y, z'
loop_
 _atom_site_type_symbol
 _atom_site_label
 _atom_site_symmetry_multiplicity
 _atom_site_fract_x
 _atom_site_fract_y
 _atom_site_fract_z
 _atom_site_occupancy
  Li  Li0  1  0.024618  0.506985  0.723706  1
  Li  Li1  1  0.024618  0.993015  0.723706  1
  Li  Li2  1  0.004824  0.109460  0.522335  1
  Li  Li3  1  0.004824  0.390540  0.522335  1
  Li  Li4  1  0.257469  0.750000  0.980878  1
  Li  Li5  1  0.189219  0.750000  0.559181  1
  Li  Li6  1  0.217901  0.635084  0.251502  1
  Li  Li7  1  0.217901  0.864916  0.251502  1
  Li  Li8  1  0.228825  0.620074  0.747071  1
  Li  Li9  1  0.228825  0.879926  0.747071  1
  Li  Li10  1  0.271175  0.120074  0.247071  1
  Li  Li11  1  0.271175  0.379926  0.247071  1
  Li  Li12  1  0.282099  0.364916  0.751502  1
  Li  Li13  1  0.282099  0.135084  0.751502  1
  Li  Li14  1  0.310781  0.250000  0.059181  1
  Li  Li15  1  0.242531  0.250000  0.480878  1
  Li  Li16  1  0.495176  0.609460  0.022335  1
  Li  Li17  1  0.495176  0.890540  0.022335  1
  Li  Li18  1  0.475382  0.006985  0.223706  1
  Li  Li19  1  0.475382  0.493015  0.223706  1
  Li  Li20  1  0.524618  0.506985  0.776294  1
  Li  Li21  1  0.524618  0.993015  0.776294  1
  Li  Li22  1  0.504824  0.109460  0.977665  1
  Li  Li23  1  0.504824  0.390540  0.977665  1
  Li  Li24  1  0.757469  0.750000  0.519122  1
  Li  Li25  1  0.689219  0.750000  0.940819  1
  Li  Li26  1  0.717901  0.635084  0.248498  1
  Li  Li27  1  0.717901  0.864916  0.248498  1
  Li  Li28  1  0.728825  0.879926  0.752929  1
  Li  Li29  1  0.728825  0.620074  0.752929  1
  Li  Li30  1  0.771175  0.120074  0.252929  1
  Li  Li31  1  0.771175  0.379926  0.252929  1
  Li  Li32  1  0.782099  0.135084  0.748498  1
  Li  Li33  1  0.782099  0.364916  0.748498  1
  Li  Li34  1  0.810781  0.250000  0.440819  1
  Li  Li35  1  0.742531  0.250000  0.019122  1
  Li  Li36  1  0.995176  0.890540  0.477665  1
  Li  Li37  1  0.995176  0.609460  0.477665  1
  Li  Li38  1  0.975382  0.006985  0.276294  1
  Li  Li39  1  0.975382  0.493015  0.276294  1
  Fe  Fe40  1  0.006592  0.130588  0.007288  1
  Fe  Fe41  1  0.006592  0.369412  0.007288  1
  Fe  Fe42  1  0.493408  0.630588  0.507288  1
  Fe  Fe43  1  0.493408  0.869412  0.507288  1
  Fe  Fe44  1  0.506592  0.130588  0.492712  1
  Fe  Fe45  1  0.506592  0.369412  0.492712  1
  Fe  Fe46  1  0.993408  0.630588  0.992712  1
  Fe  Fe47  1  0.993408  0.869412  0.992712  1
  Si  Si48  1  0.016428  0.250000  0.723355  1
  Si  Si49  1  0.021769  0.250000  0.275333  1
  Si  Si50  1  0.259180  0.005814  0.997829  1
  Si  Si51  1  0.259180  0.494186  0.997829  1
  Si  Si52  1  0.240820  0.505814  0.497829  1
  Si  Si53  1  0.240820  0.994186  0.497829  1
  Si  Si54  1  0.478231  0.750000  0.775333  1
  Si  Si55  1  0.483572  0.750000  0.223355  1
  Si  Si56  1  0.516428  0.250000  0.776645  1
  Si  Si57  1  0.521769  0.250000  0.224667  1
  Si  Si58  1  0.759180  0.005814  0.502171  1
  Si  Si59  1  0.759180  0.494186  0.502171  1
  Si  Si60  1  0.740820  0.994186  0.002171  1
  Si  Si61  1  0.740820  0.505814  0.002171  1
  Si  Si62  1  0.978231  0.750000  0.724667  1
  Si  Si63  1  0.983572  0.750000  0.276645  1
  O  O64  1  0.977021  0.250000  0.102466  1
  O  O65  1  0.011934  0.655475  0.176626  1
  O  O66  1  0.011934  0.844525  0.176626  1
  O  O67  1  0.046904  0.846069  0.665345  1
  O  O68  1  0.046904  0.653931  0.665345  1
  O  O69  1  0.106416  0.750000  0.387038  1
  O  O70  1  0.132239  0.553254  0.919041  1
  O  O71  1  0.132239  0.946746  0.919041  1
  O  O72  1  0.130607  0.531346  0.381444  1
  O  O73  1  0.130607  0.968654  0.381444  1
  O  O74  1  0.167909  0.250000  0.660919  1
  O  O75  1  0.175837  0.050738  0.624100  1
  O  O76  1  0.175837  0.449262  0.624100  1
  O  O77  1  0.187377  0.250000  0.291385  1
  O  O78  1  0.185129  0.103742  0.059513  1
  O  O79  1  0.185129  0.396258  0.059513  1
  O  O80  1  0.314871  0.603742  0.559513  1
  O  O81  1  0.314871  0.896258  0.559513  1
  O  O82  1  0.312623  0.750000  0.791385  1
  O  O83  1  0.324163  0.550738  0.124100  1
  O  O84  1  0.324163  0.949262  0.124100  1
  O  O85  1  0.332091  0.750000  0.160919  1
  O  O86  1  0.369393  0.031346  0.881444  1
  O  O87  1  0.369393  0.468654  0.881444  1
  O  O88  1  0.367761  0.053254  0.419041  1
  O  O89  1  0.367761  0.446746  0.419041  1
  O  O90  1  0.393584  0.250000  0.887038  1
  O  O91  1  0.453096  0.346069  0.165345  1
  O  O92  1  0.453096  0.153931  0.165345  1
  O  O93  1  0.488066  0.344525  0.676626  1
  O  O94  1  0.488066  0.155475  0.676626  1
  O  O95  1  0.522979  0.750000  0.602466  1
  O  O96  1  0.477021  0.250000  0.397534  1
  O  O97  1  0.511934  0.655475  0.323374  1
  O  O98  1  0.511934  0.844525  0.323374  1
  O  O99  1  0.546904  0.653931  0.834655  1
  O  O100  1  0.546904  0.846069  0.834655  1
  O  O101  1  0.606416  0.750000  0.112962  1
  O  O102  1  0.632239  0.946746  0.580959  1
  O  O103  1  0.632239  0.553254  0.580959  1
  O  O104  1  0.630607  0.968654  0.118556  1
  O  O105  1  0.630607  0.531346  0.118556  1
  O  O106  1  0.667909  0.250000  0.839081  1
  O  O107  1  0.675837  0.050738  0.875900  1
  O  O108  1  0.675837  0.449262  0.875900  1
  O  O109  1  0.687377  0.250000  0.208615  1
  O  O110  1  0.685129  0.103742  0.440487  1
  O  O111  1  0.685129  0.396258  0.440487  1
  O  O112  1  0.814871  0.896258  0.940487  1
  O  O113  1  0.814871  0.603742  0.940487  1
  O  O114  1  0.812623  0.750000  0.708615  1
  O  O115  1  0.824163  0.550738  0.375900  1
  O  O116  1  0.824163  0.949262  0.375900  1
  O  O117  1  0.832091  0.750000  0.339081  1
  O  O118  1  0.869393  0.031346  0.618556  1
  O  O119  1  0.869393  0.468654  0.618556  1
  O  O120  1  0.867761  0.053254  0.080959  1
  O  O121  1  0.867761  0.446746  0.080959  1
  O  O122  1  0.893584  0.250000  0.612962  1
  O  O123  1  0.953096  0.153931  0.334655  1
  O  O124  1  0.953096  0.346069  0.334655  1
  O  O125  1  0.988066  0.155475  0.823374  1
  O  O126  1  0.988066  0.344525  0.823374  1
  O  O127  1  0.022979  0.750000  0.897534  1
