# generated using pymatgen
data_V3SnO8
_symmetry_space_group_name_H-M   'P 1'
_cell_length_a   6.56729662
_cell_length_b   6.56729680
_cell_length_c   6.61842058
_cell_angle_alpha   74.11436988
_cell_angle_beta   105.88563119
_cell_angle_gamma   145.83767493
_symmetry_Int_Tables_number   1
_chemical_formula_structural   V3SnO8
_chemical_formula_sum   'V3 Sn1 O8'
_cell_volume   153.57843137
_cell_formula_units_Z   1
loop_
 _symmetry_equiv_pos_site_id
 _symmetry_equiv_pos_as_xyz
  1  'x, y, z'
loop_
 _atom_site_type_symbol
 _atom_site_label
 _atom_site_symmetry_multiplicity
 _atom_site_fract_x
 _atom_site_fract_y
 _atom_site_fract_z
 _atom_site_occupancy
  V  V0  1  0.403884  0.596116  0.318700  1
  V  V1  1  0.605160  0.394840  0.711744  1
  V  V2  1  0.300682  0.699318  0.727011  1
  Sn  Sn3  1  0.697943  0.302057  0.292804  1
  O  O4  1  0.139112  0.860888  0.695854  1
  O  O5  1  0.242479  0.757521  0.351817  1
  O  O6  1  0.363099  0.636901  0.988155  1
  O  O7  1  0.439695  0.560305  0.617220  1
  O  O8  1  0.557327  0.442673  0.378224  1
  O  O9  1  0.625200  0.374800  0.983097  1
  O  O10  1  0.758474  0.241526  0.648991  1
  O  O11  1  0.866945  0.133055  0.286386  1
