# generated using pymatgen
data_Li2AlFeO4
_symmetry_space_group_name_H-M   'P 1'
_cell_length_a   10.95788426
_cell_length_b   5.10058631
_cell_length_c   6.45432160
_cell_angle_alpha   89.99992170
_cell_angle_beta   90.00002470
_cell_angle_gamma   90.00011235
_symmetry_Int_Tables_number   1
_chemical_formula_structural   Li2AlFeO4
_chemical_formula_sum   'Li8 Al4 Fe4 O16'
_cell_volume   360.74258345
_cell_formula_units_Z   4
loop_
 _symmetry_equiv_pos_site_id
 _symmetry_equiv_pos_as_xyz
  1  'x, y, z'
loop_
 _atom_site_type_symbol
 _atom_site_label
 _atom_site_symmetry_multiplicity
 _atom_site_fract_x
 _atom_site_fract_y
 _atom_site_fract_z
 _atom_site_occupancy
  Li  Li0  1  0.087487  0.721795  0.870120  1
  Li  Li1  1  0.167252  0.192555  0.117626  1
  Li  Li2  1  0.332751  0.692556  0.617627  1
  Li  Li3  1  0.412514  0.221794  0.370120  1
  Li  Li4  1  0.587486  0.778204  0.870121  1
  Li  Li5  1  0.667251  0.307442  0.117627  1
  Li  Li6  1  0.832750  0.807443  0.617626  1
  Li  Li7  1  0.912513  0.278205  0.370121  1
  Al  Al8  1  0.166171  0.184685  0.617712  1
  Al  Al9  1  0.333836  0.684676  0.117715  1
  Al  Al10  1  0.666163  0.315323  0.617718  1
  Al  Al11  1  0.833829  0.815318  0.117715  1
  Fe  Fe12  1  0.086238  0.686892  0.365394  1
  Fe  Fe13  1  0.413760  0.186890  0.865401  1
  Fe  Fe14  1  0.586241  0.813108  0.365397  1
  Fe  Fe15  1  0.913761  0.313120  0.865395  1
  O  O16  1  0.084941  0.274851  0.846919  1
  O  O17  1  0.094976  0.312049  0.390173  1
  O  O18  1  0.160365  0.834244  0.604874  1
  O  O19  1  0.178920  0.793277  0.129279  1
  O  O20  1  0.321075  0.293275  0.629271  1
  O  O21  1  0.339633  0.334250  0.104879  1
  O  O22  1  0.405023  0.812049  0.890176  1
  O  O23  1  0.415058  0.774851  0.346916  1
  O  O24  1  0.584945  0.225152  0.846912  1
  O  O25  1  0.594977  0.187952  0.390177  1
  O  O26  1  0.660366  0.665752  0.604877  1
  O  O27  1  0.678926  0.706724  0.129274  1
  O  O28  1  0.821080  0.206722  0.629274  1
  O  O29  1  0.839632  0.165752  0.104877  1
  O  O30  1  0.905023  0.687947  0.890172  1
  O  O31  1  0.915058  0.725148  0.346919  1
