# generated using pymatgen
data_Li32Mn11Cr5O48
_symmetry_space_group_name_H-M   'P 1'
_cell_length_a   5.00867900
_cell_length_b   5.00700875
_cell_length_c   38.34902289
_cell_angle_alpha   88.98590341
_cell_angle_beta   91.08725107
_cell_angle_gamma   60.19654573
_symmetry_Int_Tables_number   1
_chemical_formula_structural   Li32Mn11Cr5O48
_chemical_formula_sum   'Li32 Mn11 Cr5 O48'
_cell_volume   833.97412708
_cell_formula_units_Z   1
loop_
 _symmetry_equiv_pos_site_id
 _symmetry_equiv_pos_as_xyz
  1  'x, y, z'
loop_
 _atom_site_type_symbol
 _atom_site_label
 _atom_site_symmetry_multiplicity
 _atom_site_fract_x
 _atom_site_fract_y
 _atom_site_fract_z
 _atom_site_occupancy
  Li  Li0  1  0.084811  0.091411  0.249915  1
  Li  Li1  1  0.002099  0.500326  0.999844  1
  Li  Li2  1  0.060247  0.436842  0.187504  1
  Li  Li3  1  0.124326  0.374988  0.374956  1
  Li  Li4  1  0.190101  0.310087  0.562480  1
  Li  Li5  1  0.248741  0.249359  0.749962  1
  Li  Li6  1  0.312642  0.187609  0.937490  1
  Li  Li7  1  0.034296  0.789443  0.125029  1
  Li  Li8  1  0.378064  0.123077  0.125119  1
  Li  Li9  1  0.165274  0.658861  0.500116  1
  Li  Li10  1  0.286038  0.539137  0.874921  1
  Li  Li11  1  0.437397  0.062379  0.312509  1
  Li  Li12  1  0.497629  0.003529  0.500011  1
  Li  Li13  1  0.415997  0.408935  0.250152  1
  Li  Li14  1  0.535708  0.285935  0.625022  1
  Li  Li15  1  0.214110  0.962321  0.625183  1
  Li  Li16  1  0.337808  0.838498  0.999734  1
  Li  Li17  1  0.660646  0.161199  0.999909  1
  Li  Li18  1  0.783957  0.040962  0.374822  1
  Li  Li19  1  0.466469  0.709690  0.375071  1
  Li  Li20  1  0.586371  0.589608  0.749825  1
  Li  Li21  1  0.562613  0.937604  0.687511  1
  Li  Li22  1  0.713312  0.462827  0.125249  1
  Li  Li23  1  0.837412  0.338204  0.499890  1
  Li  Li24  1  0.623498  0.874436  0.875021  1
  Li  Li25  1  0.965236  0.211771  0.875189  1
  Li  Li26  1  0.685574  0.814086  0.062476  1
  Li  Li27  1  0.749778  0.749499  0.250018  1
  Li  Li28  1  0.812033  0.685113  0.437499  1
  Li  Li29  1  0.874931  0.627446  0.625069  1
  Li  Li30  1  0.937425  0.561191  0.812497  1
  Li  Li31  1  0.914849  0.910927  0.750073  1
  Mn  Mn32  1  0.104667  0.729651  0.312509  1
  Mn  Mn33  1  0.229534  0.604507  0.687507  1
  Mn  Mn34  1  0.353817  0.479925  0.062527  1
  Mn  Mn35  1  0.479901  0.354295  0.437437  1
  Mn  Mn36  1  0.271415  0.895384  0.812498  1
  Mn  Mn37  1  0.729459  0.104778  0.187537  1
  Mn  Mn38  1  0.645432  0.520292  0.937536  1
  Mn  Mn39  1  0.770522  0.395533  0.312510  1
  Mn  Mn40  1  0.895294  0.270440  0.687485  1
  Mn  Mn41  1  0.854784  0.978840  0.562442  1
  Mn  Mn42  1  0.979503  0.854542  0.937515  1
  Cr  Cr43  1  0.015304  0.148268  0.062524  1
  Cr  Cr44  1  0.143370  0.016232  0.437415  1
  Cr  Cr45  1  0.609637  0.227407  0.812527  1
  Cr  Cr46  1  0.391426  0.768063  0.187555  1
  Cr  Cr47  1  0.524495  0.640379  0.562459  1
  O  O48  1  0.088724  0.054133  0.340555  1
  O  O49  1  0.048270  0.093287  0.159251  1
  O  O50  1  0.071025  0.429138  0.284024  1
  O  O51  1  0.195533  0.304312  0.659011  1
  O  O52  1  0.056784  0.442087  0.091020  1
  O  O53  1  0.180151  0.321461  0.466001  1
  O  O54  1  0.300982  0.195573  0.841227  1
  O  O55  1  0.324178  0.179938  0.033737  1
  O  O56  1  0.443778  0.056006  0.408935  1
  O  O57  1  0.072024  0.787905  0.215519  1
  O  O58  1  0.430968  0.069150  0.216036  1
  O  O59  1  0.196765  0.664268  0.590435  1
  O  O60  1  0.320874  0.536410  0.965471  1
  O  O61  1  0.039178  0.822024  0.034520  1
  O  O62  1  0.162800  0.696774  0.409425  1
  O  O63  1  0.283927  0.574299  0.784288  1
  O  O64  1  0.213974  0.929097  0.715474  1
  O  O65  1  0.175823  0.965700  0.534231  1
  O  O66  1  0.303904  0.838801  0.909573  1
  O  O67  1  0.445906  0.411409  0.340479  1
  O  O68  1  0.571091  0.286239  0.715531  1
  O  O69  1  0.413576  0.447676  0.159633  1
  O  O70  1  0.537582  0.316922  0.534257  1
  O  O71  1  0.661416  0.195950  0.909494  1
  O  O72  1  0.341477  0.800331  0.090801  1
  O  O73  1  0.468122  0.673463  0.465739  1
  O  O74  1  0.586309  0.554181  0.840554  1
  O  O75  1  0.429042  0.713735  0.284496  1
  O  O76  1  0.553858  0.588294  0.659471  1
  O  O77  1  0.693249  0.162647  0.090650  1
  O  O78  1  0.822884  0.038825  0.465316  1
  O  O79  1  0.786357  0.070828  0.284558  1
  O  O80  1  0.718849  0.422825  0.215902  1
  O  O81  1  0.837893  0.303768  0.590472  1
  O  O82  1  0.963360  0.178942  0.965566  1
  O  O83  1  0.677562  0.464109  0.034439  1
  O  O84  1  0.797759  0.343859  0.409066  1
  O  O85  1  0.569047  0.931652  0.783990  1
  O  O86  1  0.931846  0.212226  0.784333  1
  O  O87  1  0.555176  0.949921  0.591277  1
  O  O88  1  0.679310  0.820712  0.966017  1
  O  O89  1  0.696345  0.804968  0.158994  1
  O  O90  1  0.816448  0.681844  0.533983  1
  O  O91  1  0.945751  0.554065  0.909030  1
  O  O92  1  0.804234  0.696102  0.341018  1
  O  O93  1  0.928967  0.571067  0.716004  1
  O  O94  1  0.947553  0.911393  0.840591  1
  O  O95  1  0.911420  0.945849  0.659558  1
