# generated using pymatgen
data_Cu8O7
_symmetry_space_group_name_H-M   'P 1'
_cell_length_a   6.51835344
_cell_length_b   10.63281222
_cell_length_c   6.46152242
_cell_angle_alpha   98.14856548
_cell_angle_beta   80.02236180
_cell_angle_gamma   29.42311133
_symmetry_Int_Tables_number   1
_chemical_formula_structural   Cu8O7
_chemical_formula_sum   'Cu8 O7'
_cell_volume   172.54220910
_cell_formula_units_Z   1
loop_
 _symmetry_equiv_pos_site_id
 _symmetry_equiv_pos_as_xyz
  1  'x, y, z'
loop_
 _atom_site_type_symbol
 _atom_site_label
 _atom_site_symmetry_multiplicity
 _atom_site_fract_x
 _atom_site_fract_y
 _atom_site_fract_z
 _atom_site_occupancy
  Cu  Cu0  1  0.987163  0.010388  0.013337  1
  Cu  Cu1  1  0.015156  0.478156  0.503752  1
  Cu  Cu2  1  -0.000476  0.499824  0.007780  1
  Cu  Cu3  1  0.992579  0.003759  0.512050  1
  Cu  Cu4  1  0.011415  0.243859  0.271405  1
  Cu  Cu5  1  0.971356  0.764259  0.749123  1
  Cu  Cu6  1  0.956814  0.779019  0.257028  1
  Cu  Cu7  1  0.967576  0.273666  0.752187  1
  O  O8  1  0.248241  0.940827  0.204428  1
  O  O9  1  0.232466  0.448720  0.691712  1
  O  O10  1  0.743972  0.064884  0.818644  1
  O  O11  1  0.221544  0.704471  0.945816  1
  O  O12  1  0.759904  0.549096  0.322777  1
  O  O13  1  0.738752  0.314371  0.070072  1
  O  O14  1  0.687124  0.859159  0.564346  1
