# generated using pymatgen
data_LiSnPO4
_symmetry_space_group_name_H-M   'P 1'
_cell_length_a   9.51006409
_cell_length_b   7.38777125
_cell_length_c   16.79267222
_cell_angle_alpha   90.00000000
_cell_angle_beta   90.36638822
_cell_angle_gamma   90.00000000
_symmetry_Int_Tables_number   1
_chemical_formula_structural   LiSnPO4
_chemical_formula_sum   'Li12 Sn12 P12 O48'
_cell_volume   1179.79843296
_cell_formula_units_Z   12
loop_
 _symmetry_equiv_pos_site_id
 _symmetry_equiv_pos_as_xyz
  1  'x, y, z'
loop_
 _atom_site_type_symbol
 _atom_site_label
 _atom_site_symmetry_multiplicity
 _atom_site_fract_x
 _atom_site_fract_y
 _atom_site_fract_z
 _atom_site_occupancy
  Li  Li0  1  0.280671  0.065239  0.575026  1
  Li  Li1  1  0.253146  0.938062  0.913768  1
  Li  Li2  1  0.248618  0.224619  0.248496  1
  Li  Li3  1  0.251382  0.724619  0.251504  1
  Li  Li4  1  0.246854  0.438062  0.586232  1
  Li  Li5  1  0.219329  0.565239  0.924974  1
  Li  Li6  1  0.780671  0.434761  0.075026  1
  Li  Li7  1  0.753146  0.561938  0.413768  1
  Li  Li8  1  0.748618  0.275381  0.748496  1
  Li  Li9  1  0.751382  0.775381  0.751504  1
  Li  Li10  1  0.746854  0.061938  0.086232  1
  Li  Li11  1  0.719329  0.934761  0.424974  1
  Sn  Sn12  1  0.036985  0.780774  0.105708  1
  Sn  Sn13  1  0.089189  0.718400  0.712379  1
  Sn  Sn14  1  0.135601  0.762924  0.438365  1
  Sn  Sn15  1  0.364399  0.262924  0.061635  1
  Sn  Sn16  1  0.410811  0.218400  0.787621  1
  Sn  Sn17  1  0.463015  0.280774  0.394292  1
  Sn  Sn18  1  0.536985  0.719226  0.605708  1
  Sn  Sn19  1  0.589189  0.781600  0.212379  1
  Sn  Sn20  1  0.635601  0.737076  0.938365  1
  Sn  Sn21  1  0.864399  0.237076  0.561635  1
  Sn  Sn22  1  0.910811  0.281600  0.287621  1
  Sn  Sn23  1  0.963015  0.219226  0.894292  1
  P  P24  1  0.052927  0.303103  0.088897  1
  P  P25  1  0.099037  0.185584  0.730064  1
  P  P26  1  0.119541  0.287112  0.433860  1
  P  P27  1  0.380459  0.787112  0.066140  1
  P  P28  1  0.400963  0.685584  0.769936  1
  P  P29  1  0.447073  0.803103  0.411103  1
  P  P30  1  0.552927  0.196897  0.588897  1
  P  P31  1  0.599037  0.314416  0.230064  1
  P  P32  1  0.619541  0.212888  0.933860  1
  P  P33  1  0.880459  0.712888  0.566140  1
  P  P34  1  0.900963  0.814416  0.269936  1
  P  P35  1  0.947073  0.696897  0.911103  1
  O  O36  1  0.009290  0.509771  0.885198  1
  O  O37  1  0.045489  0.694094  0.581701  1
  O  O38  1  0.075482  0.816428  0.929479  1
  O  O39  1  0.057757  0.785052  0.247235  1
  O  O40  1  0.145456  0.145814  0.498766  1
  O  O41  1  0.124230  0.005240  0.684449  1
  O  O42  1  0.176791  0.178341  0.815210  1
  O  O43  1  0.153791  0.225658  0.152764  1
  O  O44  1  0.178368  0.472466  0.464949  1
  O  O45  1  0.148376  0.324787  0.012042  1
  O  O46  1  0.187863  0.235042  0.353586  1
  O  O47  1  0.159430  0.339270  0.679797  1
  O  O48  1  0.312137  0.735042  0.146414  1
  O  O49  1  0.340570  0.839270  0.820203  1
  O  O50  1  0.351624  0.824787  0.487958  1
  O  O51  1  0.321632  0.972466  0.035051  1
  O  O52  1  0.346209  0.725658  0.347236  1
  O  O53  1  0.323209  0.678341  0.684790  1
  O  O54  1  0.375770  0.505240  0.815551  1
  O  O55  1  0.442243  0.285052  0.252765  1
  O  O56  1  0.354544  0.645814  0.001234  1
  O  O57  1  0.424518  0.316428  0.570521  1
  O  O58  1  0.454511  0.194094  0.918299  1
  O  O59  1  0.490710  0.009771  0.614802  1
  O  O60  1  0.509290  0.990229  0.385198  1
  O  O61  1  0.545489  0.805906  0.081701  1
  O  O62  1  0.575482  0.683572  0.429479  1
  O  O63  1  0.645456  0.354186  0.998766  1
  O  O64  1  0.557757  0.714948  0.747235  1
  O  O65  1  0.624230  0.494760  0.184449  1
  O  O66  1  0.676791  0.321659  0.315210  1
  O  O67  1  0.653791  0.274342  0.652764  1
  O  O68  1  0.678368  0.027534  0.964949  1
  O  O69  1  0.648376  0.175213  0.512042  1
  O  O70  1  0.659430  0.160730  0.179797  1
  O  O71  1  0.687863  0.264958  0.853586  1
  O  O72  1  0.840570  0.660730  0.320203  1
  O  O73  1  0.812137  0.764958  0.646414  1
  O  O74  1  0.851624  0.675213  0.987958  1
  O  O75  1  0.821632  0.527534  0.535051  1
  O  O76  1  0.846209  0.774342  0.847236  1
  O  O77  1  0.823209  0.821659  0.184790  1
  O  O78  1  0.875770  0.994760  0.315551  1
  O  O79  1  0.854544  0.854186  0.501234  1
  O  O80  1  0.942243  0.214948  0.752765  1
  O  O81  1  0.924518  0.183572  0.070521  1
  O  O82  1  0.954511  0.305906  0.418299  1
  O  O83  1  0.990710  0.490229  0.114802  1
