# generated using pymatgen
data_Na2Ti2O5
_symmetry_space_group_name_H-M   'P 1'
_cell_length_a   9.31399915
_cell_length_b   12.14954207
_cell_length_c   5.49714806
_cell_angle_alpha   90.00000000
_cell_angle_beta   90.55223693
_cell_angle_gamma   90.00000000
_symmetry_Int_Tables_number   1
_chemical_formula_structural   Na2Ti2O5
_chemical_formula_sum   'Na8 Ti8 O20'
_cell_volume   622.03291351
_cell_formula_units_Z   4
loop_
 _symmetry_equiv_pos_site_id
 _symmetry_equiv_pos_as_xyz
  1  'x, y, z'
loop_
 _atom_site_type_symbol
 _atom_site_label
 _atom_site_symmetry_multiplicity
 _atom_site_fract_x
 _atom_site_fract_y
 _atom_site_fract_z
 _atom_site_occupancy
  Na  Na0  1  0.119870  0.971347  0.202023  1
  Na  Na1  1  0.129416  0.503768  0.713595  1
  Na  Na2  1  0.370584  0.003768  0.786405  1
  Na  Na3  1  0.380130  0.471347  0.297977  1
  Na  Na4  1  0.619870  0.528653  0.702023  1
  Na  Na5  1  0.629416  0.996232  0.213595  1
  Na  Na6  1  0.870584  0.496232  0.286405  1
  Na  Na7  1  0.880130  0.028653  0.797977  1
  Ti  Ti8  1  0.057864  0.807079  0.688700  1
  Ti  Ti9  1  0.173057  0.675279  0.190474  1
  Ti  Ti10  1  0.326943  0.175279  0.309526  1
  Ti  Ti11  1  0.442136  0.307079  0.811300  1
  Ti  Ti12  1  0.557864  0.692921  0.188700  1
  Ti  Ti13  1  0.673057  0.824721  0.690474  1
  Ti  Ti14  1  0.826943  0.324721  0.809526  1
  Ti  Ti15  1  0.942136  0.192921  0.311300  1
  O  O16  1  0.078589  0.788553  0.353841  1
  O  O17  1  0.130026  0.934999  0.771999  1
  O  O18  1  0.119459  0.543433  0.277906  1
  O  O19  1  0.142861  0.690345  0.856152  1
  O  O20  1  0.133813  0.181858  0.234653  1
  O  O21  1  0.357139  0.190345  0.643848  1
  O  O22  1  0.366187  0.681858  0.265347  1
  O  O23  1  0.380541  0.043433  0.222094  1
  O  O24  1  0.369974  0.434999  0.728001  1
  O  O25  1  0.421411  0.288553  0.146159  1
  O  O26  1  0.578589  0.711447  0.853841  1
  O  O27  1  0.630026  0.565001  0.271999  1
  O  O28  1  0.619459  0.956567  0.777906  1
  O  O29  1  0.633813  0.318142  0.734653  1
  O  O30  1  0.642861  0.809655  0.356152  1
  O  O31  1  0.866187  0.818142  0.765347  1
  O  O32  1  0.857139  0.309655  0.143848  1
  O  O33  1  0.880541  0.456567  0.722094  1
  O  O34  1  0.869974  0.065001  0.228001  1
  O  O35  1  0.921411  0.211447  0.646159  1
