# generated using pymatgen
data_Mn12O5F19
_symmetry_space_group_name_H-M   'P 1'
_cell_length_a   4.80994831
_cell_length_b   5.81230475
_cell_length_c   16.10923893
_cell_angle_alpha   90.40941345
_cell_angle_beta   90.00603770
_cell_angle_gamma   87.72909124
_symmetry_Int_Tables_number   1
_chemical_formula_structural   Mn12O5F19
_chemical_formula_sum   'Mn12 O5 F19'
_cell_volume   449.99895458
_cell_formula_units_Z   1
loop_
 _symmetry_equiv_pos_site_id
 _symmetry_equiv_pos_as_xyz
  1  'x, y, z'
loop_
 _atom_site_type_symbol
 _atom_site_label
 _atom_site_symmetry_multiplicity
 _atom_site_fract_x
 _atom_site_fract_y
 _atom_site_fract_z
 _atom_site_occupancy
  Mn  Mn0  1  0.014868  0.145856  0.418583  1
  Mn  Mn1  1  0.991222  0.850785  0.248805  1
  Mn  Mn2  1  0.010548  0.172570  0.094351  1
  Mn  Mn3  1  0.994492  0.154302  0.748270  1
  Mn  Mn4  1  0.013815  0.831185  0.575461  1
  Mn  Mn5  1  0.015600  0.841581  0.909637  1
  Mn  Mn6  1  0.521013  0.336047  0.594299  1
  Mn  Mn7  1  0.485419  0.327778  0.916855  1
  Mn  Mn8  1  0.504527  0.327813  0.239357  1
  Mn  Mn9  1  0.505194  0.648658  0.084122  1
  Mn  Mn10  1  0.482177  0.662032  0.417712  1
  Mn  Mn11  1  0.498643  0.660376  0.752429  1
  O  O12  1  0.221517  0.898428  0.465645  1
  O  O13  1  0.224385  0.894504  0.797965  1
  O  O14  1  0.290376  0.376723  0.138132  1
  O  O15  1  0.722389  0.388753  0.704716  1
  O  O16  1  0.789296  0.124687  0.193793  1
  F  F17  1  0.238201  0.111934  0.309881  1
  F  F18  1  0.209884  0.123173  0.638756  1
  F  F19  1  0.220587  0.112662  0.981753  1
  F  F20  1  0.243962  0.880496  0.143704  1
  F  F21  1  0.273011  0.596420  0.301526  1
  F  F22  1  0.262690  0.391233  0.478413  1
  F  F23  1  0.276499  0.618222  0.645129  1
  F  F24  1  0.242421  0.394232  0.808966  1
  F  F25  1  0.267153  0.611968  0.974302  1
  F  F26  1  0.747333  0.389942  0.021472  1
  F  F27  1  0.738299  0.615278  0.194293  1
  F  F28  1  0.731367  0.374575  0.359601  1
  F  F29  1  0.718851  0.607798  0.526590  1
  F  F30  1  0.704613  0.624068  0.861947  1
  F  F31  1  0.766946  0.118479  0.521490  1
  F  F32  1  0.763252  0.885460  0.360052  1
  F  F33  1  0.779385  0.894452  0.028379  1
  F  F34  1  0.773575  0.115340  0.856683  1
  F  F35  1  0.756486  0.892196  0.686932  1
