# generated using pymatgen
data_LiV4CuO12
_symmetry_space_group_name_H-M   'P 1'
_cell_length_a   5.38938220
_cell_length_b   10.76775915
_cell_length_c   9.51318572
_cell_angle_alpha   27.69054792
_cell_angle_beta   50.21109804
_cell_angle_gamma   55.45241084
_symmetry_Int_Tables_number   1
_chemical_formula_structural   LiV4CuO12
_chemical_formula_sum   'Li1 V4 Cu1 O12'
_cell_volume   197.12898695
_cell_formula_units_Z   1
loop_
 _symmetry_equiv_pos_site_id
 _symmetry_equiv_pos_as_xyz
  1  'x, y, z'
loop_
 _atom_site_type_symbol
 _atom_site_label
 _atom_site_symmetry_multiplicity
 _atom_site_fract_x
 _atom_site_fract_y
 _atom_site_fract_z
 _atom_site_occupancy
  Li  Li0  1  0.278789  0.502105  0.287641  1
  V  V1  1  0.021407  0.009730  0.983235  1
  V  V2  1  0.985013  0.493783  0.014691  1
  V  V3  1  0.508398  0.992813  0.513785  1
  V  V4  1  0.504848  0.508010  0.497861  1
  Cu  Cu5  1  0.302083  0.999424  0.293287  1
  O  O6  1  0.333586  0.292965  0.127673  1
  O  O7  1  0.237952  0.118229  0.609663  1
  O  O8  1  0.133787  0.303308  0.723175  1
  O  O9  1  0.865910  0.178956  0.236906  1
  O  O10  1  0.323401  0.796769  0.135537  1
  O  O11  1  0.732424  0.402066  0.327966  1
  O  O12  1  0.234455  0.643880  0.585308  1
  O  O13  1  0.589544  0.189045  0.864820  1
  O  O14  1  0.129452  0.805701  0.717675  1
  O  O15  1  0.846901  0.679303  0.240594  1
  O  O16  1  0.713042  0.896310  0.334447  1
  O  O17  1  0.608409  0.687604  0.855135  1
