# generated using pymatgen
data_LiMn3P2(HO3)4
_symmetry_space_group_name_H-M   'P 1'
_cell_length_a   11.79792612
_cell_length_b   10.36078472
_cell_length_c   7.46522210
_cell_angle_alpha   90.00000000
_cell_angle_beta   98.10695577
_cell_angle_gamma   90.00000000
_symmetry_Int_Tables_number   1
_chemical_formula_structural   LiMn3P2(HO3)4
_chemical_formula_sum   'Li4 Mn12 P8 H16 O48'
_cell_volume   903.39799232
_cell_formula_units_Z   4
loop_
 _symmetry_equiv_pos_site_id
 _symmetry_equiv_pos_as_xyz
  1  'x, y, z'
loop_
 _atom_site_type_symbol
 _atom_site_label
 _atom_site_symmetry_multiplicity
 _atom_site_fract_x
 _atom_site_fract_y
 _atom_site_fract_z
 _atom_site_occupancy
  Li  Li0  1  0.173271  0.606933  0.406237  1
  Li  Li1  1  0.326729  0.106933  0.093763  1
  Li  Li2  1  0.673271  0.893067  0.906237  1
  Li  Li3  1  0.826729  0.393067  0.593763  1
  Mn  Mn4  1  0.040515  0.216590  0.550985  1
  Mn  Mn5  1  0.037540  0.761058  0.064446  1
  Mn  Mn6  1  0.233903  0.571416  0.988526  1
  Mn  Mn7  1  0.266097  0.071416  0.511474  1
  Mn  Mn8  1  0.459485  0.716590  0.949015  1
  Mn  Mn9  1  0.462460  0.261058  0.435554  1
  Mn  Mn10  1  0.537540  0.738942  0.564446  1
  Mn  Mn11  1  0.540515  0.283410  0.050985  1
  Mn  Mn12  1  0.733903  0.928584  0.488526  1
  Mn  Mn13  1  0.766097  0.428584  0.011474  1
  Mn  Mn14  1  0.962460  0.238942  0.935554  1
  Mn  Mn15  1  0.959485  0.783410  0.449015  1
  P  P16  1  0.194958  0.830799  0.750755  1
  P  P17  1  0.181463  0.317927  0.228872  1
  P  P18  1  0.305042  0.330799  0.749245  1
  P  P19  1  0.318537  0.817927  0.271128  1
  P  P20  1  0.681463  0.182073  0.728872  1
  P  P21  1  0.694958  0.669201  0.250755  1
  P  P22  1  0.818537  0.682073  0.771128  1
  P  P23  1  0.805042  0.169201  0.249245  1
  H  H24  1  0.030438  0.611271  0.808671  1
  H  H25  1  0.056867  0.039458  0.828334  1
  H  H26  1  0.069285  0.403906  0.732461  1
  H  H27  1  0.068509  0.006784  0.351514  1
  H  H28  1  0.430715  0.903906  0.767539  1
  H  H29  1  0.443133  0.539458  0.671666  1
  H  H30  1  0.469562  0.111271  0.691329  1
  H  H31  1  0.431491  0.506784  0.148486  1
  H  H32  1  0.568509  0.493216  0.851514  1
  H  H33  1  0.530438  0.888729  0.308671  1
  H  H34  1  0.556867  0.460542  0.328334  1
  H  H35  1  0.569285  0.096094  0.232461  1
  H  H36  1  0.931491  0.993216  0.648486  1
  H  H37  1  0.930715  0.596094  0.267539  1
  H  H38  1  0.943133  0.960542  0.171666  1
  H  H39  1  0.969562  0.388729  0.191329  1
  O  O40  1  0.996400  0.356266  0.697650  1
  O  O41  1  0.999122  0.894838  0.227635  1
  O  O42  1  0.070224  0.607452  0.934725  1
  O  O43  1  0.110934  0.877816  0.879801  1
  O  O44  1  0.130275  0.779440  0.570754  1
  O  O45  1  0.102424  0.066584  0.450404  1
  O  O46  1  0.093575  0.336019  0.364947  1
  O  O47  1  0.125992  0.246599  0.056815  1
  O  O48  1  0.227676  0.215226  0.664597  1
  O  O49  1  0.220239  0.440809  0.773261  1
  O  O50  1  0.212210  0.733862  0.196459  1
  O  O51  1  0.279761  0.940809  0.726739  1
  O  O52  1  0.272324  0.715226  0.835403  1
  O  O53  1  0.219522  0.458593  0.196055  1
  O  O54  1  0.280478  0.958593  0.303945  1
  O  O55  1  0.287790  0.233862  0.303541  1
  O  O56  1  0.369725  0.279440  0.929246  1
  O  O57  1  0.389066  0.377816  0.620199  1
  O  O58  1  0.374008  0.746599  0.443185  1
  O  O59  1  0.429776  0.107452  0.565275  1
  O  O60  1  0.406425  0.836019  0.135053  1
  O  O61  1  0.397576  0.566584  0.049596  1
  O  O62  1  0.503600  0.856266  0.802350  1
  O  O63  1  0.499122  0.605162  0.727635  1
  O  O64  1  0.500878  0.394838  0.272365  1
  O  O65  1  0.496400  0.143734  0.197650  1
  O  O66  1  0.602424  0.433416  0.950404  1
  O  O67  1  0.593575  0.163981  0.864947  1
  O  O68  1  0.570224  0.892548  0.434725  1
  O  O69  1  0.625992  0.253401  0.556815  1
  O  O70  1  0.610934  0.622184  0.379801  1
  O  O71  1  0.630275  0.720560  0.070754  1
  O  O72  1  0.712210  0.766138  0.696459  1
  O  O73  1  0.719522  0.041407  0.696055  1
  O  O74  1  0.780478  0.541407  0.803945  1
  O  O75  1  0.727676  0.284774  0.164597  1
  O  O76  1  0.720239  0.059191  0.273261  1
  O  O77  1  0.787790  0.266138  0.803541  1
  O  O78  1  0.779761  0.559191  0.226739  1
  O  O79  1  0.772324  0.784774  0.335403  1
  O  O80  1  0.874008  0.753401  0.943185  1
  O  O81  1  0.906425  0.663981  0.635053  1
  O  O82  1  0.897576  0.933416  0.549596  1
  O  O83  1  0.869725  0.220560  0.429246  1
  O  O84  1  0.889066  0.122184  0.120199  1
  O  O85  1  0.929776  0.392548  0.065275  1
  O  O86  1  0.000878  0.105162  0.772365  1
  O  O87  1  0.003600  0.643734  0.302350  1
