# generated using pymatgen
data_V3Zn7H3SO19
_symmetry_space_group_name_H-M   'P 1'
_cell_length_a   12.96712650
_cell_length_b   12.96716643
_cell_length_c   5.27397511
_cell_angle_alpha   89.99972437
_cell_angle_beta   90.00100747
_cell_angle_gamma   120.00184815
_symmetry_Int_Tables_number   1
_chemical_formula_structural   V3Zn7H3SO19
_chemical_formula_sum   'V6 Zn14 H6 S2 O38'
_cell_volume   767.97918954
_cell_formula_units_Z   2
loop_
 _symmetry_equiv_pos_site_id
 _symmetry_equiv_pos_as_xyz
  1  'x, y, z'
loop_
 _atom_site_type_symbol
 _atom_site_label
 _atom_site_symmetry_multiplicity
 _atom_site_fract_x
 _atom_site_fract_y
 _atom_site_fract_z
 _atom_site_occupancy
  V  V0  1  0.150921  0.849091  0.026459  1
  V  V1  1  0.150913  0.301830  0.026500  1
  V  V2  1  0.301831  0.150918  0.526449  1
  V  V3  1  0.698174  0.849089  0.026523  1
  V  V4  1  0.849084  0.698159  0.526503  1
  V  V5  1  0.849090  0.150916  0.526510  1
  Zn  Zn6  1  0.079188  0.654601  0.503297  1
  Zn  Zn7  1  0.079183  0.424590  0.503319  1
  Zn  Zn8  1  0.345405  0.920818  0.503295  1
  Zn  Zn9  1  0.999998  0.999992  0.321244  1
  Zn  Zn10  1  -0.000001  0.999996  0.821239  1
  Zn  Zn11  1  0.575415  0.920822  0.503318  1
  Zn  Zn12  1  0.345398  0.424587  0.503308  1
  Zn  Zn13  1  0.575417  0.654602  0.503317  1
  Zn  Zn14  1  0.424586  0.345403  0.003291  1
  Zn  Zn15  1  0.654601  0.575421  0.003311  1
  Zn  Zn16  1  0.424591  0.079191  0.003296  1
  Zn  Zn17  1  0.654598  0.079188  0.003314  1
  Zn  Zn18  1  0.920820  0.575411  0.003318  1
  Zn  Zn19  1  0.920820  0.345410  0.003314  1
  H  H20  1  0.134228  0.567113  0.137326  1
  H  H21  1  0.432885  0.865776  0.137326  1
  H  H22  1  0.432889  0.567119  0.137328  1
  H  H23  1  0.567114  0.432891  0.637329  1
  H  H24  1  0.567119  0.134232  0.637326  1
  H  H25  1  0.865774  0.432891  0.637327  1
  S  S26  1  0.333336  0.666674  0.745841  1
  S  S27  1  0.666664  0.333332  0.245839  1
  O  O28  1  0.074119  0.925902  0.069998  1
  O  O29  1  0.067164  0.720297  0.845903  1
  O  O30  1  0.191539  0.808464  0.314671  1
  O  O31  1  0.058243  0.529119  0.229762  1
  O  O32  1  0.279709  0.932840  0.845896  1
  O  O33  1  0.067163  0.346865  0.845923  1
  O  O34  1  0.208247  0.604131  0.643547  1
  O  O35  1  0.074103  0.148213  0.070025  1
  O  O36  1  0.191538  0.383084  0.314717  1
  O  O37  1  0.470878  0.941758  0.229761  1
  O  O38  1  0.333337  0.666670  0.023495  1
  O  O39  1  0.395888  0.791764  0.643563  1
  O  O40  1  0.395877  0.604125  0.643553  1
  O  O41  1  0.279696  0.346863  0.845920  1
  O  O42  1  0.148211  0.074115  0.569998  1
  O  O43  1  0.653143  0.932837  0.845940  1
  O  O44  1  0.346870  0.279712  0.345893  1
  O  O45  1  0.470879  0.529128  0.229778  1
  O  O46  1  0.616916  0.808461  0.314734  1
  O  O47  1  0.383075  0.191539  0.814663  1
  O  O48  1  0.529124  0.470882  0.729771  1
  O  O49  1  0.653136  0.720304  0.845935  1
  O  O50  1  0.346864  0.067166  0.345900  1
  O  O51  1  0.851792  0.925887  0.070027  1
  O  O52  1  0.720296  0.653132  0.345927  1
  O  O53  1  0.604129  0.395888  0.143557  1
  O  O54  1  0.604114  0.208245  0.143551  1
  O  O55  1  0.666667  0.333335  0.523499  1
  O  O56  1  0.808457  0.616909  0.814725  1
  O  O57  1  0.529128  0.058248  0.729761  1
  O  O58  1  0.925895  0.851773  0.570023  1
  O  O59  1  0.791760  0.395875  0.143557  1
  O  O60  1  0.932833  0.653127  0.345925  1
  O  O61  1  0.720306  0.067162  0.345924  1
  O  O62  1  0.941759  0.470884  0.729762  1
  O  O63  1  0.808463  0.191542  0.814713  1
  O  O64  1  0.932838  0.279698  0.345927  1
  O  O65  1  0.925901  0.074108  0.570028  1
