# generated using pymatgen
data_Sr2Ti6N2O11
_symmetry_space_group_name_H-M   'P 1'
_cell_length_a   3.85350246
_cell_length_b   7.80174120
_cell_length_c   9.33634344
_cell_angle_alpha   80.96620376
_cell_angle_beta   90.00968722
_cell_angle_gamma   75.77121613
_symmetry_Int_Tables_number   1
_chemical_formula_structural   Sr2Ti6N2O11
_chemical_formula_sum   'Sr2 Ti6 N2 O11'
_cell_volume   268.48190080
_cell_formula_units_Z   1
loop_
 _symmetry_equiv_pos_site_id
 _symmetry_equiv_pos_as_xyz
  1  'x, y, z'
loop_
 _atom_site_type_symbol
 _atom_site_label
 _atom_site_symmetry_multiplicity
 _atom_site_fract_x
 _atom_site_fract_y
 _atom_site_fract_z
 _atom_site_occupancy
  Sr  Sr0  1  0.547066  0.913672  0.777089  1
  Sr  Sr1  1  0.446084  0.103866  0.242382  1
  Ti  Ti2  1  0.122611  0.753279  0.099408  1
  Ti  Ti3  1  0.165142  0.666343  0.427384  1
  Ti  Ti4  1  0.232285  0.534691  0.764405  1
  Ti  Ti5  1  0.761868  0.471882  0.231545  1
  Ti  Ti6  1  0.832387  0.329770  0.566169  1
  Ti  Ti7  1  0.876349  0.243047  0.922521  1
  N  N8  1  0.231490  0.533094  0.248082  1
  N  N9  1  0.838319  0.317336  0.097949  1
  O  O10  1  0.060434  0.873292  0.291020  1
  O  O11  1  0.128706  0.742613  0.617471  1
  O  O12  1  0.162986  0.672505  0.906490  1
  O  O13  1  0.632986  0.730169  0.103636  1
  O  O14  1  0.696600  0.606794  0.434576  1
  O  O15  1  0.758981  0.479210  0.757662  1
  O  O16  1  0.298911  0.400841  0.572481  1
  O  O17  1  0.360248  0.276594  0.878291  1
  O  O18  1  0.869334  0.254627  0.388630  1
  O  O19  1  0.938644  0.126454  0.693994  1
  O  O20  1  0.995896  0.996601  0.990655  1
