# generated using pymatgen
data_Mn2SnC9BrO9
_symmetry_space_group_name_H-M   'P 1'
_cell_length_a   8.89623136
_cell_length_b   12.81589974
_cell_length_c   15.21604933
_cell_angle_alpha   90.00000000
_cell_angle_beta   97.33005735
_cell_angle_gamma   90.00000000
_symmetry_Int_Tables_number   1
_chemical_formula_structural   Mn2SnC9BrO9
_chemical_formula_sum   'Mn8 Sn4 C36 Br4 O36'
_cell_volume   1720.65296823
_cell_formula_units_Z   4
loop_
 _symmetry_equiv_pos_site_id
 _symmetry_equiv_pos_as_xyz
  1  'x, y, z'
loop_
 _atom_site_type_symbol
 _atom_site_label
 _atom_site_symmetry_multiplicity
 _atom_site_fract_x
 _atom_site_fract_y
 _atom_site_fract_z
 _atom_site_occupancy
  Mn  Mn0  1  0.557532  0.492259  0.603941  1
  Mn  Mn1  1  0.253444  0.692905  0.063956  1
  Mn  Mn2  1  0.746556  0.307095  0.936044  1
  Mn  Mn3  1  0.746556  0.192905  0.436044  1
  Mn  Mn4  1  0.557532  0.007741  0.103941  1
  Mn  Mn5  1  0.442468  0.507741  0.396059  1
  Mn  Mn6  1  0.442468  0.992259  0.896059  1
  Mn  Mn7  1  0.253444  0.807095  0.563956  1
  Sn  Sn8  1  0.462370  0.833334  0.023640  1
  Sn  Sn9  1  0.462370  0.666666  0.523640  1
  Sn  Sn10  1  0.537630  0.333334  0.476360  1
  Sn  Sn11  1  0.537630  0.166666  0.976360  1
  C  C12  1  0.754735  0.976988  0.083569  1
  C  C13  1  0.419949  0.636694  0.136214  1
  C  C14  1  0.621300  0.126799  0.157744  1
  C  C15  1  0.879631  0.406419  0.905795  1
  C  C16  1  0.754735  0.523012  0.583569  1
  C  C17  1  0.378700  0.873201  0.842256  1
  C  C18  1  0.580051  0.363306  0.863786  1
  C  C19  1  0.799306  0.286049  0.349144  1
  C  C20  1  0.639866  0.539110  0.375014  1
  C  C21  1  0.883784  0.258572  0.521875  1
  C  C22  1  0.116216  0.741428  0.478125  1
  C  C23  1  0.420891  0.420673  0.300070  1
  C  C24  1  0.245265  0.476988  0.416431  1
  C  C25  1  0.883784  0.241428  0.021875  1
  C  C26  1  0.579109  0.920673  0.199930  1
  C  C27  1  0.879631  0.093581  0.405795  1
  C  C28  1  0.120369  0.906419  0.594205  1
  C  C29  1  0.685785  0.388172  0.026998  1
  C  C30  1  0.245265  0.023012  0.916431  1
  C  C31  1  0.360134  0.039110  0.124986  1
  C  C32  1  0.314215  0.611828  0.973002  1
  C  C33  1  0.685785  0.111828  0.526998  1
  C  C34  1  0.639866  0.960890  0.875014  1
  C  C35  1  0.580051  0.136694  0.363786  1
  C  C36  1  0.200694  0.713951  0.650856  1
  C  C37  1  0.799306  0.213951  0.849144  1
  C  C38  1  0.314215  0.888172  0.473002  1
  C  C39  1  0.419949  0.863306  0.636214  1
  C  C40  1  0.120369  0.593581  0.094205  1
  C  C41  1  0.200694  0.786049  0.150856  1
  C  C42  1  0.579109  0.579327  0.699930  1
  C  C43  1  0.621300  0.373201  0.657744  1
  C  C44  1  0.360134  0.460890  0.624986  1
  C  C45  1  0.116216  0.758572  0.978125  1
  C  C46  1  0.420891  0.079327  0.800070  1
  C  C47  1  0.378700  0.626799  0.342256  1
  Br  Br48  1  0.690592  0.715704  0.001798  1
  Br  Br49  1  0.309408  0.284296  0.998202  1
  Br  Br50  1  0.690592  0.784296  0.501798  1
  Br  Br51  1  0.309408  0.215704  0.498202  1
  O  O52  1  0.161920  0.843136  0.202252  1
  O  O53  1  0.351751  0.938955  0.417129  1
  O  O54  1  0.881389  0.961362  0.077135  1
  O  O55  1  0.648249  0.438955  0.082871  1
  O  O56  1  0.242281  0.060871  0.144400  1
  O  O57  1  0.964956  0.202753  0.077890  1
  O  O58  1  0.035044  0.797247  0.922110  1
  O  O59  1  0.964956  0.297247  0.577890  1
  O  O60  1  0.475998  0.402186  0.823550  1
  O  O61  1  0.662908  0.203088  0.195738  1
  O  O62  1  0.118611  0.038638  0.922865  1
  O  O63  1  0.524002  0.902186  0.676450  1
  O  O64  1  0.838080  0.156864  0.797748  1
  O  O65  1  0.593961  0.632294  0.762904  1
  O  O66  1  0.838080  0.343136  0.297748  1
  O  O67  1  0.037886  0.970501  0.612664  1
  O  O68  1  0.118611  0.461362  0.422865  1
  O  O69  1  0.881389  0.538638  0.577135  1
  O  O70  1  0.337092  0.703088  0.304262  1
  O  O71  1  0.161920  0.656864  0.702252  1
  O  O72  1  0.037886  0.529499  0.112664  1
  O  O73  1  0.757719  0.939129  0.855600  1
  O  O74  1  0.593961  0.867706  0.262904  1
  O  O75  1  0.351751  0.561045  0.917129  1
  O  O76  1  0.962114  0.470501  0.887336  1
  O  O77  1  0.757719  0.560871  0.355600  1
  O  O78  1  0.648249  0.061045  0.582871  1
  O  O79  1  0.524002  0.597814  0.176450  1
  O  O80  1  0.406039  0.132294  0.737096  1
  O  O81  1  0.035044  0.702753  0.422110  1
  O  O82  1  0.475998  0.097814  0.323550  1
  O  O83  1  0.337092  0.796912  0.804262  1
  O  O84  1  0.406039  0.367706  0.237096  1
  O  O85  1  0.242281  0.439129  0.644400  1
  O  O86  1  0.962114  0.029499  0.387336  1
  O  O87  1  0.662908  0.296912  0.695738  1
