# generated using pymatgen
data_Li5FeO3F
_symmetry_space_group_name_H-M   'P 1'
_cell_length_a   6.79958023
_cell_length_b   6.79958023
_cell_length_c   4.74235036
_cell_angle_alpha   78.65617812
_cell_angle_beta   78.65617812
_cell_angle_gamma   90.19926643
_symmetry_Int_Tables_number   1
_chemical_formula_structural   Li5FeO3F
_chemical_formula_sum   'Li10 Fe2 O6 F2'
_cell_volume   210.57333833
_cell_formula_units_Z   2
loop_
 _symmetry_equiv_pos_site_id
 _symmetry_equiv_pos_as_xyz
  1  'x, y, z'
loop_
 _atom_site_type_symbol
 _atom_site_label
 _atom_site_symmetry_multiplicity
 _atom_site_fract_x
 _atom_site_fract_y
 _atom_site_fract_z
 _atom_site_occupancy
  Li  Li0  1  0.968812  0.543096  0.254261  1
  Li  Li1  1  0.706904  0.281188  0.995739  1
  Li  Li2  1  0.543096  0.968812  0.254261  1
  Li  Li3  1  0.281188  0.706904  0.995739  1
  Li  Li4  1  0.779714  0.214332  0.508088  1
  Li  Li5  1  0.982744  0.982744  0.000866  1
  Li  Li6  1  0.267256  0.267256  0.249134  1
  Li  Li7  1  0.214332  0.779714  0.508088  1
  Li  Li8  1  0.470286  0.035668  0.741912  1
  Li  Li9  1  0.035668  0.470286  0.741912  1
  Fe  Fe10  1  0.497713  0.497713  0.490951  1
  Fe  Fe11  1  0.752287  0.752287  0.759049  1
  O  O12  1  0.228957  0.525632  0.373530  1
  O  O13  1  0.525632  0.228957  0.373530  1
  O  O14  1  0.771039  0.478961  0.625000  1
  O  O15  1  0.478961  0.771039  0.625000  1
  O  O16  1  0.724368  0.021043  0.876470  1
  O  O17  1  0.021043  0.724368  0.876470  1
  F  F18  1  0.981089  0.268911  0.125000  1
  F  F19  1  0.268911  0.981089  0.125000  1
