# generated using pymatgen
data_Li2Fe(SiO3)2
_symmetry_space_group_name_H-M   'P 1'
_cell_length_a   9.83921037
_cell_length_b   4.78133417
_cell_length_c   5.44454075
_cell_angle_alpha   90.00000000
_cell_angle_beta   88.24145844
_cell_angle_gamma   90.00000000
_symmetry_Int_Tables_number   1
_chemical_formula_structural   Li2Fe(SiO3)2
_chemical_formula_sum   'Li4 Fe2 Si4 O12'
_cell_volume   256.01535113
_cell_formula_units_Z   2
loop_
 _symmetry_equiv_pos_site_id
 _symmetry_equiv_pos_as_xyz
  1  'x, y, z'
loop_
 _atom_site_type_symbol
 _atom_site_label
 _atom_site_symmetry_multiplicity
 _atom_site_fract_x
 _atom_site_fract_y
 _atom_site_fract_z
 _atom_site_occupancy
  Li  Li0  1  0.333508  0.803222  0.335403  1
  Li  Li1  1  0.483487  0.295755  0.161260  1
  Li  Li2  1  0.516513  0.795755  0.838740  1
  Li  Li3  1  0.666492  0.303222  0.664597  1
  Fe  Fe4  1  0.128863  0.333924  0.283059  1
  Fe  Fe5  1  0.871137  0.833924  0.716941  1
  Si  Si6  1  0.183414  0.787976  0.853166  1
  Si  Si7  1  0.343275  0.287873  0.684478  1
  Si  Si8  1  0.656725  0.787873  0.315522  1
  Si  Si9  1  0.816586  0.287976  0.146834  1
  O  O10  1  0.056900  0.708332  0.687812  1
  O  O11  1  0.181828  0.698691  0.138201  1
  O  O12  1  0.219438  0.131194  0.851211  1
  O  O13  1  0.322349  0.637845  0.710768  1
  O  O14  1  0.322351  0.211202  0.395754  1
  O  O15  1  0.487645  0.208283  0.798340  1
  O  O16  1  0.512355  0.708283  0.201660  1
  O  O17  1  0.677649  0.711202  0.604246  1
  O  O18  1  0.677651  0.137845  0.289232  1
  O  O19  1  0.780562  0.631194  0.148789  1
  O  O20  1  0.818172  0.198691  0.861799  1
  O  O21  1  0.943100  0.208332  0.312188  1
