# generated using pymatgen
data_Sr5Nd5Cu(NiO5)4
_symmetry_space_group_name_H-M   'P 1'
_cell_length_a   3.84136266
_cell_length_b   19.39112555
_cell_length_c   6.84553472
_cell_angle_alpha   104.77332105
_cell_angle_beta   105.95639655
_cell_angle_gamma   89.72541424
_symmetry_Int_Tables_number   1
_chemical_formula_structural   Sr5Nd5Cu(NiO5)4
_chemical_formula_sum   'Sr5 Nd5 Cu1 Ni4 O20'
_cell_volume   472.88803286
_cell_formula_units_Z   1
loop_
 _symmetry_equiv_pos_site_id
 _symmetry_equiv_pos_as_xyz
  1  'x, y, z'
loop_
 _atom_site_type_symbol
 _atom_site_label
 _atom_site_symmetry_multiplicity
 _atom_site_fract_x
 _atom_site_fract_y
 _atom_site_fract_z
 _atom_site_occupancy
  Sr  Sr0  1  0.650984  0.527865  0.284660  1
  Sr  Sr1  1  0.627611  0.721788  0.266486  1
  Sr  Sr2  1  0.604140  0.911307  0.236185  1
  Sr  Sr3  1  0.420141  0.083810  0.735339  1
  Sr  Sr4  1  0.377117  0.276114  0.729323  1
  Nd  Nd5  1  0.669062  0.141076  0.293040  1
  Nd  Nd6  1  0.654299  0.333645  0.284780  1
  Nd  Nd7  1  0.371885  0.469312  0.729302  1
  Nd  Nd8  1  0.325389  0.859102  0.689660  1
  Nd  Nd9  1  0.359698  0.663462  0.716431  1
  Cu  Cu10  1  0.011017  0.001879  0.997887  1
  Ni  Ni11  1  0.020089  0.203720  0.004545  1
  Ni  Ni12  1  0.014809  0.401476  0.009451  1
  Ni  Ni13  1  0.006902  0.597329  0.002604  1
  Ni  Ni14  1  0.980370  0.796021  0.980460  1
  O  O15  1  0.047944  0.101812  0.056595  1
  O  O16  1  0.026068  0.305891  0.026923  1
  O  O17  1  0.007126  0.497771  0.997416  1
  O  O18  1  0.978176  0.692210  0.959794  1
  O  O19  1  0.967326  0.901498  0.949481  1
  O  O20  1  0.829112  0.029263  0.474183  1
  O  O21  1  0.180786  0.231999  0.342699  1
  O  O22  1  0.186545  0.425923  0.356176  1
  O  O23  1  0.178295  0.633614  0.349782  1
  O  O24  1  0.151085  0.829454  0.322646  1
  O  O25  1  0.516013  0.005309  0.007067  1
  O  O26  1  0.529631  0.205459  0.025746  1
  O  O27  1  0.514282  0.401305  0.008524  1
  O  O28  1  0.497543  0.594323  0.982264  1
  O  O29  1  0.467647  0.790613  0.953470  1
  O  O30  1  0.848299  0.176432  0.664040  1
  O  O31  1  0.840551  0.375106  0.658619  1
  O  O32  1  0.849290  0.562792  0.666634  1
  O  O33  1  0.811924  0.775870  0.645748  1
  O  O34  1  0.978842  0.975450  0.592038  1
