# generated using pymatgen
data_Li2TiFe2O5
_symmetry_space_group_name_H-M   'P 1'
_cell_length_a   5.13522706
_cell_length_b   5.13225873
_cell_length_c   7.97833623
_cell_angle_alpha   84.26290734
_cell_angle_beta   71.22646686
_cell_angle_gamma   71.90728988
_symmetry_Int_Tables_number   1
_chemical_formula_structural   Li2TiFe2O5
_chemical_formula_sum   'Li4 Ti2 Fe4 O10'
_cell_volume   189.24100118
_cell_formula_units_Z   2
loop_
 _symmetry_equiv_pos_site_id
 _symmetry_equiv_pos_as_xyz
  1  'x, y, z'
loop_
 _atom_site_type_symbol
 _atom_site_label
 _atom_site_symmetry_multiplicity
 _atom_site_fract_x
 _atom_site_fract_y
 _atom_site_fract_z
 _atom_site_occupancy
  Li  Li0  1  0.199470  0.000221  0.601223  1
  Li  Li1  1  0.005681  0.998838  0.995062  1
  Li  Li2  1  0.700741  0.500260  0.598698  1
  Li  Li3  1  0.900693  0.498894  0.204996  1
  Ti  Ti4  1  0.092113  0.499911  0.806853  1
  Ti  Ti5  1  0.798904  -0.000060  0.393170  1
  Fe  Fe6  1  0.602957  0.003424  0.794073  1
  Fe  Fe7  1  0.406674  0.996334  0.191803  1
  Fe  Fe8  1  0.297016  0.503433  0.405925  1
  Fe  Fe9  1  0.498506  0.496316  0.008191  1
  O  O10  1  0.045117  0.228840  0.394951  1
  O  O11  1  0.340087  0.728816  0.805046  1
  O  O12  1  0.451703  0.249441  0.598575  1
  O  O13  1  0.120165  0.764341  0.215768  1
  O  O14  1  0.235994  0.264284  0.984242  1
  O  O15  1  0.864725  0.265080  0.798684  1
  O  O16  1  0.657255  0.243542  0.211337  1
  O  O17  1  0.563347  0.765088  0.401306  1
  O  O18  1  0.950276  0.749473  0.601407  1
  O  O19  1  0.768577  0.743525  0.988686  1
