# generated using pymatgen
data_YH16C4N9O16
_symmetry_space_group_name_H-M   'P 1'
_cell_length_a   11.38965740
_cell_length_b   11.38965740
_cell_length_c   6.48252287
_cell_angle_alpha   86.74301818
_cell_angle_beta   93.25698182
_cell_angle_gamma   36.17154753
_symmetry_Int_Tables_number   1
_chemical_formula_structural   YH16C4N9O16
_chemical_formula_sum   'Y1 H16 C4 N9 O16'
_cell_volume   487.94463341
_cell_formula_units_Z   1
loop_
 _symmetry_equiv_pos_site_id
 _symmetry_equiv_pos_as_xyz
  1  'x, y, z'
loop_
 _atom_site_type_symbol
 _atom_site_label
 _atom_site_symmetry_multiplicity
 _atom_site_fract_x
 _atom_site_fract_y
 _atom_site_fract_z
 _atom_site_occupancy
  Y  Y0  1  0.997024  0.002976  0.995624  1
  H  H1  1  0.576246  0.239360  0.013177  1
  H  H2  1  0.760640  0.423754  0.013177  1
  H  H3  1  0.201568  0.024045  0.726767  1
  H  H4  1  0.975955  0.798432  0.726767  1
  H  H5  1  0.370027  0.800096  0.843021  1
  H  H6  1  0.199904  0.629973  0.843021  1
  H  H7  1  0.407199  0.290275  0.271845  1
  H  H8  1  0.709725  0.592801  0.271845  1
  H  H9  1  0.333168  0.469159  0.162281  1
  H  H10  1  0.530841  0.666832  0.162281  1
  H  H11  1  0.574272  0.311466  0.791242  1
  H  H12  1  0.688534  0.425728  0.791242  1
  H  H13  1  0.971033  0.098755  0.528528  1
  H  H14  1  0.901245  0.028967  0.528528  1
  H  H15  1  0.198052  0.146246  0.024492  1
  H  H16  1  0.853754  0.801948  0.024492  1
  C  C17  1  0.141786  0.109598  0.320549  1
  C  C18  1  0.890402  0.858214  0.320549  1
  C  C19  1  0.244623  0.180646  0.473818  1
  C  C20  1  0.819354  0.755377  0.473818  1
  N  N21  1  0.194001  0.153845  0.179994  1
  N  N22  1  0.846155  0.805999  0.179994  1
  N  N23  1  0.259625  0.198457  0.277076  1
  N  N24  1  0.801543  0.740375  0.277076  1
  N  N25  1  0.175185  0.127463  0.512977  1
  N  N26  1  0.872537  0.824815  0.512977  1
  N  N27  1  0.304945  0.213291  0.633527  1
  N  N28  1  0.786709  0.695055  0.633527  1
  N  N29  1  0.406360  0.593640  0.377648  1
  O  O30  1  0.071879  0.064713  0.276708  1
  O  O31  1  0.935287  0.928121  0.276708  1
  O  O32  1  0.355475  0.273458  0.578635  1
  O  O33  1  0.726542  0.644525  0.578635  1
  O  O34  1  0.304369  0.178564  0.818331  1
  O  O35  1  0.821436  0.695631  0.818331  1
  O  O36  1  0.387106  0.511399  0.470224  1
  O  O37  1  0.488601  0.612894  0.470224  1
  O  O38  1  0.664353  0.204043  0.914560  1
  O  O39  1  0.795957  0.335647  0.914560  1
  O  O40  1  0.341289  0.658711  0.174752  1
  O  O41  1  0.905765  0.094235  0.614739  1
  O  O42  1  0.236256  0.936584  0.854828  1
  O  O43  1  0.063416  0.763744  0.854828  1
  O  O44  1  0.397531  0.343477  0.137138  1
  O  O45  1  0.656523  0.602469  0.137138  1
