# generated using pymatgen
data_V4(OF3)3
_symmetry_space_group_name_H-M   'P 1'
_cell_length_a   5.22456130
_cell_length_b   5.43446476
_cell_length_c   17.48534482
_cell_angle_alpha   90.94809572
_cell_angle_beta   99.21640345
_cell_angle_gamma   60.80214252
_symmetry_Int_Tables_number   1
_chemical_formula_structural   V4(OF3)3
_chemical_formula_sum   'V8 O6 F18'
_cell_volume   426.68779336
_cell_formula_units_Z   2
loop_
 _symmetry_equiv_pos_site_id
 _symmetry_equiv_pos_as_xyz
  1  'x, y, z'
loop_
 _atom_site_type_symbol
 _atom_site_label
 _atom_site_symmetry_multiplicity
 _atom_site_fract_x
 _atom_site_fract_y
 _atom_site_fract_z
 _atom_site_occupancy
  V  V0  1  0.719133  0.643135  0.118949  1
  V  V1  1  0.770653  0.119549  0.625288  1
  V  V2  1  0.448365  0.279075  0.247714  1
  V  V3  1  0.481540  0.762358  0.748177  1
  V  V4  1  0.215264  0.903767  0.379517  1
  V  V5  1  0.275838  0.363101  0.881604  1
  V  V6  1  0.997494  0.002646  0.999867  1
  V  V7  1  0.996273  0.477249  0.505184  1
  O  O8  1  0.927574  0.329068  0.578061  1
  O  O9  1  0.423049  0.792226  0.046011  1
  O  O10  1  0.569937  0.213337  0.954602  1
  O  O11  1  0.087849  0.459733  0.207380  1
  O  O12  1  0.118135  0.946764  0.708229  1
  O  O13  1  0.048259  0.177557  0.434095  1
  F  F14  1  0.915547  0.845711  0.087385  1
  F  F15  1  0.968548  0.323643  0.061808  1
  F  F16  1  0.978824  0.803273  0.560081  1
  F  F17  1  0.535209  0.932563  0.191890  1
  F  F18  1  0.900759  0.047818  0.288963  1
  F  F19  1  0.923961  0.538972  0.793026  1
  F  F20  1  0.590166  0.404722  0.165888  1
  F  F21  1  0.605869  0.897041  0.664664  1
  F  F22  1  0.577247  0.707224  0.458887  1
  F  F23  1  0.449784  0.570971  0.315254  1
  F  F24  1  0.549267  0.427192  0.690790  1
  F  F25  1  0.420596  0.079818  0.335269  1
  F  F26  1  0.427083  0.286411  0.537869  1
  F  F27  1  0.420753  0.595602  0.837983  1
  F  F28  1  0.073000  0.661327  0.416142  1
  F  F29  1  0.477983  0.069140  0.810218  1
  F  F30  1  0.024485  0.682089  0.937454  1
  F  F31  1  0.081554  0.156918  0.911748  1
