# generated using pymatgen
data_Li4Ti2Mn3Nb3O16
_symmetry_space_group_name_H-M   'P 1'
_cell_length_a   6.22388821
_cell_length_b   6.07146810
_cell_length_c   9.89601930
_cell_angle_alpha   89.99985405
_cell_angle_beta   88.18866865
_cell_angle_gamma   119.19295107
_symmetry_Int_Tables_number   1
_chemical_formula_structural   Li4Ti2Mn3Nb3O16
_chemical_formula_sum   'Li4 Ti2 Mn3 Nb3 O16'
_cell_volume   326.23945659
_cell_formula_units_Z   1
loop_
 _symmetry_equiv_pos_site_id
 _symmetry_equiv_pos_as_xyz
  1  'x, y, z'
loop_
 _atom_site_type_symbol
 _atom_site_label
 _atom_site_symmetry_multiplicity
 _atom_site_fract_x
 _atom_site_fract_y
 _atom_site_fract_z
 _atom_site_occupancy
  Li  Li0  1  0.338923  0.669473  0.904042  1
  Li  Li1  1  0.004324  0.002178  0.997897  1
  Li  Li2  1  0.014346  0.007184  0.485622  1
  Li  Li3  1  0.672862  0.336446  0.397834  1
  Ti  Ti4  1  0.282906  0.641463  0.480055  1
  Ti  Ti5  1  0.658377  0.329200  0.004816  1
  Mn  Mn6  1  0.163156  0.827201  0.203508  1
  Mn  Mn7  1  0.163147  0.335979  0.203525  1
  Mn  Mn8  1  0.338349  0.169175  0.706455  1
  Nb  Nb9  1  0.645274  0.822651  0.228001  1
  Nb  Nb10  1  0.822636  0.659091  0.718771  1
  Nb  Nb11  1  0.822644  0.163572  0.718768  1
  O  O12  1  0.152490  0.814788  0.591768  1
  O  O13  1  0.047266  0.523638  0.356056  1
  O  O14  1  0.368929  0.684472  0.102521  1
  O  O15  1  0.978108  0.989062  0.301789  1
  O  O16  1  0.000985  0.000499  0.814939  1
  O  O17  1  0.152494  0.337719  0.591770  1
  O  O18  1  0.494366  0.963193  0.351539  1
  O  O19  1  0.494373  0.531207  0.351542  1
  O  O20  1  0.346112  0.173069  0.080963  1
  O  O21  1  0.683051  0.841538  0.600633  1
  O  O22  1  0.542870  0.498067  0.843696  1
  O  O23  1  0.542878  0.044825  0.843698  1
  O  O24  1  0.685174  0.342596  0.598372  1
  O  O25  1  0.807154  0.648439  0.093687  1
  O  O26  1  0.969644  0.484834  0.841879  1
  O  O27  1  0.807163  0.158742  0.093690  1
