# generated using pymatgen
data_Li3Co2(NiO4)2
_symmetry_space_group_name_H-M   'P 1'
_cell_length_a   5.76960766
_cell_length_b   5.79986202
_cell_length_c   5.67934816
_cell_angle_alpha   59.97074874
_cell_angle_beta   60.77621564
_cell_angle_gamma   90.47526553
_symmetry_Int_Tables_number   1
_chemical_formula_structural   Li3Co2(NiO4)2
_chemical_formula_sum   'Li3 Co2 Ni2 O8'
_cell_volume   135.33137723
_cell_formula_units_Z   1
loop_
 _symmetry_equiv_pos_site_id
 _symmetry_equiv_pos_as_xyz
  1  'x, y, z'
loop_
 _atom_site_type_symbol
 _atom_site_label
 _atom_site_symmetry_multiplicity
 _atom_site_fract_x
 _atom_site_fract_y
 _atom_site_fract_z
 _atom_site_occupancy
  Li  Li0  1  0.000000  0.500000  0.000000  1
  Li  Li1  1  0.500000  0.500000  0.500000  1
  Li  Li2  1  0.500000  0.000000  0.500000  1
  Co  Co3  1  0.000000  0.000000  0.000000  1
  Co  Co4  1  0.000000  0.000000  0.500000  1
  Ni  Ni5  1  0.000000  0.500000  0.500000  1
  Ni  Ni6  1  0.500000  0.000000  0.000000  1
  O  O7  1  0.231390  0.776173  0.015202  1
  O  O8  1  0.216590  0.220219  0.023725  1
  O  O9  1  0.242537  0.774750  0.480031  1
  O  O10  1  0.212131  0.223909  0.534909  1
  O  O11  1  0.787869  0.776091  0.465091  1
  O  O12  1  0.757463  0.225250  0.519969  1
  O  O13  1  0.783410  0.779781  0.976275  1
  O  O14  1  0.768610  0.223827  0.984798  1
