# generated using pymatgen
data_Li2Fe2SiO6
_symmetry_space_group_name_H-M   'P 1'
_cell_length_a   11.59261906
_cell_length_b   11.65221282
_cell_length_c   6.75108448
_cell_angle_alpha   73.09479058
_cell_angle_beta   73.06629447
_cell_angle_gamma   85.18345467
_symmetry_Int_Tables_number   1
_chemical_formula_structural   Li2Fe2SiO6
_chemical_formula_sum   'Li12 Fe12 Si6 O36'
_cell_volume   834.69601351
_cell_formula_units_Z   6
loop_
 _symmetry_equiv_pos_site_id
 _symmetry_equiv_pos_as_xyz
  1  'x, y, z'
loop_
 _atom_site_type_symbol
 _atom_site_label
 _atom_site_symmetry_multiplicity
 _atom_site_fract_x
 _atom_site_fract_y
 _atom_site_fract_z
 _atom_site_occupancy
  Li  Li0  1  0.010790  0.997373  0.497049  1
  Li  Li1  1  0.670003  0.999094  0.166459  1
  Li  Li2  1  0.456232  0.138295  0.948731  1
  Li  Li3  1  0.143052  0.212678  0.570926  1
  Li  Li4  1  0.641064  0.287364  0.536767  1
  Li  Li5  1  0.959332  0.362871  0.837678  1
  Li  Li6  1  0.510757  0.497402  0.246189  1
  Li  Li7  1  0.170354  0.496966  0.915187  1
  Li  Li8  1  0.956404  0.636015  0.205715  1
  Li  Li9  1  0.643518  0.710564  0.825522  1
  Li  Li10  1  0.142895  0.787404  0.285378  1
  Li  Li11  1  0.456899  0.859388  0.590815  1
  Fe  Fe12  1  0.696459  0.000247  0.650118  1
  Fe  Fe13  1  0.016821  0.999846  0.990312  1
  Fe  Fe14  1  0.463763  0.115161  0.455147  1
  Fe  Fe15  1  0.148030  0.213552  0.062833  1
  Fe  Fe16  1  0.647002  0.284717  0.027638  1
  Fe  Fe17  1  0.964205  0.384876  0.319815  1
  Fe  Fe18  1  0.195563  0.500529  0.401605  1
  Fe  Fe19  1  0.515609  0.500511  0.744272  1
  Fe  Fe20  1  0.964431  0.615366  0.715193  1
  Fe  Fe21  1  0.648353  0.713404  0.326299  1
  Fe  Fe22  1  0.148937  0.784345  0.789632  1
  Fe  Fe23  1  0.466487  0.885798  0.077548  1
  Si  Si24  1  0.253287  0.998926  0.372132  1
  Si  Si25  1  0.856784  0.165613  0.728869  1
  Si  Si26  1  0.357636  0.335563  0.645995  1
  Si  Si27  1  0.752864  0.499530  0.124165  1
  Si  Si28  1  0.357475  0.665566  0.998512  1
  Si  Si29  1  0.857028  0.834709  0.411498  1
  O  O30  1  0.594649  0.006678  0.473555  1
  O  O31  1  0.932223  0.037415  0.768223  1
  O  O32  1  0.335802  0.002487  0.531122  1
  O  O33  1  0.159746  0.115578  0.346989  1
  O  O34  1  0.118752  0.134190  0.879810  1
  O  O35  1  0.768998  0.157659  0.579072  1
  O  O36  1  0.504654  0.191960  0.162107  1
  O  O37  1  0.779811  0.179940  0.966956  1
  O  O38  1  0.455228  0.222030  0.632125  1
  O  O39  1  0.953607  0.279978  0.604858  1
  O  O40  1  0.282077  0.318492  0.899930  1
  O  O41  1  0.006675  0.307203  0.105061  1
  O  O42  1  0.269477  0.344007  0.488793  1
  O  O43  1  0.617702  0.366601  0.766013  1
  O  O44  1  0.660011  0.382183  0.214523  1
  O  O45  1  0.835114  0.496722  0.286820  1
  O  O46  1  0.431449  0.464663  0.557897  1
  O  O47  1  0.094884  0.493963  0.229440  1
  O  O48  1  0.094147  0.505331  0.674544  1
  O  O49  1  0.432441  0.537261  0.014142  1
  O  O50  1  0.837262  0.502228  0.881893  1
  O  O51  1  0.661530  0.617922  0.124013  1
  O  O52  1  0.618047  0.634491  0.618675  1
  O  O53  1  0.268753  0.657555  0.242566  1
  O  O54  1  0.007389  0.690686  0.890370  1
  O  O55  1  0.282231  0.679656  0.819636  1
  O  O56  1  0.952994  0.719742  0.440087  1
  O  O57  1  0.453768  0.780338  0.910596  1
  O  O58  1  0.780091  0.820788  0.249401  1
  O  O59  1  0.507265  0.807040  0.329143  1
  O  O60  1  0.769337  0.842972  0.648181  1
  O  O61  1  0.118640  0.865537  0.999460  1
  O  O62  1  0.162133  0.880054  0.491020  1
  O  O63  1  0.337538  0.997350  0.131549  1
  O  O64  1  0.933006  0.962658  0.297200  1
  O  O65  1  0.596553  0.995324  0.929124  1
