# generated using pymatgen
data_TiH2N2OF4
_symmetry_space_group_name_H-M   'P 1'
_cell_length_a   6.24675957
_cell_length_b   7.80956474
_cell_length_c   11.05202171
_cell_angle_alpha   90.00000000
_cell_angle_beta   89.74257857
_cell_angle_gamma   90.00000000
_symmetry_Int_Tables_number   1
_chemical_formula_structural   TiH2N2OF4
_chemical_formula_sum   'Ti4 H8 N8 O4 F16'
_cell_volume   539.16161589
_cell_formula_units_Z   4
loop_
 _symmetry_equiv_pos_site_id
 _symmetry_equiv_pos_as_xyz
  1  'x, y, z'
loop_
 _atom_site_type_symbol
 _atom_site_label
 _atom_site_symmetry_multiplicity
 _atom_site_fract_x
 _atom_site_fract_y
 _atom_site_fract_z
 _atom_site_occupancy
  Ti  Ti0  1  0.000000  0.500000  0.000000  1
  Ti  Ti1  1  0.000000  0.000000  0.000000  1
  Ti  Ti2  1  0.500000  0.000000  0.500000  1
  Ti  Ti3  1  0.500000  0.500000  0.500000  1
  H  H4  1  0.429781  0.359513  0.250952  1
  H  H5  1  0.570219  0.859513  0.749048  1
  H  H6  1  0.570219  0.640487  0.749048  1
  H  H7  1  0.429781  0.140487  0.250952  1
  H  H8  1  0.551306  0.250000  0.140128  1
  H  H9  1  0.448694  0.750000  0.859872  1
  H  H10  1  0.284079  0.250000  0.148137  1
  H  H11  1  0.715921  0.750000  0.851863  1
  N  N12  1  0.423573  0.250000  0.198647  1
  N  N13  1  0.576427  0.750000  0.801353  1
  N  N14  1  0.911289  0.250000  0.310831  1
  N  N15  1  0.088711  0.750000  0.689169  1
  N  N16  1  0.509108  0.250000  0.859322  1
  N  N17  1  0.490891  0.750000  0.140678  1
  N  N18  1  0.002220  0.250000  0.638942  1
  N  N19  1  0.997780  0.750000  0.361058  1
  O  O20  1  0.079882  0.250000  0.015991  1
  O  O21  1  0.920118  0.750000  0.984009  1
  O  O22  1  0.580061  0.250000  0.485682  1
  O  O23  1  0.419939  0.750000  0.514318  1
  F  F24  1  0.234420  0.448030  0.436187  1
  F  F25  1  0.765580  0.948030  0.563813  1
  F  F26  1  0.765580  0.551970  0.563813  1
  F  F27  1  0.234420  0.051970  0.436187  1
  F  F28  1  0.731057  0.449173  0.063936  1
  F  F29  1  0.268943  0.949173  0.936064  1
  F  F30  1  0.268943  0.550827  0.936064  1
  F  F31  1  0.731057  0.050827  0.063936  1
  F  F32  1  0.896138  0.469110  0.843632  1
  F  F33  1  0.103862  0.969110  0.156368  1
  F  F34  1  0.103862  0.530890  0.156368  1
  F  F35  1  0.896138  0.030890  0.843632  1
  F  F36  1  0.399219  0.033092  0.657738  1
  F  F37  1  0.600781  0.533092  0.342262  1
  F  F38  1  0.600781  0.966908  0.342262  1
  F  F39  1  0.399219  0.466908  0.657738  1
