# generated using pymatgen
data_Sr2CaI6
_symmetry_space_group_name_H-M   'P 1'
_cell_length_a   10.42542729
_cell_length_b   9.52114836
_cell_length_c   14.83036792
_cell_angle_alpha   90.00000000
_cell_angle_beta   87.34413292
_cell_angle_gamma   90.00000000
_symmetry_Int_Tables_number   1
_chemical_formula_structural   Sr2CaI6
_chemical_formula_sum   'Sr8 Ca4 I24'
_cell_volume   1470.51134422
_cell_formula_units_Z   4
loop_
 _symmetry_equiv_pos_site_id
 _symmetry_equiv_pos_as_xyz
  1  'x, y, z'
loop_
 _atom_site_type_symbol
 _atom_site_label
 _atom_site_symmetry_multiplicity
 _atom_site_fract_x
 _atom_site_fract_y
 _atom_site_fract_z
 _atom_site_occupancy
  Sr  Sr0  1  0.110019  0.798727  0.593555  1
  Sr  Sr1  1  0.149817  0.593971  0.212631  1
  Sr  Sr2  1  0.350183  0.093971  0.287369  1
  Sr  Sr3  1  0.389981  0.298727  0.906445  1
  Sr  Sr4  1  0.610019  0.701273  0.093555  1
  Sr  Sr5  1  0.649817  0.906029  0.712631  1
  Sr  Sr6  1  0.850183  0.406029  0.787369  1
  Sr  Sr7  1  0.889981  0.201273  0.406445  1
  Ca  Ca8  1  0.143105  0.854170  0.930249  1
  Ca  Ca9  1  0.356895  0.354170  0.569751  1
  Ca  Ca10  1  0.643105  0.645830  0.430249  1
  Ca  Ca11  1  0.856895  0.145830  0.069751  1
  I  I12  1  0.065210  0.168563  0.911419  1
  I  I13  1  0.070994  0.235239  0.205088  1
  I  I14  1  0.062724  0.887167  0.365128  1
  I  I15  1  0.187190  0.551082  0.985921  1
  I  I16  1  0.158481  0.438033  0.423461  1
  I  I17  1  0.168607  0.447932  0.723535  1
  I  I18  1  0.331393  0.947932  0.776465  1
  I  I19  1  0.312810  0.051082  0.514079  1
  I  I20  1  0.341519  0.938033  0.076539  1
  I  I21  1  0.437276  0.387167  0.134872  1
  I  I22  1  0.429006  0.735239  0.294912  1
  I  I23  1  0.434790  0.668563  0.588581  1
  I  I24  1  0.565210  0.331437  0.411419  1
  I  I25  1  0.570994  0.264761  0.705088  1
  I  I26  1  0.562724  0.612833  0.865128  1
  I  I27  1  0.658481  0.061967  0.923461  1
  I  I28  1  0.687190  0.948918  0.485921  1
  I  I29  1  0.668607  0.052068  0.223535  1
  I  I30  1  0.831393  0.552068  0.276465  1
  I  I31  1  0.841519  0.561967  0.576539  1
  I  I32  1  0.812810  0.448918  0.014079  1
  I  I33  1  0.937276  0.112833  0.634872  1
  I  I34  1  0.929006  0.764761  0.794912  1
  I  I35  1  0.934790  0.831437  0.088581  1
