# generated using pymatgen
data_SrLiLa7(CoO8)2
_symmetry_space_group_name_H-M   'P 1'
_cell_length_a   7.57074889
_cell_length_b   7.57322277
_cell_length_c   6.89290631
_cell_angle_alpha   74.16806529
_cell_angle_beta   74.16239187
_cell_angle_gamma   90.30466564
_symmetry_Int_Tables_number   1
_chemical_formula_structural   SrLiLa7(CoO8)2
_chemical_formula_sum   'Sr1 Li1 La7 Co2 O16'
_cell_volume   364.41851609
_cell_formula_units_Z   1
loop_
 _symmetry_equiv_pos_site_id
 _symmetry_equiv_pos_as_xyz
  1  'x, y, z'
loop_
 _atom_site_type_symbol
 _atom_site_label
 _atom_site_symmetry_multiplicity
 _atom_site_fract_x
 _atom_site_fract_y
 _atom_site_fract_z
 _atom_site_occupancy
  Sr  Sr0  1  0.065497  0.572813  0.721958  1
  Li  Li1  1  0.250373  0.251952  0.995039  1
  La  La2  1  0.573337  0.064276  0.725796  1
  La  La3  1  0.929262  0.441558  0.260982  1
  La  La4  1  0.063800  0.062808  0.723235  1
  La  La5  1  0.433909  0.432728  0.280075  1
  La  La6  1  0.572815  0.571832  0.734824  1
  La  La7  1  0.928439  0.930193  0.267894  1
  La  La8  1  0.436470  0.926158  0.271816  1
  Co  Co9  1  0.749023  0.248969  0.001839  1
  Co  Co10  1  0.250410  0.750022  0.001032  1
  O  O11  1  0.744567  0.006885  0.001327  1
  O  O12  1  0.991407  0.248649  0.004368  1
  O  O13  1  0.668455  0.168516  0.321938  1
  O  O14  1  0.826339  0.326437  0.675603  1
  O  O15  1  0.505302  0.244877  0.004342  1
  O  O16  1  0.748648  0.489319  0.007380  1
  O  O17  1  0.161346  0.157410  0.363498  1
  O  O18  1  0.351223  0.328939  0.638047  1
  O  O19  1  0.654145  0.656448  0.377654  1
  O  O20  1  0.832001  0.858634  0.622337  1
  O  O21  1  0.249438  0.505995  0.005017  1
  O  O22  1  0.492486  0.754455  0.002297  1
  O  O23  1  0.172516  0.671818  0.315753  1
  O  O24  1  0.336515  0.836420  0.672771  1
  O  O25  1  0.008146  0.748504  0.002619  1
  O  O26  1  0.254125  0.993382  0.000558  1
