# generated using pymatgen
data_Li3Mn2CoO6
_symmetry_space_group_name_H-M   'P 1'
_cell_length_a   15.38539618
_cell_length_b   9.87620746
_cell_length_c   9.87620761
_cell_angle_alpha   17.43936256
_cell_angle_beta   16.75330560
_cell_angle_gamma   16.75330438
_symmetry_Int_Tables_number   1
_chemical_formula_structural   Li3Mn2CoO6
_chemical_formula_sum   'Li3 Mn2 Co1 O6'
_cell_volume   111.55246805
_cell_formula_units_Z   1
loop_
 _symmetry_equiv_pos_site_id
 _symmetry_equiv_pos_as_xyz
  1  'x, y, z'
loop_
 _atom_site_type_symbol
 _atom_site_label
 _atom_site_symmetry_multiplicity
 _atom_site_fract_x
 _atom_site_fract_y
 _atom_site_fract_z
 _atom_site_occupancy
  Li  Li0  1  0.166667  0.500000  0.500000  1
  Li  Li1  1  0.503838  0.499156  0.499156  1
  Li  Li2  1  0.829495  0.500844  0.500844  1
  Mn  Mn3  1  0.008204  0.992715  0.992715  1
  Mn  Mn4  1  0.325129  0.007285  0.007285  1
  Co  Co5  1  0.666667  0.000000  0.000000  1
  O  O6  1  0.219755  0.276266  0.276266  1
  O  O7  1  0.586968  0.254839  0.254839  1
  O  O8  1  0.113579  0.723734  0.723734  1
  O  O9  1  0.941766  0.236666  0.236666  1
  O  O10  1  0.391567  0.763334  0.763334  1
  O  O11  1  0.746365  0.745161  0.745161  1
