# generated using pymatgen
data_Fe4O3F5
_symmetry_space_group_name_H-M   'P 1'
_cell_length_a   7.04557193
_cell_length_b   6.54478787
_cell_length_c   7.80288699
_cell_angle_alpha   65.61695768
_cell_angle_beta   63.16182679
_cell_angle_gamma   90.00000000
_symmetry_Int_Tables_number   1
_chemical_formula_structural   Fe4O3F5
_chemical_formula_sum   'Fe8 O6 F10'
_cell_volume   284.61920566
_cell_formula_units_Z   2
loop_
 _symmetry_equiv_pos_site_id
 _symmetry_equiv_pos_as_xyz
  1  'x, y, z'
loop_
 _atom_site_type_symbol
 _atom_site_label
 _atom_site_symmetry_multiplicity
 _atom_site_fract_x
 _atom_site_fract_y
 _atom_site_fract_z
 _atom_site_occupancy
  Fe  Fe0  1  0.002203  0.996588  0.995593  1
  Fe  Fe1  1  0.497484  0.470505  0.005030  1
  Fe  Fe2  1  0.252516  0.279495  0.494970  1
  Fe  Fe3  1  0.875000  0.375000  0.250000  1
  Fe  Fe4  1  0.375000  0.875000  0.250000  1
  Fe  Fe5  1  0.632472  0.143355  0.735056  1
  Fe  Fe6  1  0.117528  0.606645  0.764944  1
  Fe  Fe7  1  0.747797  0.753412  0.504407  1
  O  O8  1  0.999511  0.293545  0.000978  1
  O  O9  1  0.499222  0.167805  0.001557  1
  O  O10  1  0.000721  0.699233  0.998558  1
  O  O11  1  0.749279  0.050767  0.501442  1
  O  O12  1  0.250778  0.582195  0.498443  1
  O  O13  1  0.750489  0.456455  0.499022  1
  F  F14  1  0.169786  0.375000  0.250000  1
  F  F15  1  0.580214  0.375000  0.250000  1
  F  F16  1  0.319976  0.117216  0.756520  1
  F  F17  1  0.067540  0.875000  0.250000  1
  F  F18  1  0.498462  0.788870  0.003075  1
  F  F19  1  0.251538  0.961130  0.496925  1
  F  F20  1  0.923505  0.117216  0.756520  1
  F  F21  1  0.682460  0.875000  0.250000  1
  F  F22  1  0.430024  0.632784  0.743480  1
  F  F23  1  0.826495  0.632784  0.743480  1
