# generated using pymatgen
data_FeCo(PO4)2
_symmetry_space_group_name_H-M   'P 1'
_cell_length_a   8.37318588
_cell_length_b   8.63470719
_cell_length_c   8.63470717
_cell_angle_alpha   60.00000539
_cell_angle_beta   58.96132438
_cell_angle_gamma   58.96131939
_symmetry_Int_Tables_number   1
_chemical_formula_structural   FeCo(PO4)2
_chemical_formula_sum   'Fe3 Co3 P6 O24'
_cell_volume   434.38142714
_cell_formula_units_Z   3
loop_
 _symmetry_equiv_pos_site_id
 _symmetry_equiv_pos_as_xyz
  1  'x, y, z'
loop_
 _atom_site_type_symbol
 _atom_site_label
 _atom_site_symmetry_multiplicity
 _atom_site_fract_x
 _atom_site_fract_y
 _atom_site_fract_z
 _atom_site_occupancy
  Fe  Fe0  1  0.064478  0.645174  0.645174  1
  Fe  Fe1  1  0.434534  0.855155  0.855155  1
  Fe  Fe2  1  0.935587  0.354805  0.354805  1
  Co  Co3  1  0.995195  0.001601  0.001601  1
  Co  Co4  1  0.560917  0.146361  0.146361  1
  Co  Co5  1  0.501012  0.499663  0.499663  1
  P  P6  1  0.250814  0.249540  0.546894  1
  P  P7  1  0.250814  0.952753  0.249540  1
  P  P8  1  0.250814  0.546894  0.952753  1
  P  P9  1  0.749517  0.451570  0.047815  1
  P  P10  1  0.749517  0.047815  0.751097  1
  P  P11  1  0.749517  0.751097  0.451570  1
  O  O12  1  0.064520  0.107246  0.324560  1
  O  O13  1  0.064520  0.503674  0.107246  1
  O  O14  1  0.064520  0.324560  0.503674  1
  O  O15  1  0.216230  0.096097  0.749643  1
  O  O16  1  0.437969  0.175293  0.390812  1
  O  O17  1  0.285499  0.404018  0.560262  1
  O  O18  1  0.216230  0.938030  0.096097  1
  O  O19  1  0.285499  0.750221  0.404018  1
  O  O20  1  0.563775  0.607033  0.004431  1
  O  O21  1  0.285499  0.560262  0.750221  1
  O  O22  1  0.782096  0.249193  0.063047  1
  O  O23  1  0.563775  0.004431  0.824760  1
  O  O24  1  0.437969  0.995926  0.175293  1
  O  O25  1  0.216230  0.749643  0.938030  1
  O  O26  1  0.716349  0.436259  0.250644  1
  O  O27  1  0.437969  0.390812  0.995926  1
  O  O28  1  0.716349  0.250644  0.596747  1
  O  O29  1  0.782096  0.063047  0.905664  1
  O  O30  1  0.716349  0.596747  0.436259  1
  O  O31  1  0.563775  0.824760  0.607033  1
  O  O32  1  0.782096  0.905664  0.249193  1
  O  O33  1  0.935989  0.677855  0.493971  1
  O  O34  1  0.935989  0.493971  0.892185  1
  O  O35  1  0.935989  0.892185  0.677855  1
