# generated using pymatgen
data_LiV2P4(HO8)2
_symmetry_space_group_name_H-M   'P 1'
_cell_length_a   9.28607478
_cell_length_b   9.29850629
_cell_length_c   7.76431800
_cell_angle_alpha   78.09188392
_cell_angle_beta   78.07877657
_cell_angle_gamma   116.56680302
_symmetry_Int_Tables_number   1
_chemical_formula_structural   LiV2P4(HO8)2
_chemical_formula_sum   'Li2 V4 P8 H4 O32'
_cell_volume   551.46183243
_cell_formula_units_Z   2
loop_
 _symmetry_equiv_pos_site_id
 _symmetry_equiv_pos_as_xyz
  1  'x, y, z'
loop_
 _atom_site_type_symbol
 _atom_site_label
 _atom_site_symmetry_multiplicity
 _atom_site_fract_x
 _atom_site_fract_y
 _atom_site_fract_z
 _atom_site_occupancy
  Li  Li0  1  0.461984  0.092125  0.357285  1
  Li  Li1  1  0.839249  0.709690  0.852753  1
  V  V2  1  0.243698  0.254492  0.499735  1
  V  V3  1  0.498753  0.999266  0.990081  1
  V  V4  1  0.003147  0.495025  0.003335  1
  V  V5  1  0.749400  0.751236  0.487921  1
  P  P6  1  0.251570  0.607546  0.268859  1
  P  P7  1  0.756159  0.106033  0.265242  1
  P  P8  1  0.646104  0.489783  0.231670  1
  P  P9  1  0.145473  0.002177  0.229050  1
  P  P10  1  0.354547  0.502183  0.766854  1
  P  P11  1  0.854230  0.007933  0.763332  1
  P  P12  1  0.750596  0.397587  0.732828  1
  P  P13  1  0.237672  0.897261  0.732926  1
  H  H14  1  0.756679  0.264793  0.510424  1
  H  H15  1  0.246084  0.740696  0.492547  1
  H  H16  1  0.482646  0.492112  0.989021  1
  H  H17  1  0.000225  0.000350  0.999730  1
  O  O18  1  0.113460  0.062491  0.052052  1
  O  O19  1  0.176538  0.127584  0.340076  1
  O  O20  1  0.003359  0.183624  0.629952  1
  O  O21  1  0.218610  0.053703  0.681263  1
  O  O22  1  0.624904  0.069077  0.158174  1
  O  O23  1  0.124766  0.571402  0.159338  1
  O  O24  1  0.281268  0.458419  0.317405  1
  O  O25  1  0.486346  0.315591  0.362079  1
  O  O26  1  0.679900  0.131870  0.439566  1
  O  O27  1  0.180556  0.638901  0.443773  1
  O  O28  1  0.318115  0.376917  0.656159  1
  O  O29  1  0.206312  0.533057  0.818308  1
  O  O30  1  0.689115  0.021648  0.824291  1
  O  O31  1  0.623717  0.570119  0.056587  1
  O  O32  1  0.932653  0.254958  0.131077  1
  O  O33  1  0.424500  0.771615  0.131955  1
  O  O34  1  0.574559  0.236284  0.863852  1
  O  O35  1  0.063171  0.737971  0.863266  1
  O  O36  1  0.382571  0.425667  0.942988  1
  O  O37  1  0.801911  0.468901  0.184212  1
  O  O38  1  0.310331  0.989012  0.183108  1
  O  O39  1  0.678541  0.613592  0.352418  1
  O  O40  1  0.819437  0.371017  0.553152  1
  O  O41  1  0.319268  0.874422  0.558529  1
  O  O42  1  0.520155  0.674576  0.633739  1
  O  O43  1  0.737420  0.561171  0.684040  1
  O  O44  1  0.874944  0.427727  0.844342  1
  O  O45  1  0.361471  0.929637  0.853565  1
  O  O46  1  0.770976  0.940649  0.324960  1
  O  O47  1  0.985385  0.826030  0.366749  1
  O  O48  1  0.818093  0.875049  0.659894  1
  O  O49  1  0.880720  0.932073  0.939394  1
