# generated using pymatgen
data_Ni(IO3)2
_symmetry_space_group_name_H-M   'P 1'
_cell_length_a   5.48416635
_cell_length_b   10.86087173
_cell_length_c   5.26004470
_cell_angle_alpha   90.00000000
_cell_angle_beta   90.00000000
_cell_angle_gamma   120.36235624
_symmetry_Int_Tables_number   1
_chemical_formula_structural   Ni(IO3)2
_chemical_formula_sum   'Ni2 I4 O12'
_cell_volume   270.33234071
_cell_formula_units_Z   2
loop_
 _symmetry_equiv_pos_site_id
 _symmetry_equiv_pos_as_xyz
  1  'x, y, z'
loop_
 _atom_site_type_symbol
 _atom_site_label
 _atom_site_symmetry_multiplicity
 _atom_site_fract_x
 _atom_site_fract_y
 _atom_site_fract_z
 _atom_site_occupancy
  Ni  Ni0  1  0.982389  0.747142  0.414166  1
  Ni  Ni1  1  0.017611  0.252858  0.914166  1
  I  I2  1  0.671104  0.932973  0.487075  1
  I  I3  1  0.329893  0.598838  0.012961  1
  I  I4  1  0.670107  0.401162  0.512961  1
  I  I5  1  0.328896  0.067027  0.987075  1
  O  O6  1  0.268922  0.920213  0.202845  1
  O  O7  1  0.047980  0.601055  0.201395  1
  O  O8  1  0.334979  0.799856  0.635864  1
  O  O9  1  0.284790  0.429625  0.132981  1
  O  O10  1  0.639025  0.726379  0.202024  1
  O  O11  1  0.099518  0.121938  0.147688  1
  O  O12  1  0.900482  0.878062  0.647688  1
  O  O13  1  0.360975  0.273621  0.702024  1
  O  O14  1  0.715210  0.570375  0.632981  1
  O  O15  1  0.665021  0.200144  0.135864  1
  O  O16  1  0.952020  0.398945  0.701395  1
  O  O17  1  0.731078  0.079787  0.702845  1
