# generated using pymatgen
data_Ti2Mn3Te3O16
_symmetry_space_group_name_H-M   'P 1'
_cell_length_a   6.39844146
_cell_length_b   6.16562455
_cell_length_c   9.34028395
_cell_angle_alpha   90.04703180
_cell_angle_beta   93.34499130
_cell_angle_gamma   118.76417879
_symmetry_Int_Tables_number   1
_chemical_formula_structural   Ti2Mn3Te3O16
_chemical_formula_sum   'Ti2 Mn3 Te3 O16'
_cell_volume   322.28432225
_cell_formula_units_Z   1
loop_
 _symmetry_equiv_pos_site_id
 _symmetry_equiv_pos_as_xyz
  1  'x, y, z'
loop_
 _atom_site_type_symbol
 _atom_site_label
 _atom_site_symmetry_multiplicity
 _atom_site_fract_x
 _atom_site_fract_y
 _atom_site_fract_z
 _atom_site_occupancy
  Ti  Ti0  1  0.356812  0.678438  0.510345  1
  Ti  Ti1  1  0.725371  0.362488  0.964648  1
  Mn  Mn2  1  0.646044  0.823117  0.203185  1
  Mn  Mn3  1  0.851229  0.675716  0.693849  1
  Mn  Mn4  1  0.849690  0.174471  0.695012  1
  Te  Te5  1  0.150746  0.824708  0.216814  1
  Te  Te6  1  0.150779  0.326015  0.216837  1
  Te  Te7  1  0.353067  0.176942  0.715776  1
  O  O8  1  0.210615  0.850409  0.600649  1
  O  O9  1  0.034095  0.517342  0.339089  1
  O  O10  1  0.274701  0.637087  0.099051  1
  O  O11  1  0.010731  0.005531  0.323930  1
  O  O12  1  0.047635  0.024703  0.798253  1
  O  O13  1  0.211291  0.360792  0.600508  1
  O  O14  1  0.437307  0.939089  0.337581  1
  O  O15  1  0.437523  0.498384  0.337518  1
  O  O16  1  0.287658  0.143547  0.110788  1
  O  O17  1  0.651804  0.826462  0.584831  1
  O  O18  1  0.519885  0.464146  0.851928  1
  O  O19  1  0.519027  0.055481  0.852040  1
  O  O20  1  0.629385  0.313909  0.602496  1
  O  O21  1  0.845710  0.663766  0.106287  1
  O  O22  1  0.953389  0.475707  0.847824  1
  O  O23  1  0.845508  0.181952  0.106482  1
