# generated using pymatgen
data_LiMn2Fe3O8
_symmetry_space_group_name_H-M   'P 1'
_cell_length_a   6.03321285
_cell_length_b   6.00373979
_cell_length_c   6.00373979
_cell_angle_alpha   60.64260681
_cell_angle_beta   59.83748254
_cell_angle_gamma   59.83748254
_symmetry_Int_Tables_number   1
_chemical_formula_structural   LiMn2Fe3O8
_chemical_formula_sum   'Li1 Mn2 Fe3 O8'
_cell_volume   154.12051567
_cell_formula_units_Z   1
loop_
 _symmetry_equiv_pos_site_id
 _symmetry_equiv_pos_as_xyz
  1  'x, y, z'
loop_
 _atom_site_type_symbol
 _atom_site_label
 _atom_site_symmetry_multiplicity
 _atom_site_fract_x
 _atom_site_fract_y
 _atom_site_fract_z
 _atom_site_occupancy
  Li  Li0  1  0.132318  0.117682  0.117682  1
  Mn  Mn1  1  0.497866  0.498528  0.005742  1
  Mn  Mn2  1  0.497866  0.005742  0.498528  1
  Fe  Fe3  1  0.003982  0.498570  0.498570  1
  Fe  Fe4  1  0.498880  0.498570  0.498570  1
  Fe  Fe5  1  0.870784  0.879216  0.879216  1
  O  O6  1  0.716658  0.258642  0.258642  1
  O  O7  1  0.266057  0.258642  0.258642  1
  O  O8  1  0.268971  0.709365  0.252694  1
  O  O9  1  0.268971  0.252694  0.709365  1
  O  O10  1  0.730713  0.747293  0.291281  1
  O  O11  1  0.730713  0.291281  0.747293  1
  O  O12  1  0.733053  0.741888  0.741888  1
  O  O13  1  0.283170  0.741888  0.741888  1
