# generated using pymatgen
data_Na13Ca7S12(ClO16)3
_symmetry_space_group_name_H-M   'P 1'
_cell_length_a   9.78056298
_cell_length_b   9.72970102
_cell_length_c   13.87340669
_cell_angle_alpha   89.85783532
_cell_angle_beta   90.10644764
_cell_angle_gamma   120.14536011
_symmetry_Int_Tables_number   1
_chemical_formula_structural   Na13Ca7S12(ClO16)3
_chemical_formula_sum   'Na13 Ca7 S12 Cl3 O48'
_cell_volume   1141.66229161
_cell_formula_units_Z   1
loop_
 _symmetry_equiv_pos_site_id
 _symmetry_equiv_pos_as_xyz
  1  'x, y, z'
loop_
 _atom_site_type_symbol
 _atom_site_label
 _atom_site_symmetry_multiplicity
 _atom_site_fract_x
 _atom_site_fract_y
 _atom_site_fract_z
 _atom_site_occupancy
  Na  Na0  1  0.262607  0.994203  0.125214  1
  Na  Na1  1  0.008526  0.270662  0.123807  1
  Na  Na2  1  0.011447  0.265062  0.621022  1
  Na  Na3  1  0.331307  0.664895  0.004072  1
  Na  Na4  1  0.322762  0.656328  0.502971  1
  Na  Na5  1  0.327939  0.661044  0.745712  1
  Na  Na6  1  0.266762  0.256736  0.374289  1
  Na  Na7  1  0.732097  0.736711  0.123532  1
  Na  Na8  1  0.666660  0.338762  0.249164  1
  Na  Na9  1  0.670856  0.333160  0.750429  1
  Na  Na10  1  0.670632  0.337140  0.493922  1
  Na  Na11  1  0.667322  0.335103  0.007085  1
  Na  Na12  1  0.988000  0.732741  0.372766  1
  Ca  Ca13  1  0.250991  0.996615  0.619360  1
  Ca  Ca14  1  0.323233  0.660634  0.248092  1
  Ca  Ca15  1  0.255181  0.253690  0.875421  1
  Ca  Ca16  1  0.742165  0.747082  0.621007  1
  Ca  Ca17  1  0.996945  0.743781  0.875738  1
  Ca  Ca18  1  0.745745  0.012065  0.376889  1
  Ca  Ca19  1  0.748077  0.006650  0.875623  1
  S  S20  1  0.033452  0.398070  0.374058  1
  S  S21  1  0.032426  0.398767  0.875379  1
  S  S22  1  0.371108  0.968614  0.375150  1
  S  S23  1  0.369181  0.969946  0.873806  1
  S  S24  1  0.393129  0.366781  0.125820  1
  S  S25  1  0.400258  0.369311  0.627352  1
  S  S26  1  0.600092  0.635501  0.374925  1
  S  S27  1  0.601461  0.632635  0.873841  1
  S  S28  1  0.631753  0.024034  0.127403  1
  S  S29  1  0.628132  0.025624  0.626822  1
  S  S30  1  0.972425  0.606369  0.125624  1
  S  S31  1  0.967061  0.602108  0.627628  1
  Cl  Cl32  1  0.997355  0.996296  0.455021  1
  Cl  Cl33  1  0.000281  0.997664  0.721779  1
  Cl  Cl34  1  0.999160  0.000332  0.972353  1
  O  O35  1  0.279709  0.913765  0.466695  1
  O  O36  1  0.264082  0.906261  0.959396  1
  O  O37  1  0.260647  0.913616  0.292174  1
  O  O38  1  0.262924  0.914267  0.786887  1
  O  O39  1  0.148570  0.671755  0.129320  1
  O  O40  1  0.143567  0.686123  0.628553  1
  O  O41  1  0.107987  0.575873  0.364738  1
  O  O42  1  0.100928  0.574696  0.869839  1
  O  O43  1  0.086512  0.342578  0.289468  1
  O  O44  1  0.089449  0.346279  0.791133  1
  O  O45  1  0.090879  0.363936  0.464381  1
  O  O46  1  0.094613  0.360944  0.963373  1
  O  O47  1  0.473926  0.899438  0.870646  1
  O  O48  1  0.466994  0.885018  0.367919  1
  O  O49  1  0.328818  0.478558  0.129458  1
  O  O50  1  0.327962  0.470815  0.627808  1
  O  O51  1  0.520211  0.847767  0.130893  1
  O  O52  1  0.532447  0.848448  0.627587  1
  O  O53  1  0.423903  0.541079  0.364303  1
  O  O54  1  0.426317  0.527622  0.869653  1
  O  O55  1  0.342852  0.273920  0.034040  1
  O  O56  1  0.357449  0.266821  0.715950  1
  O  O57  1  0.330803  0.252847  0.207244  1
  O  O58  1  0.345609  0.257838  0.543930  1
  O  O59  1  0.635695  0.729182  0.466611  1
  O  O60  1  0.642748  0.737903  0.959313  1
  O  O61  1  0.665283  0.754301  0.294476  1
  O  O62  1  0.653297  0.739822  0.786931  1
  O  O63  1  0.569124  0.459274  0.128391  1
  O  O64  1  0.577080  0.469846  0.624095  1
  O  O65  1  0.478539  0.142870  0.374982  1
  O  O66  1  0.463711  0.146426  0.875459  1
  O  O67  1  0.669351  0.531300  0.375841  1
  O  O68  1  0.682460  0.537968  0.875937  1
  O  O69  1  0.542768  0.110407  0.129733  1
  O  O70  1  0.524513  0.097734  0.624003  1
  O  O71  1  0.930470  0.656889  0.033681  1
  O  O72  1  0.912178  0.661575  0.545040  1
  O  O73  1  0.922150  0.669671  0.206673  1
  O  O74  1  0.907272  0.642076  0.717158  1
  O  O75  1  0.888096  0.429835  0.128613  1
  O  O76  1  0.896106  0.428160  0.622023  1
  O  O77  1  0.856297  0.318564  0.374401  1
  O  O78  1  0.855953  0.315457  0.876349  1
  O  O79  1  0.743464  0.073102  0.210943  1
  O  O80  1  0.728477  0.084685  0.714617  1
  O  O81  1  0.728371  0.067592  0.037764  1
  O  O82  1  0.732909  0.079982  0.540503  1
