# generated using pymatgen
data_Hf3N4
_symmetry_space_group_name_H-M   'P 1'
_cell_length_a   9.80824925
_cell_length_b   10.72524227
_cell_length_c   3.24371779
_cell_angle_alpha   90.00000000
_cell_angle_beta   90.00000000
_cell_angle_gamma   90.00000000
_symmetry_Int_Tables_number   1
_chemical_formula_structural   Hf3N4
_chemical_formula_sum   'Hf12 N16'
_cell_volume   341.22564830
_cell_formula_units_Z   4
loop_
 _symmetry_equiv_pos_site_id
 _symmetry_equiv_pos_as_xyz
  1  'x, y, z'
loop_
 _atom_site_type_symbol
 _atom_site_label
 _atom_site_symmetry_multiplicity
 _atom_site_fract_x
 _atom_site_fract_y
 _atom_site_fract_z
 _atom_site_occupancy
  Hf  Hf0  1  0.070067  0.124230  0.751919  1
  Hf  Hf1  1  0.106057  0.592969  0.754430  1
  Hf  Hf2  1  0.226631  0.852932  0.751763  1
  Hf  Hf3  1  0.273369  0.352932  0.251763  1
  Hf  Hf4  1  0.393943  0.092969  0.254430  1
  Hf  Hf5  1  0.429933  0.624230  0.251919  1
  Hf  Hf6  1  0.570067  0.375770  0.751919  1
  Hf  Hf7  1  0.606057  0.907031  0.754430  1
  Hf  Hf8  1  0.726631  0.647068  0.751763  1
  Hf  Hf9  1  0.773369  0.147068  0.251763  1
  Hf  Hf10  1  0.893943  0.407031  0.254430  1
  Hf  Hf11  1  0.929933  0.875770  0.251919  1
  N  N12  1  0.007624  0.775354  0.752299  1
  N  N13  1  0.103303  0.469611  0.254606  1
  N  N14  1  0.141597  0.981668  0.253128  1
  N  N15  1  0.237250  0.713952  0.252854  1
  N  N16  1  0.262750  0.213952  0.752854  1
  N  N17  1  0.358403  0.481668  0.753128  1
  N  N18  1  0.396697  0.969611  0.754606  1
  N  N19  1  0.492376  0.275354  0.252299  1
  N  N20  1  0.507624  0.724646  0.752299  1
  N  N21  1  0.603303  0.030389  0.254606  1
  N  N22  1  0.641597  0.518332  0.253128  1
  N  N23  1  0.737250  0.786048  0.252854  1
  N  N24  1  0.762750  0.286048  0.752854  1
  N  N25  1  0.858403  0.018332  0.753128  1
  N  N26  1  0.896697  0.530389  0.754606  1
  N  N27  1  0.992376  0.224646  0.252299  1
