# generated using pymatgen
data_Li24Mn7Cr5O36
_symmetry_space_group_name_H-M   'P 1'
_cell_length_a   5.01335824
_cell_length_b   13.27801441
_cell_length_c   9.74703141
_cell_angle_alpha   97.06138188
_cell_angle_beta   94.80707573
_cell_angle_gamma   100.48447418
_symmetry_Int_Tables_number   1
_chemical_formula_structural   Li24Mn7Cr5O36
_chemical_formula_sum   'Li24 Mn7 Cr5 O36'
_cell_volume   629.40435486
_cell_formula_units_Z   1
loop_
 _symmetry_equiv_pos_site_id
 _symmetry_equiv_pos_as_xyz
  1  'x, y, z'
loop_
 _atom_site_type_symbol
 _atom_site_label
 _atom_site_symmetry_multiplicity
 _atom_site_fract_x
 _atom_site_fract_y
 _atom_site_fract_z
 _atom_site_occupancy
  Li  Li0  1  0.832137  0.166738  0.000462  1
  Li  Li1  1  0.948344  0.385649  -0.000001  1
  Li  Li2  1  0.000374  0.749907  0.250456  1
  Li  Li3  1  0.668552  0.082830  0.249716  1
  Li  Li4  1  0.952739  0.887888  0.500000  1
  Li  Li5  1  0.619496  0.223421  0.501204  1
  Li  Li6  1  0.834050  0.666615  0.500001  1
  Li  Li7  1  0.497660  0.999634  0.499931  1
  Li  Li8  1  0.712144  0.443701  0.499376  1
  Li  Li9  1  0.665821  0.583962  0.749894  1
  Li  Li10  1  0.499871  0.499378  0.000141  1
  Li  Li11  1  0.720317  0.947540  0.001405  1
  Li  Li12  1  0.385379  0.281250  0.000106  1
  Li  Li13  1  0.614742  0.719402  0.000051  1
  Li  Li14  1  0.281189  0.052387  0.998733  1
  Li  Li15  1  0.336054  0.415921  0.249855  1
  Li  Li16  1  0.287706  0.556437  0.500387  1
  Li  Li17  1  0.165788  0.332807  0.499853  1
  Li  Li18  1  0.380446  0.777224  0.498877  1
  Li  Li19  1  0.049338  0.112015  0.499766  1
  Li  Li20  1  0.332081  0.917326  0.750269  1
  Li  Li21  1  0.165630  0.833271  0.999723  1
  Li  Li22  1  0.000901  0.251489  0.749971  1
  Li  Li23  1  0.051455  0.614342  0.000251  1
  Mn  Mn24  1  0.776546  0.305958  0.249970  1
  Mn  Mn25  1  0.555238  0.359909  0.749272  1
  Mn  Mn26  1  0.445308  0.138914  0.749971  1
  Mn  Mn27  1  0.555631  0.860954  0.250218  1
  Mn  Mn28  1  0.446428  0.640178  0.251411  1
  Mn  Mn29  1  0.222378  0.694333  0.749603  1
  Mn  Mn30  1  0.108101  0.971243  0.248637  1
  Cr  Cr31  1  0.895392  0.030857  0.752020  1
  Cr  Cr32  1  0.896096  0.527009  0.249529  1
  Cr  Cr33  1  0.771100  0.806472  0.749146  1
  Cr  Cr34  1  0.227832  0.192850  0.250135  1
  Cr  Cr35  1  0.106834  0.473744  0.749984  1
  O  O36  1  0.996651  0.068828  0.136859  1
  O  O37  1  0.930673  0.215301  0.363568  1
  O  O38  1  0.000732  0.571061  0.638179  1
  O  O39  1  0.851326  0.355283  0.636964  1
  O  O40  1  0.735413  0.116325  0.636246  1
  O  O41  1  0.663451  0.402132  0.136847  1
  O  O42  1  0.931634  0.715462  0.863889  1
  O  O43  1  0.813441  0.474512  0.861595  1
  O  O44  1  0.591352  0.049602  0.865676  1
  O  O45  1  0.856185  0.856616  0.138642  1
  O  O46  1  0.734686  0.617225  0.136135  1
  O  O47  1  0.520000  0.191268  0.138752  1
  O  O48  1  0.668340  0.261636  0.861440  1
  O  O49  1  0.809508  0.976274  0.361668  1
  O  O50  1  0.597145  0.549150  0.363692  1
  O  O51  1  0.481255  0.311292  0.362795  1
  O  O52  1  0.668224  0.762466  0.361551  1
  O  O53  1  0.329274  0.095559  0.361037  1
  O  O54  1  0.672647  0.903885  0.638498  1
  O  O55  1  0.331653  0.237750  0.638343  1
  O  O56  1  0.518136  0.688297  0.637116  1
  O  O57  1  0.399948  0.450244  0.636469  1
  O  O58  1  0.197065  0.024769  0.636878  1
  O  O59  1  0.333816  0.738546  0.138786  1
  O  O60  1  0.478019  0.808738  0.861432  1
  O  O61  1  0.265589  0.381337  0.864615  1
  O  O62  1  0.142886  0.142731  0.861552  1
  O  O63  1  0.402751  0.951675  0.136600  1
  O  O64  1  0.188310  0.525165  0.138464  1
  O  O65  1  0.067802  0.284362  0.136295  1
  O  O66  1  0.335196  0.597205  0.862763  1
  O  O67  1  0.264075  0.881746  0.363622  1
  O  O68  1  0.148829  0.644538  0.362511  1
  O  O69  1  0.996427  0.429433  0.361361  1
  O  O70  1  0.070209  0.784664  0.635921  1
  O  O71  1  0.998253  0.931368  0.862918  1
