# generated using pymatgen
data_Li2FeBO4
_symmetry_space_group_name_H-M   'P 1'
_cell_length_a   10.21600177
_cell_length_b   4.88883846
_cell_length_c   6.19376041
_cell_angle_alpha   90.00008849
_cell_angle_beta   89.99941842
_cell_angle_gamma   89.99985675
_symmetry_Int_Tables_number   1
_chemical_formula_structural   Li2FeBO4
_chemical_formula_sum   'Li8 Fe4 B4 O16'
_cell_volume   309.34353816
_cell_formula_units_Z   4
loop_
 _symmetry_equiv_pos_site_id
 _symmetry_equiv_pos_as_xyz
  1  'x, y, z'
loop_
 _atom_site_type_symbol
 _atom_site_label
 _atom_site_symmetry_multiplicity
 _atom_site_fract_x
 _atom_site_fract_y
 _atom_site_fract_z
 _atom_site_occupancy
  Li  Li0  1  0.079403  0.711578  0.868567  1
  Li  Li1  1  0.158156  0.189276  0.116420  1
  Li  Li2  1  0.341844  0.689278  0.616421  1
  Li  Li3  1  0.420598  0.211577  0.368566  1
  Li  Li4  1  0.579400  0.788421  0.868567  1
  Li  Li5  1  0.658155  0.310724  0.116420  1
  Li  Li6  1  0.841846  0.810720  0.616420  1
  Li  Li7  1  0.920599  0.288423  0.368567  1
  Fe  Fe8  1  0.162231  0.186383  0.620150  1
  Fe  Fe9  1  0.337762  0.686378  0.120146  1
  Fe  Fe10  1  0.662231  0.313614  0.620154  1
  Fe  Fe11  1  0.837774  0.813621  0.120148  1
  B  B12  1  0.090974  0.683397  0.366866  1
  B  B13  1  0.409028  0.183394  0.866870  1
  B  B14  1  0.590968  0.816606  0.366866  1
  B  B15  1  0.909033  0.316607  0.866868  1
  O  O16  1  0.052319  0.252052  0.861068  1
  O  O17  1  0.104970  0.377309  0.374349  1
  O  O18  1  0.152616  0.799449  0.567404  1
  O  O19  1  0.158034  0.786555  0.167276  1
  O  O20  1  0.341967  0.286562  0.667273  1
  O  O21  1  0.347384  0.299446  0.067405  1
  O  O22  1  0.395031  0.877302  0.874350  1
  O  O23  1  0.447687  0.752061  0.361070  1
  O  O24  1  0.552320  0.247945  0.861066  1
  O  O25  1  0.604969  0.122693  0.374350  1
  O  O26  1  0.652616  0.700557  0.567395  1
  O  O27  1  0.658033  0.713442  0.167274  1
  O  O28  1  0.841964  0.213439  0.667273  1
  O  O29  1  0.847382  0.200553  0.067410  1
  O  O30  1  0.895029  0.622697  0.874356  1
  O  O31  1  0.947677  0.747943  0.361062  1
