# generated using pymatgen
data_CrH10SO9
_symmetry_space_group_name_H-M   'P 1'
_cell_length_a   7.26760075
_cell_length_b   12.39608414
_cell_length_c   5.89069064
_cell_angle_alpha   85.85477479
_cell_angle_beta   97.23726263
_cell_angle_gamma   104.49039322
_symmetry_Int_Tables_number   1
_chemical_formula_structural   CrH10SO9
_chemical_formula_sum   'Cr2 H20 S2 O18'
_cell_volume   509.25681520
_cell_formula_units_Z   2
loop_
 _symmetry_equiv_pos_site_id
 _symmetry_equiv_pos_as_xyz
  1  'x, y, z'
loop_
 _atom_site_type_symbol
 _atom_site_label
 _atom_site_symmetry_multiplicity
 _atom_site_fract_x
 _atom_site_fract_y
 _atom_site_fract_z
 _atom_site_occupancy
  Cr  Cr0  1  0.000000  0.000000  0.000000  1
  Cr  Cr1  1  0.500000  0.500000  0.000000  1
  H  H2  1  0.042841  0.733530  0.657511  1
  H  H3  1  0.957159  0.266470  0.342489  1
  H  H4  1  0.524098  0.175819  0.580485  1
  H  H5  1  0.475902  0.824181  0.419515  1
  H  H6  1  0.638753  0.708174  0.068471  1
  H  H7  1  0.361247  0.291826  0.931529  1
  H  H8  1  0.698913  0.910110  0.673506  1
  H  H9  1  0.301087  0.089890  0.326494  1
  H  H10  1  0.292517  0.600905  0.605186  1
  H  H11  1  0.707483  0.399095  0.394814  1
  H  H12  1  0.784780  0.509852  0.826819  1
  H  H13  1  0.215220  0.490148  0.173181  1
  H  H14  1  0.090544  0.540216  0.660140  1
  H  H15  1  0.909456  0.459784  0.339860  1
  H  H16  1  0.739177  0.634923  0.244471  1
  H  H17  1  0.260823  0.365077  0.755529  1
  H  H18  1  0.283595  0.964358  0.252550  1
  H  H19  1  0.716405  0.035642  0.747450  1
  H  H20  1  0.673373  0.790260  0.438986  1
  H  H21  1  0.326627  0.209740  0.561014  1
  S  S22  1  0.040433  0.771340  0.296684  1
  S  S23  1  0.959567  0.228660  0.703316  1
  O  O24  1  0.249166  0.821563  0.291928  1
  O  O25  1  0.750834  0.178437  0.708072  1
  O  O26  1  0.612364  0.644570  0.179122  1
  O  O27  1  0.387636  0.355430  0.820878  1
  O  O28  1  0.154414  0.594178  0.548106  1
  O  O29  1  0.845586  0.405822  0.451894  1
  O  O30  1  0.996448  0.792337  0.562141  1
  O  O31  1  0.003552  0.207663  0.437859  1
  O  O32  1  0.928404  0.849993  0.163736  1
  O  O33  1  0.071596  0.150007  0.836264  1
  O  O34  1  0.745267  0.963892  0.807115  1
  O  O35  1  0.254733  0.036108  0.192885  1
  O  O36  1  0.499285  0.577429  0.749415  1
  O  O37  1  0.500715  0.422571  0.250585  1
  O  O38  1  0.755609  0.487734  0.985308  1
  O  O39  1  0.244391  0.512266  0.014692  1
  O  O40  1  0.615564  0.850925  0.461217  1
  O  O41  1  0.384436  0.149075  0.538783  1
