# generated using pymatgen
data_Rb10NaAl11Si13O48
_symmetry_space_group_name_H-M   'P 1'
_cell_length_a   12.65427430
_cell_length_b   12.24154934
_cell_length_c   12.06775249
_cell_angle_alpha   90.16477281
_cell_angle_beta   89.84211206
_cell_angle_gamma   89.43293889
_symmetry_Int_Tables_number   1
_chemical_formula_structural   Rb10NaAl11Si13O48
_chemical_formula_sum   'Rb10 Na1 Al11 Si13 O48'
_cell_volume   1869.28394673
_cell_formula_units_Z   1
loop_
 _symmetry_equiv_pos_site_id
 _symmetry_equiv_pos_as_xyz
  1  'x, y, z'
loop_
 _atom_site_type_symbol
 _atom_site_label
 _atom_site_symmetry_multiplicity
 _atom_site_fract_x
 _atom_site_fract_y
 _atom_site_fract_z
 _atom_site_occupancy
  Rb  Rb0  1  0.019976  0.505430  0.533508  1
  Rb  Rb1  1  0.262165  0.737877  0.254205  1
  Rb  Rb2  1  0.244352  0.741285  0.743903  1
  Rb  Rb3  1  0.567020  0.012728  0.493783  1
  Rb  Rb4  1  0.554164  0.498617  0.001862  1
  Rb  Rb5  1  0.721184  0.267007  0.266826  1
  Rb  Rb6  1  0.736139  0.243336  0.749131  1
  Rb  Rb7  1  0.735179  0.759792  0.237041  1
  Rb  Rb8  1  0.677768  0.699965  0.737378  1
  Rb  Rb9  1  0.955980  0.115027  0.076202  1
  Na  Na10  1  0.831307  0.853963  0.862628  1
  Al  Al11  1  0.995824  0.810680  0.625308  1
  Al  Al12  1  0.376077  0.805381  0.994008  1
  Al  Al13  1  0.606867  0.009431  0.191561  1
  Al  Al14  1  0.606620  0.193874  0.005314  1
  Al  Al15  1  0.616724  0.001471  0.803430  1
  Al  Al16  1  0.616155  0.811122  0.991364  1
  Al  Al17  1  0.827046  0.996829  0.352348  1
  Al  Al18  1  0.822447  0.990551  0.631812  1
  Al  Al19  1  0.817770  0.363028  0.000326  1
  Al  Al20  1  0.826987  0.634965  0.993487  1
  Al  Al21  1  0.999012  0.620958  0.808247  1
  Si  Si22  1  0.181005  0.001511  0.368347  1
  Si  Si23  1  0.182772  0.998901  0.618799  1
  Si  Si24  1  0.179273  0.362475  0.999558  1
  Si  Si25  1  0.188046  0.609715  0.998333  1
  Si  Si26  1  0.371879  0.996376  0.185527  1
  Si  Si27  1  0.366853  0.181395  0.994309  1
  Si  Si28  1  0.368995  0.999451  0.806109  1
  Si  Si29  1  0.997464  0.184214  0.369928  1
  Si  Si30  1  0.000274  0.176734  0.627601  1
  Si  Si31  1  0.998641  0.372186  0.188614  1
  Si  Si32  1  0.996288  0.357707  0.818956  1
  Si  Si33  1  0.007936  0.623619  0.182971  1
  Si  Si34  1  0.001357  0.820618  0.357739  1
  O  O35  1  0.014496  0.299344  0.301684  1
  O  O36  1  0.991217  0.498844  0.234470  1
  O  O37  1  0.009929  0.288274  0.702310  1
  O  O38  1  0.027219  0.703177  0.290903  1
  O  O39  1  0.976742  0.481064  0.776359  1
  O  O40  1  0.975584  0.784146  0.482064  1
  O  O41  1  0.031639  0.682615  0.681598  1
  O  O42  1  0.103108  0.107992  0.354427  1
  O  O43  1  0.102726  0.353712  0.109986  1
  O  O44  1  0.112835  0.111384  0.631934  1
  O  O45  1  0.121217  0.621737  0.116746  1
  O  O46  1  0.107665  0.347180  0.889009  1
  O  O47  1  0.115188  0.887213  0.350791  1
  O  O48  1  0.113995  0.628115  0.892550  1
  O  O49  1  0.112635  0.891571  0.637005  1
  O  O50  1  0.234737  0.999310  0.491552  1
  O  O51  1  0.236972  0.482405  0.998371  1
  O  O52  1  0.270436  0.003519  0.273303  1
  O  O53  1  0.264757  0.265803  0.007138  1
  O  O54  1  0.281834  0.999250  0.703644  1
  O  O55  1  0.282681  0.696310  0.003832  1
  O  O56  1  0.360489  0.101551  0.102958  1
  O  O57  1  0.345833  0.109135  0.882110  1
  O  O58  1  0.356538  0.882237  0.117730  1
  O  O59  1  0.346678  0.888971  0.877708  1
  O  O60  1  0.478710  0.998245  0.259469  1
  O  O61  1  0.474444  0.250984  0.989041  1
  O  O62  1  0.484581  0.001902  0.748559  1
  O  O63  1  0.496438  0.738305  0.980452  1
  O  O64  1  0.615353  0.140059  0.137738  1
  O  O65  1  0.637808  0.110354  0.893365  1
  O  O66  1  0.623956  0.900040  0.102859  1
  O  O67  1  0.649392  0.872791  0.861756  1
  O  O68  1  0.701088  0.000242  0.297940  1
  O  O69  1  0.696846  0.020687  0.685419  1
  O  O70  1  0.694072  0.305149  0.005521  1
  O  O71  1  0.711284  0.707835  0.013944  1
  O  O72  1  0.812765  0.977030  0.490722  1
  O  O73  1  0.796011  0.499261  0.984163  1
  O  O74  1  0.895459  0.123105  0.318582  1
  O  O75  1  0.899966  0.108774  0.666364  1
  O  O76  1  0.892968  0.331248  0.125853  1
  O  O77  1  0.901780  0.305482  0.893491  1
  O  O78  1  0.908715  0.662521  0.112201  1
  O  O79  1  0.888639  0.680226  0.871408  1
  O  O80  1  0.911464  0.891268  0.293178  1
  O  O81  1  0.885565  0.873526  0.687676  1
  O  O82  1  0.984104  0.223988  0.498950  1
