# generated using pymatgen
data_Ti10O13
_symmetry_space_group_name_H-M   'P 1'
_cell_length_a   12.13834595
_cell_length_b   4.17380046
_cell_length_c   5.10064879
_cell_angle_alpha   114.15108442
_cell_angle_beta   86.14805172
_cell_angle_gamma   90.00000000
_symmetry_Int_Tables_number   1
_chemical_formula_structural   Ti10O13
_chemical_formula_sum   'Ti10 O13'
_cell_volume   235.15536041
_cell_formula_units_Z   1
loop_
 _symmetry_equiv_pos_site_id
 _symmetry_equiv_pos_as_xyz
  1  'x, y, z'
loop_
 _atom_site_type_symbol
 _atom_site_label
 _atom_site_symmetry_multiplicity
 _atom_site_fract_x
 _atom_site_fract_y
 _atom_site_fract_z
 _atom_site_occupancy
  Ti  Ti0  1  0.152067  0.398123  0.796246  1
  Ti  Ti1  1  0.066838  0.681598  0.363194  1
  Ti  Ti2  1  0.317778  0.779941  0.559883  1
  Ti  Ti3  1  0.232548  0.063416  0.126830  1
  Ti  Ti4  1  0.537891  0.846085  0.692168  1
  Ti  Ti5  1  0.460388  0.161897  0.323794  1
  Ti  Ti6  1  0.764540  0.924351  0.848703  1
  Ti  Ti7  1  0.620075  0.537187  0.074374  1
  Ti  Ti8  1  0.924227  0.299642  0.599283  1
  Ti  Ti9  1  0.846724  0.615454  0.230908  1
  O  O10  1  0.081625  0.193266  0.386531  1
  O  O11  1  0.996154  0.494391  0.988782  1
  O  O12  1  0.152734  0.873018  0.746037  1
  O  O13  1  0.302990  0.268273  0.536546  1
  O  O14  1  0.231882  0.588520  0.177040  1
  O  O15  1  0.388461  0.967147  0.934295  1
  O  O16  1  0.539830  0.348417  0.696833  1
  O  O17  1  0.465157  0.648903  0.297807  1
  O  O18  1  0.771377  0.417814  0.835627  1
  O  O19  1  0.692308  0.730769  0.461538  1
  O  O20  1  0.613238  0.043725  0.087450  1
  O  O21  1  0.919459  0.812635  0.625270  1
  O  O22  1  0.844785  0.113122  0.226243  1
