# generated using pymatgen
data_AgH9O5
_symmetry_space_group_name_H-M   'P 1'
_cell_length_a   6.78878892
_cell_length_b   6.48047619
_cell_length_c   13.05945871
_cell_angle_alpha   90.00000000
_cell_angle_beta   90.00000000
_cell_angle_gamma   90.00000000
_symmetry_Int_Tables_number   1
_chemical_formula_structural   AgH9O5
_chemical_formula_sum   'Ag4 H36 O20'
_cell_volume   574.54546568
_cell_formula_units_Z   4
loop_
 _symmetry_equiv_pos_site_id
 _symmetry_equiv_pos_as_xyz
  1  'x, y, z'
loop_
 _atom_site_type_symbol
 _atom_site_label
 _atom_site_symmetry_multiplicity
 _atom_site_fract_x
 _atom_site_fract_y
 _atom_site_fract_z
 _atom_site_occupancy
  Ag  Ag0  1  0.005407  0.259016  0.998406  1
  Ag  Ag1  1  0.494593  0.740984  0.498406  1
  Ag  Ag2  1  0.505407  0.240984  0.001594  1
  Ag  Ag3  1  0.994593  0.759016  0.501594  1
  H  H4  1  0.035112  0.693036  0.799591  1
  H  H5  1  0.095412  0.671632  0.201760  1
  H  H6  1  0.206245  0.539896  0.763288  1
  H  H7  1  0.236999  0.836037  0.686466  1
  H  H8  1  0.238087  0.934154  0.146600  1
  H  H9  1  0.241825  0.398320  0.581523  1
  H  H10  1  0.242625  0.963260  0.856733  1
  H  H11  1  0.245626  0.617938  0.955413  1
  H  H12  1  0.247596  0.811627  0.306349  1
  H  H13  1  0.252404  0.188373  0.806349  1
  H  H14  1  0.254374  0.382062  0.455413  1
  H  H15  1  0.257375  0.036740  0.356733  1
  H  H16  1  0.258175  0.601680  0.081523  1
  H  H17  1  0.261913  0.065846  0.646600  1
  H  H18  1  0.263001  0.163963  0.186466  1
  H  H19  1  0.293755  0.460104  0.263288  1
  H  H20  1  0.404588  0.328368  0.701760  1
  H  H21  1  0.464888  0.306964  0.299591  1
  H  H22  1  0.535112  0.806964  0.200409  1
  H  H23  1  0.595412  0.828368  0.798240  1
  H  H24  1  0.706245  0.960104  0.236712  1
  H  H25  1  0.736999  0.663963  0.313534  1
  H  H26  1  0.738087  0.565846  0.853400  1
  H  H27  1  0.741825  0.101680  0.418477  1
  H  H28  1  0.742625  0.536740  0.143267  1
  H  H29  1  0.745626  0.882062  0.044587  1
  H  H30  1  0.747596  0.688373  0.693651  1
  H  H31  1  0.752404  0.311627  0.193651  1
  H  H32  1  0.754374  0.117938  0.544587  1
  H  H33  1  0.757375  0.463260  0.643267  1
  H  H34  1  0.758175  0.898320  0.918477  1
  H  H35  1  0.761913  0.434154  0.353400  1
  H  H36  1  0.763001  0.336037  0.813534  1
  H  H37  1  0.793755  0.039896  0.736712  1
  H  H38  1  0.904588  0.171632  0.298240  1
  H  H39  1  0.964888  0.193036  0.700409  1
  O  O40  1  0.178635  0.678109  0.798337  1
  O  O41  1  0.236428  0.474966  0.513721  1
  O  O42  1  0.238784  0.680394  0.200448  1
  O  O43  1  0.242128  0.081174  0.123764  1
  O  O44  1  0.245430  0.890156  0.373695  1
  O  O45  1  0.254570  0.109844  0.873695  1
  O  O46  1  0.257872  0.918826  0.623764  1
  O  O47  1  0.261216  0.319606  0.700448  1
  O  O48  1  0.263572  0.525034  0.013721  1
  O  O49  1  0.321365  0.321891  0.298337  1
  O  O50  1  0.678635  0.821891  0.201663  1
  O  O51  1  0.736428  0.025034  0.486279  1
  O  O52  1  0.738784  0.819606  0.799552  1
  O  O53  1  0.742128  0.418826  0.876236  1
  O  O54  1  0.745430  0.609844  0.626305  1
  O  O55  1  0.754570  0.390156  0.126305  1
  O  O56  1  0.757872  0.581174  0.376236  1
  O  O57  1  0.761216  0.180394  0.299552  1
  O  O58  1  0.763572  0.974966  0.986279  1
  O  O59  1  0.821365  0.178109  0.701663  1
