# generated using pymatgen
data_WOF4
_symmetry_space_group_name_H-M   'P 1'
_cell_length_a   7.75180919
_cell_length_b   10.64669799
_cell_length_c   10.45325154
_cell_angle_alpha   90.00000000
_cell_angle_beta   111.96130252
_cell_angle_gamma   90.00000000
_symmetry_Int_Tables_number   1
_chemical_formula_structural   WOF4
_chemical_formula_sum   'W8 O8 F32'
_cell_volume   800.11730835
_cell_formula_units_Z   8
loop_
 _symmetry_equiv_pos_site_id
 _symmetry_equiv_pos_as_xyz
  1  'x, y, z'
loop_
 _atom_site_type_symbol
 _atom_site_label
 _atom_site_symmetry_multiplicity
 _atom_site_fract_x
 _atom_site_fract_y
 _atom_site_fract_z
 _atom_site_occupancy
  W  W0  1  0.210823  0.408934  0.839709  1
  W  W1  1  0.289177  0.908934  0.660291  1
  W  W2  1  0.128545  0.857501  0.075653  1
  W  W3  1  0.371455  0.357501  0.424347  1
  W  W4  1  0.628545  0.642499  0.575653  1
  W  W5  1  0.871455  0.142499  0.924347  1
  W  W6  1  0.710823  0.091065  0.339709  1
  W  W7  1  0.789177  0.591066  0.160291  1
  O  O8  1  0.241779  0.040580  0.735547  1
  O  O9  1  0.258221  0.540580  0.764453  1
  O  O10  1  0.252516  0.292306  0.266425  1
  O  O11  1  0.247484  0.792306  0.233575  1
  O  O12  1  0.752516  0.207694  0.766425  1
  O  O13  1  0.747484  0.707694  0.733575  1
  O  O14  1  0.741779  0.459420  0.235547  1
  O  O15  1  0.758221  0.959420  0.264453  1
  F  F16  1  0.118165  0.200183  0.950226  1
  F  F17  1  0.138251  0.734543  0.950970  1
  F  F18  1  0.070591  0.310506  0.685157  1
  F  F19  1  0.082589  0.804974  0.639593  1
  F  F20  1  0.177667  0.943828  0.469036  1
  F  F21  1  0.180005  0.446577  0.453247  1
  F  F22  1  0.020297  0.550884  0.145773  1
  F  F23  1  0.049572  0.020325  0.126327  1
  F  F24  1  0.417411  0.304974  0.860407  1
  F  F25  1  0.429409  0.810506  0.814843  1
  F  F26  1  0.361749  0.234543  0.549030  1
  F  F27  1  0.381835  0.700183  0.549774  1
  F  F28  1  0.677667  0.556172  0.969036  1
  F  F29  1  0.680005  0.053423  0.953247  1
  F  F30  1  0.520297  0.949116  0.645773  1
  F  F31  1  0.549572  0.479675  0.626327  1
  F  F32  1  0.450428  0.520325  0.373673  1
  F  F33  1  0.479703  0.050884  0.354227  1
  F  F34  1  0.319995  0.946577  0.046753  1
  F  F35  1  0.322333  0.443828  0.030964  1
  F  F36  1  0.618165  0.299817  0.450226  1
  F  F37  1  0.638251  0.765457  0.450970  1
  F  F38  1  0.570591  0.189494  0.185157  1
  F  F39  1  0.582589  0.695026  0.139593  1
  F  F40  1  0.950428  0.979675  0.873673  1
  F  F41  1  0.979703  0.449116  0.854227  1
  F  F42  1  0.819995  0.553423  0.546753  1
  F  F43  1  0.822333  0.056172  0.530964  1
  F  F44  1  0.917411  0.195026  0.360407  1
  F  F45  1  0.929409  0.689494  0.314843  1
  F  F46  1  0.861749  0.265457  0.049030  1
  F  F47  1  0.881835  0.799817  0.049774  1
