# generated using pymatgen
data_AsHPb4(ClO)4
_symmetry_space_group_name_H-M   'P 1'
_cell_length_a   14.06576330
_cell_length_b   8.04365074
_cell_length_c   10.98412073
_cell_angle_alpha   90.00000000
_cell_angle_beta   102.64904307
_cell_angle_gamma   90.00000000
_symmetry_Int_Tables_number   1
_chemical_formula_structural   AsHPb4(ClO)4
_chemical_formula_sum   'As4 H4 Pb16 Cl16 O16'
_cell_volume   1212.58257740
_cell_formula_units_Z   4
loop_
 _symmetry_equiv_pos_site_id
 _symmetry_equiv_pos_as_xyz
  1  'x, y, z'
loop_
 _atom_site_type_symbol
 _atom_site_label
 _atom_site_symmetry_multiplicity
 _atom_site_fract_x
 _atom_site_fract_y
 _atom_site_fract_z
 _atom_site_occupancy
  As  As0  1  0.798878  0.449400  0.848151  1
  As  As1  1  0.201122  0.949400  0.651849  1
  As  As2  1  0.201122  0.550600  0.151849  1
  As  As3  1  0.798878  0.050600  0.348151  1
  H  H4  1  0.200900  0.245181  0.806834  1
  H  H5  1  0.799100  0.745181  0.693166  1
  H  H6  1  0.799100  0.754819  0.193166  1
  H  H7  1  0.200900  0.254819  0.306834  1
  Pb  Pb8  1  0.585899  0.278060  0.369600  1
  Pb  Pb9  1  0.414101  0.778060  0.130400  1
  Pb  Pb10  1  0.414101  0.721940  0.630400  1
  Pb  Pb11  1  0.585899  0.221940  0.869600  1
  Pb  Pb12  1  0.814495  0.409066  0.152824  1
  Pb  Pb13  1  0.185505  0.909066  0.347176  1
  Pb  Pb14  1  0.185505  0.590934  0.847176  1
  Pb  Pb15  1  0.814495  0.090934  0.652824  1
  Pb  Pb16  1  0.055407  0.259779  0.985646  1
  Pb  Pb17  1  0.944593  0.759779  0.514354  1
  Pb  Pb18  1  0.944593  0.740221  0.014354  1
  Pb  Pb19  1  0.055407  0.240221  0.485646  1
  Pb  Pb20  1  0.332073  0.255217  0.053656  1
  Pb  Pb21  1  0.667927  0.755217  0.446344  1
  Pb  Pb22  1  0.667927  0.744783  0.946344  1
  Pb  Pb23  1  0.332073  0.244783  0.553656  1
  Cl  Cl24  1  0.217685  0.945372  0.061058  1
  Cl  Cl25  1  0.782315  0.445372  0.438942  1
  Cl  Cl26  1  0.782315  0.054628  0.938942  1
  Cl  Cl27  1  0.217685  0.554628  0.561058  1
  Cl  Cl28  1  0.001730  0.559109  0.279489  1
  Cl  Cl29  1  0.998270  0.059109  0.220511  1
  Cl  Cl30  1  0.998270  0.440891  0.720511  1
  Cl  Cl31  1  0.001730  0.940891  0.779489  1
  Cl  Cl32  1  0.419613  0.064385  0.342856  1
  Cl  Cl33  1  0.580387  0.564385  0.157144  1
  Cl  Cl34  1  0.580387  0.935615  0.657144  1
  Cl  Cl35  1  0.419613  0.435615  0.842856  1
  Cl  Cl36  1  0.590837  0.396949  0.625764  1
  Cl  Cl37  1  0.409163  0.896949  0.874236  1
  Cl  Cl38  1  0.409163  0.603051  0.374236  1
  Cl  Cl39  1  0.590837  0.103051  0.125764  1
  O  O40  1  0.700012  0.440696  0.936020  1
  O  O41  1  0.299988  0.940696  0.563980  1
  O  O42  1  0.299988  0.559304  0.063980  1
  O  O43  1  0.700012  0.059304  0.436020  1
  O  O44  1  0.897868  0.443347  0.988302  1
  O  O45  1  0.102132  0.943347  0.511698  1
  O  O46  1  0.102132  0.556653  0.011698  1
  O  O47  1  0.897868  0.056653  0.488302  1
  O  O48  1  0.796986  0.673231  0.839230  1
  O  O49  1  0.203014  0.173231  0.660770  1
  O  O50  1  0.203014  0.326769  0.160770  1
  O  O51  1  0.796986  0.826769  0.339230  1
  O  O52  1  0.199100  0.301831  0.888674  1
  O  O53  1  0.800900  0.801831  0.611326  1
  O  O54  1  0.800900  0.698169  0.111326  1
  O  O55  1  0.199100  0.198169  0.388674  1
