# generated using pymatgen
data_Na2MnBAsO7
_symmetry_space_group_name_H-M   'P 1'
_cell_length_a   9.23247340
_cell_length_b   6.58286872
_cell_length_c   5.46718264
_cell_angle_alpha   90.00000000
_cell_angle_beta   86.95533724
_cell_angle_gamma   90.00000000
_symmetry_Int_Tables_number   1
_chemical_formula_structural   Na2MnBAsO7
_chemical_formula_sum   'Na4 Mn2 B2 As2 O14'
_cell_volume   331.80534180
_cell_formula_units_Z   2
loop_
 _symmetry_equiv_pos_site_id
 _symmetry_equiv_pos_as_xyz
  1  'x, y, z'
loop_
 _atom_site_type_symbol
 _atom_site_label
 _atom_site_symmetry_multiplicity
 _atom_site_fract_x
 _atom_site_fract_y
 _atom_site_fract_z
 _atom_site_occupancy
  Na  Na0  1  0.211665  0.504669  0.235825  1
  Na  Na1  1  0.211665  0.995331  0.235825  1
  Na  Na2  1  0.788335  0.495331  0.764175  1
  Na  Na3  1  0.788335  0.004669  0.764175  1
  Mn  Mn4  1  0.336802  0.750000  0.783763  1
  Mn  Mn5  1  0.663198  0.250000  0.216237  1
  B  B6  1  0.079011  0.750000  0.727322  1
  B  B7  1  0.920989  0.250000  0.272678  1
  As  As8  1  0.433245  0.250000  0.718834  1
  As  As9  1  0.566755  0.750000  0.281166  1
  O  O10  1  0.061304  0.250000  0.305496  1
  O  O11  1  0.146728  0.750000  0.952114  1
  O  O12  1  0.192645  0.750000  0.541516  1
  O  O13  1  0.322499  0.047959  0.802904  1
  O  O14  1  0.322499  0.452041  0.802904  1
  O  O15  1  0.409210  0.750000  0.129742  1
  O  O16  1  0.471512  0.250000  0.404699  1
  O  O17  1  0.528488  0.750000  0.595301  1
  O  O18  1  0.590790  0.250000  0.870258  1
  O  O19  1  0.677501  0.547959  0.197096  1
  O  O20  1  0.677501  0.952041  0.197096  1
  O  O21  1  0.807355  0.250000  0.458484  1
  O  O22  1  0.853272  0.250000  0.047886  1
  O  O23  1  0.938696  0.750000  0.694504  1
