# generated using pymatgen
data_Bi5O4F7
_symmetry_space_group_name_H-M   'P 1'
_cell_length_a   11.69791269
_cell_length_b   14.69083715
_cell_length_c   5.77797499
_cell_angle_alpha   78.65873715
_cell_angle_beta   90.00000000
_cell_angle_gamma   90.00000000
_symmetry_Int_Tables_number   1
_chemical_formula_structural   Bi5O4F7
_chemical_formula_sum   'Bi20 O16 F28'
_cell_volume   973.56812063
_cell_formula_units_Z   4
loop_
 _symmetry_equiv_pos_site_id
 _symmetry_equiv_pos_as_xyz
  1  'x, y, z'
loop_
 _atom_site_type_symbol
 _atom_site_label
 _atom_site_symmetry_multiplicity
 _atom_site_fract_x
 _atom_site_fract_y
 _atom_site_fract_z
 _atom_site_occupancy
  Bi  Bi0  1  0.143186  0.901721  0.298165  1
  Bi  Bi1  1  0.145453  0.099386  0.692462  1
  Bi  Bi2  1  0.136335  0.500420  0.472952  1
  Bi  Bi3  1  0.147408  0.701840  0.969074  1
  Bi  Bi4  1  0.142875  0.295311  0.138842  1
  Bi  Bi5  1  0.357125  0.704689  0.434153  1
  Bi  Bi6  1  0.352592  0.298160  0.670914  1
  Bi  Bi7  1  0.363665  0.499580  0.973372  1
  Bi  Bi8  1  0.356814  0.098279  0.199886  1
  Bi  Bi9  1  0.354547  0.900614  0.791848  1
  Bi  Bi10  1  0.643186  0.098279  0.699886  1
  Bi  Bi11  1  0.645453  0.900614  0.291848  1
  Bi  Bi12  1  0.636335  0.499580  0.473372  1
  Bi  Bi13  1  0.642875  0.704689  0.934153  1
  Bi  Bi14  1  0.647408  0.298160  0.170914  1
  Bi  Bi15  1  0.852592  0.701840  0.469074  1
  Bi  Bi16  1  0.857125  0.295311  0.638842  1
  Bi  Bi17  1  0.863665  0.500420  0.972952  1
  Bi  Bi18  1  0.854547  0.099386  0.192462  1
  Bi  Bi19  1  0.856814  0.901721  0.798165  1
  O  O20  1  0.239814  0.200963  0.931755  1
  O  O21  1  0.244426  0.795160  0.630006  1
  O  O22  1  0.237837  0.404254  0.809056  1
  O  O23  1  0.250000  0.000000  0.496387  1
  O  O24  1  0.250000  0.000000  0.999026  1
  O  O25  1  0.262163  0.595746  0.213309  1
  O  O26  1  0.255574  0.204840  0.425167  1
  O  O27  1  0.260186  0.799037  0.132717  1
  O  O28  1  0.739814  0.799037  0.632717  1
  O  O29  1  0.744426  0.204840  0.925167  1
  O  O30  1  0.737837  0.595746  0.713309  1
  O  O31  1  0.750000  0.000000  0.499026  1
  O  O32  1  0.750000  0.000000  0.996387  1
  O  O33  1  0.762163  0.404254  0.309056  1
  O  O34  1  0.760186  0.200963  0.431755  1
  O  O35  1  0.755574  0.795160  0.130006  1
  F  F36  1  0.998063  0.999713  0.085341  1
  F  F37  1  0.001937  0.999713  0.585341  1
  F  F38  1  0.028497  0.173390  0.316305  1
  F  F39  1  0.034677  0.828404  0.008514  1
  F  F40  1  0.059779  0.344066  0.484657  1
  F  F41  1  0.056316  0.657296  0.345088  1
  F  F42  1  0.060594  0.499005  0.104849  1
  F  F43  1  0.231729  0.598309  0.710069  1
  F  F44  1  0.268271  0.401691  0.308378  1
  F  F45  1  0.439406  0.500995  0.603853  1
  F  F46  1  0.443684  0.342704  0.002385  1
  F  F47  1  0.440221  0.655934  0.828723  1
  F  F48  1  0.465323  0.171596  0.836918  1
  F  F49  1  0.471503  0.826610  0.489695  1
  F  F50  1  0.501937  0.000287  0.085054  1
  F  F51  1  0.498063  0.000287  0.585054  1
  F  F52  1  0.528497  0.826610  0.989695  1
  F  F53  1  0.534677  0.171596  0.336918  1
  F  F54  1  0.556316  0.342704  0.502385  1
  F  F55  1  0.559779  0.655934  0.328723  1
  F  F56  1  0.560594  0.500995  0.103853  1
  F  F57  1  0.731729  0.401691  0.808378  1
  F  F58  1  0.768271  0.598309  0.210069  1
  F  F59  1  0.939406  0.499005  0.604849  1
  F  F60  1  0.940221  0.344066  0.984657  1
  F  F61  1  0.943684  0.657296  0.845088  1
  F  F62  1  0.965323  0.828404  0.508514  1
  F  F63  1  0.971503  0.173390  0.816305  1
