# generated using pymatgen
data_Li2V(PO3)4
_symmetry_space_group_name_H-M   'P 1'
_cell_length_a   7.57059970
_cell_length_b   11.22816816
_cell_length_c   13.07328834
_cell_angle_alpha   90.00000000
_cell_angle_beta   72.58590409
_cell_angle_gamma   90.00000000
_symmetry_Int_Tables_number   1
_chemical_formula_structural   Li2V(PO3)4
_chemical_formula_sum   'Li8 V4 P16 O48'
_cell_volume   1060.34770406
_cell_formula_units_Z   4
loop_
 _symmetry_equiv_pos_site_id
 _symmetry_equiv_pos_as_xyz
  1  'x, y, z'
loop_
 _atom_site_type_symbol
 _atom_site_label
 _atom_site_symmetry_multiplicity
 _atom_site_fract_x
 _atom_site_fract_y
 _atom_site_fract_z
 _atom_site_occupancy
  Li  Li0  1  0.105773  0.095980  0.254265  1
  Li  Li1  1  0.394227  0.595980  0.245735  1
  Li  Li2  1  0.182092  0.964810  0.487896  1
  Li  Li3  1  0.317908  0.464810  0.012104  1
  Li  Li4  1  0.682092  0.535190  0.987896  1
  Li  Li5  1  0.817908  0.035190  0.512104  1
  Li  Li6  1  0.605773  0.404020  0.754265  1
  Li  Li7  1  0.894227  0.904020  0.745735  1
  V  V8  1  0.316790  0.254422  0.667014  1
  V  V9  1  0.183210  0.754422  0.832986  1
  V  V10  1  0.816790  0.245578  0.167014  1
  V  V11  1  0.683210  0.745578  0.332986  1
  P  P12  1  0.962908  0.728043  0.086381  1
  P  P13  1  0.064000  0.386881  0.298593  1
  P  P14  1  0.370789  0.743537  0.028177  1
  P  P15  1  0.129211  0.243537  0.471823  1
  P  P16  1  0.037092  0.271957  0.913619  1
  P  P17  1  0.436000  0.886881  0.201407  1
  P  P18  1  0.179312  0.041804  0.820990  1
  P  P19  1  0.320688  0.541804  0.679010  1
  P  P20  1  0.537092  0.228043  0.413619  1
  P  P21  1  0.462908  0.771957  0.586381  1
  P  P22  1  0.679312  0.458196  0.320990  1
  P  P23  1  0.820688  0.958196  0.179010  1
  P  P24  1  0.564000  0.113119  0.798593  1
  P  P25  1  0.870789  0.756463  0.528177  1
  P  P26  1  0.629211  0.256463  0.971823  1
  P  P27  1  0.936000  0.613119  0.701407  1
  O  O28  1  0.161054  0.748877  0.107181  1
  O  O29  1  0.038675  0.349819  0.422739  1
  O  O30  1  0.234973  0.457774  0.248811  1
  O  O31  1  0.054210  0.121782  0.450866  1
  O  O32  1  0.112996  0.276358  0.584546  1
  O  O33  1  0.445790  0.621782  0.049134  1
  O  O34  1  0.965020  0.726791  0.757518  1
  O  O35  1  0.109049  0.523571  0.680108  1
  O  O36  1  0.265027  0.957774  0.251188  1
  O  O37  1  0.159445  0.335001  0.817578  1
  O  O38  1  0.990971  0.671195  0.978112  1
  O  O39  1  0.461325  0.849819  0.077261  1
  O  O40  1  0.338946  0.248877  0.392819  1
  O  O41  1  0.069353  0.929600  0.857792  1
  O  O42  1  0.109330  0.137548  0.917932  1
  O  O43  1  0.173256  0.090487  0.715251  1
  O  O44  1  0.326744  0.590487  0.784749  1
  O  O45  1  0.612996  0.223642  0.084546  1
  O  O46  1  0.390670  0.637548  0.582068  1
  O  O47  1  0.430647  0.429600  0.642208  1
  O  O48  1  0.465020  0.773209  0.257518  1
  O  O49  1  0.609049  0.976429  0.180108  1
  O  O50  1  0.509029  0.171195  0.521888  1
  O  O51  1  0.340555  0.835001  0.682422  1
  O  O52  1  0.659445  0.164999  0.317578  1
  O  O53  1  0.490971  0.828805  0.478112  1
  O  O54  1  0.390951  0.023571  0.819892  1
  O  O55  1  0.534980  0.226791  0.742482  1
  O  O56  1  0.569353  0.570400  0.357792  1
  O  O57  1  0.609330  0.362452  0.417932  1
  O  O58  1  0.387004  0.776358  0.915454  1
  O  O59  1  0.673256  0.409513  0.215250  1
  O  O60  1  0.826744  0.909513  0.284750  1
  O  O61  1  0.890670  0.862452  0.082068  1
  O  O62  1  0.930647  0.070400  0.142208  1
  O  O63  1  0.661054  0.751123  0.607181  1
  O  O64  1  0.538675  0.150181  0.922739  1
  O  O65  1  0.009029  0.328805  0.021888  1
  O  O66  1  0.840555  0.664999  0.182422  1
  O  O67  1  0.734973  0.042226  0.748812  1
  O  O68  1  0.890951  0.476429  0.319892  1
  O  O69  1  0.034980  0.273209  0.242482  1
  O  O70  1  0.554210  0.378218  0.950866  1
  O  O71  1  0.887004  0.723642  0.415454  1
  O  O72  1  0.945790  0.878218  0.549134  1
  O  O73  1  0.765027  0.542226  0.751188  1
  O  O74  1  0.961325  0.650181  0.577261  1
  O  O75  1  0.838946  0.251123  0.892819  1
