# generated using pymatgen
data_Li6V3P8O29
_symmetry_space_group_name_H-M   'P 1'
_cell_length_a   9.81362247
_cell_length_b   9.81027107
_cell_length_c   13.97345083
_cell_angle_alpha   90.27601143
_cell_angle_beta   90.42271231
_cell_angle_gamma   59.91517334
_symmetry_Int_Tables_number   1
_chemical_formula_structural   Li6V3P8O29
_chemical_formula_sum   'Li12 V6 P16 O58'
_cell_volume   1164.02047050
_cell_formula_units_Z   2
loop_
 _symmetry_equiv_pos_site_id
 _symmetry_equiv_pos_as_xyz
  1  'x, y, z'
loop_
 _atom_site_type_symbol
 _atom_site_label
 _atom_site_symmetry_multiplicity
 _atom_site_fract_x
 _atom_site_fract_y
 _atom_site_fract_z
 _atom_site_occupancy
  Li  Li0  1  0.763882  0.904387  0.557804  1
  Li  Li1  1  0.678453  0.666684  0.889134  1
  Li  Li2  1  0.776179  0.308112  0.062352  1
  Li  Li3  1  0.309853  0.910423  0.062588  1
  Li  Li4  1  0.665280  0.239344  0.437910  1
  Li  Li5  1  0.330527  0.765564  0.559164  1
  Li  Li6  1  0.693328  0.083627  0.942868  1
  Li  Li7  1  0.226262  0.679712  0.945508  1
  Li  Li8  1  0.098185  0.666673  0.436862  1
  Li  Li9  1  0.235956  0.101639  0.439407  1
  Li  Li10  1  0.094213  0.226722  0.939439  1
  Li  Li11  1  0.987760  0.046717  0.501128  1
  V  V12  1  0.566830  0.433478  0.250852  1
  V  V13  1  0.434798  0.564194  0.747698  1
  V  V14  1  0.564265  0.000344  0.750915  1
  V  V15  1  0.435368  0.001517  0.250333  1
  V  V16  1  0.000955  0.564413  0.248758  1
  V  V17  1  0.996338  0.436953  0.745943  1
  P  P18  1  0.913088  0.773077  0.842054  1
  P  P19  1  0.774497  0.913413  0.340781  1
  P  P20  1  0.917541  0.308350  0.339801  1
  P  P21  1  0.664819  0.667243  0.130277  1
  P  P22  1  0.664803  0.670266  0.628413  1
  P  P23  1  0.771265  0.319272  0.840792  1
  P  P24  1  0.688004  0.225305  0.655208  1
  P  P25  1  0.322238  0.905844  0.842279  1
  P  P26  1  0.680435  0.088743  0.157737  1
  P  P27  1  0.313999  0.774460  0.343923  1
  P  P28  1  0.228899  0.679571  0.161116  1
  P  P29  1  0.336011  0.331556  0.372215  1
  P  P30  1  0.330365  0.335051  0.870584  1
  P  P31  1  0.082959  0.686515  0.655240  1
  P  P32  1  0.225917  0.086016  0.658241  1
  P  P33  1  0.086992  0.230993  0.155154  1
  O  O34  1  0.997825  0.771280  0.564546  1
  O  O35  1  0.919737  0.746451  0.341166  1
  O  O36  1  0.753374  0.005225  0.066917  1
  O  O37  1  0.746376  0.921021  0.844134  1
  O  O38  1  0.890681  0.627504  0.828353  1
  O  O39  1  0.810482  0.667353  0.174963  1
  O  O40  1  0.923623  0.461240  0.333804  1
  O  O41  1  0.998432  0.246375  0.063342  1
  O  O42  1  0.920754  0.332413  0.843937  1
  O  O43  1  0.673594  0.815667  0.671818  1
  O  O44  1  0.620593  0.908996  0.330339  1
  O  O45  1  0.808654  0.520807  0.675246  1
  O  O46  1  0.659021  0.670218  0.022590  1
  O  O47  1  0.666163  0.675681  0.522304  1
  O  O48  1  0.668233  0.514542  0.166718  1
  O  O49  1  0.489918  0.881264  0.826093  1
  O  O50  1  0.511819  0.816955  0.169956  1
  O  O51  1  0.744830  0.342332  0.341152  1
  O  O52  1  0.792484  0.209867  0.749403  1
  O  O53  1  0.775267  0.216096  0.565569  1
  O  O54  1  0.749983  0.246093  0.929614  1
  O  O55  1  0.628730  0.487490  0.822449  1
  O  O56  1  0.509545  0.677563  0.666879  1
  O  O57  1  0.666731  0.253804  0.161710  1
  O  O58  1  0.470815  0.622026  0.330993  1
  O  O59  1  0.333539  0.920321  0.343585  1
  O  O60  1  0.794533  0.998380  0.248261  1
  O  O61  1  0.775618  0.002793  0.429677  1
  O  O62  1  0.220340  0.999547  0.568930  1
  O  O63  1  0.661304  0.083620  0.660207  1
  O  O64  1  0.531790  0.383096  0.667776  1
  O  O65  1  0.335963  0.742053  0.843982  1
  O  O66  1  0.491287  0.320411  0.334186  1
  O  O67  1  0.381624  0.519669  0.179945  1
  O  O68  1  0.245457  0.753738  0.071107  1
  O  O69  1  0.224059  0.775161  0.432199  1
  O  O70  1  0.206890  0.793682  0.250315  1
  O  O71  1  0.248778  0.668187  0.658865  1
  O  O72  1  0.479089  0.183428  0.827999  1
  O  O73  1  0.518193  0.105249  0.177421  1
  O  O74  1  0.334936  0.482106  0.828775  1
  O  O75  1  0.331539  0.332192  0.976828  1
  O  O76  1  0.336849  0.323206  0.479117  1
  O  O77  1  0.190869  0.487187  0.333019  1
  O  O78  1  0.383203  0.083779  0.668425  1
  O  O79  1  0.324980  0.186287  0.329197  1
  O  O80  1  0.086808  0.655936  0.162174  1
  O  O81  1  0.988140  0.796682  0.744239  1
  O  O82  1  0.013018  0.761888  0.924920  1
  O  O83  1  0.091125  0.527017  0.668113  1
  O  O84  1  0.180288  0.337085  0.827793  1
  O  O85  1  0.105897  0.374116  0.176782  1
  O  O86  1  0.248827  0.079554  0.157311  1
  O  O87  1  0.247045  -0.000151  0.931095  1
  O  O88  1  0.213368  0.992828  0.750875  1
  O  O89  1  0.084912  0.251075  0.663094  1
  O  O90  1  0.009293  0.199486  0.420694  1
  O  O91  1  0.987187  0.213505  0.240670  1
