# generated using pymatgen
data_Li3V3P8O29
_symmetry_space_group_name_H-M   'P 1'
_cell_length_a   9.74430699
_cell_length_b   9.72692894
_cell_length_c   14.04039543
_cell_angle_alpha   90.00082352
_cell_angle_beta   89.99255311
_cell_angle_gamma   60.06071466
_symmetry_Int_Tables_number   1
_chemical_formula_structural   Li3V3P8O29
_chemical_formula_sum   'Li6 V6 P16 O58'
_cell_volume   1153.19312135
_cell_formula_units_Z   2
loop_
 _symmetry_equiv_pos_site_id
 _symmetry_equiv_pos_as_xyz
  1  'x, y, z'
loop_
 _atom_site_type_symbol
 _atom_site_label
 _atom_site_symmetry_multiplicity
 _atom_site_fract_x
 _atom_site_fract_y
 _atom_site_fract_z
 _atom_site_occupancy
  Li  Li0  1  0.904214  0.765203  0.058217  1
  Li  Li1  1  0.904157  0.330684  0.558258  1
  Li  Li2  1  0.330602  0.905224  0.058864  1
  Li  Li3  1  0.330711  0.764126  0.558858  1
  Li  Li4  1  0.973494  0.041581  0.999598  1
  Li  Li5  1  0.973787  0.985441  0.499529  1
  V  V6  1  0.568518  0.433053  0.246162  1
  V  V7  1  0.435223  0.562532  0.754901  1
  V  V8  1  0.568568  0.998334  0.746110  1
  V  V9  1  0.435290  0.002191  0.254911  1
  V  V10  1  0.002419  0.562598  0.252947  1
  V  V11  1  0.002451  0.434980  0.752951  1
  P  P12  1  0.912235  0.776662  0.842098  1
  P  P13  1  0.777845  0.915144  0.344396  1
  P  P14  1  0.912254  0.311118  0.342188  1
  P  P15  1  0.665952  0.669644  0.129415  1
  P  P16  1  0.665938  0.664359  0.629371  1
  P  P17  1  0.777776  0.307109  0.844229  1
  P  P18  1  0.691008  0.224989  0.658091  1
  P  P19  1  0.314459  0.914128  0.843460  1
  P  P20  1  0.691108  0.083955  0.158167  1
  P  P21  1  0.314447  0.771378  0.343515  1
  P  P22  1  0.223673  0.690957  0.159056  1
  P  P23  1  0.336082  0.334911  0.370328  1
  P  P24  1  0.336156  0.328903  0.870251  1
  P  P25  1  0.086665  0.691674  0.657515  1
  P  P26  1  0.223635  0.085307  0.658998  1
  P  P27  1  0.086759  0.221686  0.157684  1
  O  O28  1  0.004991  0.786848  0.572418  1
  O  O29  1  0.914135  0.740188  0.331269  1
  O  O30  1  0.786970  0.995641  0.073508  1
  O  O31  1  0.741157  0.916643  0.831186  1
  O  O32  1  0.909094  0.618967  0.825182  1
  O  O33  1  0.816150  0.670803  0.169541  1
  O  O34  1  0.909127  0.471947  0.325250  1
  O  O35  1  0.004889  0.208133  0.072443  1
  O  O36  1  0.914061  0.345729  0.831244  1
  O  O37  1  0.666161  0.812926  0.675153  1
  O  O38  1  0.618592  0.915210  0.329556  1
  O  O39  1  0.816154  0.513010  0.669477  1
  O  O40  1  0.660515  0.673677  0.023576  1
  O  O41  1  0.660378  0.665878  0.523565  1
  O  O42  1  0.666117  0.520899  0.175167  1
  O  O43  1  0.472198  0.911339  0.825928  1
  O  O44  1  0.514644  0.817095  0.172952  1
  O  O45  1  0.741157  0.342207  0.331180  1
  O  O46  1  0.795959  0.201447  0.751948  1
  O  O47  1  0.786878  0.217459  0.573434  1
  O  O48  1  0.791526  0.216490  0.931404  1
  O  O49  1  0.618565  0.466186  0.829523  1
  O  O50  1  0.514626  0.668258  0.672962  1
  O  O51  1  0.655948  0.257952  0.163448  1
  O  O52  1  0.472215  0.616397  0.325948  1
  O  O53  1  0.344333  0.913984  0.331720  1
  O  O54  1  0.795957  0.002669  0.252045  1
  O  O55  1  0.791551  0.991900  0.431425  1
  O  O56  1  0.218048  0.992133  0.576439  1
  O  O57  1  0.655935  0.086090  0.663428  1
  O  O58  1  0.533564  0.382669  0.672745  1
  O  O59  1  0.344297  0.741668  0.831731  1
  O  O60  1  0.480070  0.336381  0.323148  1
  O  O61  1  0.381149  0.532367  0.171626  1
  O  O62  1  0.218200  0.789724  0.076442  1
  O  O63  1  0.235060  0.779581  0.435538  1
  O  O64  1  0.199307  0.790347  0.256621  1
  O  O65  1  0.261955  0.655356  0.663134  1
  O  O66  1  0.480069  0.183509  0.823093  1
  O  O67  1  0.533658  0.083698  0.172777  1
  O  O68  1  0.334960  0.479006  0.824296  1
  O  O69  1  0.330429  0.333159  0.975352  1
  O  O70  1  0.330356  0.336377  0.475344  1
  O  O71  1  0.184455  0.480987  0.323198  1
  O  O72  1  0.381177  0.086354  0.671564  1
  O  O73  1  0.334986  0.185954  0.324320  1
  O  O74  1  0.082347  0.659039  0.159758  1
  O  O75  1  0.007912  0.792946  0.754464  1
  O  O76  1  0.986110  0.778124  0.934525  1
  O  O77  1  0.084282  0.534259  0.673058  1
  O  O78  1  0.184455  0.334512  0.823207  1
  O  O79  1  0.084247  0.381460  0.173061  1
  O  O80  1  0.261947  0.082736  0.163154  1
  O  O81  1  0.235018  0.985373  0.935545  1
  O  O82  1  0.199278  0.010295  0.756609  1
  O  O83  1  0.082338  0.258621  0.659753  1
  O  O84  1  0.986025  0.235744  0.434579  1
  O  O85  1  0.008011  0.199126  0.254552  1
