# generated using pymatgen
data_Li3MnFe2(BO3)3
_symmetry_space_group_name_H-M   'P 1'
_cell_length_a   8.26642751
_cell_length_b   14.29595785
_cell_length_c   3.14831424
_cell_angle_alpha   90.00000000
_cell_angle_beta   90.00000000
_cell_angle_gamma   89.98531598
_symmetry_Int_Tables_number   1
_chemical_formula_structural   Li3MnFe2(BO3)3
_chemical_formula_sum   'Li6 Mn2 Fe4 B6 O18'
_cell_volume   372.05674325
_cell_formula_units_Z   2
loop_
 _symmetry_equiv_pos_site_id
 _symmetry_equiv_pos_as_xyz
  1  'x, y, z'
loop_
 _atom_site_type_symbol
 _atom_site_label
 _atom_site_symmetry_multiplicity
 _atom_site_fract_x
 _atom_site_fract_y
 _atom_site_fract_z
 _atom_site_occupancy
  Li  Li0  1  0.292974  0.989671  0.500000  1
  Li  Li1  1  0.340378  0.358522  0.500000  1
  Li  Li2  1  0.365100  0.651295  0.500000  1
  Li  Li3  1  0.793498  0.493378  0.500000  1
  Li  Li4  1  0.840862  0.856890  0.500000  1
  Li  Li5  1  0.865349  0.150066  0.500000  1
  Mn  Mn6  1  0.191730  0.180015  0.000000  1
  Mn  Mn7  1  0.674355  0.314010  0.000000  1
  Fe  Fe8  1  0.137344  0.504464  0.000000  1
  Fe  Fe9  1  0.175775  0.816091  0.000000  1
  Fe  Fe10  1  0.637297  0.003157  0.000000  1
  Fe  Fe11  1  0.687315  0.680095  0.000000  1
  B  B12  1  0.999900  0.666947  0.500000  1
  B  B13  1  0.998278  0.999463  0.000000  1
  B  B14  1  0.001150  0.334455  0.500000  1
  B  B15  1  0.500027  0.164897  0.500000  1
  B  B16  1  0.500518  0.501145  0.000000  1
  B  B17  1  0.500001  0.833502  0.500000  1
  O  O18  1  0.011165  0.431738  0.500000  1
  O  O19  1  0.019034  0.763883  0.500000  1
  O  O20  1  0.135807  0.609041  0.500000  1
  O  O21  1  0.141258  0.280989  0.500000  1
  O  O22  1  0.150893  0.957669  0.000000  1
  O  O23  1  0.347252  0.124016  0.500000  1
  O  O24  1  0.348147  0.791282  0.500000  1
  O  O25  1  0.361845  0.445636  0.000000  1
  O  O26  1  0.486117  0.598281  0.000000  1
  O  O27  1  0.512435  0.930585  0.500000  1
  O  O28  1  0.513930  0.262202  0.500000  1
  O  O29  1  0.637766  0.108871  0.500000  1
  O  O30  1  0.639324  0.778763  0.500000  1
  O  O31  1  0.653114  0.460056  0.000000  1
  O  O32  1  0.845233  0.628202  0.500000  1
  O  O33  1  0.851192  0.290530  0.500000  1
  O  O34  1  0.860139  0.943790  0.000000  1
  O  O35  1  0.983495  0.096406  0.000000  1
