# generated using pymatgen
data_Al2H12(SeO5)3
_symmetry_space_group_name_H-M   'P 1'
_cell_length_a   8.81693897
_cell_length_b   8.81693932
_cell_length_c   10.93913712
_cell_angle_alpha   90.00000000
_cell_angle_beta   90.00000000
_cell_angle_gamma   120.00027190
_symmetry_Int_Tables_number   1
_chemical_formula_structural   Al2H12(SeO5)3
_chemical_formula_sum   'Al4 H24 Se6 O30'
_cell_volume   736.45835626
_cell_formula_units_Z   2
loop_
 _symmetry_equiv_pos_site_id
 _symmetry_equiv_pos_as_xyz
  1  'x, y, z'
loop_
 _atom_site_type_symbol
 _atom_site_label
 _atom_site_symmetry_multiplicity
 _atom_site_fract_x
 _atom_site_fract_y
 _atom_site_fract_z
 _atom_site_occupancy
  Al  Al0  1  0.333330  0.666660  0.965404  1
  Al  Al1  1  0.333330  0.666660  0.534596  1
  Al  Al2  1  0.666660  0.333330  0.465404  1
  Al  Al3  1  0.666660  0.333330  0.034596  1
  H  H4  1  0.800538  0.217089  0.632022  1
  H  H5  1  0.782909  0.583450  0.632023  1
  H  H6  1  0.416544  0.199455  0.632025  1
  H  H7  1  0.800538  0.217089  0.867978  1
  H  H8  1  0.782909  0.583450  0.867977  1
  H  H9  1  0.416544  0.199455  0.867975  1
  H  H10  1  0.217089  0.800538  0.132022  1
  H  H11  1  0.583450  0.782909  0.132023  1
  H  H12  1  0.199455  0.416544  0.132025  1
  H  H13  1  0.217089  0.800538  0.367978  1
  H  H14  1  0.583450  0.782909  0.367977  1
  H  H15  1  0.199455  0.416544  0.367975  1
  H  H16  1  0.940917  0.417527  0.592720  1
  H  H17  1  0.582471  0.523393  0.592721  1
  H  H18  1  0.476603  0.059075  0.592722  1
  H  H19  1  0.940917  0.417527  0.907280  1
  H  H20  1  0.582471  0.523393  0.907279  1
  H  H21  1  0.476603  0.059075  0.907278  1
  H  H22  1  0.417527  0.940917  0.092720  1
  H  H23  1  0.523393  0.582471  0.092721  1
  H  H24  1  0.059075  0.476603  0.092722  1
  H  H25  1  0.417527  0.940917  0.407280  1
  H  H26  1  0.523393  0.582471  0.407279  1
  H  H27  1  0.059075  0.476603  0.407278  1
  Se  Se28  1  0.616834  0.877789  0.750000  1
  Se  Se29  1  0.122209  0.739044  0.750000  1
  Se  Se30  1  0.260950  0.383156  0.750000  1
  Se  Se31  1  0.877789  0.616834  0.250000  1
  Se  Se32  1  0.739044  0.122209  0.250000  1
  Se  Se33  1  0.383156  0.260950  0.250000  1
  O  O34  1  0.476270  0.167427  0.566673  1
  O  O35  1  0.832563  0.308842  0.566671  1
  O  O36  1  0.691155  0.523724  0.566672  1
  O  O37  1  0.476270  0.167427  0.933327  1
  O  O38  1  0.832563  0.308842  0.933329  1
  O  O39  1  0.691155  0.523724  0.933328  1
  O  O40  1  0.167427  0.476270  0.066673  1
  O  O41  1  0.308842  0.832563  0.066671  1
  O  O42  1  0.523724  0.691155  0.066672  1
  O  O43  1  0.167427  0.476270  0.433327  1
  O  O44  1  0.308842  0.832563  0.433329  1
  O  O45  1  0.523724  0.691155  0.433328  1
  O  O46  1  0.386540  0.515883  0.872122  1
  O  O47  1  0.484108  0.870647  0.872124  1
  O  O48  1  0.129343  0.613453  0.872123  1
  O  O49  1  0.386540  0.515883  0.627878  1
  O  O50  1  0.484108  0.870647  0.627876  1
  O  O51  1  0.129343  0.613453  0.627877  1
  O  O52  1  0.515883  0.386540  0.372122  1
  O  O53  1  0.870647  0.484108  0.372124  1
  O  O54  1  0.613453  0.129343  0.372123  1
  O  O55  1  0.515883  0.386540  0.127878  1
  O  O56  1  0.870647  0.484108  0.127876  1
  O  O57  1  0.613453  0.129343  0.127877  1
  O  O58  1  0.769732  0.093333  0.750000  1
  O  O59  1  0.906667  0.676400  0.750000  1
  O  O60  1  0.323597  0.230260  0.750000  1
  O  O61  1  0.093333  0.769732  0.250000  1
  O  O62  1  0.676400  0.906667  0.250000  1
  O  O63  1  0.230260  0.323597  0.250000  1
