# generated using pymatgen
data_CuH12Se(NO)4
_symmetry_space_group_name_H-M   'P 1'
_cell_length_a   11.22231271
_cell_length_b   11.10546541
_cell_length_c   7.82340565
_cell_angle_alpha   90.00000000
_cell_angle_beta   103.12823217
_cell_angle_gamma   90.00000000
_symmetry_Int_Tables_number   1
_chemical_formula_structural   CuH12Se(NO)4
_chemical_formula_sum   'Cu4 H48 Se4 N16 O16'
_cell_volume   949.54022232
_cell_formula_units_Z   4
loop_
 _symmetry_equiv_pos_site_id
 _symmetry_equiv_pos_as_xyz
  1  'x, y, z'
loop_
 _atom_site_type_symbol
 _atom_site_label
 _atom_site_symmetry_multiplicity
 _atom_site_fract_x
 _atom_site_fract_y
 _atom_site_fract_z
 _atom_site_occupancy
  Cu  Cu0  1  0.042792  0.771858  0.761756  1
  Cu  Cu1  1  0.542792  0.728142  0.261756  1
  Cu  Cu2  1  0.957208  0.228142  0.238244  1
  Cu  Cu3  1  0.457208  0.271858  0.738244  1
  H  H4  1  0.885839  0.148587  0.698384  1
  H  H5  1  0.385839  0.351413  0.198384  1
  H  H6  1  0.114161  0.851413  0.301616  1
  H  H7  1  0.614161  0.648587  0.801616  1
  H  H8  1  0.377430  0.581613  0.452214  1
  H  H9  1  0.877430  0.918387  0.952214  1
  H  H10  1  0.622570  0.418387  0.547786  1
  H  H11  1  0.122570  0.081613  0.047786  1
  H  H12  1  0.930320  0.906614  0.029642  1
  H  H13  1  0.430320  0.593386  0.529642  1
  H  H14  1  0.069680  0.093386  0.970358  1
  H  H15  1  0.569680  0.406614  0.470358  1
  H  H16  1  0.059105  0.030667  0.634522  1
  H  H17  1  0.559105  0.469333  0.134522  1
  H  H18  1  0.940895  0.969333  0.365478  1
  H  H19  1  0.440895  0.530667  0.865478  1
  H  H20  1  0.170129  0.954993  0.876705  1
  H  H21  1  0.670129  0.545007  0.376705  1
  H  H22  1  0.829871  0.045007  0.123295  1
  H  H23  1  0.329871  0.454993  0.623295  1
  H  H24  1  0.246913  0.868837  0.765726  1
  H  H25  1  0.746913  0.631163  0.265726  1
  H  H26  1  0.753087  0.131163  0.234274  1
  H  H27  1  0.253087  0.368837  0.734274  1
  H  H28  1  0.885868  0.672219  0.903834  1
  H  H29  1  0.385868  0.827781  0.403834  1
  H  H30  1  0.114132  0.327781  0.096166  1
  H  H31  1  0.614132  0.172219  0.596166  1
  H  H32  1  0.806746  0.728819  0.716842  1
  H  H33  1  0.306746  0.771181  0.216842  1
  H  H34  1  0.193254  0.271181  0.283158  1
  H  H35  1  0.693254  0.228819  0.783158  1
  H  H36  1  0.888658  0.606096  0.716329  1
  H  H37  1  0.388658  0.893904  0.216329  1
  H  H38  1  0.111342  0.393904  0.283671  1
  H  H39  1  0.611342  0.106096  0.783671  1
  H  H40  1  0.184036  0.616126  0.680606  1
  H  H41  1  0.684036  0.883874  0.180606  1
  H  H42  1  0.815964  0.383874  0.319394  1
  H  H43  1  0.315964  0.116126  0.819394  1
  H  H44  1  0.262460  0.660493  0.874027  1
  H  H45  1  0.762460  0.839507  0.374027  1
  H  H46  1  0.737540  0.339507  0.125973  1
  H  H47  1  0.237540  0.160493  0.625973  1
  H  H48  1  0.151134  0.562071  0.858537  1
  H  H49  1  0.651134  0.937929  0.358537  1
  H  H50  1  0.848866  0.437929  0.141463  1
  H  H51  1  0.348866  0.062071  0.641463  1
  Se  Se52  1  0.022581  0.669123  0.307857  1
  Se  Se53  1  0.522581  0.830877  0.807857  1
  Se  Se54  1  0.977419  0.330877  0.692143  1
  Se  Se55  1  0.477419  0.169123  0.192143  1
  N  N56  1  0.120541  0.967868  0.609072  1
  N  N57  1  0.620541  0.532132  0.109072  1
  N  N58  1  0.879459  0.032132  0.390928  1
  N  N59  1  0.379459  0.467868  0.890928  1
  N  N60  1  0.162819  0.904644  0.765317  1
  N  N61  1  0.662819  0.595356  0.265317  1
  N  N62  1  0.837181  0.095356  0.234683  1
  N  N63  1  0.337181  0.404644  0.734683  1
  N  N64  1  0.887965  0.688937  0.774913  1
  N  N65  1  0.387965  0.811063  0.274913  1
  N  N66  1  0.112035  0.311063  0.225087  1
  N  N67  1  0.612035  0.188937  0.725087  1
  N  N68  1  0.176151  0.639651  0.804658  1
  N  N69  1  0.676151  0.860349  0.304658  1
  N  N70  1  0.823849  0.360349  0.195342  1
  N  N71  1  0.323849  0.139651  0.695342  1
  O  O72  1  0.107119  0.784594  0.215932  1
  O  O73  1  0.607119  0.715406  0.715932  1
  O  O74  1  0.892881  0.215406  0.784068  1
  O  O75  1  0.392881  0.284594  0.284068  1
  O  O76  1  0.958204  0.748704  0.442125  1
  O  O77  1  0.458204  0.751296  0.942125  1
  O  O78  1  0.041796  0.251296  0.557875  1
  O  O79  1  0.541796  0.248704  0.057875  1
  O  O80  1  0.126962  0.570464  0.402979  1
  O  O81  1  0.626962  0.929536  0.902979  1
  O  O82  1  0.873038  0.429536  0.597021  1
  O  O83  1  0.373038  0.070464  0.097021  1
  O  O84  1  0.924297  0.612200  0.137224  1
  O  O85  1  0.424297  0.887800  0.637224  1
  O  O86  1  0.075703  0.387800  0.862776  1
  O  O87  1  0.575703  0.112200  0.362776  1
