# generated using pymatgen
data_Na5FeO4
_symmetry_space_group_name_H-M   'P 1'
_cell_length_a   10.72718994
_cell_length_b   10.60593209
_cell_length_c   10.35101074
_cell_angle_alpha   90.00000000
_cell_angle_beta   90.00000000
_cell_angle_gamma   90.00000000
_symmetry_Int_Tables_number   1
_chemical_formula_structural   Na5FeO4
_chemical_formula_sum   'Na40 Fe8 O32'
_cell_volume   1177.65362077
_cell_formula_units_Z   8
loop_
 _symmetry_equiv_pos_site_id
 _symmetry_equiv_pos_as_xyz
  1  'x, y, z'
loop_
 _atom_site_type_symbol
 _atom_site_label
 _atom_site_symmetry_multiplicity
 _atom_site_fract_x
 _atom_site_fract_y
 _atom_site_fract_z
 _atom_site_occupancy
  Na  Na0  1  0.103326  0.614441  0.147768  1
  Na  Na1  1  0.103326  0.885559  0.647768  1
  Na  Na2  1  0.113226  0.107406  0.835526  1
  Na  Na3  1  0.113226  0.392593  0.335526  1
  Na  Na4  1  0.118122  0.846654  0.365119  1
  Na  Na5  1  0.118122  0.653346  0.865119  1
  Na  Na6  1  0.146213  0.876993  0.089375  1
  Na  Na7  1  0.146213  0.623007  0.589375  1
  Na  Na8  1  0.160658  0.120769  0.400299  1
  Na  Na9  1  0.160658  0.379231  0.900299  1
  Na  Na10  1  0.339342  0.879231  0.900299  1
  Na  Na11  1  0.339342  0.620769  0.400299  1
  Na  Na12  1  0.353787  0.123007  0.589375  1
  Na  Na13  1  0.353787  0.376993  0.089375  1
  Na  Na14  1  0.381878  0.346654  0.365119  1
  Na  Na15  1  0.381878  0.153346  0.865119  1
  Na  Na16  1  0.386774  0.607406  0.835526  1
  Na  Na17  1  0.386774  0.892594  0.335526  1
  Na  Na18  1  0.396674  0.114441  0.147768  1
  Na  Na19  1  0.396674  0.385559  0.647768  1
  Na  Na20  1  0.603326  0.614441  0.352232  1
  Na  Na21  1  0.603326  0.885559  0.852232  1
  Na  Na22  1  0.613226  0.107406  0.664474  1
  Na  Na23  1  0.613226  0.392593  0.164474  1
  Na  Na24  1  0.618122  0.653346  0.634881  1
  Na  Na25  1  0.618122  0.846654  0.134881  1
  Na  Na26  1  0.646213  0.623007  0.910625  1
  Na  Na27  1  0.646213  0.876993  0.410625  1
  Na  Na28  1  0.660658  0.120769  0.099701  1
  Na  Na29  1  0.660658  0.379231  0.599701  1
  Na  Na30  1  0.839342  0.620769  0.099701  1
  Na  Na31  1  0.839342  0.879231  0.599701  1
  Na  Na32  1  0.853787  0.376993  0.410625  1
  Na  Na33  1  0.853787  0.123007  0.910625  1
  Na  Na34  1  0.881878  0.153346  0.634881  1
  Na  Na35  1  0.881878  0.346654  0.134881  1
  Na  Na36  1  0.886774  0.607406  0.664474  1
  Na  Na37  1  0.886774  0.892594  0.164474  1
  Na  Na38  1  0.896674  0.114441  0.352232  1
  Na  Na39  1  0.896674  0.385559  0.852232  1
  Fe  Fe40  1  0.127496  0.145512  0.116232  1
  Fe  Fe41  1  0.127496  0.354488  0.616232  1
  Fe  Fe42  1  0.372504  0.645512  0.116232  1
  Fe  Fe43  1  0.372504  0.854488  0.616232  1
  Fe  Fe44  1  0.627496  0.145512  0.383768  1
  Fe  Fe45  1  0.627496  0.354488  0.883768  1
  Fe  Fe46  1  0.872504  0.645512  0.383768  1
  Fe  Fe47  1  0.872504  0.854488  0.883768  1
  O  O48  1  0.019004  0.260323  0.502260  1
  O  O49  1  0.019004  0.239677  0.002260  1
  O  O50  1  0.049634  0.022617  0.230451  1
  O  O51  1  0.049634  0.477383  0.730451  1
  O  O52  1  0.241344  0.050770  0.005865  1
  O  O53  1  0.241344  0.449230  0.505865  1
  O  O54  1  0.235928  0.245153  0.224877  1
  O  O55  1  0.235928  0.254847  0.724877  1
  O  O56  1  0.264072  0.745153  0.224877  1
  O  O57  1  0.264072  0.754847  0.724877  1
  O  O58  1  0.258656  0.550770  0.005865  1
  O  O59  1  0.258656  0.949230  0.505865  1
  O  O60  1  0.450366  0.522617  0.230451  1
  O  O61  1  0.450366  0.977383  0.730451  1
  O  O62  1  0.480996  0.760323  0.502260  1
  O  O63  1  0.480996  0.739677  0.002260  1
  O  O64  1  0.519004  0.260323  0.997740  1
  O  O65  1  0.519004  0.239677  0.497740  1
  O  O66  1  0.549634  0.022617  0.269549  1
  O  O67  1  0.549634  0.477383  0.769549  1
  O  O68  1  0.741344  0.449230  0.994135  1
  O  O69  1  0.741344  0.050770  0.494135  1
  O  O70  1  0.735928  0.245153  0.275123  1
  O  O71  1  0.735928  0.254847  0.775123  1
  O  O72  1  0.764072  0.745153  0.275123  1
  O  O73  1  0.764072  0.754847  0.775123  1
  O  O74  1  0.758656  0.949230  0.994135  1
  O  O75  1  0.758656  0.550770  0.494135  1
  O  O76  1  0.950366  0.977383  0.769549  1
  O  O77  1  0.950366  0.522617  0.269549  1
  O  O78  1  0.980996  0.760323  0.997740  1
  O  O79  1  0.980996  0.739677  0.497740  1
