# generated using pymatgen
data_Li2Co3SnO8
_symmetry_space_group_name_H-M   'P 1'
_cell_length_a   8.26028842
_cell_length_b   8.28240426
_cell_length_c   8.29330319
_cell_angle_alpha   89.98486712
_cell_angle_beta   90.01100387
_cell_angle_gamma   89.99604228
_symmetry_Int_Tables_number   1
_chemical_formula_structural   Li2Co3SnO8
_chemical_formula_sum   'Li8 Co12 Sn4 O32'
_cell_volume   567.38670425
_cell_formula_units_Z   4
loop_
 _symmetry_equiv_pos_site_id
 _symmetry_equiv_pos_as_xyz
  1  'x, y, z'
loop_
 _atom_site_type_symbol
 _atom_site_label
 _atom_site_symmetry_multiplicity
 _atom_site_fract_x
 _atom_site_fract_y
 _atom_site_fract_z
 _atom_site_occupancy
  Li  Li0  1  0.000955  0.000198  0.999014  1
  Li  Li1  1  0.248774  0.251327  0.250004  1
  Li  Li2  1  0.247998  0.750049  0.749646  1
  Li  Li3  1  0.502219  0.999833  0.500276  1
  Li  Li4  1  0.500876  0.499857  0.001095  1
  Li  Li5  1  0.748788  0.248713  0.750042  1
  Li  Li6  1  0.747862  0.749935  0.250349  1
  Li  Li7  1  0.002291  0.500068  0.500004  1
  Co  Co8  1  0.115329  0.135925  0.624256  1
  Co  Co9  1  0.124833  0.385858  0.864262  1
  Co  Co10  1  0.134428  0.625951  0.114225  1
  Co  Co11  1  0.363174  0.375295  0.612933  1
  Co  Co12  1  0.375040  0.615013  0.365086  1
  Co  Co13  1  0.386928  0.862728  0.125257  1
  Co  Co14  1  0.615307  0.363916  0.375917  1
  Co  Co15  1  0.624766  0.114115  0.135821  1
  Co  Co16  1  0.634520  0.874165  0.885713  1
  Co  Co17  1  0.863220  0.124660  0.387015  1
  Co  Co18  1  0.875006  0.885009  0.634792  1
  Co  Co19  1  0.886955  0.637362  0.874585  1
  Sn  Sn20  1  0.125536  0.873518  0.376783  1
  Sn  Sn21  1  0.374900  0.124457  0.874508  1
  Sn  Sn22  1  0.625292  0.626484  0.623321  1
  Sn  Sn23  1  0.874724  0.375671  0.125417  1
  O  O24  1  0.096281  0.126956  0.390089  1
  O  O25  1  0.109248  0.901413  0.625978  1
  O  O26  1  0.112475  0.617784  0.884625  1
  O  O27  1  0.123659  0.151543  0.857610  1
  O  O28  1  0.125995  0.392381  0.098316  1
  O  O29  1  0.137416  0.365719  0.633099  1
  O  O30  1  0.140895  0.623950  0.348465  1
  O  O31  1  0.154029  0.860721  0.123666  1
  O  O32  1  0.349694  0.142901  0.621946  1
  O  O33  1  0.359525  0.377870  0.846614  1
  O  O34  1  0.367572  0.637263  0.134706  1
  O  O35  1  0.371804  0.606716  0.599625  1
  O  O36  1  0.378760  0.849737  0.357154  1
  O  O37  1  0.382709  0.384199  0.387213  1
  O  O38  1  0.389796  0.096257  0.127484  1
  O  O39  1  0.400438  0.871514  0.892532  1
  O  O40  1  0.596152  0.373000  0.610097  1
  O  O41  1  0.609278  0.598442  0.374210  1
  O  O42  1  0.612453  0.882232  0.115253  1
  O  O43  1  0.623480  0.348407  0.142577  1
  O  O44  1  0.626164  0.107732  0.901716  1
  O  O45  1  0.637363  0.134058  0.367068  1
  O  O46  1  0.640826  0.876143  0.651484  1
  O  O47  1  0.654039  0.639392  0.876359  1
  O  O48  1  0.849694  0.357026  0.378032  1
  O  O49  1  0.859446  0.122164  0.153487  1
  O  O50  1  0.867616  0.862855  0.865175  1
  O  O51  1  0.872021  0.893154  0.400260  1
  O  O52  1  0.878558  0.650354  0.642721  1
  O  O53  1  0.882695  0.115777  0.612658  1
  O  O54  1  0.889879  0.403782  0.872350  1
  O  O55  1  0.900326  0.628588  0.107250  1
