# generated using pymatgen
data_Na5Li3V8O24
_symmetry_space_group_name_H-M   'P 1'
_cell_length_a   7.03230970
_cell_length_b   7.03230970
_cell_length_c   11.82896050
_cell_angle_alpha   75.68210510
_cell_angle_beta   104.31789490
_cell_angle_gamma   96.90376237
_symmetry_Int_Tables_number   1
_chemical_formula_structural   Na5Li3V8O24
_chemical_formula_sum   'Na5 Li3 V8 O24'
_cell_volume   548.11850232
_cell_formula_units_Z   1
loop_
 _symmetry_equiv_pos_site_id
 _symmetry_equiv_pos_as_xyz
  1  'x, y, z'
loop_
 _atom_site_type_symbol
 _atom_site_label
 _atom_site_symmetry_multiplicity
 _atom_site_fract_x
 _atom_site_fract_y
 _atom_site_fract_z
 _atom_site_occupancy
  Na  Na0  1  0.712721  0.712721  0.875000  1
  Na  Na1  1  0.288266  0.289299  0.626253  1
  Na  Na2  1  0.710092  0.710092  0.375000  1
  Na  Na3  1  0.083228  0.083228  0.375000  1
  Na  Na4  1  0.289299  0.288266  0.123747  1
  Li  Li5  1  0.087445  0.087445  0.875000  1
  Li  Li6  1  0.911632  0.911361  0.626675  1
  Li  Li7  1  0.911361  0.911632  0.123325  1
  V  V8  1  0.196677  0.619186  0.873966  1
  V  V9  1  0.383845  0.801887  0.626935  1
  V  V10  1  0.197192  0.622010  0.373306  1
  V  V11  1  0.380687  0.803267  0.123646  1
  V  V12  1  0.619186  0.196677  0.876034  1
  V  V13  1  0.803267  0.380687  0.626354  1
  V  V14  1  0.622010  0.197192  0.376694  1
  V  V15  1  0.801887  0.383845  0.123065  1
  O  O16  1  0.023579  0.786482  0.824288  1
  O  O17  1  0.217602  0.974636  0.583784  1
  O  O18  1  0.017560  0.781224  0.318663  1
  O  O19  1  0.095938  0.389387  0.900771  1
  O  O20  1  0.354230  0.641209  0.768842  1
  O  O21  1  0.213747  0.976489  0.074323  1
  O  O22  1  0.613663  0.902713  0.653318  1
  O  O23  1  0.355295  0.653991  0.516043  1
  O  O24  1  0.094930  0.395289  0.406143  1
  O  O25  1  0.352323  0.642910  0.266707  1
  O  O26  1  0.641209  0.354230  0.981158  1
  O  O27  1  0.610610  0.904129  0.150706  1
  O  O28  1  0.389387  0.095938  0.849229  1
  O  O29  1  0.355301  0.647965  0.017051  1
  O  O30  1  0.647965  0.355301  0.732949  1
  O  O31  1  0.904129  0.610610  0.599294  1
  O  O32  1  0.642910  0.352323  0.483293  1
  O  O33  1  0.395289  0.094930  0.343857  1
  O  O34  1  0.786482  0.023579  0.925712  1
  O  O35  1  0.653991  0.355295  0.233957  1
  O  O36  1  0.902713  0.613663  0.096682  1
  O  O37  1  0.976489  0.213747  0.675677  1
  O  O38  1  0.781224  0.017560  0.431337  1
  O  O39  1  0.974636  0.217602  0.166216  1
