# generated using pymatgen
data_Li2MnAl2O6
_symmetry_space_group_name_H-M   'P 1'
_cell_length_a   4.96237499
_cell_length_b   4.91543455
_cell_length_c   10.14247642
_cell_angle_alpha   90.00000000
_cell_angle_beta   90.00000000
_cell_angle_gamma   59.68360243
_symmetry_Int_Tables_number   1
_chemical_formula_structural   Li2MnAl2O6
_chemical_formula_sum   'Li4 Mn2 Al4 O12'
_cell_volume   213.56626687
_cell_formula_units_Z   2
loop_
 _symmetry_equiv_pos_site_id
 _symmetry_equiv_pos_as_xyz
  1  'x, y, z'
loop_
 _atom_site_type_symbol
 _atom_site_label
 _atom_site_symmetry_multiplicity
 _atom_site_fract_x
 _atom_site_fract_y
 _atom_site_fract_z
 _atom_site_occupancy
  Li  Li0  1  0.158696  0.500000  0.750000  1
  Li  Li1  1  0.841304  0.500000  0.250000  1
  Li  Li2  1  0.341304  0.500000  0.250000  1
  Li  Li3  1  0.658696  0.500000  0.750000  1
  Mn  Mn4  1  0.500000  0.000000  0.500000  1
  Mn  Mn5  1  0.000000  0.000000  0.000000  1
  Al  Al6  1  0.663260  0.673481  0.000000  1
  Al  Al7  1  0.163260  0.673481  0.500000  1
  Al  Al8  1  0.336740  0.326519  0.000000  1
  Al  Al9  1  0.836740  0.326519  0.500000  1
  O  O10  1  0.509127  0.655066  0.398088  1
  O  O11  1  0.009127  0.655066  0.101912  1
  O  O12  1  0.335808  0.655066  0.898087  1
  O  O13  1  0.835808  0.655066  0.601913  1
  O  O14  1  0.990873  0.344934  0.898087  1
  O  O15  1  0.490873  0.344934  0.601913  1
  O  O16  1  0.664192  0.344934  0.101912  1
  O  O17  1  0.164192  0.344934  0.398088  1
  O  O18  1  0.332128  1.000000  0.095530  1
  O  O19  1  0.167872  0.000000  0.595530  1
  O  O20  1  0.667872  0.000000  0.904470  1
  O  O21  1  0.832128  1.000000  0.404470  1
