# generated using pymatgen
data_Th4Ta18O53
_symmetry_space_group_name_H-M   'P 1'
_cell_length_a   6.41396823
_cell_length_b   6.41390986
_cell_length_c   28.11237389
_cell_angle_alpha   90.00034367
_cell_angle_beta   89.99943896
_cell_angle_gamma   120.00338707
_symmetry_Int_Tables_number   1
_chemical_formula_structural   Th4Ta18O53
_chemical_formula_sum   'Th4 Ta18 O53'
_cell_volume   1001.52774576
_cell_formula_units_Z   1
loop_
 _symmetry_equiv_pos_site_id
 _symmetry_equiv_pos_as_xyz
  1  'x, y, z'
loop_
 _atom_site_type_symbol
 _atom_site_label
 _atom_site_symmetry_multiplicity
 _atom_site_fract_x
 _atom_site_fract_y
 _atom_site_fract_z
 _atom_site_occupancy
  Th  Th0  1  0.333284  0.666648  0.993174  1
  Th  Th1  1  0.333416  0.666727  0.501459  1
  Th  Th2  1  0.666619  0.333320  0.998948  1
  Th  Th3  1  0.666739  0.333411  0.501465  1
  Ta  Ta4  1  0.964912  0.653654  0.114109  1
  Ta  Ta5  1  0.000025  0.650639  0.387986  1
  Ta  Ta6  1  0.000871  0.644087  0.251913  1
  Ta  Ta7  1  0.999984  0.354189  0.748757  1
  Ta  Ta8  1  0.999997  0.349062  0.613096  1
  Ta  Ta9  1  0.997684  0.348488  0.885343  1
  Ta  Ta10  1  0.346315  0.311245  0.114111  1
  Ta  Ta11  1  0.349388  0.349378  0.387992  1
  Ta  Ta12  1  0.355934  0.356793  0.251917  1
  Ta  Ta13  1  0.645680  0.645685  0.748761  1
  Ta  Ta14  1  0.651471  0.649197  0.885347  1
  Ta  Ta15  1  0.650912  0.650911  0.613102  1
  Ta  Ta16  1  0.350740  0.002273  0.885342  1
  Ta  Ta17  1  0.349054  -0.000002  0.613097  1
  Ta  Ta18  1  0.354228  0.999978  0.748754  1
  Ta  Ta19  1  0.643226  0.999138  0.251915  1
  Ta  Ta20  1  0.688738  0.035060  0.114107  1
  Ta  Ta21  1  0.650653  0.000007  0.387985  1
  O  O22  1  0.999964  0.758716  0.749965  1
  O  O23  1  0.000918  0.757559  0.888404  1
  O  O24  1  0.000002  0.758841  0.611854  1
  O  O25  1  0.008712  0.610671  0.177414  1
  O  O26  1  0.999672  0.610026  0.319062  1
  O  O27  1  0.022408  0.611635  0.046605  1
  O  O28  1  0.000055  0.619331  0.458536  1
  O  O29  1  0.000073  0.379846  0.540848  1
  O  O30  1  0.989597  0.371525  0.960669  1
  O  O31  1  0.000203  0.390113  0.820037  1
  O  O32  1  0.000003  0.390708  0.680130  1
  O  O33  1  0.020608  0.269618  0.111968  1
  O  O34  1  0.000060  0.240595  0.387904  1
  O  O35  1  0.999908  0.242702  0.249203  1
  O  O36  1  0.333321  0.666664  0.248247  1
  O  O37  1  0.333352  0.666681  0.604674  1
  O  O38  1  0.333310  0.666661  0.898308  1
  O  O39  1  0.333327  0.666685  0.750661  1
  O  O40  1  0.333363  0.666688  0.393480  1
  O  O41  1  0.241484  0.241452  0.749962  1
  O  O42  1  0.241189  0.241180  0.611853  1
  O  O43  1  0.242390  0.243353  0.888405  1
  O  O44  1  0.389309  0.398032  0.177416  1
  O  O45  1  0.389977  0.389644  0.319066  1
  O  O46  1  0.380740  0.380717  0.458542  1
  O  O47  1  0.388309  0.410802  0.046610  1
  O  O48  1  0.242783  0.000087  0.249204  1
  O  O49  1  0.240532  0.999973  0.387905  1
  O  O50  1  0.248958  0.979364  0.111964  1
  O  O51  1  0.620297  0.620297  0.540848  1
  O  O52  1  0.628391  0.618079  0.960667  1
  O  O53  1  0.609221  0.609227  0.680132  1
  O  O54  1  0.609786  0.610021  0.820042  1
  O  O55  1  0.730374  0.750999  0.111969  1
  O  O56  1  0.759448  0.759483  0.387908  1
  O  O57  1  0.757275  0.757186  0.249201  1
  O  O58  1  0.390741  0.999997  0.680128  1
  O  O59  1  0.389912  0.999747  0.820038  1
  O  O60  1  0.379836  0.000056  0.540848  1
  O  O61  1  0.381854  0.010332  0.960668  1
  O  O62  1  0.666684  0.333347  0.604674  1
  O  O63  1  0.666682  0.333331  0.750655  1
  O  O64  1  0.666644  0.333312  0.896081  1
  O  O65  1  0.666671  0.333327  0.246718  1
  O  O66  1  0.666633  0.333305  0.104468  1
  O  O67  1  0.666680  0.333345  0.393470  1
  O  O68  1  0.589147  0.977516  0.046608  1
  O  O69  1  0.619363  0.000076  0.458537  1
  O  O70  1  0.601939  0.991260  0.177414  1
  O  O71  1  0.610345  0.000337  0.319063  1
  O  O72  1  0.756630  0.999029  0.888404  1
  O  O73  1  0.758861  0.000007  0.611854  1
  O  O74  1  0.758689  0.000025  0.749963  1
