# generated using pymatgen
data_Pb(BrO3)2
_symmetry_space_group_name_H-M   'P 1'
_cell_length_a   16.51975778
_cell_length_b   5.71542283
_cell_length_c   6.31381333
_cell_angle_alpha   90.00063913
_cell_angle_beta   89.99434947
_cell_angle_gamma   90.00431214
_symmetry_Int_Tables_number   1
_chemical_formula_structural   Pb(BrO3)2
_chemical_formula_sum   'Pb4 Br8 O24'
_cell_volume   596.13383918
_cell_formula_units_Z   4
loop_
 _symmetry_equiv_pos_site_id
 _symmetry_equiv_pos_as_xyz
  1  'x, y, z'
loop_
 _atom_site_type_symbol
 _atom_site_label
 _atom_site_symmetry_multiplicity
 _atom_site_fract_x
 _atom_site_fract_y
 _atom_site_fract_z
 _atom_site_occupancy
  Pb  Pb0  1  0.000046  0.259311  0.249908  1
  Pb  Pb1  1  0.999923  0.740819  0.750164  1
  Pb  Pb2  1  0.500093  0.240734  0.749862  1
  Pb  Pb3  1  0.499976  0.759229  0.250054  1
  Br  Br4  1  0.153753  0.261810  0.716872  1
  Br  Br5  1  0.153768  0.738212  0.216870  1
  Br  Br6  1  0.346256  0.238180  0.216821  1
  Br  Br7  1  0.346260  0.761773  0.716892  1
  Br  Br8  1  0.653749  0.238188  0.283150  1
  Br  Br9  1  0.653767  0.761796  0.783187  1
  Br  Br10  1  0.846225  0.261801  0.783118  1
  Br  Br11  1  0.846251  0.738108  0.283132  1
  O  O12  1  0.068632  0.605863  0.103928  1
  O  O13  1  0.068644  0.394150  0.603996  1
  O  O14  1  0.109869  0.899691  0.412540  1
  O  O15  1  0.109846  0.100282  0.912575  1
  O  O16  1  0.204683  0.522122  0.332124  1
  O  O17  1  0.204697  0.477937  0.832112  1
  O  O18  1  0.295292  0.977922  0.832150  1
  O  O19  1  0.295307  0.022115  0.332129  1
  O  O20  1  0.390127  0.399647  0.412548  1
  O  O21  1  0.390136  0.600293  0.912573  1
  O  O22  1  0.431364  0.105899  0.103942  1
  O  O23  1  0.431355  0.894084  0.603959  1
  O  O24  1  0.568647  0.106014  0.396061  1
  O  O25  1  0.568647  0.894075  0.895985  1
  O  O26  1  0.609867  0.399582  0.087481  1
  O  O27  1  0.609872  0.600351  0.587513  1
  O  O28  1  0.704684  0.977862  0.667837  1
  O  O29  1  0.704703  0.022147  0.167815  1
  O  O30  1  0.795302  0.522134  0.167848  1
  O  O31  1  0.795307  0.477856  0.667853  1
  O  O32  1  0.890158  0.100345  0.587490  1
  O  O33  1  0.890139  0.899631  0.087467  1
  O  O34  1  0.931318  0.394071  0.896010  1
  O  O35  1  0.931337  0.605965  0.396035  1
