# generated using pymatgen
data_Cs3GaO3
_symmetry_space_group_name_H-M   'P 1'
_cell_length_a   11.60671247
_cell_length_b   7.26259781
_cell_length_c   8.10963161
_cell_angle_alpha   90.00000000
_cell_angle_beta   96.91956854
_cell_angle_gamma   90.00000000
_symmetry_Int_Tables_number   1
_chemical_formula_structural   Cs3GaO3
_chemical_formula_sum   'Cs12 Ga4 O12'
_cell_volume   678.62128808
_cell_formula_units_Z   4
loop_
 _symmetry_equiv_pos_site_id
 _symmetry_equiv_pos_as_xyz
  1  'x, y, z'
loop_
 _atom_site_type_symbol
 _atom_site_label
 _atom_site_symmetry_multiplicity
 _atom_site_fract_x
 _atom_site_fract_y
 _atom_site_fract_z
 _atom_site_occupancy
  Cs  Cs0  1  0.072708  0.328848  0.656580  1
  Cs  Cs1  1  0.155263  0.627117  0.044579  1
  Cs  Cs2  1  0.195595  0.821513  0.627953  1
  Cs  Cs3  1  0.304405  0.321513  0.372047  1
  Cs  Cs4  1  0.344737  0.127117  0.955421  1
  Cs  Cs5  1  0.427292  0.828848  0.343420  1
  Cs  Cs6  1  0.572708  0.171152  0.656580  1
  Cs  Cs7  1  0.655263  0.872883  0.044579  1
  Cs  Cs8  1  0.695595  0.678487  0.627953  1
  Cs  Cs9  1  0.804405  0.178487  0.372047  1
  Cs  Cs10  1  0.844737  0.372883  0.955421  1
  Cs  Cs11  1  0.927292  0.671152  0.343420  1
  Ga  Ga12  1  0.063363  0.077570  0.148094  1
  Ga  Ga13  1  0.436637  0.577569  0.851906  1
  Ga  Ga14  1  0.563363  0.422431  0.148094  1
  Ga  Ga15  1  0.936637  0.922431  0.851906  1
  O  O16  1  0.039189  0.312330  0.232600  1
  O  O17  1  0.082988  0.056596  0.909029  1
  O  O18  1  0.179954  0.949580  0.279255  1
  O  O19  1  0.320046  0.449580  0.720746  1
  O  O20  1  0.417012  0.556596  0.090971  1
  O  O21  1  0.460811  0.812330  0.767400  1
  O  O22  1  0.539189  0.187670  0.232600  1
  O  O23  1  0.582988  0.443404  0.909029  1
  O  O24  1  0.679954  0.550420  0.279255  1
  O  O25  1  0.820046  0.050420  0.720746  1
  O  O26  1  0.917012  0.943404  0.090971  1
  O  O27  1  0.960811  0.687670  0.767400  1
