# generated using pymatgen
data_Li3Co13O5F19
_symmetry_space_group_name_H-M   'P 1'
_cell_length_a   6.15756488
_cell_length_b   6.12616423
_cell_length_c   12.24860409
_cell_angle_alpha   91.14042520
_cell_angle_beta   91.15064006
_cell_angle_gamma   91.13516771
_symmetry_Int_Tables_number   1
_chemical_formula_structural   Li3Co13O5F19
_chemical_formula_sum   'Li3 Co13 O5 F19'
_cell_volume   461.76586302
_cell_formula_units_Z   1
loop_
 _symmetry_equiv_pos_site_id
 _symmetry_equiv_pos_as_xyz
  1  'x, y, z'
loop_
 _atom_site_type_symbol
 _atom_site_label
 _atom_site_symmetry_multiplicity
 _atom_site_fract_x
 _atom_site_fract_y
 _atom_site_fract_z
 _atom_site_occupancy
  Li  Li0  1  0.509252  0.492465  0.745828  1
  Li  Li1  1  0.509001  0.495592  0.247184  1
  Li  Li2  1  0.013907  0.990080  0.501014  1
  Co  Co3  1  0.058147  0.744728  0.287485  1
  Co  Co4  1  0.060646  0.736886  0.780423  1
  Co  Co5  1  0.401428  0.939185  0.630976  1
  Co  Co6  1  0.419020  0.929433  0.129336  1
  Co  Co7  1  0.244934  0.453991  0.464472  1
  Co  Co8  1  0.245539  0.455017  0.961435  1
  Co  Co9  1  0.989618  0.974163  0.012078  1
  Co  Co10  1  0.776660  0.595598  0.524711  1
  Co  Co11  1  0.757174  0.601583  0.023800  1
  Co  Co12  1  0.576981  0.057996  0.888335  1
  Co  Co13  1  0.577071  0.071324  0.379912  1
  Co  Co14  1  0.944916  0.219525  0.702543  1
  Co  Co15  1  0.947372  0.229994  0.208791  1
  O  O16  1  0.099967  0.948708  0.666815  1
  O  O17  1  0.111359  0.956691  0.168752  1
  O  O18  1  0.036587  0.680630  0.442725  1
  O  O19  1  0.035472  0.681217  0.939294  1
  O  O20  1  0.662374  0.909383  0.026927  1
  F  F21  1  0.438318  0.806662  0.798799  1
  F  F22  1  0.443554  0.807182  0.299814  1
  F  F23  1  0.189697  0.412950  0.778401  1
  F  F24  1  0.193226  0.413412  0.283786  1
  F  F25  1  0.670079  0.915926  0.526569  1
  F  F26  1  0.422102  0.592266  0.595408  1
  F  F27  1  0.412978  0.570219  0.097366  1
  F  F28  1  0.570734  0.412091  0.907220  1
  F  F29  1  0.578638  0.419852  0.411319  1
  F  F30  1  0.287944  0.121891  0.970195  1
  F  F31  1  0.311726  0.117233  0.474509  1
  F  F32  1  0.812490  0.571086  0.201940  1
  F  F33  1  0.809710  0.560890  0.696606  1
  F  F34  1  0.593200  0.176070  0.711852  1
  F  F35  1  0.595909  0.185294  0.217262  1
  F  F36  1  0.955280  0.305638  0.543657  1
  F  F37  1  0.945512  0.316297  0.048242  1
  F  F38  1  0.895670  0.064602  0.352530  1
  F  F39  1  0.895809  0.066248  0.851691  1
