# generated using pymatgen
data_LiCo2OF5
_symmetry_space_group_name_H-M   'P 1'
_cell_length_a   8.62437403
_cell_length_b   8.51243063
_cell_length_c   4.49947886
_cell_angle_alpha   91.97376344
_cell_angle_beta   88.93696134
_cell_angle_gamma   119.51925174
_symmetry_Int_Tables_number   1
_chemical_formula_structural   LiCo2OF5
_chemical_formula_sum   'Li3 Co6 O3 F15'
_cell_volume   287.27584191
_cell_formula_units_Z   3
loop_
 _symmetry_equiv_pos_site_id
 _symmetry_equiv_pos_as_xyz
  1  'x, y, z'
loop_
 _atom_site_type_symbol
 _atom_site_label
 _atom_site_symmetry_multiplicity
 _atom_site_fract_x
 _atom_site_fract_y
 _atom_site_fract_z
 _atom_site_occupancy
  Li  Li0  1  0.336152  0.666179  0.494351  1
  Li  Li1  1  0.002801  0.001033  0.007874  1
  Li  Li2  1  0.668219  0.335731  0.489834  1
  Co  Co3  1  0.007359  0.648255  0.988117  1
  Co  Co4  1  0.003875  0.328483  0.514086  1
  Co  Co5  1  0.352930  0.342067  0.986599  1
  Co  Co6  1  0.325624  0.010479  0.512869  1
  Co  Co7  1  0.687646  0.692996  0.513203  1
  Co  Co8  1  0.658781  0.995220  0.985924  1
  O  O9  1  0.094057  0.537105  0.743676  1
  O  O10  1  0.427399  0.219405  0.737237  1
  O  O11  1  0.761620  0.887200  0.765385  1
  F  F12  1  0.107548  0.880231  0.764096  1
  F  F13  1  0.218784  0.782427  0.272631  1
  F  F14  1  0.434903  0.891737  0.744431  1
  F  F15  1  0.112315  0.223135  0.765738  1
  F  F16  1  0.226761  0.432834  0.252599  1
  F  F17  1  0.559752  0.783800  0.261686  1
  F  F18  1  0.226439  0.116678  0.238211  1
  F  F19  1  0.451317  0.560657  0.742749  1
  F  F20  1  0.564568  0.464211  0.263652  1
  F  F21  1  0.547864  0.100949  0.243786  1
  F  F22  1  0.893919  0.768167  0.230582  1
  F  F23  1  0.781805  0.561135  0.737921  1
  F  F24  1  0.770226  0.215233  0.735651  1
  F  F25  1  0.891575  0.437167  0.257149  1
  F  F26  1  0.885658  0.117486  0.249963  1
