# generated using pymatgen
data_Mn12O5F19
_symmetry_space_group_name_H-M   'P 1'
_cell_length_a   5.32476467
_cell_length_b   5.37737248
_cell_length_c   15.38662742
_cell_angle_alpha   94.04919723
_cell_angle_beta   89.36452537
_cell_angle_gamma   88.68971145
_symmetry_Int_Tables_number   1
_chemical_formula_structural   Mn12O5F19
_chemical_formula_sum   'Mn12 O5 F19'
_cell_volume   439.31871386
_cell_formula_units_Z   1
loop_
 _symmetry_equiv_pos_site_id
 _symmetry_equiv_pos_as_xyz
  1  'x, y, z'
loop_
 _atom_site_type_symbol
 _atom_site_label
 _atom_site_symmetry_multiplicity
 _atom_site_fract_x
 _atom_site_fract_y
 _atom_site_fract_z
 _atom_site_occupancy
  Mn  Mn0  1  0.005208  0.939023  0.990987  1
  Mn  Mn1  1  0.981511  0.453492  0.173865  1
  Mn  Mn2  1  0.995285  0.941515  0.333352  1
  Mn  Mn3  1  0.019649  0.471863  0.494464  1
  Mn  Mn4  1  0.940167  0.039400  0.672497  1
  Mn  Mn5  1  0.066063  0.496746  0.836650  1
  Mn  Mn6  1  0.501237  0.110139  0.167045  1
  Mn  Mn7  1  0.498971  0.530539  0.989748  1
  Mn  Mn8  1  0.437775  0.491424  0.672530  1
  Mn  Mn9  1  0.529161  0.010331  0.518959  1
  Mn  Mn10  1  0.468119  0.581302  0.322508  1
  Mn  Mn11  1  0.462194  0.011137  0.836069  1
  O  O12  1  0.158553  0.654719  0.262192  1
  O  O13  1  0.272926  0.724557  0.901312  1
  O  O14  1  0.304773  0.296202  0.761591  1
  O  O15  1  0.661771  0.256777  0.618001  1
  O  O16  1  0.653981  0.375318  0.237008  1
  F  F17  1  0.170442  0.148687  0.239104  1
  F  F18  1  0.348452  0.877068  0.078299  1
  F  F19  1  0.176679  0.204778  0.577385  1
  F  F20  1  0.306731  0.845138  0.412053  1
  F  F21  1  0.170627  0.238571  0.930016  1
  F  F22  1  0.167524  0.749116  0.722796  1
  F  F23  1  0.306355  0.382128  0.099631  1
  F  F24  1  0.378534  0.668116  0.564834  1
  F  F25  1  0.301917  0.338435  0.406599  1
  F  F26  1  0.658960  0.170328  0.945244  1
  F  F27  1  0.830651  0.644959  0.068196  1
  F  F28  1  0.781445  0.641923  0.396289  1
  F  F29  1  0.656772  0.793923  0.732224  1
  F  F30  1  0.813853  0.151522  0.433330  1
  F  F31  1  0.836085  0.148714  0.100523  1
  F  F32  1  0.820399  0.263213  0.786036  1
  F  F33  1  0.863954  0.785499  0.563326  1
  F  F34  1  0.786152  0.681042  0.899260  1
  F  F35  1  0.667122  0.882355  0.256075  1
