# generated using pymatgen
data_Li3Cr3NiO8
_symmetry_space_group_name_H-M   'P 1'
_cell_length_a   10.25329246
_cell_length_b   10.25325484
_cell_length_c   14.51657790
_cell_angle_alpha   19.28724135
_cell_angle_beta   19.28715423
_cell_angle_gamma   33.24364370
_symmetry_Int_Tables_number   1
_chemical_formula_structural   Li3Cr3NiO8
_chemical_formula_sum   'Li3 Cr3 Ni1 O8'
_cell_volume   144.19158403
_cell_formula_units_Z   1
loop_
 _symmetry_equiv_pos_site_id
 _symmetry_equiv_pos_as_xyz
  1  'x, y, z'
loop_
 _atom_site_type_symbol
 _atom_site_label
 _atom_site_symmetry_multiplicity
 _atom_site_fract_x
 _atom_site_fract_y
 _atom_site_fract_z
 _atom_site_occupancy
  Li  Li0  1  0.999988  0.499985  0.500019  1
  Li  Li1  1  0.499984  0.999982  0.500022  1
  Li  Li2  1  0.499994  0.499991  0.500010  1
  Cr  Cr3  1  0.999998  0.499997  -0.000003  1
  Cr  Cr4  1  0.500036  0.000046  -0.000055  1
  Cr  Cr5  1  0.500012  0.500029  -0.000025  1
  Ni  Ni6  1  0.999999  0.000003  0.000002  1
  O  O7  1  0.000021  0.000012  0.257721  1
  O  O8  1  0.000012  0.523873  0.246251  1
  O  O9  1  0.523878  0.000007  0.246251  1
  O  O10  1  0.999978  0.999975  0.742288  1
  O  O11  1  0.476189  0.476188  0.293919  1
  O  O12  1  0.999992  0.476121  0.753751  1
  O  O13  1  0.476120  0.999990  0.753753  1
  O  O14  1  0.523799  0.523801  0.706096  1
