# generated using pymatgen
data_LiCrPO4
_symmetry_space_group_name_H-M   'P 1'
_cell_length_a   10.09264016
_cell_length_b   10.14694372
_cell_length_c   17.64976412
_cell_angle_alpha   106.85802439
_cell_angle_beta   106.60547613
_cell_angle_gamma   60.21243190
_symmetry_Int_Tables_number   1
_chemical_formula_structural   LiCrPO4
_chemical_formula_sum   'Li16 Cr16 P16 O64'
_cell_volume   1479.25833384
_cell_formula_units_Z   16
loop_
 _symmetry_equiv_pos_site_id
 _symmetry_equiv_pos_as_xyz
  1  'x, y, z'
loop_
 _atom_site_type_symbol
 _atom_site_label
 _atom_site_symmetry_multiplicity
 _atom_site_fract_x
 _atom_site_fract_y
 _atom_site_fract_z
 _atom_site_occupancy
  Li  Li0  1  0.634157  0.998137  0.184841  1
  Li  Li1  1  0.060205  0.994194  0.687133  1
  Li  Li2  1  0.818123  0.880731  0.438637  1
  Li  Li3  1  0.377810  0.820492  0.437327  1
  Li  Li4  1  0.743155  0.877165  0.938111  1
  Li  Li5  1  0.238628  0.821238  0.937673  1
  Li  Li6  1  0.128956  0.563044  0.187366  1
  Li  Li7  1  0.632544  0.497208  0.185710  1
  Li  Li8  1  0.000037  0.557913  0.685588  1
  Li  Li9  1  0.555625  0.493762  0.685898  1
  Li  Li10  1  0.321507  0.378514  0.438558  1
  Li  Li11  1  0.874755  0.319177  0.437098  1
  Li  Li12  1  0.739253  0.379200  0.938738  1
  Li  Li13  1  0.243504  0.317777  0.937752  1
  Li  Li14  1  0.126451  0.058686  0.186562  1
  Li  Li15  1  0.500315  0.058159  0.687164  1
  Cr  Cr16  1  0.501317  0.933272  0.308269  1
  Cr  Cr17  1  0.369220  0.990358  0.816713  1
  Cr  Cr18  1  0.870146  0.942112  0.811650  1
  Cr  Cr19  1  0.759235  0.673751  0.062237  1
  Cr  Cr20  1  0.260902  0.625006  0.061566  1
  Cr  Cr21  1  0.130143  0.672814  0.560040  1
  Cr  Cr22  1  0.677410  0.626822  0.563474  1
  Cr  Cr23  1  0.457853  0.493155  0.316329  1
  Cr  Cr24  1  0.000306  0.440554  0.310448  1
  Cr  Cr25  1  0.365217  0.497728  0.815993  1
  Cr  Cr26  1  0.874510  0.434239  0.809737  1
  Cr  Cr27  1  0.758556  0.174122  0.060692  1
  Cr  Cr28  1  0.259331  0.128540  0.064660  1
  Cr  Cr29  1  0.627662  0.173065  0.560358  1
  Cr  Cr30  1  0.175292  0.125891  0.561853  1
  Cr  Cr31  1  0.957237  0.995180  0.315871  1
  P  P32  1  0.941093  0.873081  0.123682  1
  P  P33  1  0.436865  0.817271  0.124368  1
  P  P34  1  0.811447  0.876658  0.624825  1
  P  P35  1  0.372930  0.812650  0.625523  1
  P  P36  1  0.129109  0.681157  0.371400  1
  P  P37  1  0.685353  0.627466  0.373388  1
  P  P38  1  0.565190  0.678364  0.872709  1
  P  P39  1  0.061007  0.627992  0.872554  1
  P  P40  1  0.938708  0.377406  0.124976  1
  P  P41  1  0.442042  0.313685  0.125474  1
  P  P42  1  0.309675  0.372213  0.623757  1
  P  P43  1  0.871472  0.315080  0.625243  1
  P  P44  1  0.628419  0.178894  0.370451  1
  P  P45  1  0.184175  0.129118  0.373167  1
  P  P46  1  0.560404  0.181119  0.871273  1
  P  P47  1  0.062428  0.126832  0.874216  1
  O  O48  1  0.346522  0.988390  0.383875  1
  O  O49  1  0.334521  0.880805  0.046741  1
  O  O50  1  0.868023  0.916999  0.199183  1
  O  O51  1  0.358553  0.932971  0.197165  1
  O  O52  1  0.832474  0.834721  0.048520  1
  O  O53  1  0.601342  0.805465  0.137089  1
  O  O54  1  0.985851  0.842578  0.382751  1
  O  O55  1  0.050698  0.986466  0.884817  1
  O  O56  1  0.335667  0.877407  0.548257  1
  O  O57  1  0.409814  0.924463  0.698980  1
  O  O58  1  0.913146  0.927049  0.700084  1
  O  O59  1  0.103210  0.731970  0.135367  1
  O  O60  1  0.884014  0.836439  0.549909  1
  O  O61  1  0.700113  0.769607  0.368570  1
  O  O62  1  0.230562  0.801709  0.636342  1
  O  O63  1  0.455786  0.653477  0.119683  1
  O  O64  1  0.561583  0.837588  0.881204  1
  O  O65  1  0.268479  0.700078  0.365218  1
  O  O66  1  0.803948  0.735185  0.638041  1
  O  O67  1  0.605604  0.662496  0.445481  1
  O  O68  1  0.899425  0.770400  0.868178  1
  O  O69  1  0.092007  0.574234  0.294221  1
  O  O70  1  0.577648  0.592431  0.295386  1
  O  O71  1  0.168534  0.602212  0.443933  1
  O  O72  1  0.964622  0.510218  0.115278  1
  O  O73  1  0.512804  0.648515  0.620156  1
  O  O74  1  0.399031  0.702653  0.867365  1
  O  O75  1  0.178592  0.663260  0.943719  1
  O  O76  1  0.846028  0.485293  0.383281  1
  O  O77  1  0.340534  0.377349  0.047724  1
  O  O78  1  0.365381  0.426559  0.198434  1
  O  O79  1  0.859378  0.429838  0.199750  1
  O  O80  1  0.123947  0.591808  0.793868  1
  O  O81  1  0.632806  0.564796  0.796952  1
  O  O82  1  0.142479  0.506154  0.613142  1
  O  O83  1  0.674654  0.604059  0.946747  1
  O  O84  1  0.831779  0.337569  0.049646  1
  O  O85  1  0.606853  0.301684  0.137506  1
  O  O86  1  0.051898  0.486559  0.883848  1
  O  O87  1  0.482525  0.338649  0.379571  1
  O  O88  1  0.833843  0.377379  0.547031  1
  O  O89  1  0.412681  0.418033  0.699583  1
  O  O90  1  0.903615  0.433208  0.697611  1
  O  O91  1  0.098991  0.235431  0.139196  1
  O  O92  1  0.197704  0.273132  0.370183  1
  O  O93  1  0.382323  0.335548  0.549060  1
  O  O94  1  0.459361  0.150039  0.120126  1
  O  O95  1  0.732036  0.301297  0.636911  1
  O  O96  1  0.553911  0.342135  0.882129  1
  O  O97  1  0.765174  0.201866  0.364126  1
  O  O98  1  0.303789  0.228893  0.635235  1
  O  O99  1  0.102108  0.160297  0.443568  1
  O  O100  1  0.900213  0.269036  0.868622  1
  O  O101  1  0.078833  0.093727  0.294311  1
  O  O102  1  0.598053  0.065045  0.295548  1
  O  O103  1  0.961998  0.009379  0.114390  1
  O  O104  1  0.667192  0.105799  0.445239  1
  O  O105  1  0.013643  0.152757  0.621929  1
  O  O106  1  0.395903  0.199838  0.864642  1
  O  O107  1  0.178006  0.162483  0.946510  1
  O  O108  1  0.628355  0.072359  0.794837  1
  O  O109  1  0.129211  0.088118  0.796792  1
  O  O110  1  0.671734  0.104235  0.944815  1
  O  O111  1  0.643682  0.010329  0.614869  1
