# generated using pymatgen
data_NaLi2FePCO7
_symmetry_space_group_name_H-M   'P 1'
_cell_length_a   8.62895679
_cell_length_b   6.59100228
_cell_length_c   10.13978377
_cell_angle_alpha   89.98149644
_cell_angle_beta   87.57904004
_cell_angle_gamma   90.70304019
_symmetry_Int_Tables_number   1
_chemical_formula_structural   NaLi2FePCO7
_chemical_formula_sum   'Na4 Li8 Fe4 P4 C4 O28'
_cell_volume   576.12642558
_cell_formula_units_Z   4
loop_
 _symmetry_equiv_pos_site_id
 _symmetry_equiv_pos_as_xyz
  1  'x, y, z'
loop_
 _atom_site_type_symbol
 _atom_site_label
 _atom_site_symmetry_multiplicity
 _atom_site_fract_x
 _atom_site_fract_y
 _atom_site_fract_z
 _atom_site_occupancy
  Na  Na0  1  0.083619  0.256083  0.379044  1
  Na  Na1  1  0.255761  0.999722  0.626812  1
  Na  Na2  1  0.258213  0.999793  0.124599  1
  Na  Na3  1  0.743599  0.502850  0.373296  1
  Li  Li4  1  0.078679  0.263876  0.875071  1
  Li  Li5  1  0.274028  0.480829  0.621751  1
  Li  Li6  1  0.274961  0.481096  0.118354  1
  Li  Li7  1  0.733093  0.511376  0.878879  1
  Li  Li8  1  0.731758  0.983519  0.880388  1
  Li  Li9  1  0.726578  0.981921  0.378910  1
  Li  Li10  1  0.912799  0.743556  0.628077  1
  Li  Li11  1  0.910077  0.749276  0.121252  1
  Fe  Fe12  1  0.345238  0.746342  0.890785  1
  Fe  Fe13  1  0.351042  0.743440  0.392666  1
  Fe  Fe14  1  0.651897  0.246050  0.611512  1
  Fe  Fe15  1  0.655773  0.250712  0.104233  1
  P  P16  1  0.409803  0.254798  0.852036  1
  P  P17  1  0.417372  0.246648  0.352519  1
  P  P18  1  0.592054  0.745108  0.650221  1
  P  P19  1  0.591928  0.750223  0.142873  1
  C  C20  1  0.038757  0.747039  0.862741  1
  C  C21  1  0.045491  0.756137  0.360511  1
  C  C22  1  0.948582  0.258125  0.647310  1
  C  C23  1  0.955605  0.258376  0.132202  1
  O  O24  1  0.097052  0.276546  0.662196  1
  O  O25  1  0.102795  0.277124  0.149214  1
  O  O26  1  0.086090  0.752743  0.983212  1
  O  O27  1  0.086941  0.751182  0.482887  1
  O  O28  1  0.141012  0.739638  0.764159  1
  O  O29  1  0.150766  0.732770  0.265313  1
  O  O30  1  0.313520  0.059639  0.888530  1
  O  O31  1  0.308514  0.432508  0.907794  1
  O  O32  1  0.313950  0.056115  0.386804  1
  O  O33  1  0.325443  0.430334  0.412466  1
  O  O34  1  0.427337  0.273379  0.698450  1
  O  O35  1  0.429226  0.731686  0.591911  1
  O  O36  1  0.433450  0.271871  0.199647  1
  O  O37  1  0.428462  0.729626  0.086788  1
  O  O38  1  0.574167  0.254672  0.908099  1
  O  O39  1  0.573686  0.754919  0.804245  1
  O  O40  1  0.579310  0.228829  0.410037  1
  O  O41  1  0.574366  0.768314  0.296364  1
  O  O42  1  0.695819  0.561028  0.610078  1
  O  O43  1  0.687169  0.932384  0.596770  1
  O  O44  1  0.697978  0.566388  0.104990  1
  O  O45  1  0.684868  0.936813  0.085540  1
  O  O46  1  0.854648  0.242299  0.750854  1
  O  O47  1  0.857942  0.244075  0.234101  1
  O  O48  1  0.891462  0.254459  0.530586  1
  O  O49  1  0.902671  0.253139  0.013776  1
  O  O50  1  0.892184  0.747949  0.838347  1
  O  O51  1  0.902462  0.782673  0.330798  1
