# generated using pymatgen
data_Li5Ti6FeO16
_symmetry_space_group_name_H-M   'P 1'
_cell_length_a   5.95629393
_cell_length_b   5.97180042
_cell_length_c   8.45482217
_cell_angle_alpha   90.00000000
_cell_angle_beta   89.67127907
_cell_angle_gamma   90.00000000
_symmetry_Int_Tables_number   1
_chemical_formula_structural   Li5Ti6FeO16
_chemical_formula_sum   'Li5 Ti6 Fe1 O16'
_cell_volume   300.73137194
_cell_formula_units_Z   1
loop_
 _symmetry_equiv_pos_site_id
 _symmetry_equiv_pos_as_xyz
  1  'x, y, z'
loop_
 _atom_site_type_symbol
 _atom_site_label
 _atom_site_symmetry_multiplicity
 _atom_site_fract_x
 _atom_site_fract_y
 _atom_site_fract_z
 _atom_site_occupancy
  Li  Li0  1  0.502563  0.500000  0.998690  1
  Li  Li1  1  0.759971  0.000000  0.117723  1
  Li  Li2  1  0.995249  0.000000  0.501591  1
  Li  Li3  1  0.262891  0.500000  0.622306  1
  Li  Li4  1  0.234153  0.000000  0.879017  1
  Ti  Ti5  1  0.006388  0.500000  0.991810  1
  Ti  Ti6  1  0.248505  0.758734  0.246461  1
  Ti  Ti7  1  0.248505  0.241266  0.246461  1
  Ti  Ti8  1  0.478640  0.000000  0.505281  1
  Ti  Ti9  1  0.748525  0.248616  0.758373  1
  Ti  Ti10  1  0.748525  0.751384  0.758373  1
  Fe  Fe11  1  0.737187  0.500000  0.384176  1
  O  O12  1  0.235821  0.726185  0.023200  1
  O  O13  1  0.235821  0.273815  0.023200  1
  O  O14  1  0.011397  0.500000  0.247727  1
  O  O15  1  0.475916  0.500000  0.251840  1
  O  O16  1  0.476915  0.000000  0.258098  1
  O  O17  1  0.038498  0.000000  0.252286  1
  O  O18  1  0.268680  0.770547  0.480809  1
  O  O19  1  0.268680  0.229453  0.480809  1
  O  O20  1  0.737864  0.237335  0.509712  1
  O  O21  1  0.737864  0.762665  0.509712  1
  O  O22  1  0.957598  0.000000  0.742796  1
  O  O23  1  0.518707  0.000000  0.737099  1
  O  O24  1  0.984557  0.500000  0.762324  1
  O  O25  1  0.541830  0.500000  0.749708  1
  O  O26  1  0.769374  0.270596  0.980208  1
  O  O27  1  0.769374  0.729404  0.980208  1
