# generated using pymatgen
data_LiCoPO4
_symmetry_space_group_name_H-M   'P 1'
_cell_length_a   10.08316420
_cell_length_b   13.66016131
_cell_length_c   5.05277650
_cell_angle_alpha   90.00000000
_cell_angle_beta   90.00000000
_cell_angle_gamma   90.00000000
_symmetry_Int_Tables_number   1
_chemical_formula_structural   LiCoPO4
_chemical_formula_sum   'Li8 Co8 P8 O32'
_cell_volume   695.95755849
_cell_formula_units_Z   8
loop_
 _symmetry_equiv_pos_site_id
 _symmetry_equiv_pos_as_xyz
  1  'x, y, z'
loop_
 _atom_site_type_symbol
 _atom_site_label
 _atom_site_symmetry_multiplicity
 _atom_site_fract_x
 _atom_site_fract_y
 _atom_site_fract_z
 _atom_site_occupancy
  Li  Li0  1  0.032062  0.751391  0.058621  1
  Li  Li1  1  0.217584  0.002697  0.550385  1
  Li  Li2  1  0.282416  0.502697  0.550385  1
  Li  Li3  1  0.467938  0.251391  0.058621  1
  Li  Li4  1  0.532062  0.751391  0.941379  1
  Li  Li5  1  0.717584  0.002697  0.449615  1
  Li  Li6  1  0.782416  0.502697  0.449615  1
  Li  Li7  1  0.967938  0.251391  0.941379  1
  Co  Co8  1  0.030302  0.500791  0.931327  1
  Co  Co9  1  0.219247  0.751912  0.552485  1
  Co  Co10  1  0.280753  0.251912  0.552485  1
  Co  Co11  1  0.469698  0.000791  0.931327  1
  Co  Co12  1  0.530302  0.500791  0.068673  1
  Co  Co13  1  0.719247  0.751912  0.447515  1
  Co  Co14  1  0.780753  0.251912  0.447515  1
  Co  Co15  1  0.969698  0.000791  0.068673  1
  P  P16  1  0.030464  0.376098  0.437787  1
  P  P17  1  0.217131  0.127510  0.054602  1
  P  P18  1  0.282869  0.627510  0.054602  1
  P  P19  1  0.469536  0.876098  0.437787  1
  P  P20  1  0.530464  0.376098  0.562213  1
  P  P21  1  0.717131  0.127510  0.945398  1
  P  P22  1  0.782869  0.627510  0.945398  1
  P  P23  1  0.969536  0.876098  0.562213  1
  O  O24  1  0.999481  0.878347  0.865035  1
  O  O25  1  0.969816  0.469867  0.562972  1
  O  O26  1  0.032956  0.782282  0.443293  1
  O  O27  1  0.065596  0.126001  0.996398  1
  O  O28  1  0.181763  0.375049  0.494560  1
  O  O29  1  0.222292  0.534120  0.926425  1
  O  O30  1  0.280336  0.221554  0.936337  1
  O  O31  1  0.244974  0.127982  0.357156  1
  O  O32  1  0.255026  0.627982  0.357156  1
  O  O33  1  0.219664  0.721554  0.936337  1
  O  O34  1  0.277708  0.034120  0.926425  1
  O  O35  1  0.318237  0.875049  0.494560  1
  O  O36  1  0.434404  0.626001  0.996398  1
  O  O37  1  0.467044  0.282282  0.443293  1
  O  O38  1  0.530184  0.969867  0.562972  1
  O  O39  1  0.500519  0.378347  0.865035  1
  O  O40  1  0.499481  0.878347  0.134965  1
  O  O41  1  0.469816  0.469867  0.437028  1
  O  O42  1  0.532956  0.782282  0.556707  1
  O  O43  1  0.565596  0.126001  0.003602  1
  O  O44  1  0.681763  0.375049  0.505440  1
  O  O45  1  0.722292  0.534120  0.073575  1
  O  O46  1  0.780336  0.221554  0.063663  1
  O  O47  1  0.744974  0.127982  0.642844  1
  O  O48  1  0.755026  0.627982  0.642844  1
  O  O49  1  0.719664  0.721554  0.063663  1
  O  O50  1  0.777708  0.034120  0.073575  1
  O  O51  1  0.818237  0.875049  0.505440  1
  O  O52  1  0.934404  0.626001  0.003602  1
  O  O53  1  0.967044  0.282282  0.556707  1
  O  O54  1  0.030184  0.969867  0.437028  1
  O  O55  1  0.000519  0.378347  0.134965  1
