# generated using pymatgen
data_Li3VF6
_symmetry_space_group_name_H-M   'P 1'
_cell_length_a   5.32398866
_cell_length_b   8.66926960
_cell_length_c   5.16825010
_cell_angle_alpha   90.00000000
_cell_angle_beta   110.86978498
_cell_angle_gamma   90.00000000
_symmetry_Int_Tables_number   1
_chemical_formula_structural   Li3VF6
_chemical_formula_sum   'Li6 V2 F12'
_cell_volume   222.89097416
_cell_formula_units_Z   2
loop_
 _symmetry_equiv_pos_site_id
 _symmetry_equiv_pos_as_xyz
  1  'x, y, z'
loop_
 _atom_site_type_symbol
 _atom_site_label
 _atom_site_symmetry_multiplicity
 _atom_site_fract_x
 _atom_site_fract_y
 _atom_site_fract_z
 _atom_site_occupancy
  Li  Li0  1  0.010955  0.163014  0.831217  1
  Li  Li1  1  0.105808  0.337756  0.347029  1
  Li  Li2  1  0.452975  0.660372  0.451610  1
  Li  Li3  1  0.547025  0.160372  0.048390  1
  Li  Li4  1  0.989045  0.663014  0.668783  1
  Li  Li5  1  0.894192  0.837756  0.152971  1
  V  V6  1  0.482130  0.998660  0.502380  1
  V  V7  1  0.517870  0.498660  0.997620  1
  F  F8  1  0.227356  0.829148  0.500563  1
  F  F9  1  0.276069  0.502254  0.597058  1
  F  F10  1  0.279117  0.162129  0.606366  1
  F  F11  1  0.262827  0.648906  0.044536  1
  F  F12  1  0.267906  0.025832  0.107574  1
  F  F13  1  0.296206  0.334073  0.073722  1
  F  F14  1  0.720883  0.662129  0.893634  1
  F  F15  1  0.723931  0.002254  0.902942  1
  F  F16  1  0.772644  0.329148  0.999437  1
  F  F17  1  0.703794  0.834073  0.426278  1
  F  F18  1  0.732094  0.525832  0.392426  1
  F  F19  1  0.737173  0.148906  0.455464  1
