# generated using pymatgen
data_LiFe4(BO3)4
_symmetry_space_group_name_H-M   'P 1'
_cell_length_a   5.34274119
_cell_length_b   9.01830658
_cell_length_c   11.35004839
_cell_angle_alpha   113.50131305
_cell_angle_beta   76.92798958
_cell_angle_gamma   90.40520947
_symmetry_Int_Tables_number   1
_chemical_formula_structural   LiFe4(BO3)4
_chemical_formula_sum   'Li2 Fe8 B8 O24'
_cell_volume   486.39552612
_cell_formula_units_Z   2
loop_
 _symmetry_equiv_pos_site_id
 _symmetry_equiv_pos_as_xyz
  1  'x, y, z'
loop_
 _atom_site_type_symbol
 _atom_site_label
 _atom_site_symmetry_multiplicity
 _atom_site_fract_x
 _atom_site_fract_y
 _atom_site_fract_z
 _atom_site_occupancy
  Li  Li0  1  0.164882  0.166725  0.355077  1
  Li  Li1  1  0.595623  0.056705  0.095197  1
  Fe  Fe2  1  0.405319  0.266768  0.864215  1
  Fe  Fe3  1  0.088953  0.228136  0.115962  1
  Fe  Fe4  1  0.850125  0.141540  0.615952  1
  Fe  Fe5  1  0.654366  0.361923  0.374499  1
  Fe  Fe6  1  0.348261  0.648579  0.627171  1
  Fe  Fe7  1  0.145705  0.834151  0.370182  1
  Fe  Fe8  1  0.909635  0.770055  0.875181  1
  Fe  Fe9  1  0.597958  0.727569  0.130990  1
  B  B10  1  0.652256  0.023462  0.366863  1
  B  B11  1  0.892881  0.102652  0.869324  1
  B  B12  1  0.135283  0.506625  0.378041  1
  B  B13  1  0.404337  0.610105  0.875588  1
  B  B14  1  0.858358  0.481026  0.622511  1
  B  B15  1  0.596900  0.391169  0.120870  1
  B  B16  1  0.347909  0.982807  0.621232  1
  B  B17  1  0.113383  0.892302  0.125304  1
  O  O18  1  0.117047  0.150879  0.908186  1
  O  O19  1  0.472192  0.126214  0.659748  1
  O  O20  1  0.219844  0.034830  0.138900  1
  O  O21  1  0.533750  0.156221  0.361788  1
  O  O22  1  0.878303  0.038238  0.412204  1
  O  O23  1  0.779110  0.189204  0.814081  1
  O  O24  1  0.318987  0.464793  0.860442  1
  O  O25  1  0.033582  0.353542  0.335465  1
  O  O26  1  0.689158  0.291798  0.175618  1
  O  O27  1  0.642716  0.486774  0.573327  1
  O  O28  1  0.962406  0.338956  0.612412  1
  O  O29  1  0.403816  0.333734  0.056164  1
  O  O30  1  0.617309  0.663710  0.929886  1
  O  O31  1  0.351843  0.515897  0.432125  1
  O  O32  1  0.286978  0.712734  0.832663  1
  O  O33  1  0.968208  0.627447  0.678777  1
  O  O34  1  0.702527  0.531260  0.131102  1
  O  O35  1  0.223922  0.778443  0.156236  1
  O  O36  1  0.131136  0.983345  0.573538  1
  O  O37  1  0.437833  0.848420  0.630648  1
  O  O38  1  0.026437  0.632304  0.369452  1
  O  O39  1  0.779481  0.977037  0.894867  1
  O  O40  1  0.547305  0.876085  0.323043  1
  O  O41  1  0.880823  0.861345  0.081238  1
