# generated using pymatgen
data_H2Os4Pt(CO)15
_symmetry_space_group_name_H-M   'P 1'
_cell_length_a   13.46568277
_cell_length_b   8.97583053
_cell_length_c   20.51354981
_cell_angle_alpha   90.00000000
_cell_angle_beta   90.86947136
_cell_angle_gamma   90.00000000
_symmetry_Int_Tables_number   1
_chemical_formula_structural   H2Os4Pt(CO)15
_chemical_formula_sum   'H8 Os16 Pt4 C60 O60'
_cell_volume   2479.09880463
_cell_formula_units_Z   4
loop_
 _symmetry_equiv_pos_site_id
 _symmetry_equiv_pos_as_xyz
  1  'x, y, z'
loop_
 _atom_site_type_symbol
 _atom_site_label
 _atom_site_symmetry_multiplicity
 _atom_site_fract_x
 _atom_site_fract_y
 _atom_site_fract_z
 _atom_site_occupancy
  H  H0  1  0.850063  0.335817  0.187328  1
  H  H1  1  0.149937  0.835817  0.312672  1
  H  H2  1  0.149937  0.664183  0.812672  1
  H  H3  1  0.850063  0.164183  0.687328  1
  H  H4  1  0.669141  0.262924  0.198775  1
  H  H5  1  0.330859  0.762924  0.301225  1
  H  H6  1  0.330859  0.737076  0.801225  1
  H  H7  1  0.669141  0.237076  0.698775  1
  Os  Os8  1  0.842780  0.501061  0.132765  1
  Os  Os9  1  0.157220  0.001061  0.367235  1
  Os  Os10  1  0.157220  0.498939  0.867235  1
  Os  Os11  1  0.842780  0.998939  0.632765  1
  Os  Os12  1  0.634703  0.399513  0.133985  1
  Os  Os13  1  0.365297  0.899513  0.366015  1
  Os  Os14  1  0.365297  0.600487  0.866015  1
  Os  Os15  1  0.634703  0.100487  0.633985  1
  Os  Os16  1  0.761241  0.344483  0.253022  1
  Os  Os17  1  0.238759  0.844483  0.246978  1
  Os  Os18  1  0.238759  0.655517  0.746978  1
  Os  Os19  1  0.761241  0.155517  0.753022  1
  Os  Os20  1  0.779663  0.263910  0.041890  1
  Os  Os21  1  0.220337  0.763910  0.458110  1
  Os  Os22  1  0.220337  0.736090  0.958110  1
  Os  Os23  1  0.779663  0.236090  0.541890  1
  Pt  Pt24  1  0.700910  0.627795  0.218836  1
  Pt  Pt25  1  0.299090  0.127795  0.281164  1
  Pt  Pt26  1  0.299090  0.372205  0.781164  1
  Pt  Pt27  1  0.700910  0.872205  0.718836  1
  C  C28  1  0.697873  0.693716  0.307301  1
  C  C29  1  0.302127  0.193716  0.192699  1
  C  C30  1  0.302127  0.306284  0.692699  1
  C  C31  1  0.697873  0.806284  0.807301  1
  C  C32  1  0.662952  0.802613  0.170845  1
  C  C33  1  0.337048  0.302613  0.329155  1
  C  C34  1  0.337048  0.197387  0.829155  1
  C  C35  1  0.662952  0.697387  0.670845  1
  C  C36  1  0.905215  0.641251  0.191199  1
  C  C37  1  0.094785  0.141251  0.308801  1
  C  C38  1  0.094785  0.358749  0.808801  1
  C  C39  1  0.905215  0.858749  0.691199  1
  C  C40  1  0.822800  0.646195  0.065814  1
  C  C41  1  0.177200  0.146195  0.434186  1
  C  C42  1  0.177200  0.353805  0.934186  1
  C  C43  1  0.822800  0.853805  0.565814  1
  C  C44  1  0.967615  0.440464  0.100116  1
  C  C45  1  0.032385  0.940464  0.399884  1
  C  C46  1  0.032385  0.559536  0.899884  1
  C  C47  1  0.967615  0.059536  0.600116  1
  C  C48  1  0.532805  0.461455  0.192043  1
  C  C49  1  0.467195  0.961455  0.307957  1
  C  C50  1  0.467195  0.538545  0.807957  1
  C  C51  1  0.532805  0.038545  0.692043  1
  C  C52  1  0.588183  0.538594  0.070935  1
  C  C53  1  0.411817  0.038594  0.429065  1
  C  C54  1  0.411817  0.461406  0.929065  1
  C  C55  1  0.588183  0.961406  0.570935  1
  C  C56  1  0.559952  0.235949  0.099185  1
  C  C57  1  0.440048  0.735949  0.400815  1
  C  C58  1  0.440048  0.764051  0.900815  1
  C  C59  1  0.559952  0.264051  0.599185  1
  C  C60  1  0.807155  0.146025  0.271759  1
  C  C61  1  0.192845  0.646025  0.228241  1
  C  C62  1  0.192845  0.853975  0.728241  1
  C  C63  1  0.807155  0.353975  0.771759  1
  C  C64  1  0.658477  0.328018  0.315656  1
  C  C65  1  0.341523  0.828018  0.184344  1
  C  C66  1  0.341523  0.671982  0.684344  1
  C  C67  1  0.658477  0.171982  0.815656  1
  C  C68  1  0.851138  0.436402  0.313781  1
  C  C69  1  0.148862  0.936402  0.186219  1
  C  C70  1  0.148862  0.563598  0.686219  1
  C  C71  1  0.851138  0.063598  0.813781  1
  C  C72  1  0.828363  0.127108  0.108566  1
  C  C73  1  0.171637  0.627108  0.391434  1
  C  C74  1  0.171637  0.872892  0.891434  1
  C  C75  1  0.828363  0.372892  0.608566  1
  C  C76  1  0.729302  0.410432  0.979392  1
  C  C77  1  0.270698  0.910432  0.520608  1
  C  C78  1  0.270698  0.589568  0.020608  1
  C  C79  1  0.729302  0.089568  0.479392  1
  C  C80  1  0.704273  0.106316  0.002323  1
  C  C81  1  0.295727  0.606316  0.497677  1
  C  C82  1  0.295727  0.893684  0.997677  1
  C  C83  1  0.704273  0.393684  0.502323  1
  C  C84  1  0.895977  0.233058  0.992049  1
  C  C85  1  0.104023  0.733058  0.507951  1
  C  C86  1  0.104023  0.766942  0.007951  1
  C  C87  1  0.895977  0.266942  0.492049  1
  O  O88  1  0.698935  0.737166  0.360421  1
  O  O89  1  0.301065  0.237166  0.139579  1
  O  O90  1  0.301065  0.262834  0.639579  1
  O  O91  1  0.698935  0.762834  0.860421  1
  O  O92  1  0.641402  0.908772  0.142107  1
  O  O93  1  0.358598  0.408772  0.357893  1
  O  O94  1  0.358598  0.091228  0.857893  1
  O  O95  1  0.641402  0.591228  0.642107  1
  O  O96  1  0.954402  0.723434  0.221604  1
  O  O97  1  0.045598  0.223434  0.278396  1
  O  O98  1  0.045598  0.276566  0.778396  1
  O  O99  1  0.954402  0.776566  0.721604  1
  O  O100  1  0.807134  0.736601  0.026181  1
  O  O101  1  0.192866  0.236601  0.473819  1
  O  O102  1  0.192866  0.263399  0.973819  1
  O  O103  1  0.807134  0.763399  0.526181  1
  O  O104  1  0.046864  0.409455  0.082165  1
  O  O105  1  0.953136  0.909455  0.417835  1
  O  O106  1  0.953136  0.590545  0.917835  1
  O  O107  1  0.046864  0.090545  0.582165  1
  O  O108  1  0.462996  0.485941  0.223447  1
  O  O109  1  0.537004  0.985941  0.276553  1
  O  O110  1  0.537004  0.514059  0.776553  1
  O  O111  1  0.462996  0.014059  0.723447  1
  O  O112  1  0.557429  0.630969  0.036304  1
  O  O113  1  0.442571  0.130969  0.463696  1
  O  O114  1  0.442571  0.369031  0.963696  1
  O  O115  1  0.557429  0.869031  0.536304  1
  O  O116  1  0.509266  0.137990  0.082538  1
  O  O117  1  0.490734  0.637990  0.417462  1
  O  O118  1  0.490734  0.862010  0.917462  1
  O  O119  1  0.509266  0.362010  0.582538  1
  O  O120  1  0.835058  0.029334  0.288804  1
  O  O121  1  0.164942  0.529334  0.211196  1
  O  O122  1  0.164942  0.970666  0.711196  1
  O  O123  1  0.835058  0.470666  0.788804  1
  O  O124  1  0.593859  0.311654  0.351653  1
  O  O125  1  0.406141  0.811654  0.148347  1
  O  O126  1  0.406141  0.688346  0.648347  1
  O  O127  1  0.593859  0.188346  0.851653  1
  O  O128  1  0.902125  0.496621  0.351372  1
  O  O129  1  0.097875  0.996621  0.148628  1
  O  O130  1  0.097875  0.503379  0.648628  1
  O  O131  1  0.902125  0.003379  0.851372  1
  O  O132  1  0.860212  0.036577  0.143162  1
  O  O133  1  0.139788  0.536577  0.356838  1
  O  O134  1  0.139788  0.963423  0.856838  1
  O  O135  1  0.860212  0.463423  0.643162  1
  O  O136  1  0.699968  0.488776  0.938613  1
  O  O137  1  0.300032  0.988776  0.561387  1
  O  O138  1  0.300032  0.511224  0.061387  1
  O  O139  1  0.699968  0.011224  0.438613  1
  O  O140  1  0.662381  0.006820  0.978326  1
  O  O141  1  0.337619  0.506820  0.521674  1
  O  O142  1  0.337619  0.993180  0.021674  1
  O  O143  1  0.662381  0.493180  0.478326  1
  O  O144  1  0.965770  0.211881  0.960474  1
  O  O145  1  0.034230  0.711881  0.539526  1
  O  O146  1  0.034230  0.788119  0.039526  1
  O  O147  1  0.965770  0.288119  0.460474  1
