# generated using pymatgen
data_SrLiLa3FeO8
_symmetry_space_group_name_H-M   'P 1'
_cell_length_a   7.01739571
_cell_length_b   5.37866816
_cell_length_c   12.96214853
_cell_angle_alpha   90.00000000
_cell_angle_beta   22.54754818
_cell_angle_gamma   90.00000000
_symmetry_Int_Tables_number   1
_chemical_formula_structural   SrLiLa3FeO8
_chemical_formula_sum   'Sr1 Li1 La3 Fe1 O8'
_cell_volume   187.60156497
_cell_formula_units_Z   1
loop_
 _symmetry_equiv_pos_site_id
 _symmetry_equiv_pos_as_xyz
  1  'x, y, z'
loop_
 _atom_site_type_symbol
 _atom_site_label
 _atom_site_symmetry_multiplicity
 _atom_site_fract_x
 _atom_site_fract_y
 _atom_site_fract_z
 _atom_site_occupancy
  Sr  Sr0  1  -0.000014  0.500000  0.141096  1
  Li  Li1  1  0.999942  0.000000  0.005846  1
  La  La2  1  0.000003  0.000000  0.357544  1
  La  La3  1  0.000011  0.000000  0.639848  1
  La  La4  1  0.999822  0.500000  0.861420  1
  Fe  Fe5  1  0.000308  0.500000  0.497324  1
  O  O6  1  0.999994  0.000000  0.180235  1
  O  O7  1  0.000066  0.500000  0.332645  1
  O  O8  1  0.999959  0.000000  0.818644  1
  O  O9  1  0.999896  0.500000  0.677534  1
  O  O10  1  0.482176  0.744468  0.256091  1
  O  O11  1  0.482176  0.255532  0.256091  1
  O  O12  1  0.517389  0.255446  0.738397  1
  O  O13  1  0.517389  0.744554  0.738397  1
