# generated using pymatgen
data_LiVF5
_symmetry_space_group_name_H-M   'P 1'
_cell_length_a   9.04962324
_cell_length_b   6.24420095
_cell_length_c   6.38413251
_cell_angle_alpha   90.00000000
_cell_angle_beta   90.00000000
_cell_angle_gamma   90.00000000
_symmetry_Int_Tables_number   1
_chemical_formula_structural   LiVF5
_chemical_formula_sum   'Li4 V4 F20'
_cell_volume   360.75242778
_cell_formula_units_Z   4
loop_
 _symmetry_equiv_pos_site_id
 _symmetry_equiv_pos_as_xyz
  1  'x, y, z'
loop_
 _atom_site_type_symbol
 _atom_site_label
 _atom_site_symmetry_multiplicity
 _atom_site_fract_x
 _atom_site_fract_y
 _atom_site_fract_z
 _atom_site_occupancy
  Li  Li0  1  0.148213  0.543509  0.778999  1
  Li  Li1  1  0.351787  0.043509  0.278999  1
  Li  Li2  1  0.648213  0.956491  0.778999  1
  Li  Li3  1  0.851787  0.456491  0.278999  1
  V  V4  1  0.005566  0.078961  0.000276  1
  V  V5  1  0.494434  0.578961  0.500276  1
  V  V6  1  0.505566  0.421039  0.000276  1
  V  V7  1  0.994434  0.921039  0.500276  1
  F  F8  1  0.008431  0.372984  0.000530  1
  F  F9  1  0.003582  0.828752  0.192087  1
  F  F10  1  0.042984  0.827093  0.807343  1
  F  F11  1  0.194253  0.986373  0.473388  1
  F  F12  1  0.209485  0.065751  0.041178  1
  F  F13  1  0.290515  0.565751  0.541178  1
  F  F14  1  0.305747  0.486373  0.973388  1
  F  F15  1  0.457016  0.327093  0.307343  1
  F  F16  1  0.496418  0.328752  0.692087  1
  F  F17  1  0.491569  0.872984  0.500530  1
  F  F18  1  0.508431  0.127016  0.000530  1
  F  F19  1  0.503582  0.671248  0.192087  1
  F  F20  1  0.542984  0.672907  0.807343  1
  F  F21  1  0.694253  0.513627  0.473388  1
  F  F22  1  0.709485  0.434249  0.041178  1
  F  F23  1  0.790515  0.934249  0.541178  1
  F  F24  1  0.805747  0.013627  0.973388  1
  F  F25  1  0.957016  0.172907  0.307343  1
  F  F26  1  0.996418  0.171248  0.692087  1
  F  F27  1  0.991569  0.627016  0.500530  1
