# generated using pymatgen
data_NaMnAsCO7
_symmetry_space_group_name_H-M   'P 1'
_cell_length_a   9.28753219
_cell_length_b   6.43960271
_cell_length_c   5.39854278
_cell_angle_alpha   90.00000000
_cell_angle_beta   87.06733612
_cell_angle_gamma   90.00000000
_symmetry_Int_Tables_number   1
_chemical_formula_structural   NaMnAsCO7
_chemical_formula_sum   'Na2 Mn2 As2 C2 O14'
_cell_volume   322.45328668
_cell_formula_units_Z   2
loop_
 _symmetry_equiv_pos_site_id
 _symmetry_equiv_pos_as_xyz
  1  'x, y, z'
loop_
 _atom_site_type_symbol
 _atom_site_label
 _atom_site_symmetry_multiplicity
 _atom_site_fract_x
 _atom_site_fract_y
 _atom_site_fract_z
 _atom_site_occupancy
  Na  Na0  1  0.225306  0.480501  0.234861  1
  Na  Na1  1  0.774694  0.980501  0.765139  1
  Mn  Mn2  1  0.337697  0.758104  0.787626  1
  Mn  Mn3  1  0.662303  0.258104  0.212374  1
  As  As4  1  0.435718  0.252182  0.719521  1
  As  As5  1  0.564282  0.752182  0.280479  1
  C  C6  1  0.081187  0.746225  0.724243  1
  C  C7  1  0.918813  0.246225  0.275757  1
  O  O8  1  0.048772  0.248356  0.308789  1
  O  O9  1  0.139140  0.748532  0.942763  1
  O  O10  1  0.184179  0.743583  0.544049  1
  O  O11  1  0.318250  0.053098  0.791870  1
  O  O12  1  0.323668  0.455892  0.802147  1
  O  O13  1  0.408327  0.743945  0.126996  1
  O  O14  1  0.478200  0.267433  0.403990  1
  O  O15  1  0.521800  0.767433  0.596010  1
  O  O16  1  0.591673  0.243945  0.873004  1
  O  O17  1  0.676332  0.955892  0.197853  1
  O  O18  1  0.681750  0.553098  0.208130  1
  O  O19  1  0.815821  0.243583  0.455951  1
  O  O20  1  0.860860  0.248532  0.057237  1
  O  O21  1  0.951228  0.748356  0.691211  1
