# generated using pymatgen
data_LiAgF4
_symmetry_space_group_name_H-M   'P 1'
_cell_length_a   5.82933778
_cell_length_b   5.24555096
_cell_length_c   6.12361987
_cell_angle_alpha   90.00000000
_cell_angle_beta   63.69840397
_cell_angle_gamma   90.00000000
_symmetry_Int_Tables_number   1
_chemical_formula_structural   LiAgF4
_chemical_formula_sum   'Li2 Ag2 F8'
_cell_volume   167.86350854
_cell_formula_units_Z   2
loop_
 _symmetry_equiv_pos_site_id
 _symmetry_equiv_pos_as_xyz
  1  'x, y, z'
loop_
 _atom_site_type_symbol
 _atom_site_label
 _atom_site_symmetry_multiplicity
 _atom_site_fract_x
 _atom_site_fract_y
 _atom_site_fract_z
 _atom_site_occupancy
  Li  Li0  1  0.000000  0.000000  0.500000  1
  Li  Li1  1  0.500000  0.500000  0.000000  1
  Ag  Ag2  1  0.000000  0.000000  0.000000  1
  Ag  Ag3  1  0.500000  0.500000  0.500000  1
  F  F4  1  0.198122  0.809649  0.138901  1
  F  F5  1  0.301878  0.309649  0.361099  1
  F  F6  1  0.157354  0.828367  0.679723  1
  F  F7  1  0.342646  0.328367  0.820277  1
  F  F8  1  0.657354  0.671633  0.179723  1
  F  F9  1  0.842646  0.171633  0.320277  1
  F  F10  1  0.698122  0.690351  0.638901  1
  F  F11  1  0.801878  0.190351  0.861099  1
