# generated using pymatgen
data_SbH32C8N4Cl7
_symmetry_space_group_name_H-M   'P 1'
_cell_length_a   8.65108933
_cell_length_b   10.41257769
_cell_length_c   13.84895724
_cell_angle_alpha   90.00000000
_cell_angle_beta   90.00000000
_cell_angle_gamma   90.00000000
_symmetry_Int_Tables_number   1
_chemical_formula_structural   SbH32C8N4Cl7
_chemical_formula_sum   'Sb2 H64 C16 N8 Cl14'
_cell_volume   1247.51600360
_cell_formula_units_Z   2
loop_
 _symmetry_equiv_pos_site_id
 _symmetry_equiv_pos_as_xyz
  1  'x, y, z'
loop_
 _atom_site_type_symbol
 _atom_site_label
 _atom_site_symmetry_multiplicity
 _atom_site_fract_x
 _atom_site_fract_y
 _atom_site_fract_z
 _atom_site_occupancy
  Sb  Sb0  1  0.573964  0.000000  0.000000  1
  Sb  Sb1  1  0.426036  0.500000  0.500000  1
  H  H2  1  0.879458  0.820324  0.069605  1
  H  H3  1  0.879458  0.179676  0.930395  1
  H  H4  1  0.120542  0.679676  0.569605  1
  H  H5  1  0.120542  0.320324  0.430395  1
  H  H6  1  0.969091  0.676967  0.058787  1
  H  H7  1  0.969091  0.323033  0.941213  1
  H  H8  1  0.030909  0.823033  0.558787  1
  H  H9  1  0.030909  0.176967  0.441213  1
  H  H10  1  0.490542  0.709264  0.811539  1
  H  H11  1  0.490542  0.290736  0.188461  1
  H  H12  1  0.509458  0.790736  0.311539  1
  H  H13  1  0.509458  0.209264  0.688461  1
  H  H14  1  0.519691  0.573325  0.746849  1
  H  H15  1  0.519691  0.426675  0.253151  1
  H  H16  1  0.480309  0.926675  0.246849  1
  H  H17  1  0.480309  0.073325  0.753151  1
  H  H18  1  0.135624  0.921604  0.099433  1
  H  H19  1  0.135624  0.078396  0.900567  1
  H  H20  1  0.864376  0.578396  0.599433  1
  H  H21  1  0.864376  0.421604  0.400567  1
  H  H22  1  0.216525  0.765030  0.078531  1
  H  H23  1  0.216525  0.234970  0.921469  1
  H  H24  1  0.783475  0.734970  0.578531  1
  H  H25  1  0.783475  0.265030  0.421469  1
  H  H26  1  0.115078  0.844318  0.984050  1
  H  H27  1  0.115078  0.155682  0.015950  1
  H  H28  1  0.884922  0.655682  0.484050  1
  H  H29  1  0.884922  0.344318  0.515950  1
  H  H30  1  0.055518  0.688022  0.224500  1
  H  H31  1  0.055518  0.311978  0.775500  1
  H  H32  1  0.944482  0.811978  0.724500  1
  H  H33  1  0.944482  0.188022  0.275500  1
  H  H34  1  0.957563  0.839338  0.236518  1
  H  H35  1  0.957563  0.160662  0.763482  1
  H  H36  1  0.042437  0.660662  0.736518  1
  H  H37  1  0.042437  0.339338  0.263482  1
  H  H38  1  0.849040  0.696112  0.213296  1
  H  H39  1  0.849040  0.303888  0.786704  1
  H  H40  1  0.150960  0.803888  0.713296  1
  H  H41  1  0.150960  0.196112  0.286704  1
  H  H42  1  0.644357  0.622620  0.943201  1
  H  H43  1  0.644357  0.377380  0.056799  1
  H  H44  1  0.355643  0.877380  0.443201  1
  H  H45  1  0.355643  0.122620  0.556799  1
  H  H46  1  0.678823  0.481578  0.871328  1
  H  H47  1  0.678823  0.518422  0.128672  1
  H  H48  1  0.321177  0.018422  0.371328  1
  H  H49  1  0.321177  0.981578  0.628672  1
  H  H50  1  0.750401  0.635243  0.833193  1
  H  H51  1  0.750401  0.364757  0.166807  1
  H  H52  1  0.249599  0.864757  0.333193  1
  H  H53  1  0.249599  0.135243  0.666807  1
  H  H54  1  0.384695  0.451455  0.874235  1
  H  H55  1  0.384695  0.548545  0.125765  1
  H  H56  1  0.615305  0.048545  0.374235  1
  H  H57  1  0.615305  0.951455  0.625765  1
  H  H58  1  0.355828  0.602263  0.934591  1
  H  H59  1  0.355828  0.397737  0.065409  1
  H  H60  1  0.644172  0.897737  0.434591  1
  H  H61  1  0.644172  0.102263  0.565409  1
  H  H62  1  0.269058  0.575264  0.819936  1
  H  H63  1  0.269058  0.424736  0.180064  1
  H  H64  1  0.730942  0.924736  0.319936  1
  H  H65  1  0.730942  0.075264  0.680064  1
  C  C66  1  0.119969  0.829575  0.062339  1
  C  C67  1  0.119969  0.170425  0.937661  1
  C  C68  1  0.880031  0.670425  0.562339  1
  C  C69  1  0.880031  0.329575  0.437661  1
  C  C70  1  0.958292  0.746518  0.199363  1
  C  C71  1  0.958292  0.253482  0.800637  1
  C  C72  1  0.041708  0.753482  0.699363  1
  C  C73  1  0.041708  0.246518  0.300637  1
  C  C74  1  0.656016  0.585110  0.869955  1
  C  C75  1  0.656016  0.414890  0.130045  1
  C  C76  1  0.343984  0.914890  0.369955  1
  C  C77  1  0.343984  0.085110  0.630045  1
  C  C78  1  0.370231  0.555260  0.864625  1
  C  C79  1  0.370231  0.444740  0.135375  1
  C  C80  1  0.629769  0.944740  0.364625  1
  C  C81  1  0.629769  0.055260  0.635375  1
  N  N82  1  0.973428  0.767374  0.093569  1
  N  N83  1  0.973428  0.232626  0.906431  1
  N  N84  1  0.026572  0.732626  0.593569  1
  N  N85  1  0.026572  0.267374  0.406431  1
  N  N86  1  0.509457  0.610105  0.816500  1
  N  N87  1  0.509457  0.389895  0.183500  1
  N  N88  1  0.490543  0.889895  0.316500  1
  N  N89  1  0.490543  0.110105  0.683500  1
  Cl  Cl90  1  0.575813  0.224213  0.907585  1
  Cl  Cl91  1  0.575813  0.775787  0.092415  1
  Cl  Cl92  1  0.424187  0.275787  0.407585  1
  Cl  Cl93  1  0.424187  0.724213  0.592415  1
  Cl  Cl94  1  0.379573  0.096410  0.147740  1
  Cl  Cl95  1  0.379573  0.903590  0.852260  1
  Cl  Cl96  1  0.620427  0.403590  0.647740  1
  Cl  Cl97  1  0.620427  0.596410  0.352260  1
  Cl  Cl98  1  0.796090  0.925688  0.888089  1
  Cl  Cl99  1  0.796090  0.074312  0.111911  1
  Cl  Cl100  1  0.203910  0.574312  0.388089  1
  Cl  Cl101  1  0.203910  0.425688  0.611911  1
  Cl  Cl102  1  0.010315  0.500000  0.000000  1
  Cl  Cl103  1  0.989685  0.000000  0.500000  1
