# generated using pymatgen
data_B11H9C(Br3O2)2
_symmetry_space_group_name_H-M   'P 1'
_cell_length_a   10.51966027
_cell_length_b   12.15050312
_cell_length_c   16.39617506
_cell_angle_alpha   90.00000000
_cell_angle_beta   91.19303268
_cell_angle_gamma   90.00000000
_symmetry_Int_Tables_number   1
_chemical_formula_structural   B11H9C(Br3O2)2
_chemical_formula_sum   'B44 H36 C4 Br24 O16'
_cell_volume   2095.29109485
_cell_formula_units_Z   4
loop_
 _symmetry_equiv_pos_site_id
 _symmetry_equiv_pos_as_xyz
  1  'x, y, z'
loop_
 _atom_site_type_symbol
 _atom_site_label
 _atom_site_symmetry_multiplicity
 _atom_site_fract_x
 _atom_site_fract_y
 _atom_site_fract_z
 _atom_site_occupancy
  B  B0  1  0.170802  0.561448  0.971285  1
  B  B1  1  0.670802  0.938552  0.471285  1
  B  B2  1  0.829198  0.438552  0.028715  1
  B  B3  1  0.329198  0.061448  0.528715  1
  B  B4  1  0.333307  0.561651  0.969109  1
  B  B5  1  0.833307  0.938349  0.469109  1
  B  B6  1  0.666693  0.438349  0.030891  1
  B  B7  1  0.166693  0.061651  0.530891  1
  B  B8  1  0.384754  0.580675  0.875642  1
  B  B9  1  0.884754  0.919325  0.375642  1
  B  B10  1  0.615246  0.419325  0.124358  1
  B  B11  1  0.115246  0.080675  0.624358  1
  B  B12  1  0.247396  0.593215  0.811598  1
  B  B13  1  0.747396  0.906785  0.311598  1
  B  B14  1  0.752604  0.406785  0.188402  1
  B  B15  1  0.252604  0.093215  0.688402  1
  B  B16  1  0.121993  0.579841  0.872672  1
  B  B17  1  0.621993  0.920159  0.372672  1
  B  B18  1  0.878007  0.420159  0.127328  1
  B  B19  1  0.378007  0.079841  0.627328  1
  B  B20  1  0.252758  0.677949  0.007277  1
  B  B21  1  0.752758  0.822051  0.507277  1
  B  B22  1  0.747242  0.322051  0.992723  1
  B  B23  1  0.247242  0.177950  0.492723  1
  B  B24  1  0.389746  0.692690  0.943486  1
  B  B25  1  0.889746  0.807310  0.443486  1
  B  B26  1  0.610254  0.307310  0.056514  1
  B  B27  1  0.110254  0.192690  0.556514  1
  B  B28  1  0.336312  0.712356  0.838915  1
  B  B29  1  0.836312  0.787644  0.338915  1
  B  B30  1  0.663688  0.287644  0.161085  1
  B  B31  1  0.163688  0.212356  0.661085  1
  B  B32  1  0.164811  0.713736  0.839495  1
  B  B33  1  0.664811  0.786264  0.339495  1
  B  B34  1  0.835189  0.286264  0.160505  1
  B  B35  1  0.335189  0.213736  0.660505  1
  B  B36  1  0.113414  0.691473  0.941662  1
  B  B37  1  0.613414  0.808527  0.441662  1
  B  B38  1  0.886586  0.308527  0.058338  1
  B  B39  1  0.386586  0.191473  0.558338  1
  B  B40  1  0.251361  0.775846  0.922892  1
  B  B41  1  0.751361  0.724154  0.422892  1
  B  B42  1  0.748639  0.224154  0.077108  1
  B  B43  1  0.248639  0.275846  0.577108  1
  H  H44  1  0.826724  0.016349  0.812070  1
  H  H45  1  0.326724  0.483651  0.312070  1
  H  H46  1  0.173276  0.983651  0.187930  1
  H  H47  1  0.673276  0.516349  0.687930  1
  H  H48  1  0.744687  0.063715  0.730716  1
  H  H49  1  0.244687  0.436285  0.230716  1
  H  H50  1  0.255313  0.936285  0.269284  1
  H  H51  1  0.755313  0.563715  0.769284  1
  H  H52  1  0.664319  0.013498  0.810876  1
  H  H53  1  0.164319  0.486502  0.310876  1
  H  H54  1  0.335681  0.986502  0.189124  1
  H  H55  1  0.835681  0.513498  0.689124  1
  H  H56  1  0.014984  0.989428  0.877545  1
  H  H57  1  0.514984  0.510572  0.377545  1
  H  H58  1  0.985016  0.010572  0.122455  1
  H  H59  1  0.485016  0.489428  0.622455  1
  H  H60  1  0.972213  0.114370  0.877101  1
  H  H61  1  0.472213  0.385630  0.377101  1
  H  H62  1  0.027787  0.885630  0.122899  1
  H  H63  1  0.527787  0.614370  0.622899  1
  H  H64  1  0.768327  0.226233  0.681564  1
  H  H65  1  0.268327  0.273767  0.181564  1
  H  H66  1  0.231673  0.773767  0.318436  1
  H  H67  1  0.731673  0.726233  0.818436  1
  H  H68  1  0.671044  0.160444  0.627733  1
  H  H69  1  0.171044  0.339556  0.127733  1
  H  H70  1  0.328956  0.839556  0.372267  1
  H  H71  1  0.828956  0.660444  0.872267  1
  H  H72  1  0.564519  0.010833  0.918459  1
  H  H73  1  0.064519  0.489167  0.418459  1
  H  H74  1  0.435481  0.989167  0.081541  1
  H  H75  1  0.935481  0.510833  0.581541  1
  H  H76  1  0.471728  0.989752  0.844754  1
  H  H77  1  0.971728  0.510248  0.344754  1
  H  H78  1  0.528272  0.010248  0.155246  1
  H  H79  1  0.028272  0.489752  0.655246  1
  C  C80  1  0.252065  0.518308  0.894062  1
  C  C81  1  0.752065  0.981692  0.394062  1
  C  C82  1  0.747935  0.481692  0.105938  1
  C  C83  1  0.247935  0.018308  0.605938  1
  Br  Br84  1  0.250456  0.721761  0.122097  1
  Br  Br85  1  0.750456  0.778239  0.622097  1
  Br  Br86  1  0.749544  0.278239  0.877903  1
  Br  Br87  1  0.249544  0.221761  0.377903  1
  Br  Br88  1  0.548398  0.757818  0.986278  1
  Br  Br89  1  0.048398  0.742182  0.486278  1
  Br  Br90  1  0.451602  0.242182  0.013722  1
  Br  Br91  1  0.951602  0.257818  0.513722  1
  Br  Br92  1  0.432632  0.796958  0.758636  1
  Br  Br93  1  0.932632  0.703042  0.258636  1
  Br  Br94  1  0.567368  0.203042  0.241364  1
  Br  Br95  1  0.067368  0.296958  0.741364  1
  Br  Br96  1  0.065470  0.799975  0.759013  1
  Br  Br97  1  0.565470  0.700025  0.259013  1
  Br  Br98  1  0.934530  0.200025  0.240987  1
  Br  Br99  1  0.434530  0.299975  0.740987  1
  Br  Br100  1  0.953172  0.752707  0.983949  1
  Br  Br101  1  0.453172  0.747293  0.483949  1
  Br  Br102  1  0.046828  0.247293  0.016051  1
  Br  Br103  1  0.546828  0.252707  0.516051  1
  Br  Br104  1  0.250244  0.936830  0.940580  1
  Br  Br105  1  0.750244  0.563170  0.440580  1
  Br  Br106  1  0.749756  0.063170  0.059420  1
  Br  Br107  1  0.249756  0.436830  0.559420  1
  O  O108  1  0.745977  0.004749  0.776388  1
  O  O109  1  0.245977  0.495251  0.276388  1
  O  O110  1  0.254023  0.995251  0.223612  1
  O  O111  1  0.754023  0.504749  0.723612  1
  O  O112  1  0.948614  0.040204  0.859184  1
  O  O113  1  0.448614  0.459796  0.359184  1
  O  O114  1  0.051386  0.959796  0.140816  1
  O  O115  1  0.551386  0.540204  0.640816  1
  O  O116  1  0.743161  0.151977  0.666598  1
  O  O117  1  0.243161  0.348023  0.166598  1
  O  O118  1  0.256839  0.848023  0.333402  1
  O  O119  1  0.756839  0.651977  0.833402  1
  O  O120  1  0.549021  0.030001  0.861470  1
  O  O121  1  0.049021  0.469999  0.361470  1
  O  O122  1  0.450979  0.969999  0.138530  1
  O  O123  1  0.950979  0.530001  0.638530  1
