# generated using pymatgen
data_Sm4U4O17
_symmetry_space_group_name_H-M   'P 1'
_cell_length_a   3.83532349
_cell_length_b   9.36074554
_cell_length_c   9.36074554
_cell_angle_alpha   108.25612939
_cell_angle_beta   90.00000000
_cell_angle_gamma   90.00000000
_symmetry_Int_Tables_number   1
_chemical_formula_structural   Sm4U4O17
_chemical_formula_sum   'Sm4 U4 O17'
_cell_volume   319.14907913
_cell_formula_units_Z   1
loop_
 _symmetry_equiv_pos_site_id
 _symmetry_equiv_pos_as_xyz
  1  'x, y, z'
loop_
 _atom_site_type_symbol
 _atom_site_label
 _atom_site_symmetry_multiplicity
 _atom_site_fract_x
 _atom_site_fract_y
 _atom_site_fract_z
 _atom_site_occupancy
  Sm  Sm0  1  0.500000  0.875000  0.625000  1
  Sm  Sm1  1  0.000000  0.749433  0.250567  1
  Sm  Sm2  1  0.500000  0.375000  0.125000  1
  Sm  Sm3  1  0.000000  0.000567  0.999433  1
  U  U4  1  0.500000  0.624780  0.874780  1
  U  U5  1  0.000000  0.494733  0.505267  1
  U  U6  1  0.000000  0.255267  0.744733  1
  U  U7  1  0.500000  0.125220  0.375220  1
  O  O8  1  0.500000  0.858957  0.876083  1
  O  O9  1  0.500000  0.891043  0.373917  1
  O  O10  1  0.500000  0.627396  0.633760  1
  O  O11  1  0.000000  0.727330  0.505989  1
  O  O12  1  0.500000  0.383760  0.877396  1
  O  O13  1  0.000000  0.515982  0.765982  1
  O  O14  1  0.500000  0.375000  0.625000  1
  O  O15  1  0.000000  0.234018  0.484018  1
  O  O16  1  0.000000  0.022670  0.744011  1
  O  O17  1  0.500000  0.626083  0.108957  1
  O  O18  1  0.000000  0.494011  0.272670  1
  O  O19  1  0.000000  0.739838  0.989838  1
  O  O20  1  0.500000  0.122604  0.616240  1
  O  O21  1  0.500000  0.366240  0.372604  1
  O  O22  1  0.000000  0.010162  0.260162  1
  O  O23  1  0.500000  0.123917  0.141043  1
  O  O24  1  0.000000  0.255989  0.977330  1
