# generated using pymatgen
data_Li2VO2F
_symmetry_space_group_name_H-M   'P 1'
_cell_length_a   5.87411117
_cell_length_b   5.15687322
_cell_length_c   4.21309475
_cell_angle_alpha   114.11021172
_cell_angle_beta   90.00000000
_cell_angle_gamma   107.71798021
_symmetry_Int_Tables_number   1
_chemical_formula_structural   Li2VO2F
_chemical_formula_sum   'Li4 V2 O4 F2'
_cell_volume   109.82390558
_cell_formula_units_Z   2
loop_
 _symmetry_equiv_pos_site_id
 _symmetry_equiv_pos_as_xyz
  1  'x, y, z'
loop_
 _atom_site_type_symbol
 _atom_site_label
 _atom_site_symmetry_multiplicity
 _atom_site_fract_x
 _atom_site_fract_y
 _atom_site_fract_z
 _atom_site_occupancy
  Li  Li0  1  0.501611  0.000696  0.000348  1
  Li  Li1  1  0.165056  0.665970  0.332986  1
  Li  Li2  1  0.833333  0.333333  0.666667  1
  Li  Li3  1  0.333333  0.333333  0.666667  1
  V  V4  1  0.668531  0.637328  0.318664  1
  V  V5  1  0.998136  0.029338  0.014669  1
  O  O6  1  0.833333  0.333333  0.166667  1
  O  O7  1  0.333333  0.333333  0.166667  1
  O  O8  1  0.685120  0.681094  0.840547  1
  O  O9  1  0.981546  0.985573  0.492786  1
  F  F10  1  0.498652  0.974089  0.487045  1
  F  F11  1  0.168015  0.692577  0.846289  1
