# generated using pymatgen
data_BaCaI4
_symmetry_space_group_name_H-M   'P 1'
_cell_length_a   18.71559541
_cell_length_b   10.86842191
_cell_length_c   10.83946421
_cell_angle_alpha   90.00000000
_cell_angle_beta   85.13530744
_cell_angle_gamma   90.00000000
_symmetry_Int_Tables_number   1
_chemical_formula_structural   BaCaI4
_chemical_formula_sum   'Ba8 Ca8 I32'
_cell_volume   2196.90202253
_cell_formula_units_Z   8
loop_
 _symmetry_equiv_pos_site_id
 _symmetry_equiv_pos_as_xyz
  1  'x, y, z'
loop_
 _atom_site_type_symbol
 _atom_site_label
 _atom_site_symmetry_multiplicity
 _atom_site_fract_x
 _atom_site_fract_y
 _atom_site_fract_z
 _atom_site_occupancy
  Ba  Ba0  1  0.151473  0.971743  0.606217  1
  Ba  Ba1  1  0.142939  0.706875  0.171197  1
  Ba  Ba2  1  0.348527  0.471743  0.893783  1
  Ba  Ba3  1  0.357061  0.206875  0.328803  1
  Ba  Ba4  1  0.642939  0.793125  0.671197  1
  Ba  Ba5  1  0.651473  0.528257  0.106217  1
  Ba  Ba6  1  0.857061  0.293125  0.828803  1
  Ba  Ba7  1  0.848527  0.028257  0.393783  1
  Ca  Ca8  1  0.082751  0.451909  0.641308  1
  Ca  Ca9  1  0.080745  0.166294  0.075873  1
  Ca  Ca10  1  0.417249  0.951909  0.858692  1
  Ca  Ca11  1  0.419255  0.666294  0.424127  1
  Ca  Ca12  1  0.580745  0.333706  0.575873  1
  Ca  Ca13  1  0.582751  0.048091  0.141308  1
  Ca  Ca14  1  0.919255  0.833706  0.924127  1
  Ca  Ca15  1  0.917249  0.548091  0.358692  1
  I  I16  1  0.043868  0.431044  0.176868  1
  I  I17  1  0.056426  0.224341  0.804620  1
  I  I18  1  0.053112  0.678781  0.481578  1
  I  I19  1  0.090674  0.895639  0.921417  1
  I  I20  1  0.102343  0.999683  0.299950  1
  I  I21  1  0.188247  0.567075  0.809808  1
  I  I22  1  0.189212  0.280524  0.483442  1
  I  I23  1  0.238823  0.257679  0.076021  1
  I  I24  1  0.261177  0.757679  0.423979  1
  I  I25  1  0.310788  0.780524  0.016558  1
  I  I26  1  0.311753  0.067075  0.690192  1
  I  I27  1  0.397657  0.499683  0.200050  1
  I  I28  1  0.409326  0.395639  0.578583  1
  I  I29  1  0.443574  0.724341  0.695380  1
  I  I30  1  0.446888  0.178781  0.018422  1
  I  I31  1  0.456132  0.931044  0.323132  1
  I  I32  1  0.543868  0.068956  0.676868  1
  I  I33  1  0.553112  0.821219  0.981578  1
  I  I34  1  0.556426  0.275659  0.304620  1
  I  I35  1  0.590674  0.604361  0.421417  1
  I  I36  1  0.602343  0.500317  0.799950  1
  I  I37  1  0.688247  0.932925  0.309808  1
  I  I38  1  0.689212  0.219476  0.983442  1
  I  I39  1  0.738823  0.242321  0.576021  1
  I  I40  1  0.761177  0.742321  0.923979  1
  I  I41  1  0.810788  0.719476  0.516558  1
  I  I42  1  0.811753  0.432925  0.190192  1
  I  I43  1  0.897657  0.000317  0.700050  1
  I  I44  1  0.909326  0.104361  0.078583  1
  I  I45  1  0.946888  0.321219  0.518422  1
  I  I46  1  0.943574  0.775659  0.195380  1
  I  I47  1  0.956132  0.568956  0.823132  1
