# generated using pymatgen
data_Li3Fe2(PO4)3
_symmetry_space_group_name_H-M   'P 1'
_cell_length_a   9.78082679
_cell_length_b   9.78202882
_cell_length_c   9.78202864
_cell_angle_alpha   86.45220158
_cell_angle_beta   86.55111447
_cell_angle_gamma   86.55110950
_symmetry_Int_Tables_number   1
_chemical_formula_structural   Li3Fe2(PO4)3
_chemical_formula_sum   'Li12 Fe8 P12 O48'
_cell_volume   930.92594624
_cell_formula_units_Z   4
loop_
 _symmetry_equiv_pos_site_id
 _symmetry_equiv_pos_as_xyz
  1  'x, y, z'
loop_
 _atom_site_type_symbol
 _atom_site_label
 _atom_site_symmetry_multiplicity
 _atom_site_fract_x
 _atom_site_fract_y
 _atom_site_fract_z
 _atom_site_occupancy
  Li  Li0  1  0.149349  0.039946  0.729333  1
  Li  Li1  1  0.279292  0.824153  0.984161  1
  Li  Li2  1  0.350651  0.770667  0.460054  1
  Li  Li3  1  0.220708  0.515839  0.675847  1
  Li  Li4  1  0.493167  0.515317  0.467990  1
  Li  Li5  1  0.006833  0.032010  0.984683  1
  Li  Li6  1  0.482834  0.342740  0.768336  1
  Li  Li7  1  0.017166  0.731664  0.157260  1
  Li  Li8  1  0.757424  0.499538  0.337545  1
  Li  Li9  1  0.652938  0.245225  0.500046  1
  Li  Li10  1  0.742576  0.162455  0.000462  1
  Li  Li11  1  0.847062  -0.000046  0.254775  1
  Fe  Fe12  1  0.528942  0.971831  0.750121  1
  Fe  Fe13  1  0.026504  0.255158  0.479062  1
  Fe  Fe14  1  0.250000  0.470338  0.029662  1
  Fe  Fe15  1  0.250000  0.247725  0.252275  1
  Fe  Fe16  1  0.750000  0.749200  0.750800  1
  Fe  Fe17  1  0.971058  0.749879  0.528169  1
  Fe  Fe18  1  0.750000  0.526745  0.973255  1
  Fe  Fe19  1  0.473496  0.020938  0.244842  1
  P  P20  1  0.150963  0.950092  0.327546  1
  P  P21  1  0.051827  0.673322  0.848074  1
  P  P22  1  0.172405  0.549581  0.348483  1
  P  P23  1  0.448173  0.651926  0.826678  1
  P  P24  1  0.652949  0.820961  0.450394  1
  P  P25  1  0.676875  0.846657  0.049050  1
  P  P26  1  0.327595  0.151517  0.950419  1
  P  P27  1  0.349037  0.172454  0.549908  1
  P  P28  1  0.550587  0.339723  0.179821  1
  P  P29  1  0.823125  0.450950  0.653343  1
  P  P30  1  0.949413  0.320179  0.160277  1
  P  P31  1  0.847051  0.049606  0.679039  1
  O  O32  1  0.068866  0.905352  0.211304  1
  O  O33  1  0.106948  0.882352  0.470003  1
  O  O34  1  0.096166  0.787526  0.933183  1
  O  O35  1  0.088248  0.689946  0.690600  1
  O  O36  1  0.308121  0.912676  0.310856  1
  O  O37  1  0.029030  0.617399  0.390527  1
  O  O38  1  0.121722  0.531124  0.890535  1
  O  O39  1  0.411752  0.809400  0.810054  1
  O  O40  1  0.187223  0.585127  0.190759  1
  O  O41  1  0.603313  0.961519  0.381733  1
  O  O42  1  0.532320  0.891828  0.110087  1
  O  O43  1  0.286221  0.594808  0.433437  1
  O  O44  1  0.378278  0.609465  0.968876  1
  O  O45  1  0.109376  0.326803  0.125039  1
  O  O46  1  0.169132  0.389105  0.379152  1
  O  O47  1  0.669759  0.877203  0.887323  1
  O  O48  1  0.623650  0.832983  0.611362  1
  O  O49  1  0.403834  0.566817  0.712474  1
  O  O50  1  0.574386  0.700144  0.412267  1
  O  O51  1  0.789478  0.934766  0.091397  1
  O  O52  1  0.607896  0.624142  0.834819  1
  O  O53  1  0.876350  0.888638  0.667017  1
  O  O54  1  0.312777  0.309241  0.914873  1
  O  O55  1  0.191879  0.189144  0.587324  1
  O  O56  1  0.810327  0.810389  0.411782  1
  O  O57  1  0.705085  0.691754  0.084130  1
  O  O58  1  0.121465  0.110054  0.333971  1
  O  O59  1  0.390624  0.374961  0.173197  1
  O  O60  1  0.213779  0.066563  0.905192  1
  O  O61  1  0.431134  0.288696  0.594648  1
  O  O62  1  0.598242  0.401315  0.307717  1
  O  O63  1  0.330868  0.120848  0.110895  1
  O  O64  1  0.378535  0.166029  0.389946  1
  O  O65  1  0.830241  0.612677  0.622797  1
  O  O66  1  0.892104  0.665181  0.875858  1
  O  O67  1  0.617771  0.393755  0.040683  1
  O  O68  1  0.710522  0.408603  0.565234  1
  O  O69  1  0.393052  0.029997  0.617648  1
  O  O70  1  0.470970  0.109473  0.882601  1
  O  O71  1  0.794915  0.415870  0.808246  1
  O  O72  1  0.585408  0.181705  0.182666  1
  O  O73  1  0.882229  0.459317  0.106245  1
  O  O74  1  0.967680  0.389913  0.608172  1
  O  O75  1  0.689673  0.088218  0.689611  1
  O  O76  1  0.914592  0.317334  0.318295  1
  O  O77  1  0.901758  0.192283  0.098685  1
  O  O78  1  0.896687  0.118267  0.538481  1
  O  O79  1  0.925614  0.087733  0.799856  1
