# generated using pymatgen
data_Zn3P2(H2O3)4
_symmetry_space_group_name_H-M   'P 1'
_cell_length_a   10.76003724
_cell_length_b   19.05636003
_cell_length_c   5.09388680
_cell_angle_alpha   90.00000000
_cell_angle_beta   90.00000000
_cell_angle_gamma   90.00000000
_symmetry_Int_Tables_number   1
_chemical_formula_structural   Zn3P2(H2O3)4
_chemical_formula_sum   'Zn12 P8 H32 O48'
_cell_volume   1044.48693807
_cell_formula_units_Z   4
loop_
 _symmetry_equiv_pos_site_id
 _symmetry_equiv_pos_as_xyz
  1  'x, y, z'
loop_
 _atom_site_type_symbol
 _atom_site_label
 _atom_site_symmetry_multiplicity
 _atom_site_fract_x
 _atom_site_fract_y
 _atom_site_fract_z
 _atom_site_occupancy
  Zn  Zn0  1  0.738523  0.250000  0.937867  1
  Zn  Zn1  1  0.238523  0.250000  0.562133  1
  Zn  Zn2  1  0.261477  0.750000  0.062133  1
  Zn  Zn3  1  0.761477  0.750000  0.437867  1
  Zn  Zn4  1  0.642143  0.998522  0.285012  1
  Zn  Zn5  1  0.142143  0.501478  0.214988  1
  Zn  Zn6  1  0.357857  0.498522  0.714988  1
  Zn  Zn7  1  0.857857  0.001478  0.785012  1
  Zn  Zn8  1  0.357857  0.001478  0.714988  1
  Zn  Zn9  1  0.857857  0.498522  0.785012  1
  Zn  Zn10  1  0.642143  0.501478  0.285012  1
  Zn  Zn11  1  0.142143  0.998522  0.214988  1
  P  P12  1  0.602905  0.093439  0.773450  1
  P  P13  1  0.102905  0.406561  0.726550  1
  P  P14  1  0.397095  0.593439  0.226550  1
  P  P15  1  0.897095  0.906561  0.273450  1
  P  P16  1  0.397095  0.906561  0.226550  1
  P  P17  1  0.897095  0.593439  0.273450  1
  P  P18  1  0.602905  0.406561  0.773450  1
  P  P19  1  0.102905  0.093439  0.726550  1
  H  H20  1  0.616304  0.209978  0.376289  1
  H  H21  1  0.116304  0.290022  0.123711  1
  H  H22  1  0.383696  0.709978  0.623711  1
  H  H23  1  0.883696  0.790022  0.876289  1
  H  H24  1  0.383696  0.790022  0.623711  1
  H  H25  1  0.883696  0.709978  0.876289  1
  H  H26  1  0.616304  0.290022  0.376289  1
  H  H27  1  0.116304  0.209978  0.123711  1
  H  H28  1  0.949606  0.209881  0.689440  1
  H  H29  1  0.449606  0.290119  0.810560  1
  H  H30  1  0.050394  0.709881  0.310560  1
  H  H31  1  0.550394  0.790119  0.189440  1
  H  H32  1  0.050394  0.790119  0.310560  1
  H  H33  1  0.550394  0.709881  0.189440  1
  H  H34  1  0.949606  0.290119  0.689440  1
  H  H35  1  0.449606  0.209881  0.810560  1
  H  H36  1  0.760915  0.134894  0.211745  1
  H  H37  1  0.260915  0.365106  0.288255  1
  H  H38  1  0.239085  0.634894  0.788255  1
  H  H39  1  0.739085  0.865106  0.711745  1
  H  H40  1  0.239085  0.865106  0.788255  1
  H  H41  1  0.739085  0.634894  0.711745  1
  H  H42  1  0.760915  0.365106  0.211745  1
  H  H43  1  0.260915  0.134894  0.288255  1
  H  H44  1  0.885973  0.135287  0.054949  1
  H  H45  1  0.385973  0.364713  0.445051  1
  H  H46  1  0.114027  0.635287  0.945051  1
  H  H47  1  0.614027  0.864713  0.554949  1
  H  H48  1  0.114027  0.864713  0.945051  1
  H  H49  1  0.614027  0.635287  0.554949  1
  H  H50  1  0.885973  0.364713  0.054949  1
  H  H51  1  0.385973  0.135287  0.445051  1
  O  O52  1  0.609945  0.250000  0.253506  1
  O  O53  1  0.109945  0.250000  0.246494  1
  O  O54  1  0.390055  0.750000  0.746494  1
  O  O55  1  0.890055  0.750000  0.753506  1
  O  O56  1  0.893462  0.250000  0.693132  1
  O  O57  1  0.393462  0.250000  0.806868  1
  O  O58  1  0.106538  0.750000  0.306868  1
  O  O59  1  0.606538  0.750000  0.193132  1
  O  O60  1  0.828078  0.165809  0.154496  1
  O  O61  1  0.328078  0.334191  0.345504  1
  O  O62  1  0.171922  0.665809  0.845504  1
  O  O63  1  0.671922  0.834191  0.654496  1
  O  O64  1  0.171922  0.834191  0.845504  1
  O  O65  1  0.671922  0.665809  0.654496  1
  O  O66  1  0.828078  0.334191  0.154496  1
  O  O67  1  0.328078  0.165809  0.345504  1
  O  O68  1  0.636819  0.169903  0.715062  1
  O  O69  1  0.136819  0.330097  0.784938  1
  O  O70  1  0.363181  0.669903  0.284938  1
  O  O71  1  0.863181  0.830097  0.215062  1
  O  O72  1  0.363181  0.830097  0.284938  1
  O  O73  1  0.863181  0.669903  0.215062  1
  O  O74  1  0.636819  0.330097  0.715062  1
  O  O75  1  0.136819  0.169903  0.784938  1
  O  O76  1  0.605966  0.079297  0.071771  1
  O  O77  1  0.105966  0.420703  0.428229  1
  O  O78  1  0.394034  0.579297  0.928229  1
  O  O79  1  0.894034  0.920703  0.571771  1
  O  O80  1  0.394034  0.920703  0.928229  1
  O  O81  1  0.894034  0.579297  0.571771  1
  O  O82  1  0.605966  0.420703  0.071771  1
  O  O83  1  0.105966  0.079297  0.428229  1
  O  O84  1  0.972032  0.078321  0.846714  1
  O  O85  1  0.472032  0.421679  0.653286  1
  O  O86  1  0.027968  0.578321  0.153286  1
  O  O87  1  0.527968  0.921679  0.346714  1
  O  O88  1  0.027968  0.921679  0.153286  1
  O  O89  1  0.527968  0.578321  0.346714  1
  O  O90  1  0.972032  0.421679  0.846714  1
  O  O91  1  0.472032  0.078321  0.653286  1
  O  O92  1  0.695682  0.039523  0.635351  1
  O  O93  1  0.195682  0.460477  0.864649  1
  O  O94  1  0.304318  0.539523  0.364649  1
  O  O95  1  0.804318  0.960477  0.135351  1
  O  O96  1  0.304318  0.960477  0.364649  1
  O  O97  1  0.804318  0.539523  0.135351  1
  O  O98  1  0.695682  0.460477  0.635351  1
  O  O99  1  0.195682  0.039523  0.864649  1
