# generated using pymatgen
data_Ba2CaI6
_symmetry_space_group_name_H-M   'P 1'
_cell_length_a   7.93930891
_cell_length_b   9.08331753
_cell_length_c   11.25359634
_cell_angle_alpha   90.00000000
_cell_angle_beta   91.18066982
_cell_angle_gamma   90.00000000
_symmetry_Int_Tables_number   1
_chemical_formula_structural   Ba2CaI6
_chemical_formula_sum   'Ba4 Ca2 I12'
_cell_volume   811.38376886
_cell_formula_units_Z   2
loop_
 _symmetry_equiv_pos_site_id
 _symmetry_equiv_pos_as_xyz
  1  'x, y, z'
loop_
 _atom_site_type_symbol
 _atom_site_label
 _atom_site_symmetry_multiplicity
 _atom_site_fract_x
 _atom_site_fract_y
 _atom_site_fract_z
 _atom_site_occupancy
  Ba  Ba0  1  0.446945  0.640427  0.800009  1
  Ba  Ba1  1  0.516569  0.858666  0.306289  1
  Ba  Ba2  1  0.946945  0.359573  0.300009  1
  Ba  Ba3  1  0.016569  0.141334  0.806289  1
  Ca  Ca4  1  0.481233  0.249697  0.553943  1
  Ca  Ca5  1  0.981233  0.750303  0.053943  1
  I  I6  1  0.106557  0.716235  0.315707  1
  I  I7  1  0.142789  0.441679  0.995096  1
  I  I8  1  0.154367  0.422861  0.616261  1
  I  I9  1  0.309291  0.920316  0.992118  1
  I  I10  1  0.319635  0.941563  0.613071  1
  I  I11  1  0.354821  0.213700  0.292343  1
  I  I12  1  0.606557  0.283765  0.815707  1
  I  I13  1  0.642789  0.558321  0.495096  1
  I  I14  1  0.654367  0.577139  0.116261  1
  I  I15  1  0.809291  0.079684  0.492118  1
  I  I16  1  0.819635  0.058437  0.113071  1
  I  I17  1  0.854821  0.786300  0.792343  1
