# generated using pymatgen
data_Li2MnCo3O8
_symmetry_space_group_name_H-M   'P 1'
_cell_length_a   8.11786823
_cell_length_b   8.11350881
_cell_length_c   8.12643922
_cell_angle_alpha   90.07395981
_cell_angle_beta   89.75691130
_cell_angle_gamma   90.04306978
_symmetry_Int_Tables_number   1
_chemical_formula_structural   Li2MnCo3O8
_chemical_formula_sum   'Li8 Mn4 Co12 O32'
_cell_volume   535.23759422
_cell_formula_units_Z   4
loop_
 _symmetry_equiv_pos_site_id
 _symmetry_equiv_pos_as_xyz
  1  'x, y, z'
loop_
 _atom_site_type_symbol
 _atom_site_label
 _atom_site_symmetry_multiplicity
 _atom_site_fract_x
 _atom_site_fract_y
 _atom_site_fract_z
 _atom_site_occupancy
  Li  Li0  1  0.996462  0.998607  0.997421  1
  Li  Li1  1  0.252430  0.252666  0.253403  1
  Li  Li2  1  0.246695  0.744704  0.752619  1
  Li  Li3  1  0.501936  0.004646  0.496679  1
  Li  Li4  1  0.495686  0.503705  0.003008  1
  Li  Li5  1  0.754778  0.246534  0.746713  1
  Li  Li6  1  0.748441  0.751721  0.246781  1
  Li  Li7  1  0.003358  0.497478  0.503023  1
  Mn  Mn8  1  0.124689  0.874965  0.374786  1
  Mn  Mn9  1  0.370690  0.128757  0.873467  1
  Mn  Mn10  1  0.623823  0.622840  0.624192  1
  Mn  Mn11  1  0.878547  0.374756  0.124109  1
  Co  Co12  1  0.125127  0.126114  0.624322  1
  Co  Co13  1  0.124554  0.375622  0.874597  1
  Co  Co14  1  0.124765  0.624435  0.124693  1
  Co  Co15  1  0.373664  0.375153  0.624831  1
  Co  Co16  1  0.374389  0.624607  0.375569  1
  Co  Co17  1  0.374230  0.874457  0.124777  1
  Co  Co18  1  0.624815  0.373940  0.374129  1
  Co  Co19  1  0.625513  0.126371  0.125526  1
  Co  Co20  1  0.625132  0.876042  0.875167  1
  Co  Co21  1  0.876080  0.125976  0.374799  1
  Co  Co22  1  0.876290  0.875367  0.624717  1
  Co  Co23  1  0.876385  0.623179  0.875638  1
  O  O24  1  0.113178  0.111884  0.387747  1
  O  O25  1  0.108106  0.884973  0.614235  1
  O  O26  1  0.109821  0.610096  0.889730  1
  O  O27  1  0.137644  0.135878  0.862323  1
  O  O28  1  0.112670  0.387268  0.113455  1
  O  O29  1  0.140406  0.360138  0.639855  1
  O  O30  1  0.138315  0.638133  0.363613  1
  O  O31  1  0.139342  0.862904  0.136978  1
  O  O32  1  0.362932  0.137971  0.637732  1
  O  O33  1  0.363229  0.362708  0.862597  1
  O  O34  1  0.359918  0.644222  0.140196  1
  O  O35  1  0.388155  0.612185  0.612504  1
  O  O36  1  0.363372  0.863568  0.358446  1
  O  O37  1  0.391553  0.390198  0.388756  1
  O  O38  1  0.388318  0.107806  0.111939  1
  O  O39  1  0.390998  0.884604  0.890554  1
  O  O40  1  0.615360  0.386818  0.609657  1
  O  O41  1  0.611492  0.610853  0.387582  1
  O  O42  1  0.608679  0.889560  0.109368  1
  O  O43  1  0.635711  0.363657  0.142250  1
  O  O44  1  0.613579  0.106798  0.888229  1
  O  O45  1  0.640687  0.141976  0.360442  1
  O  O46  1  0.641135  0.864181  0.637516  1
  O  O47  1  0.635761  0.642421  0.862318  1
  O  O48  1  0.859743  0.361633  0.363686  1
  O  O49  1  0.861201  0.138063  0.138031  1
  O  O50  1  0.857052  0.860539  0.858048  1
  O  O51  1  0.886912  0.889156  0.390328  1
  O  O52  1  0.862569  0.640318  0.638666  1
  O  O53  1  0.888598  0.107353  0.609021  1
  O  O54  1  0.887475  0.387693  0.887935  1
  O  O55  1  0.887610  0.611941  0.111439  1
