# generated using pymatgen
data_Ti17(NO4)6
_symmetry_space_group_name_H-M   'P 1'
_cell_length_a   10.39777687
_cell_length_b   11.47914298
_cell_length_c   11.30154482
_cell_angle_alpha   99.74432397
_cell_angle_beta   70.37167675
_cell_angle_gamma   68.40226644
_symmetry_Int_Tables_number   1
_chemical_formula_structural   Ti17(NO4)6
_chemical_formula_sum   'Ti34 N12 O48'
_cell_volume   1113.30837289
_cell_formula_units_Z   2
loop_
 _symmetry_equiv_pos_site_id
 _symmetry_equiv_pos_as_xyz
  1  'x, y, z'
loop_
 _atom_site_type_symbol
 _atom_site_label
 _atom_site_symmetry_multiplicity
 _atom_site_fract_x
 _atom_site_fract_y
 _atom_site_fract_z
 _atom_site_occupancy
  Ti  Ti0  1  0.852540  0.977896  0.571646  1
  Ti  Ti1  1  0.825361  0.904293  0.072471  1
  Ti  Ti2  1  0.927253  0.816761  0.748309  1
  Ti  Ti3  1  0.354028  0.982601  0.576606  1
  Ti  Ti4  1  0.323076  0.904282  0.072064  1
  Ti  Ti5  1  0.572278  0.853071  0.250658  1
  Ti  Ti6  1  0.821068  0.567346  0.076440  1
  Ti  Ti7  1  0.676924  0.762385  0.927936  1
  Ti  Ti8  1  0.852565  0.644577  0.572570  1
  Ti  Ti9  1  0.645972  0.684066  0.423394  1
  Ti  Ti10  1  0.427722  0.813595  0.749342  1
  Ti  Ti11  1  0.072747  0.849906  0.251691  1
  Ti  Ti12  1  0.928554  0.480257  0.750278  1
  Ti  Ti13  1  0.327891  0.568794  0.070059  1
  Ti  Ti14  1  0.359333  0.638928  0.552857  1
  Ti  Ti15  1  0.147460  0.688771  0.428354  1
  Ti  Ti16  1  0.174639  0.762373  0.927529  1
  Ti  Ti17  1  0.820594  0.243562  0.077053  1
  Ti  Ti18  1  0.071491  0.516997  0.249274  1
  Ti  Ti19  1  0.851794  0.311800  0.574616  1
  Ti  Ti20  1  0.665782  0.434964  0.942749  1
  Ti  Ti21  1  0.646693  0.359370  0.423335  1
  Ti  Ti22  1  0.427531  0.484258  0.749202  1
  Ti  Ti23  1  0.928509  0.149670  0.750726  1
  Ti  Ti24  1  0.179406  0.423105  0.922947  1
  Ti  Ti25  1  0.353307  0.307296  0.576665  1
  Ti  Ti26  1  0.572469  0.182409  0.250798  1
  Ti  Ti27  1  0.334218  0.231702  0.057251  1
  Ti  Ti28  1  0.148206  0.354867  0.425384  1
  Ti  Ti29  1  0.672109  0.097872  0.929941  1
  Ti  Ti30  1  0.640667  0.027739  0.447143  1
  Ti  Ti31  1  0.071446  0.186410  0.249722  1
  Ti  Ti32  1  0.178932  0.099320  0.923560  1
  Ti  Ti33  1  0.147435  0.022089  0.427430  1
  N  N34  1  0.647870  0.991683  0.249362  1
  N  N35  1  0.144349  0.994695  0.249773  1
  N  N36  1  0.855651  0.671972  0.750227  1
  N  N37  1  0.654653  0.671404  0.250460  1
  N  N38  1  0.352130  0.674983  0.750638  1
  N  N39  1  0.142133  0.659531  0.249834  1
  N  N40  1  0.855432  0.339825  0.750829  1
  N  N41  1  0.654404  0.310090  0.250597  1
  N  N42  1  0.144568  0.326842  0.249171  1
  N  N43  1  0.345596  0.356577  0.749403  1
  N  N44  1  0.857867  0.007136  0.750166  1
  N  N45  1  0.345347  0.995262  0.749540  1
  O  O46  1  0.860153  0.943129  0.377282  1
  O  O47  1  0.989830  0.856069  0.117820  1
  O  O48  1  0.590608  0.877912  0.438178  1
  O  O49  1  0.720019  0.915885  0.935625  1
  O  O50  1  0.777816  0.753165  0.063472  1
  O  O51  1  0.356891  0.941965  0.379578  1
  O  O52  1  0.903133  0.793135  0.565007  1
  O  O53  1  0.488015  0.857360  0.118485  1
  O  O54  1  0.511985  0.809307  0.881515  1
  O  O55  1  0.096867  0.873532  0.434993  1
  O  O56  1  0.987571  0.526157  0.119837  1
  O  O57  1  0.643109  0.724702  0.620422  1
  O  O58  1  0.222184  0.913501  0.936528  1
  O  O59  1  0.409392  0.788755  0.561822  1
  O  O60  1  0.279981  0.750782  0.064375  1
  O  O61  1  0.857105  0.610116  0.381827  1
  O  O62  1  0.599594  0.541646  0.448690  1
  O  O63  1  0.719553  0.582763  0.938278  1
  O  O64  1  0.798173  0.409457  0.052309  1
  O  O65  1  0.904724  0.458542  0.564216  1
  O  O66  1  0.348659  0.615186  0.389240  1
  O  O67  1  0.010170  0.810598  0.882180  1
  O  O68  1  0.488433  0.521806  0.109150  1
  O  O69  1  0.139847  0.723538  0.622718  1
  O  O70  1  0.858163  0.278724  0.380957  1
  O  O71  1  0.512437  0.475529  0.877095  1
  O  O72  1  0.409093  0.459005  0.561670  1
  O  O73  1  0.988660  0.188293  0.119228  1
  O  O74  1  0.643662  0.385969  0.618904  1
  O  O75  1  0.092825  0.541132  0.436598  1
  O  O76  1  0.220174  0.584324  0.933912  1
  O  O77  1  0.279346  0.416531  0.061428  1
  O  O78  1  0.141837  0.387943  0.619043  1
  O  O79  1  0.907175  0.125535  0.563402  1
  O  O80  1  0.011340  0.478374  0.880772  1
  O  O81  1  0.720654  0.250136  0.938572  1
  O  O82  1  0.487563  0.191137  0.122905  1
  O  O83  1  0.590907  0.207661  0.438330  1
  O  O84  1  0.779826  0.082342  0.066088  1
  O  O85  1  0.356338  0.280697  0.381096  1
  O  O86  1  0.651341  0.051480  0.610760  1
  O  O87  1  0.280447  0.083903  0.061722  1
  O  O88  1  0.511567  0.144861  0.890850  1
  O  O89  1  0.201827  0.257210  0.947691  1
  O  O90  1  0.400406  0.125021  0.551310  1
  O  O91  1  0.095276  0.208125  0.435784  1
  O  O92  1  0.012429  0.140510  0.880163  1
  O  O93  1  0.142895  0.056551  0.618173  1
