# generated using pymatgen
data_H5CSO5F3
_symmetry_space_group_name_H-M   'P 1'
_cell_length_a   10.31723626
_cell_length_b   8.87805423
_cell_length_c   7.83488301
_cell_angle_alpha   90.00000000
_cell_angle_beta   97.62954319
_cell_angle_gamma   90.00000000
_symmetry_Int_Tables_number   1
_chemical_formula_structural   H5CSO5F3
_chemical_formula_sum   'H20 C4 S4 O20 F12'
_cell_volume   711.29842936
_cell_formula_units_Z   4
loop_
 _symmetry_equiv_pos_site_id
 _symmetry_equiv_pos_as_xyz
  1  'x, y, z'
loop_
 _atom_site_type_symbol
 _atom_site_label
 _atom_site_symmetry_multiplicity
 _atom_site_fract_x
 _atom_site_fract_y
 _atom_site_fract_z
 _atom_site_occupancy
  H  H0  1  0.662773  0.523669  0.132854  1
  H  H1  1  0.337227  0.023669  0.367146  1
  H  H2  1  0.337227  0.476331  0.867146  1
  H  H3  1  0.662773  0.976331  0.632854  1
  H  H4  1  0.609766  0.719828  0.089396  1
  H  H5  1  0.390234  0.219828  0.410604  1
  H  H6  1  0.390234  0.280172  0.910604  1
  H  H7  1  0.609766  0.780172  0.589396  1
  H  H8  1  0.504721  0.608705  0.165576  1
  H  H9  1  0.495279  0.108705  0.334424  1
  H  H10  1  0.495279  0.391295  0.834424  1
  H  H11  1  0.504721  0.891295  0.665576  1
  H  H12  1  0.751412  0.341587  0.104701  1
  H  H13  1  0.248588  0.841587  0.395299  1
  H  H14  1  0.248588  0.658413  0.895299  1
  H  H15  1  0.751412  0.158413  0.604701  1
  H  H16  1  0.754899  0.404722  0.299001  1
  H  H17  1  0.245101  0.904722  0.200999  1
  H  H18  1  0.245101  0.595278  0.700999  1
  H  H19  1  0.754899  0.095278  0.799001  1
  C  C20  1  0.869253  0.541489  0.736285  1
  C  C21  1  0.130747  0.041489  0.763715  1
  C  C22  1  0.130747  0.458511  0.263715  1
  C  C23  1  0.869253  0.958511  0.236285  1
  S  S24  1  0.708366  0.470085  0.627524  1
  S  S25  1  0.291634  0.970085  0.872476  1
  S  S26  1  0.291634  0.529915  0.372476  1
  S  S27  1  0.708366  0.029915  0.127524  1
  O  O28  1  0.646845  0.599940  0.535978  1
  O  O29  1  0.353155  0.099940  0.964022  1
  O  O30  1  0.353155  0.400060  0.464022  1
  O  O31  1  0.646845  0.900060  0.035978  1
  O  O32  1  0.745924  0.351363  0.511289  1
  O  O33  1  0.254076  0.851363  0.988711  1
  O  O34  1  0.254076  0.648637  0.488711  1
  O  O35  1  0.745924  0.148637  0.011289  1
  O  O36  1  0.645219  0.411636  0.769569  1
  O  O37  1  0.354781  0.911636  0.730431  1
  O  O38  1  0.354781  0.588364  0.230431  1
  O  O39  1  0.645219  0.088364  0.269569  1
  O  O40  1  0.578431  0.614129  0.095918  1
  O  O41  1  0.421569  0.114129  0.404082  1
  O  O42  1  0.421569  0.385871  0.904082  1
  O  O43  1  0.578431  0.885871  0.595918  1
  O  O44  1  0.751405  0.434085  0.175631  1
  O  O45  1  0.248595  0.934085  0.324369  1
  O  O46  1  0.248595  0.565915  0.824369  1
  O  O47  1  0.751405  0.065915  0.675631  1
  F  F48  1  0.848831  0.650503  0.850672  1
  F  F49  1  0.151169  0.150503  0.649328  1
  F  F50  1  0.151169  0.349497  0.149328  1
  F  F51  1  0.848831  0.849497  0.350672  1
  F  F52  1  0.937992  0.428106  0.820541  1
  F  F53  1  0.062008  0.928106  0.679459  1
  F  F54  1  0.062008  0.571894  0.179459  1
  F  F55  1  0.937992  0.071894  0.320541  1
  F  F56  1  0.939555  0.600028  0.618559  1
  F  F57  1  0.060445  0.100028  0.881441  1
  F  F58  1  0.060445  0.399972  0.381441  1
  F  F59  1  0.939555  0.899972  0.118559  1
