# generated using pymatgen
data_Mn3CrNi2(PO4)6
_symmetry_space_group_name_H-M   'P 1'
_cell_length_a   8.43377676
_cell_length_b   8.43377665
_cell_length_c   8.43377692
_cell_angle_alpha   60.73739389
_cell_angle_beta   60.73739995
_cell_angle_gamma   60.73739347
_symmetry_Int_Tables_number   1
_chemical_formula_structural   Mn3CrNi2(PO4)6
_chemical_formula_sum   'Mn3 Cr1 Ni2 P6 O24'
_cell_volume   431.23905336
_cell_formula_units_Z   1
loop_
 _symmetry_equiv_pos_site_id
 _symmetry_equiv_pos_as_xyz
  1  'x, y, z'
loop_
 _atom_site_type_symbol
 _atom_site_label
 _atom_site_symmetry_multiplicity
 _atom_site_fract_x
 _atom_site_fract_y
 _atom_site_fract_z
 _atom_site_occupancy
  Mn  Mn0  1  0.141739  0.141739  0.141739  1
  Mn  Mn1  1  0.358444  0.358444  0.358444  1
  Mn  Mn2  1  0.642027  0.642027  0.642027  1
  Cr  Cr3  1  0.859602  0.859602  0.859602  1
  Ni  Ni4  1  0.999859  0.999859  0.999859  1
  Ni  Ni5  1  0.500585  0.500585  0.500585  1
  P  P6  1  0.042131  0.749649  0.457000  1
  P  P7  1  0.457000  0.042131  0.749649  1
  P  P8  1  0.749649  0.457000  0.042131  1
  P  P9  1  0.250214  0.541338  0.960165  1
  P  P10  1  0.541338  0.960165  0.250214  1
  P  P11  1  0.960165  0.250214  0.541338  1
  O  O12  1  0.119958  0.314517  0.504220  1
  O  O13  1  0.314517  0.504220  0.119958  1
  O  O14  1  0.060371  0.909881  0.255434  1
  O  O15  1  0.504220  0.119958  0.314517  1
  O  O16  1  0.009374  0.811633  0.613908  1
  O  O17  1  0.242907  0.583109  0.444042  1
  O  O18  1  0.255434  0.060371  0.909881  1
  O  O19  1  0.444042  0.242907  0.583109  1
  O  O20  1  0.189256  0.382912  0.990987  1
  O  O21  1  0.583109  0.444042  0.242907  1
  O  O22  1  0.089538  0.740920  0.945615  1
  O  O23  1  0.382912  0.990987  0.189256  1
  O  O24  1  0.613908  0.009374  0.811633  1
  O  O25  1  0.909881  0.255434  0.060371  1
  O  O26  1  0.413782  0.554505  0.760030  1
  O  O27  1  0.811633  0.613908  0.009374  1
  O  O28  1  0.554505  0.760030  0.413782  1
  O  O29  1  0.740920  0.945615  0.089538  1
  O  O30  1  0.760030  0.413782  0.554505  1
  O  O31  1  0.990987  0.189256  0.382912  1
  O  O32  1  0.487756  0.883328  0.689268  1
  O  O33  1  0.945615  0.089538  0.740920  1
  O  O34  1  0.689268  0.487756  0.883328  1
  O  O35  1  0.883328  0.689268  0.487756  1
