# generated using pymatgen
data_Fe6O7F5
_symmetry_space_group_name_H-M   'P 1'
_cell_length_a   4.76264536
_cell_length_b   4.76264536
_cell_length_c   9.11406999
_cell_angle_alpha   89.81261530
_cell_angle_beta   90.18738470
_cell_angle_gamma   94.03642040
_symmetry_Int_Tables_number   1
_chemical_formula_structural   Fe6O7F5
_chemical_formula_sum   'Fe6 O7 F5'
_cell_volume   206.21768395
_cell_formula_units_Z   1
loop_
 _symmetry_equiv_pos_site_id
 _symmetry_equiv_pos_as_xyz
  1  'x, y, z'
loop_
 _atom_site_type_symbol
 _atom_site_label
 _atom_site_symmetry_multiplicity
 _atom_site_fract_x
 _atom_site_fract_y
 _atom_site_fract_z
 _atom_site_occupancy
  Fe  Fe0  1  0.987681  0.001348  0.005998  1
  Fe  Fe1  1  0.026112  0.026112  0.333333  1
  Fe  Fe2  1  0.001348  0.987681  0.660669  1
  Fe  Fe3  1  0.527516  0.453976  0.158571  1
  Fe  Fe4  1  0.497350  0.497350  0.833333  1
  Fe  Fe5  1  0.453976  0.527516  0.508096  1
  O  O6  1  0.183078  0.819442  0.499529  1
  O  O7  1  0.307216  0.295161  0.989385  1
  O  O8  1  0.320850  0.320850  0.333333  1
  O  O9  1  0.295161  0.307216  0.677282  1
  O  O10  1  0.695566  0.684779  0.991631  1
  O  O11  1  0.684779  0.695566  0.675036  1
  O  O12  1  0.819442  0.183078  0.167138  1
  F  F13  1  0.202182  0.802936  0.166148  1
  F  F14  1  0.184624  0.805109  0.835103  1
  F  F15  1  0.705070  0.705070  0.333333  1
  F  F16  1  0.805109  0.184624  0.831564  1
  F  F17  1  0.802936  0.202182  0.500519  1
