# generated using pymatgen
data_LiMnSiO4
_symmetry_space_group_name_H-M   'P 1'
_cell_length_a   5.98560571
_cell_length_b   5.67539357
_cell_length_c   5.69421171
_cell_angle_alpha   59.89026129
_cell_angle_beta   90.00000000
_cell_angle_gamma   121.82520155
_symmetry_Int_Tables_number   1
_chemical_formula_structural   LiMnSiO4
_chemical_formula_sum   'Li2 Mn2 Si2 O8'
_cell_volume   132.65025879
_cell_formula_units_Z   2
loop_
 _symmetry_equiv_pos_site_id
 _symmetry_equiv_pos_as_xyz
  1  'x, y, z'
loop_
 _atom_site_type_symbol
 _atom_site_label
 _atom_site_symmetry_multiplicity
 _atom_site_fract_x
 _atom_site_fract_y
 _atom_site_fract_z
 _atom_site_occupancy
  Li  Li0  1  0.000000  0.500000  0.000000  1
  Li  Li1  1  0.000000  0.500000  0.500000  1
  Mn  Mn2  1  0.000000  0.000000  0.000000  1
  Mn  Mn3  1  0.500000  0.000000  0.000000  1
  Si  Si4  1  0.383400  0.266798  0.366600  1
  Si  Si5  1  0.616600  0.733202  0.633400  1
  O  O6  1  0.256852  0.013705  0.255817  1
  O  O7  1  0.743148  0.986295  0.269522  1
  O  O8  1  0.271255  0.505438  0.247281  1
  O  O9  1  0.734183  0.505438  0.247281  1
  O  O10  1  0.256852  0.013705  0.730478  1
  O  O11  1  0.743148  0.986295  0.744183  1
  O  O12  1  0.265817  0.494562  0.752719  1
  O  O13  1  0.728745  0.494562  0.752719  1
