# generated using pymatgen
data_LiCu5(PO4)2
_symmetry_space_group_name_H-M   'P 1'
_cell_length_a   6.23277203
_cell_length_b   5.62092717
_cell_length_c   10.30148613
_cell_angle_alpha   91.72700683
_cell_angle_beta   90.51501077
_cell_angle_gamma   88.19528326
_symmetry_Int_Tables_number   1
_chemical_formula_structural   LiCu5(PO4)2
_chemical_formula_sum   'Li2 Cu10 P4 O16'
_cell_volume   360.54728419
_cell_formula_units_Z   2
loop_
 _symmetry_equiv_pos_site_id
 _symmetry_equiv_pos_as_xyz
  1  'x, y, z'
loop_
 _atom_site_type_symbol
 _atom_site_label
 _atom_site_symmetry_multiplicity
 _atom_site_fract_x
 _atom_site_fract_y
 _atom_site_fract_z
 _atom_site_occupancy
  Li  Li0  1  0.004061  0.138672  0.746631  1
  Li  Li1  1  0.244309  0.689168  0.242747  1
  Cu  Cu2  1  0.995537  0.255117  0.229286  1
  Cu  Cu3  1  0.273860  0.377523  0.511065  1
  Cu  Cu4  1  0.217126  0.332485  0.009713  1
  Cu  Cu5  1  0.287513  0.648819  0.722662  1
  Cu  Cu6  1  0.513149  0.743399  0.983776  1
  Cu  Cu7  1  0.498008  0.745897  0.496611  1
  Cu  Cu8  1  0.698703  0.634259  0.722271  1
  Cu  Cu9  1  0.755175  0.648330  0.226898  1
  Cu  Cu10  1  0.734257  0.372173  0.499316  1
  Cu  Cu11  1  0.763492  0.365615  0.012771  1
  P  P12  1  0.007431  0.832610  0.996627  1
  P  P13  1  0.001103  0.853500  0.497344  1
  P  P14  1  0.488407  0.157230  0.260207  1
  P  P15  1  0.504951  0.174191  0.763396  1
  O  O16  1  0.008737  0.831656  0.647219  1
  O  O17  1  0.997346  0.116668  0.458112  1
  O  O18  1  0.997426  0.844292  0.146848  1
  O  O19  1  0.007164  0.082095  0.936648  1
  O  O20  1  0.196974  0.714995  0.432042  1
  O  O21  1  0.212211  0.685463  0.950418  1
  O  O22  1  0.294714  0.321531  0.213693  1
  O  O23  1  0.290062  0.292133  0.711808  1
  O  O24  1  0.506437  0.177047  0.913092  1
  O  O25  1  0.507223  0.918095  0.703772  1
  O  O26  1  0.497373  0.157769  0.410573  1
  O  O27  1  0.479025  0.901028  0.203331  1
  O  O28  1  0.713773  0.287884  0.712068  1
  O  O29  1  0.689216  0.282870  0.206890  1
  O  O30  1  0.802047  0.720849  0.439112  1
  O  O31  1  0.813190  0.696638  0.935648  1
