# generated using pymatgen
data_La(HO)3
_symmetry_space_group_name_H-M   'P 1'
_cell_length_a   11.56137866
_cell_length_b   6.77434202
_cell_length_c   10.86601693
_cell_angle_alpha   90.00000000
_cell_angle_beta   93.66184409
_cell_angle_gamma   90.00000000
_symmetry_Int_Tables_number   1
_chemical_formula_structural   La(HO)3
_chemical_formula_sum   'La8 H24 O24'
_cell_volume   849.29691748
_cell_formula_units_Z   8
loop_
 _symmetry_equiv_pos_site_id
 _symmetry_equiv_pos_as_xyz
  1  'x, y, z'
loop_
 _atom_site_type_symbol
 _atom_site_label
 _atom_site_symmetry_multiplicity
 _atom_site_fract_x
 _atom_site_fract_y
 _atom_site_fract_z
 _atom_site_occupancy
  La  La0  1  0.167725  0.534361  0.998877  1
  La  La1  1  0.166541  0.528362  0.501465  1
  La  La2  1  0.333459  0.028362  0.998535  1
  La  La3  1  0.332275  0.034361  0.501123  1
  La  La4  1  0.667725  0.965639  0.498877  1
  La  La5  1  0.666541  0.971638  0.001465  1
  La  La6  1  0.833459  0.471638  0.498535  1
  La  La7  1  0.832275  0.465639  0.001123  1
  H  H8  1  0.001515  0.361158  0.300278  1
  H  H9  1  0.032369  0.213194  0.112508  1
  H  H10  1  0.101042  0.152383  0.869742  1
  H  H11  1  0.095494  0.924714  0.393667  1
  H  H12  1  0.199236  0.222170  0.706384  1
  H  H13  1  0.181083  0.850510  0.197370  1
  H  H14  1  0.300764  0.722170  0.793616  1
  H  H15  1  0.318917  0.350510  0.302630  1
  H  H16  1  0.398958  0.652383  0.630258  1
  H  H17  1  0.404506  0.424714  0.106333  1
  H  H18  1  0.501515  0.138842  0.800278  1
  H  H19  1  0.467631  0.713194  0.387492  1
  H  H20  1  0.532369  0.286806  0.612508  1
  H  H21  1  0.498485  0.861158  0.199722  1
  H  H22  1  0.595494  0.575286  0.893667  1
  H  H23  1  0.601042  0.347617  0.369742  1
  H  H24  1  0.681083  0.649490  0.697370  1
  H  H25  1  0.699236  0.277830  0.206384  1
  H  H26  1  0.818917  0.149490  0.802630  1
  H  H27  1  0.800764  0.777830  0.293616  1
  H  H28  1  0.904506  0.075286  0.606333  1
  H  H29  1  0.898958  0.847617  0.130258  1
  H  H30  1  0.967631  0.786806  0.887492  1
  H  H31  1  0.998485  0.638842  0.699722  1
  O  O32  1  -0.000017  0.617547  0.610589  1
  O  O33  1  0.016378  0.354454  0.107400  1
  O  O34  1  0.175553  0.218225  0.884248  1
  O  O35  1  0.169127  0.853949  0.394929  1
  O  O36  1  0.210092  0.230076  0.617333  1
  O  O37  1  0.187639  0.845301  0.107834  1
  O  O38  1  0.289908  0.730077  0.882667  1
  O  O39  1  0.324447  0.718225  0.615752  1
  O  O40  1  0.312360  0.345301  0.392166  1
  O  O41  1  0.330873  0.353949  0.105071  1
  O  O42  1  0.500017  0.117547  0.889411  1
  O  O43  1  0.483622  0.854454  0.392600  1
  O  O44  1  0.516378  0.145546  0.607400  1
  O  O45  1  0.499983  0.882453  0.110589  1
  O  O46  1  0.669127  0.646051  0.894929  1
  O  O47  1  0.687639  0.654699  0.607834  1
  O  O48  1  0.675553  0.281775  0.384248  1
  O  O49  1  0.710092  0.269923  0.117333  1
  O  O50  1  0.812361  0.154699  0.892166  1
  O  O51  1  0.789908  0.769923  0.382667  1
  O  O52  1  0.830873  0.146051  0.605071  1
  O  O53  1  0.824447  0.781775  0.115752  1
  O  O54  1  0.983622  0.645546  0.892600  1
  O  O55  1  0.000017  0.382453  0.389411  1
