# generated using pymatgen
data_LiCuS
_symmetry_space_group_name_H-M   'P 1'
_cell_length_a   12.38011453
_cell_length_b   5.29985605
_cell_length_c   16.11785164
_cell_angle_alpha   90.00000000
_cell_angle_beta   90.00000000
_cell_angle_gamma   90.00000000
_symmetry_Int_Tables_number   1
_chemical_formula_structural   LiCuS
_chemical_formula_sum   'Li24 Cu24 S24'
_cell_volume   1057.53777728
_cell_formula_units_Z   24
loop_
 _symmetry_equiv_pos_site_id
 _symmetry_equiv_pos_as_xyz
  1  'x, y, z'
loop_
 _atom_site_type_symbol
 _atom_site_label
 _atom_site_symmetry_multiplicity
 _atom_site_fract_x
 _atom_site_fract_y
 _atom_site_fract_z
 _atom_site_occupancy
  Li  Li0  1  0.077925  0.840207  0.177939  1
  Li  Li1  1  0.077925  0.159793  0.677939  1
  Li  Li2  1  0.074780  0.332983  0.337333  1
  Li  Li3  1  0.074780  0.667017  0.837333  1
  Li  Li4  1  0.078280  0.269280  0.010698  1
  Li  Li5  1  0.078280  0.730720  0.510698  1
  Li  Li6  1  0.421720  0.769280  0.010698  1
  Li  Li7  1  0.421720  0.230720  0.510698  1
  Li  Li8  1  0.425220  0.832983  0.337333  1
  Li  Li9  1  0.425220  0.167017  0.837333  1
  Li  Li10  1  0.422075  0.340207  0.177939  1
  Li  Li11  1  0.422075  0.659793  0.677939  1
  Li  Li12  1  0.577925  0.659793  0.822061  1
  Li  Li13  1  0.577925  0.340207  0.322061  1
  Li  Li14  1  0.574780  0.832983  0.162667  1
  Li  Li15  1  0.574780  0.167017  0.662667  1
  Li  Li16  1  0.578280  0.230720  0.989302  1
  Li  Li17  1  0.578280  0.769280  0.489302  1
  Li  Li18  1  0.921720  0.269280  0.489302  1
  Li  Li19  1  0.921720  0.730720  0.989302  1
  Li  Li20  1  0.925220  0.667017  0.662667  1
  Li  Li21  1  0.925220  0.332983  0.162667  1
  Li  Li22  1  0.922075  0.840207  0.322061  1
  Li  Li23  1  0.922075  0.159793  0.822061  1
  Cu  Cu24  1  0.235335  0.596950  0.096959  1
  Cu  Cu25  1  0.235335  0.403050  0.596959  1
  Cu  Cu26  1  0.258006  0.404681  0.765892  1
  Cu  Cu27  1  0.258006  0.595319  0.265892  1
  Cu  Cu28  1  0.238058  0.968719  0.428472  1
  Cu  Cu29  1  0.238058  0.031281  0.928472  1
  Cu  Cu30  1  0.261942  0.468719  0.428472  1
  Cu  Cu31  1  0.261942  0.531281  0.928472  1
  Cu  Cu32  1  0.241994  0.095319  0.265892  1
  Cu  Cu33  1  0.241994  0.904681  0.765892  1
  Cu  Cu34  1  0.264665  0.096950  0.096959  1
  Cu  Cu35  1  0.264665  0.903050  0.596959  1
  Cu  Cu36  1  0.735335  0.903050  0.903041  1
  Cu  Cu37  1  0.735335  0.096950  0.403041  1
  Cu  Cu38  1  0.758006  0.904681  0.734108  1
  Cu  Cu39  1  0.758006  0.095319  0.234108  1
  Cu  Cu40  1  0.738058  0.468719  0.071528  1
  Cu  Cu41  1  0.738058  0.531281  0.571528  1
  Cu  Cu42  1  0.761942  0.031281  0.571528  1
  Cu  Cu43  1  0.761942  0.968719  0.071528  1
  Cu  Cu44  1  0.741994  0.404681  0.734108  1
  Cu  Cu45  1  0.741994  0.595319  0.234108  1
  Cu  Cu46  1  0.764665  0.596950  0.403041  1
  Cu  Cu47  1  0.764665  0.403050  0.903041  1
  S  S48  1  0.118151  0.199504  0.830969  1
  S  S49  1  0.118151  0.800496  0.330969  1
  S  S50  1  0.126061  0.295592  0.167932  1
  S  S51  1  0.126061  0.704408  0.667932  1
  S  S52  1  0.121371  0.255869  0.495124  1
  S  S53  1  0.121371  0.744131  0.995124  1
  S  S54  1  0.378629  0.244131  0.995124  1
  S  S55  1  0.378629  0.755869  0.495124  1
  S  S56  1  0.373939  0.795592  0.167932  1
  S  S57  1  0.373939  0.204408  0.667932  1
  S  S58  1  0.381849  0.300496  0.330969  1
  S  S59  1  0.381849  0.699504  0.830969  1
  S  S60  1  0.618151  0.699504  0.669031  1
  S  S61  1  0.618151  0.300496  0.169031  1
  S  S62  1  0.626061  0.795592  0.332068  1
  S  S63  1  0.626061  0.204408  0.832068  1
  S  S64  1  0.621371  0.244131  0.504876  1
  S  S65  1  0.621371  0.755869  0.004876  1
  S  S66  1  0.878629  0.744131  0.504876  1
  S  S67  1  0.878629  0.255869  0.004876  1
  S  S68  1  0.873939  0.295592  0.332068  1
  S  S69  1  0.873939  0.704408  0.832068  1
  S  S70  1  0.881849  0.199504  0.669031  1
  S  S71  1  0.881849  0.800496  0.169031  1
