# generated using pymatgen
data_YHO2
_symmetry_space_group_name_H-M   'P 1'
_cell_length_a   5.50978902
_cell_length_b   4.86454340
_cell_length_c   3.51714435
_cell_angle_alpha   90.00000000
_cell_angle_beta   90.00000000
_cell_angle_gamma   90.00000000
_symmetry_Int_Tables_number   1
_chemical_formula_structural   YHO2
_chemical_formula_sum   'Y2 H2 O4'
_cell_volume   94.26864063
_cell_formula_units_Z   2
loop_
 _symmetry_equiv_pos_site_id
 _symmetry_equiv_pos_as_xyz
  1  'x, y, z'
loop_
 _atom_site_type_symbol
 _atom_site_label
 _atom_site_symmetry_multiplicity
 _atom_site_fract_x
 _atom_site_fract_y
 _atom_site_fract_z
 _atom_site_occupancy
  Y  Y0  1  0.016969  0.276534  0.000000  1
  Y  Y1  1  0.516969  0.723466  0.500000  1
  H  H2  1  0.036788  0.804727  0.500000  1
  H  H3  1  0.536788  0.195273  0.000000  1
  O  O4  1  0.142594  0.977019  0.500000  1
  O  O5  1  0.380872  0.479580  0.000000  1
  O  O6  1  0.642594  0.022981  0.000000  1
  O  O7  1  0.880872  0.520420  0.500000  1
