# generated using pymatgen
data_Li2VP3O10
_symmetry_space_group_name_H-M   'P 1'
_cell_length_a   12.14638361
_cell_length_b   7.99568954
_cell_length_c   9.95958645
_cell_angle_alpha   90.00000000
_cell_angle_beta   96.52705055
_cell_angle_gamma   90.00000000
_symmetry_Int_Tables_number   1
_chemical_formula_structural   Li2VP3O10
_chemical_formula_sum   'Li8 V4 P12 O40'
_cell_volume   960.99270775
_cell_formula_units_Z   4
loop_
 _symmetry_equiv_pos_site_id
 _symmetry_equiv_pos_as_xyz
  1  'x, y, z'
loop_
 _atom_site_type_symbol
 _atom_site_label
 _atom_site_symmetry_multiplicity
 _atom_site_fract_x
 _atom_site_fract_y
 _atom_site_fract_z
 _atom_site_occupancy
  Li  Li0  1  0.150255  0.451413  0.378291  1
  Li  Li1  1  0.150255  0.048587  0.878291  1
  Li  Li2  1  0.443931  0.110644  0.911553  1
  Li  Li3  1  0.443931  0.389356  0.411553  1
  Li  Li4  1  0.556069  0.610644  0.588447  1
  Li  Li5  1  0.556069  0.889356  0.088447  1
  Li  Li6  1  0.849745  0.951413  0.121709  1
  Li  Li7  1  0.849745  0.548587  0.621709  1
  V  V8  1  0.169457  0.854533  0.629513  1
  V  V9  1  0.169457  0.645467  0.129513  1
  V  V10  1  0.830543  0.354533  0.870487  1
  V  V11  1  0.830543  0.145467  0.370487  1
  P  P12  1  0.061254  0.573785  0.810923  1
  P  P13  1  0.061254  0.926215  0.310923  1
  P  P14  1  0.269449  0.423510  0.916880  1
  P  P15  1  0.269449  0.076490  0.416880  1
  P  P16  1  0.331825  0.784587  0.928079  1
  P  P17  1  0.331825  0.715413  0.428079  1
  P  P18  1  0.668175  0.284587  0.571921  1
  P  P19  1  0.668175  0.215413  0.071921  1
  P  P20  1  0.730551  0.923510  0.583120  1
  P  P21  1  0.730551  0.576490  0.083120  1
  P  P22  1  0.938746  0.073785  0.689077  1
  P  P23  1  0.938746  0.426215  0.189077  1
  O  O24  1  0.082098  0.673855  0.940458  1
  O  O25  1  0.055859  0.000819  0.713429  1
  O  O26  1  0.081132  0.661233  0.679043  1
  O  O27  1  0.082098  0.826145  0.440458  1
  O  O28  1  0.055859  0.499181  0.213429  1
  O  O29  1  0.081132  0.838767  0.179043  1
  O  O30  1  0.150718  0.418917  0.821992  1
  O  O31  1  0.150718  0.081083  0.321992  1
  O  O32  1  0.250410  0.880345  0.826090  1
  O  O33  1  0.245125  0.059429  0.562962  1
  O  O34  1  0.292336  0.719355  0.569574  1
  O  O35  1  0.250410  0.619655  0.326090  1
  O  O36  1  0.245125  0.440571  0.062962  1
  O  O37  1  0.292336  0.780645  0.069574  1
  O  O38  1  0.333389  0.589106  0.873805  1
  O  O39  1  0.328540  0.269556  0.880163  1
  O  O40  1  0.333389  0.910894  0.373805  1
  O  O41  1  0.328540  0.230444  0.380163  1
  O  O42  1  0.447544  0.856554  0.933097  1
  O  O43  1  0.447544  0.643446  0.433097  1
  O  O44  1  0.552456  0.356554  0.566903  1
  O  O45  1  0.552456  0.143446  0.066903  1
  O  O46  1  0.671460  0.769556  0.619837  1
  O  O47  1  0.666611  0.089106  0.626195  1
  O  O48  1  0.671460  0.730444  0.119837  1
  O  O49  1  0.666611  0.410894  0.126195  1
  O  O50  1  0.707664  0.219355  0.930426  1
  O  O51  1  0.754875  0.559429  0.937038  1
  O  O52  1  0.749590  0.380345  0.673910  1
  O  O53  1  0.707664  0.280645  0.430426  1
  O  O54  1  0.754875  0.940571  0.437038  1
  O  O55  1  0.749590  0.119655  0.173910  1
  O  O56  1  0.849282  0.918917  0.678008  1
  O  O57  1  0.849282  0.581083  0.178008  1
  O  O58  1  0.918868  0.161233  0.820957  1
  O  O59  1  0.944141  0.500819  0.786571  1
  O  O60  1  0.917902  0.173855  0.559542  1
  O  O61  1  0.918868  0.338767  0.320957  1
  O  O62  1  0.944141  0.999181  0.286571  1
  O  O63  1  0.917902  0.326145  0.059542  1
