# generated using pymatgen
data_LiMn2F7
_symmetry_space_group_name_H-M   'P 1'
_cell_length_a   5.12114633
_cell_length_b   10.46479721
_cell_length_c   5.60197363
_cell_angle_alpha   121.10072943
_cell_angle_beta   90.00000000
_cell_angle_gamma   75.83681346
_symmetry_Int_Tables_number   1
_chemical_formula_structural   LiMn2F7
_chemical_formula_sum   'Li2 Mn4 F14'
_cell_volume   246.34690124
_cell_formula_units_Z   2
loop_
 _symmetry_equiv_pos_site_id
 _symmetry_equiv_pos_as_xyz
  1  'x, y, z'
loop_
 _atom_site_type_symbol
 _atom_site_label
 _atom_site_symmetry_multiplicity
 _atom_site_fract_x
 _atom_site_fract_y
 _atom_site_fract_z
 _atom_site_occupancy
  Li  Li0  1  0.500000  0.500000  0.500000  1
  Li  Li1  1  0.000000  0.500000  0.000000  1
  Mn  Mn2  1  0.850361  0.788440  0.573875  1
  Mn  Mn3  1  0.361199  0.788440  0.073875  1
  Mn  Mn4  1  0.638801  0.211560  0.926125  1
  Mn  Mn5  1  0.149639  0.211560  0.426125  1
  F  F6  1  0.645349  0.846136  0.905799  1
  F  F7  1  0.508515  0.846136  0.405799  1
  F  F8  1  0.212335  0.723018  0.729293  1
  F  F9  1  0.064646  0.723018  0.229293  1
  F  F10  1  0.598287  0.586111  0.890275  1
  F  F11  1  0.815602  0.586111  0.390275  1
  F  F12  1  0.184398  0.413889  0.609725  1
  F  F13  1  0.401713  0.413889  0.109725  1
  F  F14  1  0.935354  0.276982  0.770707  1
  F  F15  1  0.787665  0.276982  0.270707  1
  F  F16  1  0.491485  0.153864  0.594201  1
  F  F17  1  0.354651  0.153864  0.094201  1
  F  F18  1  0.880463  0.000000  0.750000  1
  F  F19  1  0.119537  0.000000  0.250000  1
