# generated using pymatgen
data_NaLi5Fe2P2(CO7)2
_symmetry_space_group_name_H-M   'P 1'
_cell_length_a   8.58042985
_cell_length_b   6.53097272
_cell_length_c   10.11517103
_cell_angle_alpha   90.03967146
_cell_angle_beta   85.99267529
_cell_angle_gamma   89.48334329
_symmetry_Int_Tables_number   1
_chemical_formula_structural   NaLi5Fe2P2(CO7)2
_chemical_formula_sum   'Na2 Li10 Fe4 P4 C4 O28'
_cell_volume   565.43021197
_cell_formula_units_Z   2
loop_
 _symmetry_equiv_pos_site_id
 _symmetry_equiv_pos_as_xyz
  1  'x, y, z'
loop_
 _atom_site_type_symbol
 _atom_site_label
 _atom_site_symmetry_multiplicity
 _atom_site_fract_x
 _atom_site_fract_y
 _atom_site_fract_z
 _atom_site_occupancy
  Na  Na0  1  0.257638  0.498737  0.127618  1
  Na  Na1  1  0.742362  0.501263  0.372382  1
  Li  Li2  1  0.086405  0.242043  0.872717  1
  Li  Li3  1  0.090919  0.223160  0.378536  1
  Li  Li4  1  0.274528  0.021666  0.622098  1
  Li  Li5  1  0.273451  0.477888  0.622883  1
  Li  Li6  1  0.277600  0.020366  0.121411  1
  Li  Li7  1  0.726549  0.522112  0.877117  1
  Li  Li8  1  0.725472  0.978334  0.877902  1
  Li  Li9  1  0.722400  0.979634  0.378589  1
  Li  Li10  1  0.913595  0.757957  0.627283  1
  Li  Li11  1  0.909081  0.776840  0.121464  1
  Fe  Fe12  1  0.338052  0.758040  0.890181  1
  Fe  Fe13  1  0.340933  0.750478  0.396078  1
  Fe  Fe14  1  0.661948  0.241960  0.609819  1
  Fe  Fe15  1  0.659067  0.249522  0.103922  1
  P  P16  1  0.410470  0.252706  0.852162  1
  P  P17  1  0.411261  0.239728  0.359440  1
  P  P18  1  0.589530  0.747294  0.647838  1
  P  P19  1  0.588739  0.760272  0.140560  1
  C  C20  1  0.035407  0.751333  0.856543  1
  C  C21  1  0.040815  0.763878  0.356403  1
  C  C22  1  0.964593  0.248667  0.643457  1
  C  C23  1  0.959185  0.236122  0.143597  1
  O  O24  1  0.110721  0.254742  0.669212  1
  O  O25  1  0.102339  0.219486  0.176419  1
  O  O26  1  0.077336  0.749566  0.977881  1
  O  O27  1  0.075441  0.751923  0.478826  1
  O  O28  1  0.142512  0.760338  0.758667  1
  O  O29  1  0.153430  0.758987  0.262540  1
  O  O30  1  0.306584  0.071595  0.905969  1
  O  O31  1  0.312063  0.445876  0.894612  1
  O  O32  1  0.302217  0.063748  0.413649  1
  O  O33  1  0.318081  0.437249  0.404220  1
  O  O34  1  0.429118  0.242463  0.697532  1
  O  O35  1  0.425738  0.748364  0.592600  1
  O  O36  1  0.431266  0.228169  0.205173  1
  O  O37  1  0.426830  0.771936  0.083922  1
  O  O38  1  0.574262  0.251636  0.907400  1
  O  O39  1  0.570882  0.757537  0.802468  1
  O  O40  1  0.573170  0.228064  0.416078  1
  O  O41  1  0.568734  0.771831  0.294827  1
  O  O42  1  0.687937  0.554124  0.605388  1
  O  O43  1  0.693416  0.928405  0.594031  1
  O  O44  1  0.681919  0.562751  0.095780  1
  O  O45  1  0.697783  0.936252  0.086351  1
  O  O46  1  0.857488  0.239662  0.741333  1
  O  O47  1  0.846570  0.241013  0.237460  1
  O  O48  1  0.922664  0.250434  0.522119  1
  O  O49  1  0.924559  0.248077  0.021174  1
  O  O50  1  0.889279  0.745258  0.830788  1
  O  O51  1  0.897661  0.780514  0.323581  1
