# generated using pymatgen
data_Li4Fe3Ni5O16
_symmetry_space_group_name_H-M   'P 1'
_cell_length_a   5.74077504
_cell_length_b   5.75296606
_cell_length_c   9.49680279
_cell_angle_alpha   89.99706762
_cell_angle_beta   90.10244248
_cell_angle_gamma   120.06491735
_symmetry_Int_Tables_number   1
_chemical_formula_structural   Li4Fe3Ni5O16
_chemical_formula_sum   'Li4 Fe3 Ni5 O16'
_cell_volume   271.44698708
_cell_formula_units_Z   1
loop_
 _symmetry_equiv_pos_site_id
 _symmetry_equiv_pos_as_xyz
  1  'x, y, z'
loop_
 _atom_site_type_symbol
 _atom_site_label
 _atom_site_symmetry_multiplicity
 _atom_site_fract_x
 _atom_site_fract_y
 _atom_site_fract_z
 _atom_site_occupancy
  Li  Li0  1  0.340616  0.670313  0.887982  1
  Li  Li1  1  0.996631  0.998347  0.996129  1
  Li  Li2  1  0.992269  0.996109  0.499429  1
  Li  Li3  1  0.667041  0.333510  0.391959  1
  Fe  Fe4  1  0.170223  0.831773  0.214408  1
  Fe  Fe5  1  0.170232  0.338485  0.214402  1
  Fe  Fe6  1  0.337384  0.168682  0.716077  1
  Ni  Ni7  1  0.330327  0.665180  0.494288  1
  Ni  Ni8  1  0.660395  0.830222  0.213723  1
  Ni  Ni9  1  0.671470  0.335773  0.988116  1
  Ni  Ni10  1  0.830497  0.661455  0.715303  1
  Ni  Ni11  1  0.830482  0.169041  0.715304  1
  O  O12  1  0.156045  0.840687  0.607809  1
  O  O13  1  0.032361  0.516176  0.333512  1
  O  O14  1  0.350529  0.675294  0.099081  1
  O  O15  1  0.977996  0.989017  0.315174  1
  O  O16  1  0.993137  0.996534  0.808543  1
  O  O17  1  0.156081  0.315321  0.607818  1
  O  O18  1  0.486305  0.964282  0.333384  1
  O  O19  1  0.486344  0.522074  0.333391  1
  O  O20  1  0.323593  0.161831  0.104343  1
  O  O21  1  0.681674  0.840870  0.608011  1
  O  O22  1  0.521858  0.484966  0.829810  1
  O  O23  1  0.521787  0.036913  0.829795  1
  O  O24  1  0.671597  0.335849  0.612913  1
  O  O25  1  0.838037  0.683408  0.104081  1
  O  O26  1  0.967089  0.483518  0.828976  1
  O  O27  1  0.838001  0.154669  0.104077  1
