# generated using pymatgen
data_Li4Nb2Cr3Co3O16
_symmetry_space_group_name_H-M   'P 1'
_cell_length_a   5.84553505
_cell_length_b   5.87304128
_cell_length_c   9.52398859
_cell_angle_alpha   90.00505554
_cell_angle_beta   89.39882655
_cell_angle_gamma   120.15029664
_symmetry_Int_Tables_number   1
_chemical_formula_structural   Li4Nb2Cr3Co3O16
_chemical_formula_sum   'Li4 Nb2 Cr3 Co3 O16'
_cell_volume   282.71274456
_cell_formula_units_Z   1
loop_
 _symmetry_equiv_pos_site_id
 _symmetry_equiv_pos_as_xyz
  1  'x, y, z'
loop_
 _atom_site_type_symbol
 _atom_site_label
 _atom_site_symmetry_multiplicity
 _atom_site_fract_x
 _atom_site_fract_y
 _atom_site_fract_z
 _atom_site_occupancy
  Li  Li0  1  0.340617  0.670323  0.896251  1
  Li  Li1  1  0.987500  0.993760  0.992630  1
  Li  Li2  1  0.989312  0.994707  0.496286  1
  Li  Li3  1  0.672321  0.336153  0.400382  1
  Nb  Nb4  1  0.334708  0.667349  0.496265  1
  Nb  Nb5  1  0.671126  0.335578  0.992758  1
  Cr  Cr6  1  0.170293  0.830436  0.215905  1
  Cr  Cr7  1  0.170292  0.339882  0.215893  1
  Cr  Cr8  1  0.339828  0.169937  0.715705  1
  Co  Co9  1  0.658885  0.829450  0.215514  1
  Co  Co10  1  0.828652  0.659011  0.714963  1
  Co  Co11  1  0.828660  0.169649  0.714954  1
  O  O12  1  0.162047  0.832032  0.594960  1
  O  O13  1  0.037365  0.518729  0.342777  1
  O  O14  1  0.341747  0.670848  0.107316  1
  O  O15  1  0.989791  0.994948  0.310413  1
  O  O16  1  0.987807  0.993915  0.807292  1
  O  O17  1  0.162078  0.330066  0.594954  1
  O  O18  1  0.489262  0.963885  0.339101  1
  O  O19  1  0.489299  0.525403  0.339075  1
  O  O20  1  0.330148  0.165057  0.089332  1
  O  O21  1  0.666481  0.833236  0.602597  1
  O  O22  1  0.525612  0.487278  0.838348  1
  O  O23  1  0.525635  0.038360  0.838331  1
  O  O24  1  0.677999  0.339000  0.610805  1
  O  O25  1  0.830429  0.667042  0.096535  1
  O  O26  1  0.961683  0.480836  0.831952  1
  O  O27  1  0.830425  0.163430  0.096546  1
