# generated using pymatgen
data_Li12Fe3NiP4(CO7)4
_symmetry_space_group_name_H-M   'P 1'
_cell_length_a   8.47152783
_cell_length_b   9.99761666
_cell_length_c   6.43878898
_cell_angle_alpha   90.00000000
_cell_angle_beta   90.00000000
_cell_angle_gamma   85.26408887
_symmetry_Int_Tables_number   1
_chemical_formula_structural   Li12Fe3NiP4(CO7)4
_chemical_formula_sum   'Li12 Fe3 Ni1 P4 C4 O28'
_cell_volume   543.47193847
_cell_formula_units_Z   1
loop_
 _symmetry_equiv_pos_site_id
 _symmetry_equiv_pos_as_xyz
  1  'x, y, z'
loop_
 _atom_site_type_symbol
 _atom_site_label
 _atom_site_symmetry_multiplicity
 _atom_site_fract_x
 _atom_site_fract_y
 _atom_site_fract_z
 _atom_site_occupancy
  Li  Li0  1  0.093114  0.381242  0.250000  1
  Li  Li1  1  0.096262  0.881729  0.250000  1
  Li  Li2  1  0.275097  0.122461  0.022432  1
  Li  Li3  1  0.275097  0.122461  0.477568  1
  Li  Li4  1  0.275664  0.625188  0.022985  1
  Li  Li5  1  0.275664  0.625188  0.477015  1
  Li  Li6  1  0.725363  0.377982  0.522157  1
  Li  Li7  1  0.725363  0.377982  0.977843  1
  Li  Li8  1  0.725058  0.874280  0.520744  1
  Li  Li9  1  0.725058  0.874280  0.979256  1
  Li  Li10  1  0.905947  0.119338  0.750000  1
  Li  Li11  1  0.904734  0.618404  0.750000  1
  Fe  Fe12  1  0.333838  0.395271  0.750000  1
  Fe  Fe13  1  0.336227  0.891476  0.750000  1
  Fe  Fe14  1  0.666809  0.106164  0.250000  1
  Ni  Ni15  1  0.667113  0.604164  0.250000  1
  P  P16  1  0.412990  0.361280  0.250000  1
  P  P17  1  0.413355  0.858516  0.250000  1
  P  P18  1  0.587525  0.140053  0.750000  1
  P  P19  1  0.588309  0.640961  0.750000  1
  C  C20  1  0.034510  0.350010  0.750000  1
  C  C21  1  0.034807  0.851216  0.750000  1
  C  C22  1  0.965913  0.149456  0.250000  1
  C  C23  1  0.961439  0.648663  0.250000  1
  O  O24  1  0.070973  0.473458  0.750000  1
  O  O25  1  0.112446  0.179091  0.250000  1
  O  O26  1  0.070986  0.974339  0.750000  1
  O  O27  1  0.147925  0.253691  0.750000  1
  O  O28  1  0.107042  0.679583  0.250000  1
  O  O29  1  0.148600  0.754918  0.750000  1
  O  O30  1  0.309584  0.414206  0.063010  1
  O  O31  1  0.309584  0.414206  0.436990  1
  O  O32  1  0.309597  0.910937  0.063007  1
  O  O33  1  0.309597  0.910937  0.436993  1
  O  O34  1  0.421243  0.088371  0.750000  1
  O  O35  1  0.431359  0.205012  0.250000  1
  O  O36  1  0.420364  0.592304  0.750000  1
  O  O37  1  0.432782  0.701422  0.250000  1
  O  O38  1  0.569805  0.296751  0.750000  1
  O  O39  1  0.580171  0.413435  0.250000  1
  O  O40  1  0.571772  0.797598  0.750000  1
  O  O41  1  0.578889  0.911141  0.250000  1
  O  O42  1  0.690795  0.087149  0.937289  1
  O  O43  1  0.690795  0.087149  0.562711  1
  O  O44  1  0.691015  0.587288  0.562009  1
  O  O45  1  0.691015  0.587288  0.937991  1
  O  O46  1  0.852154  0.245925  0.250000  1
  O  O47  1  0.887737  0.320753  0.750000  1
  O  O48  1  0.845344  0.743204  0.250000  1
  O  O49  1  0.929327  0.026181  0.250000  1
  O  O50  1  0.888253  0.820990  0.750000  1
  O  O51  1  0.925588  0.524914  0.250000  1
