# generated using pymatgen
data_Li2AlCr2SbO8
_symmetry_space_group_name_H-M   'P 1'
_cell_length_a   5.89089136
_cell_length_b   5.87838478
_cell_length_c   28.78574141
_cell_angle_alpha   90.04821439
_cell_angle_beta   89.85807554
_cell_angle_gamma   119.83236989
_symmetry_Int_Tables_number   1
_chemical_formula_structural   Li2AlCr2SbO8
_chemical_formula_sum   'Li12 Al6 Cr12 Sb6 O48'
_cell_volume   864.72260593
_cell_formula_units_Z   6
loop_
 _symmetry_equiv_pos_site_id
 _symmetry_equiv_pos_as_xyz
  1  'x, y, z'
loop_
 _atom_site_type_symbol
 _atom_site_label
 _atom_site_symmetry_multiplicity
 _atom_site_fract_x
 _atom_site_fract_y
 _atom_site_fract_z
 _atom_site_occupancy
  Li  Li0  1  0.333540  0.667070  0.634090  1
  Li  Li1  1  0.332571  0.666788  0.301000  1
  Li  Li2  1  0.332577  0.666532  0.966763  1
  Li  Li3  1  0.000395  0.000102  0.994469  1
  Li  Li4  1  0.997790  0.002667  0.163882  1
  Li  Li5  1  0.000595  0.999596  0.329389  1
  Li  Li6  1  0.995101  0.997435  0.497961  1
  Li  Li7  1  0.000782  0.000247  0.661947  1
  Li  Li8  1  0.000569  0.000140  0.831459  1
  Li  Li9  1  0.668200  0.332330  0.135112  1
  Li  Li10  1  0.667670  0.333653  0.802813  1
  Li  Li11  1  0.668658  0.333814  0.469162  1
  Al  Al12  1  0.341454  0.170870  0.904834  1
  Al  Al13  1  0.830078  0.658820  0.571681  1
  Al  Al14  1  0.828972  0.658583  0.904802  1
  Al  Al15  1  0.829122  0.170571  0.238219  1
  Al  Al16  1  0.830210  0.171450  0.571672  1
  Al  Al17  1  0.829099  0.170554  0.904785  1
  Cr  Cr18  1  0.169480  0.830345  0.070671  1
  Cr  Cr19  1  0.169958  0.830002  0.404879  1
  Cr  Cr20  1  0.170880  0.831230  0.738284  1
  Cr  Cr21  1  0.169646  0.338996  0.070743  1
  Cr  Cr22  1  0.170248  0.338639  0.404940  1
  Cr  Cr23  1  0.170863  0.339781  0.738256  1
  Cr  Cr24  1  0.660900  0.830207  0.070715  1
  Cr  Cr25  1  0.660794  0.829414  0.405079  1
  Cr  Cr26  1  0.661639  0.830905  0.738339  1
  Cr  Cr27  1  0.339749  0.169651  0.237876  1
  Cr  Cr28  1  0.340609  0.170420  0.571232  1
  Cr  Cr29  1  0.830243  0.660307  0.237798  1
  Sb  Sb30  1  0.333083  0.667320  0.162549  1
  Sb  Sb31  1  0.331181  0.665395  0.496827  1
  Sb  Sb32  1  0.333880  0.666797  0.830497  1
  Sb  Sb33  1  0.668366  0.331589  0.328771  1
  Sb  Sb34  1  0.670741  0.335477  0.661760  1
  Sb  Sb35  1  0.666496  0.333282  0.994197  1
  O  O36  1  0.154404  0.827113  0.533276  1
  O  O37  1  0.163444  0.836980  0.198043  1
  O  O38  1  0.165063  0.835600  0.867632  1
  O  O39  1  0.035042  0.517873  0.114265  1
  O  O40  1  0.035768  0.518173  0.782039  1
  O  O41  1  0.034751  0.517094  0.448240  1
  O  O42  1  0.335138  0.667374  0.702671  1
  O  O43  1  0.334225  0.666532  0.035148  1
  O  O44  1  0.334751  0.666383  0.369321  1
  O  O45  1  0.999521  0.999252  0.436606  1
  O  O46  1  0.990049  0.009750  0.267306  1
  O  O47  1  0.982276  0.991217  0.599110  1
  O  O48  1  0.154478  0.327210  0.533225  1
  O  O49  1  0.000289  0.000539  0.769989  1
  O  O50  1  0.999675  0.999969  0.931179  1
  O  O51  1  0.999065  0.999786  0.102420  1
  O  O52  1  0.165169  0.329318  0.867581  1
  O  O53  1  0.157782  0.332077  0.199601  1
  O  O54  1  0.481903  0.965383  0.114130  1
  O  O55  1  0.481504  0.964993  0.448646  1
  O  O56  1  0.482768  0.965812  0.782004  1
  O  O57  1  0.482640  0.516465  0.114586  1
  O  O58  1  0.481824  0.515582  0.448645  1
  O  O59  1  0.483182  0.517125  0.781915  1
  O  O60  1  0.329220  0.164479  0.030322  1
  O  O61  1  0.330326  0.164027  0.364638  1
  O  O62  1  0.331075  0.165425  0.697570  1
  O  O63  1  0.665387  0.832554  0.534028  1
  O  O64  1  0.671056  0.835354  0.867504  1
  O  O65  1  0.667989  0.842364  0.199518  1
  O  O66  1  0.518154  0.482105  0.281032  1
  O  O67  1  0.525656  0.488103  0.613443  1
  O  O68  1  0.518755  0.481287  0.945727  1
  O  O69  1  0.523321  0.035545  0.280341  1
  O  O70  1  0.525841  0.037938  0.613425  1
  O  O71  1  0.675619  0.324317  0.203622  1
  O  O72  1  0.683526  0.341742  0.538097  1
  O  O73  1  0.666930  0.333401  0.871941  1
  O  O74  1  0.835890  0.669491  0.364755  1
  O  O75  1  0.835633  0.670523  0.030368  1
  O  O76  1  0.837166  0.671649  0.698075  1
  O  O77  1  0.518945  0.037817  0.945707  1
  O  O78  1  0.964141  0.476726  0.280304  1
  O  O79  1  0.964470  0.482199  0.613076  1
  O  O80  1  0.961628  0.480801  0.945653  1
  O  O81  1  0.835520  0.164946  0.030442  1
  O  O82  1  0.836954  0.165491  0.698106  1
  O  O83  1  0.835950  0.164033  0.365117  1
