# generated using pymatgen
data_H8S(NO3)2
_symmetry_space_group_name_H-M   'P 1'
_cell_length_a   7.99658083
_cell_length_b   7.41122140
_cell_length_c   10.57565358
_cell_angle_alpha   90.00000000
_cell_angle_beta   107.12960506
_cell_angle_gamma   90.00000000
_symmetry_Int_Tables_number   1
_chemical_formula_structural   H8S(NO3)2
_chemical_formula_sum   'H32 S4 N8 O24'
_cell_volume   598.95761194
_cell_formula_units_Z   4
loop_
 _symmetry_equiv_pos_site_id
 _symmetry_equiv_pos_as_xyz
  1  'x, y, z'
loop_
 _atom_site_type_symbol
 _atom_site_label
 _atom_site_symmetry_multiplicity
 _atom_site_fract_x
 _atom_site_fract_y
 _atom_site_fract_z
 _atom_site_occupancy
  H  H0  1  0.961407  0.576361  0.824419  1
  H  H1  1  0.038593  0.076361  0.675581  1
  H  H2  1  0.038593  0.423639  0.175581  1
  H  H3  1  0.961407  0.923639  0.324419  1
  H  H4  1  0.082485  0.458601  0.739486  1
  H  H5  1  0.917515  0.958601  0.760514  1
  H  H6  1  0.917515  0.541399  0.260514  1
  H  H7  1  0.082485  0.041399  0.239486  1
  H  H8  1  0.864731  0.502608  0.668061  1
  H  H9  1  0.135269  0.002608  0.831939  1
  H  H10  1  0.135269  0.497392  0.331939  1
  H  H11  1  0.864731  0.997392  0.168061  1
  H  H12  1  0.984919  0.301931  0.902084  1
  H  H13  1  0.015081  0.801931  0.597916  1
  H  H14  1  0.015081  0.698069  0.097916  1
  H  H15  1  0.984919  0.198069  0.402084  1
  H  H16  1  0.656993  0.307842  0.374750  1
  H  H17  1  0.343007  0.807842  0.125250  1
  H  H18  1  0.343007  0.692158  0.625250  1
  H  H19  1  0.656993  0.192158  0.874750  1
  H  H20  1  0.471452  0.263051  0.414516  1
  H  H21  1  0.528548  0.763051  0.085484  1
  H  H22  1  0.528548  0.736949  0.585484  1
  H  H23  1  0.471452  0.236949  0.914516  1
  H  H24  1  0.579982  0.088513  0.363301  1
  H  H25  1  0.420018  0.588513  0.136699  1
  H  H26  1  0.420018  0.911487  0.636699  1
  H  H27  1  0.579982  0.411487  0.863301  1
  H  H28  1  0.606083  0.180270  0.597982  1
  H  H29  1  0.393917  0.680270  0.902018  1
  H  H30  1  0.393917  0.819730  0.402018  1
  H  H31  1  0.606083  0.319730  0.097982  1
  S  S32  1  0.272901  0.307802  0.586450  1
  S  S33  1  0.727099  0.807802  0.913550  1
  S  S34  1  0.727099  0.692198  0.413550  1
  S  S35  1  0.272901  0.192197  0.086450  1
  N  N36  1  0.960641  0.472378  0.757227  1
  N  N37  1  0.039359  0.972378  0.742773  1
  N  N38  1  0.039359  0.527622  0.242773  1
  N  N39  1  0.960641  0.027622  0.257227  1
  N  N40  1  0.593305  0.210421  0.414655  1
  N  N41  1  0.406695  0.710421  0.085345  1
  N  N42  1  0.406695  0.789579  0.585345  1
  N  N43  1  0.593305  0.289579  0.914655  1
  O  O44  1  0.298289  0.375996  0.460321  1
  O  O45  1  0.701711  0.875996  0.039679  1
  O  O46  1  0.701711  0.624004  0.539679  1
  O  O47  1  0.298289  0.124004  0.960321  1
  O  O48  1  0.416396  0.176912  0.649025  1
  O  O49  1  0.583604  0.676912  0.850975  1
  O  O50  1  0.583604  0.823088  0.350975  1
  O  O51  1  0.416396  0.323088  0.149025  1
  O  O52  1  0.275120  0.459480  0.678895  1
  O  O53  1  0.724880  0.959480  0.821105  1
  O  O54  1  0.724880  0.540520  0.321105  1
  O  O55  1  0.275120  0.040520  0.178896  1
  O  O56  1  0.098175  0.214286  0.555881  1
  O  O57  1  0.901825  0.714287  0.944119  1
  O  O58  1  0.901825  0.785713  0.444119  1
  O  O59  1  0.098175  0.285714  0.055881  1
  O  O60  1  0.909905  0.309492  0.805961  1
  O  O61  1  0.090095  0.809492  0.694039  1
  O  O62  1  0.090095  0.690508  0.194039  1
  O  O63  1  0.909905  0.190508  0.305961  1
  O  O64  1  0.694365  0.177409  0.547473  1
  O  O65  1  0.305635  0.677409  0.952527  1
  O  O66  1  0.305635  0.822591  0.452527  1
  O  O67  1  0.694365  0.322591  0.047473  1
