# generated using pymatgen
data_LiFe2(BO3)2
_symmetry_space_group_name_H-M   'P 1'
_cell_length_a   5.24445039
_cell_length_b   9.08336208
_cell_length_c   10.17436507
_cell_angle_alpha   90.51993080
_cell_angle_beta   91.18238071
_cell_angle_gamma   89.65272244
_symmetry_Int_Tables_number   1
_chemical_formula_structural   LiFe2(BO3)2
_chemical_formula_sum   'Li4 Fe8 B8 O24'
_cell_volume   484.54717433
_cell_formula_units_Z   4
loop_
 _symmetry_equiv_pos_site_id
 _symmetry_equiv_pos_as_xyz
  1  'x, y, z'
loop_
 _atom_site_type_symbol
 _atom_site_label
 _atom_site_symmetry_multiplicity
 _atom_site_fract_x
 _atom_site_fract_y
 _atom_site_fract_z
 _atom_site_occupancy
  Li  Li0  1  0.850020  0.822641  0.666801  1
  Li  Li1  1  0.809639  0.835260  0.160290  1
  Li  Li2  1  0.670278  0.667487  0.402182  1
  Li  Li3  1  0.315207  0.336072  0.153355  1
  Fe  Fe4  1  0.834954  0.166526  0.633983  1
  Fe  Fe5  1  0.811893  0.506701  0.123450  1
  Fe  Fe6  1  0.674990  0.006697  0.878266  1
  Fe  Fe7  1  0.677668  0.331686  0.378369  1
  Fe  Fe8  1  0.346726  0.653709  0.634710  1
  Fe  Fe9  1  0.323973  0.997598  0.124257  1
  Fe  Fe10  1  0.167222  0.848977  0.387318  1
  Fe  Fe11  1  0.171319  0.501110  0.877027  1
  B  B12  1  0.847169  0.499860  0.621740  1
  B  B13  1  0.831439  0.164389  0.133834  1
  B  B14  1  0.657191  0.001885  0.373793  1
  B  B15  1  0.669537  0.338694  0.876421  1
  B  B16  1  0.328421  0.997059  0.630675  1
  B  B17  1  0.321307  0.672253  0.129366  1
  B  B18  1  0.178107  0.505901  0.373098  1
  B  B19  1  0.173208  0.830278  0.880142  1
  O  O20  1  0.912966  0.499748  0.345699  1
  O  O21  1  0.919632  0.845728  0.855471  1
  O  O22  1  0.780120  0.213133  0.821838  1
  O  O23  1  0.762533  0.129744  0.428291  1
  O  O24  1  0.791999  0.871456  0.369743  1
  O  O25  1  0.827056  0.450279  0.924155  1
  O  O26  1  0.720276  0.631697  0.603292  1
  O  O27  1  0.695012  0.039140  0.093978  1
  O  O28  1  0.737696  0.368332  0.574077  1
  O  O29  1  0.697334  0.288711  0.177500  1
  O  O30  1  0.580767  0.676805  0.145078  1
  O  O31  1  0.594270  0.996386  0.657361  1
  O  O32  1  0.412322  0.005187  0.319117  1
  O  O33  1  0.413261  0.349202  0.891682  1
  O  O34  1  0.298143  0.698521  0.846448  1
  O  O35  1  0.286589  0.635216  0.419271  1
  O  O36  1  0.328985  0.385025  0.348202  1
  O  O37  1  0.318447  0.944501  0.936016  1
  O  O38  1  0.197503  0.543390  0.088886  1
  O  O39  1  0.184846  0.121918  0.636928  1
  O  O40  1  0.212019  0.863985  0.595319  1
  O  O41  1  0.174881  0.798790  0.159793  1
  O  O42  1  0.091836  0.163147  0.129761  1
  O  O43  1  0.085296  0.494284  0.681896  1
