# generated using pymatgen
data_CoH17C(NO)8
_symmetry_space_group_name_H-M   'P 1'
_cell_length_a   7.94205276
_cell_length_b   7.94205276
_cell_length_c   12.64028076
_cell_angle_alpha   73.43925658
_cell_angle_beta   106.56074342
_cell_angle_gamma   119.13307728
_symmetry_Int_Tables_number   1
_chemical_formula_structural   CoH17C(NO)8
_chemical_formula_sum   'Co2 H34 C2 N16 O16'
_cell_volume   657.28049481
_cell_formula_units_Z   2
loop_
 _symmetry_equiv_pos_site_id
 _symmetry_equiv_pos_as_xyz
  1  'x, y, z'
loop_
 _atom_site_type_symbol
 _atom_site_label
 _atom_site_symmetry_multiplicity
 _atom_site_fract_x
 _atom_site_fract_y
 _atom_site_fract_z
 _atom_site_occupancy
  Co  Co0  1  0.983074  0.476964  0.495260  1
  Co  Co1  1  0.523036  0.016926  0.995260  1
  H  H2  1  0.253611  0.526491  0.683290  1
  H  H3  1  0.473509  0.746389  0.183290  1
  H  H4  1  0.348882  0.586203  0.569217  1
  H  H5  1  0.413797  0.651118  0.069217  1
  H  H6  1  0.307215  0.747908  0.601925  1
  H  H7  1  0.252092  0.692785  0.101925  1
  H  H8  1  0.895520  0.177943  0.672088  1
  H  H9  1  0.822057  0.104480  0.172088  1
  H  H10  1  0.827604  0.089123  0.554467  1
  H  H11  1  0.910877  0.172396  0.054467  1
  H  H12  1  0.060388  0.184872  0.612594  1
  H  H13  1  0.815128  0.939612  0.112594  1
  H  H14  1  0.664686  0.449987  0.339967  1
  H  H15  1  0.550013  0.335314  0.839967  1
  H  H16  1  0.592981  0.270821  0.450354  1
  H  H17  1  0.729179  0.407019  0.950354  1
  H  H18  1  0.703766  0.254185  0.362062  1
  H  H19  1  0.745815  0.296234  0.862062  1
  H  H20  1  0.119810  0.798397  0.347178  1
  H  H21  1  0.201603  0.880190  0.847178  1
  H  H22  1  0.905870  0.773012  0.362217  1
  H  H23  1  0.226988  0.094130  0.862217  1
  H  H24  1  0.106336  0.864014  0.456430  1
  H  H25  1  0.135986  0.893664  0.956430  1
  H  H26  1  0.723260  0.406420  0.622239  1
  H  H27  1  0.593580  0.276740  0.122239  1
  H  H28  1  0.944416  0.563779  0.674384  1
  H  H29  1  0.436221  0.055584  0.174384  1
  H  H30  1  0.807504  0.638437  0.563287  1
  H  H31  1  0.361563  0.192496  0.063287  1
  H  H32  1  0.351832  0.445864  0.318129  1
  H  H33  1  0.554136  0.648168  0.818129  1
  H  H34  1  0.190079  0.277005  0.231856  1
  H  H35  1  0.722995  0.809921  0.731856  1
  C  C36  1  0.067388  0.317827  0.338643  1
  C  C37  1  0.682173  0.932612  0.838643  1
  N  N38  1  0.253896  0.601174  0.601880  1
  N  N39  1  0.398826  0.746104  0.101880  1
  N  N40  1  0.934032  0.200832  0.595781  1
  N  N41  1  0.799168  0.065968  0.095782  1
  N  N42  1  0.698892  0.349631  0.400624  1
  N  N43  1  0.650369  0.301108  0.900624  1
  N  N44  1  0.033011  0.763044  0.403939  1
  N  N45  1  0.236956  0.966989  0.903939  1
  N  N46  1  0.848510  0.527414  0.601252  1
  N  N47  1  0.472586  0.151490  0.101252  1
  N  N48  1  0.219972  0.327710  0.303344  1
  N  N49  1  0.672290  0.780028  0.803344  1
  N  N50  1  0.185889  0.421663  0.896532  1
  N  N51  1  0.578337  0.814111  0.396532  1
  N  N52  1  0.898641  0.657153  0.117822  1
  N  N53  1  0.342847  0.101359  0.617822  1
  O  O54  1  0.121126  0.442822  0.405723  1
  O  O55  1  0.557178  0.878874  0.905723  1
  O  O56  1  0.893765  0.196571  0.310877  1
  O  O57  1  0.803429  0.106235  0.810877  1
  O  O58  1  0.277881  0.393452  0.839961  1
  O  O59  1  0.606548  0.722119  0.339961  1
  O  O60  1  0.186345  0.342749  0.999339  1
  O  O61  1  0.657251  0.813655  0.499339  1
  O  O62  1  0.097725  0.526309  0.850671  1
  O  O63  1  0.473691  0.902275  0.350671  1
  O  O64  1  0.030665  0.827410  0.132756  1
  O  O65  1  0.172590  0.969334  0.632756  1
  O  O66  1  0.733944  0.590642  0.146594  1
  O  O67  1  0.409358  0.266056  0.646594  1
  O  O68  1  0.932606  0.554636  0.073228  1
  O  O69  1  0.445364  0.067394  0.573228  1
