# generated using pymatgen
data_Li4Mn3Cr3(CuO8)2
_symmetry_space_group_name_H-M   'P 1'
_cell_length_a   5.81537715
_cell_length_b   5.81396605
_cell_length_c   9.52680196
_cell_angle_alpha   89.93347880
_cell_angle_beta   90.12763138
_cell_angle_gamma   120.00611923
_symmetry_Int_Tables_number   1
_chemical_formula_structural   Li4Mn3Cr3(CuO8)2
_chemical_formula_sum   'Li4 Mn3 Cr3 Cu2 O16'
_cell_volume   278.93324895
_cell_formula_units_Z   1
loop_
 _symmetry_equiv_pos_site_id
 _symmetry_equiv_pos_as_xyz
  1  'x, y, z'
loop_
 _atom_site_type_symbol
 _atom_site_label
 _atom_site_symmetry_multiplicity
 _atom_site_fract_x
 _atom_site_fract_y
 _atom_site_fract_z
 _atom_site_occupancy
  Li  Li0  1  0.341338  0.670604  0.897280  1
  Li  Li1  1  0.993209  0.996919  0.997229  1
  Li  Li2  1  0.997356  0.998664  0.495856  1
  Li  Li3  1  0.671860  0.336123  0.397377  1
  Mn  Mn4  1  0.659112  0.830080  0.214815  1
  Mn  Mn5  1  0.832969  0.663024  0.714004  1
  Mn  Mn6  1  0.833040  0.169964  0.713970  1
  Cr  Cr7  1  0.166293  0.830826  0.210916  1
  Cr  Cr8  1  0.166804  0.337529  0.212302  1
  Cr  Cr9  1  0.339201  0.169545  0.713705  1
  Cu  Cu10  1  0.328352  0.663991  0.490564  1
  Cu  Cu11  1  0.664437  0.331634  0.987997  1
  O  O12  1  0.153731  0.835502  0.602573  1
  O  O13  1  0.038555  0.520592  0.332634  1
  O  O14  1  0.340627  0.670921  0.104449  1
  O  O15  1  0.990013  0.994646  0.311995  1
  O  O16  1  0.993198  0.996480  0.812245  1
  O  O17  1  0.153673  0.318228  0.602541  1
  O  O18  1  0.482847  0.963375  0.333167  1
  O  O19  1  0.484432  0.520340  0.333509  1
  O  O20  1  0.320370  0.158109  0.106508  1
  O  O21  1  0.680150  0.840187  0.604784  1
  O  O22  1  0.525720  0.488207  0.834225  1
  O  O23  1  0.525650  0.037420  0.834133  1
  O  O24  1  0.676834  0.338459  0.607472  1
  O  O25  1  0.837592  0.677344  0.104741  1
  O  O26  1  0.966849  0.483375  0.833180  1
  O  O27  1  0.835784  0.158212  0.103672  1
