# generated using pymatgen
data_Na2FePCO7
_symmetry_space_group_name_H-M   'P 1'
_cell_length_a   10.35370931
_cell_length_b   10.47698909
_cell_length_c   6.54783889
_cell_angle_alpha   90.20074904
_cell_angle_beta   90.72960246
_cell_angle_gamma   59.88904030
_symmetry_Int_Tables_number   1
_chemical_formula_structural   Na2FePCO7
_chemical_formula_sum   'Na8 Fe4 P4 C4 O28'
_cell_volume   614.37958530
_cell_formula_units_Z   4
loop_
 _symmetry_equiv_pos_site_id
 _symmetry_equiv_pos_as_xyz
  1  'x, y, z'
loop_
 _atom_site_type_symbol
 _atom_site_label
 _atom_site_symmetry_multiplicity
 _atom_site_fract_x
 _atom_site_fract_y
 _atom_site_fract_z
 _atom_site_occupancy
  Na  Na0  1  0.918677  0.422052  0.741047  1
  Na  Na1  1  0.919007  0.922946  0.738443  1
  Na  Na2  1  0.736377  0.258236  0.987160  1
  Na  Na3  1  0.736341  0.758891  0.514317  1
  Na  Na4  1  0.263130  0.243395  0.010474  1
  Na  Na5  1  0.262794  0.743579  0.010858  1
  Na  Na6  1  0.080097  0.078475  0.276930  1
  Na  Na7  1  0.081389  0.577475  0.258879  1
  Fe  Fe8  1  0.653982  0.065240  0.254234  1
  Fe  Fe9  1  0.653931  0.564990  0.246150  1
  Fe  Fe10  1  0.345875  0.434677  0.735558  1
  Fe  Fe11  1  0.345984  0.934690  0.735707  1
  P  P12  1  0.575700  0.066509  0.751787  1
  P  P13  1  0.575766  0.566657  0.749289  1
  P  P14  1  0.423995  0.433200  0.246784  1
  P  P15  1  0.423969  0.933343  0.245329  1
  C  C16  1  0.935913  0.397242  0.249221  1
  C  C17  1  0.935995  0.896948  0.244369  1
  C  C18  1  0.064952  0.102376  0.761664  1
  C  C19  1  0.064831  0.602525  0.753332  1
  O  O20  1  0.923970  0.186456  0.766196  1
  O  O21  1  0.923941  0.686770  0.741764  1
  O  O22  1  0.872133  0.041787  0.236619  1
  O  O23  1  0.872512  0.541195  0.271771  1
  O  O24  1  0.842898  0.346569  0.243986  1
  O  O25  1  0.843476  0.846816  0.265352  1
  O  O26  1  0.677594  0.050790  0.937752  1
  O  O27  1  0.673639  0.040951  0.561014  1
  O  O28  1  0.680242  0.536926  0.938175  1
  O  O29  1  0.671087  0.554753  0.561504  1
  O  O30  1  0.568841  0.281115  0.245491  1
  O  O31  1  0.568559  0.781131  0.255215  1
  O  O32  1  0.530641  0.445372  0.749388  1
  O  O33  1  0.530965  0.945011  0.751678  1
  O  O34  1  0.468621  0.054914  0.235548  1
  O  O35  1  0.468453  0.554928  0.236826  1
  O  O36  1  0.431550  0.218903  0.753899  1
  O  O37  1  0.432091  0.719009  0.759872  1
  O  O38  1  0.326433  0.454844  0.435081  1
  O  O39  1  0.321857  0.451958  0.059323  1
  O  O40  1  0.323214  0.950073  0.058194  1
  O  O41  1  0.325282  0.957092  0.434291  1
  O  O42  1  0.157465  0.153258  0.756317  1
  O  O43  1  0.157632  0.653190  0.756790  1
  O  O44  1  0.127940  0.457921  0.757687  1
  O  O45  1  0.128258  0.957783  0.755836  1
  O  O46  1  0.075904  0.314272  0.233893  1
  O  O47  1  0.076098  0.812766  0.233926  1
