# generated using pymatgen
data_LiSn(PO3)4
_symmetry_space_group_name_H-M   'P 1'
_cell_length_a   9.86748621
_cell_length_b   13.31484634
_cell_length_c   7.43820962
_cell_angle_alpha   90.00000000
_cell_angle_beta   86.00259182
_cell_angle_gamma   90.00000000
_symmetry_Int_Tables_number   1
_chemical_formula_structural   LiSn(PO3)4
_chemical_formula_sum   'Li4 Sn4 P16 O48'
_cell_volume   974.88472067
_cell_formula_units_Z   4
loop_
 _symmetry_equiv_pos_site_id
 _symmetry_equiv_pos_as_xyz
  1  'x, y, z'
loop_
 _atom_site_type_symbol
 _atom_site_label
 _atom_site_symmetry_multiplicity
 _atom_site_fract_x
 _atom_site_fract_y
 _atom_site_fract_z
 _atom_site_occupancy
  Li  Li0  1  0.035016  0.205055  0.089721  1
  Li  Li1  1  0.464984  0.705055  0.410279  1
  Li  Li2  1  0.535016  0.294945  0.589721  1
  Li  Li3  1  0.964984  0.794945  0.910279  1
  Sn  Sn4  1  0.066591  0.792416  0.459196  1
  Sn  Sn5  1  0.433409  0.292416  0.040804  1
  Sn  Sn6  1  0.566591  0.707584  0.959196  1
  Sn  Sn7  1  0.933409  0.207584  0.540804  1
  P  P8  1  0.199383  0.371965  0.383359  1
  P  P9  1  0.203906  0.588088  0.305859  1
  P  P10  1  0.247881  0.121666  0.595404  1
  P  P11  1  0.228407  0.907143  0.722534  1
  P  P12  1  0.271593  0.407143  0.777466  1
  P  P13  1  0.252119  0.621666  0.904596  1
  P  P14  1  0.296094  0.088088  0.194141  1
  P  P15  1  0.300617  0.871965  0.116641  1
  P  P16  1  0.699383  0.128035  0.883359  1
  P  P17  1  0.703906  0.911912  0.805859  1
  P  P18  1  0.747881  0.378334  0.095404  1
  P  P19  1  0.728407  0.592857  0.222534  1
  P  P20  1  0.771593  0.092857  0.277466  1
  P  P21  1  0.752119  0.878334  0.404596  1
  P  P22  1  0.796094  0.411912  0.694141  1
  P  P23  1  0.800617  0.628035  0.616641  1
  O  O24  1  0.079652  0.656982  0.306240  1
  O  O25  1  0.074618  0.898646  0.744012  1
  O  O26  1  0.104391  0.152959  0.666062  1
  O  O27  1  0.097042  0.291205  0.346176  1
  O  O28  1  0.135633  0.478203  0.332924  1
  O  O29  1  0.138703  0.693603  0.897021  1
  O  O30  1  0.159134  0.861598  0.206685  1
  O  O31  1  0.204068  0.379717  0.595528  1
  O  O32  1  0.209297  0.343848  0.931066  1
  O  O33  1  0.218085  0.521018  0.797522  1
  O  O34  1  0.227027  0.079630  0.395159  1
  O  O35  1  0.192074  0.111535  0.066556  1
  O  O36  1  0.307926  0.611535  0.433444  1
  O  O37  1  0.272973  0.579630  0.104841  1
  O  O38  1  0.281915  0.021018  0.702478  1
  O  O39  1  0.290703  0.843848  0.568934  1
  O  O40  1  0.295932  0.879717  0.904472  1
  O  O41  1  0.340866  0.361598  0.293315  1
  O  O42  1  0.361297  0.193603  0.602979  1
  O  O43  1  0.364367  0.978203  0.167076  1
  O  O44  1  0.402958  0.791205  0.153824  1
  O  O45  1  0.395609  0.652959  0.833938  1
  O  O46  1  0.425382  0.398646  0.755988  1
  O  O47  1  0.420349  0.156982  0.193760  1
  O  O48  1  0.579651  0.843018  0.806240  1
  O  O49  1  0.574618  0.601354  0.244012  1
  O  O50  1  0.604391  0.347041  0.166062  1
  O  O51  1  0.597042  0.208795  0.846176  1
  O  O52  1  0.635633  0.021797  0.832924  1
  O  O53  1  0.638703  0.806397  0.397021  1
  O  O54  1  0.659134  0.638402  0.706685  1
  O  O55  1  0.704068  0.120283  0.095528  1
  O  O56  1  0.709297  0.156152  0.431066  1
  O  O57  1  0.718085  0.978982  0.297522  1
  O  O58  1  0.727027  0.420370  0.895159  1
  O  O59  1  0.692074  0.388465  0.566556  1
  O  O60  1  0.807926  0.888465  0.933444  1
  O  O61  1  0.772973  0.920370  0.604841  1
  O  O62  1  0.781915  0.478982  0.202478  1
  O  O63  1  0.790703  0.656152  0.068934  1
  O  O64  1  0.795932  0.620283  0.404472  1
  O  O65  1  0.840866  0.138402  0.793315  1
  O  O66  1  0.861297  0.306397  0.102979  1
  O  O67  1  0.864367  0.521797  0.667076  1
  O  O68  1  0.902958  0.708795  0.653824  1
  O  O69  1  0.895609  0.847041  0.333938  1
  O  O70  1  0.925382  0.101354  0.255988  1
  O  O71  1  0.920349  0.343018  0.693760  1
