# generated using pymatgen
data_V2OF5
_symmetry_space_group_name_H-M   'P 1'
_cell_length_a   4.89132770
_cell_length_b   4.89132764
_cell_length_c   17.62887344
_cell_angle_alpha   89.90924378
_cell_angle_beta   90.09075538
_cell_angle_gamma   89.99537400
_symmetry_Int_Tables_number   1
_chemical_formula_structural   V2OF5
_chemical_formula_sum   'V8 O4 F20'
_cell_volume   421.77126067
_cell_formula_units_Z   4
loop_
 _symmetry_equiv_pos_site_id
 _symmetry_equiv_pos_as_xyz
  1  'x, y, z'
loop_
 _atom_site_type_symbol
 _atom_site_label
 _atom_site_symmetry_multiplicity
 _atom_site_fract_x
 _atom_site_fract_y
 _atom_site_fract_z
 _atom_site_occupancy
  V  V0  1  0.009000  0.990869  0.844688  1
  V  V1  1  0.014554  0.013274  0.663929  1
  V  V2  1  0.009131  0.991000  0.344688  1
  V  V3  1  0.485849  0.513113  0.913937  1
  V  V4  1  0.491765  0.490153  0.594625  1
  V  V5  1  0.486888  0.514151  0.413937  1
  V  V6  1  0.509847  0.508235  0.094625  1
  V  V7  1  0.986726  0.985446  0.163929  1
  O  O8  1  0.203453  0.796630  0.903319  1
  O  O9  1  0.203369  0.796547  0.403319  1
  O  O10  1  0.298168  0.295032  0.653314  1
  O  O11  1  0.704967  0.701832  0.153314  1
  F  F12  1  0.178431  0.822816  0.751630  1
  F  F13  1  0.217621  0.786270  0.589900  1
  F  F14  1  0.177184  0.821569  0.251630  1
  F  F15  1  0.213730  0.782379  0.089900  1
  F  F16  1  0.283406  0.287909  0.839867  1
  F  F17  1  0.323118  0.321857  0.501632  1
  F  F18  1  0.282351  0.279371  0.157295  1
  F  F19  1  0.283990  0.287523  0.339837  1
  F  F20  1  0.327005  0.328814  0.003360  1
  F  F21  1  0.678143  0.676882  0.001632  1
  F  F22  1  0.671186  0.672995  0.503360  1
  F  F23  1  0.712477  0.716010  0.839837  1
  F  F24  1  0.720629  0.717649  0.657295  1
  F  F25  1  0.712091  0.716594  0.339867  1
  F  F26  1  0.781084  0.218517  0.907267  1
  F  F27  1  0.788958  0.215170  0.589729  1
  F  F28  1  0.781483  0.218916  0.407267  1
  F  F29  1  0.829192  0.172321  0.753341  1
  F  F30  1  0.827679  0.170808  0.253341  1
  F  F31  1  0.784830  0.211042  0.089729  1
