# generated using pymatgen
data_LiFeOF2
_symmetry_space_group_name_H-M   'P 1'
_cell_length_a   5.14642993
_cell_length_b   5.53072585
_cell_length_c   9.24270985
_cell_angle_alpha   85.87173654
_cell_angle_beta   72.06445204
_cell_angle_gamma   117.19116980
_symmetry_Int_Tables_number   1
_chemical_formula_structural   LiFeOF2
_chemical_formula_sum   'Li4 Fe4 O4 F8'
_cell_volume   215.48666167
_cell_formula_units_Z   4
loop_
 _symmetry_equiv_pos_site_id
 _symmetry_equiv_pos_as_xyz
  1  'x, y, z'
loop_
 _atom_site_type_symbol
 _atom_site_label
 _atom_site_symmetry_multiplicity
 _atom_site_fract_x
 _atom_site_fract_y
 _atom_site_fract_z
 _atom_site_occupancy
  Li  Li0  1  0.351409  0.413436  0.673998  1
  Li  Li1  1  0.649218  0.610789  0.325482  1
  Li  Li2  1  0.668717  0.138662  0.790341  1
  Li  Li3  1  0.880117  0.127311  0.428961  1
  Fe  Fe4  1  0.151125  0.874362  0.583493  1
  Fe  Fe5  1  0.133893  0.329932  0.096306  1
  Fe  Fe6  1  0.375493  0.894439  0.163657  1
  Fe  Fe7  1  0.838898  0.600967  0.929278  1
  O  O8  1  0.041959  0.551765  0.726047  1
  O  O9  1  0.067241  0.010069  0.219774  1
  O  O10  1  0.533868  0.632024  0.106312  1
  O  O11  1  0.764724  0.241375  0.043258  1
  F  F12  1  0.419657  0.858871  0.376430  1
  F  F13  1  0.250436  0.262902  0.481405  1
  F  F14  1  0.244746  0.802929  0.963704  1
  F  F15  1  0.767452  0.731201  0.536498  1
  F  F16  1  0.424850  0.368351  0.880764  1
  F  F17  1  0.551706  0.117227  0.612776  1
  F  F18  1  0.933140  0.964590  0.782282  1
  F  F19  1  0.951350  0.468794  0.279234  1
