# generated using pymatgen
data_NiSb3(PO4)6
_symmetry_space_group_name_H-M   'P 1'
_cell_length_a   8.92096404
_cell_length_b   8.92096446
_cell_length_c   8.92096418
_cell_angle_alpha   57.98753366
_cell_angle_beta   57.98753170
_cell_angle_gamma   57.98753028
_symmetry_Int_Tables_number   1
_chemical_formula_structural   NiSb3(PO4)6
_chemical_formula_sum   'Ni1 Sb3 P6 O24'
_cell_volume   478.84264652
_cell_formula_units_Z   1
loop_
 _symmetry_equiv_pos_site_id
 _symmetry_equiv_pos_as_xyz
  1  'x, y, z'
loop_
 _atom_site_type_symbol
 _atom_site_label
 _atom_site_symmetry_multiplicity
 _atom_site_fract_x
 _atom_site_fract_y
 _atom_site_fract_z
 _atom_site_occupancy
  Ni  Ni0  1  0.856435  0.856435  0.856435  1
  Sb  Sb1  1  0.143079  0.143079  0.143079  1
  Sb  Sb2  1  0.356580  0.356580  0.356580  1
  Sb  Sb3  1  0.644212  0.644212  0.644212  1
  P  P4  1  0.036989  0.751193  0.467188  1
  P  P5  1  0.467188  0.036989  0.751193  1
  P  P6  1  0.751193  0.467188  0.036989  1
  P  P7  1  0.245792  0.541942  0.961774  1
  P  P8  1  0.541942  0.961774  0.245792  1
  P  P9  1  0.961774  0.245792  0.541942  1
  O  O10  1  0.133138  0.277532  0.511677  1
  O  O11  1  0.277532  0.511677  0.133138  1
  O  O12  1  0.059578  0.923873  0.279547  1
  O  O13  1  0.511677  0.133138  0.277532  1
  O  O14  1  0.218787  0.575656  0.438640  1
  O  O15  1  0.012666  0.776251  0.632423  1
  O  O16  1  0.279547  0.059578  0.923873  1
  O  O17  1  0.438640  0.218787  0.575656  1
  O  O18  1  0.575656  0.438640  0.218787  1
  O  O19  1  0.228534  0.364038  0.986448  1
  O  O20  1  0.077283  0.718103  0.939696  1
  O  O21  1  0.364038  0.986448  0.228534  1
  O  O22  1  0.632423  0.012666  0.776251  1
  O  O23  1  0.923873  0.279547  0.059578  1
  O  O24  1  0.776251  0.632423  0.012666  1
  O  O25  1  0.426738  0.556537  0.782005  1
  O  O26  1  0.556537  0.782005  0.426738  1
  O  O27  1  0.718103  0.939696  0.077283  1
  O  O28  1  0.986448  0.228534  0.364038  1
  O  O29  1  0.782005  0.426738  0.556537  1
  O  O30  1  0.483336  0.867735  0.724593  1
  O  O31  1  0.939696  0.077283  0.718103  1
  O  O32  1  0.724593  0.483336  0.867735  1
  O  O33  1  0.867735  0.724593  0.483336  1
