# generated using pymatgen
data_Li2VCrO4
_symmetry_space_group_name_H-M   'P 1'
_cell_length_a   5.14486327
_cell_length_b   6.00266496
_cell_length_c   5.14759746
_cell_angle_alpha   90.00099701
_cell_angle_beta   71.00414898
_cell_angle_gamma   89.99939761
_symmetry_Int_Tables_number   1
_chemical_formula_structural   Li2VCrO4
_chemical_formula_sum   'Li4 V2 Cr2 O8'
_cell_volume   150.31537761
_cell_formula_units_Z   2
loop_
 _symmetry_equiv_pos_site_id
 _symmetry_equiv_pos_as_xyz
  1  'x, y, z'
loop_
 _atom_site_type_symbol
 _atom_site_label
 _atom_site_symmetry_multiplicity
 _atom_site_fract_x
 _atom_site_fract_y
 _atom_site_fract_z
 _atom_site_occupancy
  Li  Li0  1  0.000408  0.004878  0.001056  1
  Li  Li1  1  0.999550  0.497080  0.999181  1
  Li  Li2  1  0.999506  0.252894  0.499159  1
  Li  Li3  1  0.000341  0.745179  0.501173  1
  V  V4  1  0.499369  0.750747  0.999792  1
  V  V5  1  0.499373  0.999228  0.499730  1
  Cr  Cr6  1  0.500531  0.251937  0.999890  1
  Cr  Cr7  1  0.500531  0.498097  0.499882  1
  O  O8  1  0.271239  0.006011  0.242900  1
  O  O9  1  0.275833  0.499747  0.239581  1
  O  O10  1  0.726973  0.253292  0.256245  1
  O  O11  1  0.275831  0.250238  0.739535  1
  O  O12  1  0.726158  0.748925  0.261347  1
  O  O13  1  0.726142  0.001067  0.761296  1
  O  O14  1  0.271243  0.743970  0.742930  1
  O  O15  1  0.726971  0.496713  0.756305  1
