# generated using pymatgen
data_Ti3Cu2Ni(PO4)6
_symmetry_space_group_name_H-M   'P 1'
_cell_length_a   8.56691923
_cell_length_b   8.56691982
_cell_length_c   8.56691922
_cell_angle_alpha   60.42680631
_cell_angle_beta   60.42681264
_cell_angle_gamma   60.42681023
_symmetry_Int_Tables_number   1
_chemical_formula_structural   Ti3Cu2Ni(PO4)6
_chemical_formula_sum   'Ti3 Cu2 Ni1 P6 O24'
_cell_volume   448.87983208
_cell_formula_units_Z   1
loop_
 _symmetry_equiv_pos_site_id
 _symmetry_equiv_pos_as_xyz
  1  'x, y, z'
loop_
 _atom_site_type_symbol
 _atom_site_label
 _atom_site_symmetry_multiplicity
 _atom_site_fract_x
 _atom_site_fract_y
 _atom_site_fract_z
 _atom_site_occupancy
  Ti  Ti0  1  0.142959  0.142959  0.142959  1
  Ti  Ti1  1  0.356070  0.356070  0.356070  1
  Ti  Ti2  1  0.644361  0.644361  0.644361  1
  Cu  Cu3  1  0.996953  0.996953  0.996953  1
  Cu  Cu4  1  0.499102  0.499102  0.499102  1
  Ni  Ni5  1  0.857416  0.857416  0.857416  1
  P  P6  1  0.248910  0.544883  0.956545  1
  P  P7  1  0.544883  0.956545  0.248910  1
  P  P8  1  0.956545  0.248910  0.544883  1
  P  P9  1  0.042685  0.751980  0.458907  1
  P  P10  1  0.458907  0.042685  0.751980  1
  P  P11  1  0.751980  0.458907  0.042685  1
  O  O12  1  0.118937  0.315126  0.494461  1
  O  O13  1  0.315126  0.494461  0.118937  1
  O  O14  1  0.055837  0.914992  0.261237  1
  O  O15  1  0.494461  0.118937  0.315126  1
  O  O16  1  0.012610  0.808073  0.613947  1
  O  O17  1  0.237098  0.585839  0.434253  1
  O  O18  1  0.261237  0.055837  0.914992  1
  O  O19  1  0.434253  0.237098  0.585839  1
  O  O20  1  0.190750  0.378445  0.000770  1
  O  O21  1  0.585839  0.434253  0.237098  1
  O  O22  1  0.088923  0.736566  0.946784  1
  O  O23  1  0.378445  0.000770  0.190750  1
  O  O24  1  0.613947  0.012610  0.808073  1
  O  O25  1  0.914992  0.261237  0.055837  1
  O  O26  1  0.416176  0.554520  0.763901  1
  O  O27  1  0.808073  0.613947  0.012610  1
  O  O28  1  0.554520  0.763901  0.416176  1
  O  O29  1  0.736566  0.946784  0.088923  1
  O  O30  1  0.763901  0.416176  0.554520  1
  O  O31  1  0.000770  0.190750  0.378445  1
  O  O32  1  0.500418  0.877937  0.691628  1
  O  O33  1  0.946784  0.088923  0.736566  1
  O  O34  1  0.691628  0.500418  0.877937  1
  O  O35  1  0.877937  0.691628  0.500418  1
