# generated using pymatgen
data_Li3Co2Si3O10
_symmetry_space_group_name_H-M   'P 1'
_cell_length_a   5.50804346
_cell_length_b   5.51773649
_cell_length_c   16.79639917
_cell_angle_alpha   94.57099306
_cell_angle_beta   85.42840572
_cell_angle_gamma   120.82735172
_symmetry_Int_Tables_number   1
_chemical_formula_structural   Li3Co2Si3O10
_chemical_formula_sum   'Li6 Co4 Si6 O20'
_cell_volume   436.50786888
_cell_formula_units_Z   2
loop_
 _symmetry_equiv_pos_site_id
 _symmetry_equiv_pos_as_xyz
  1  'x, y, z'
loop_
 _atom_site_type_symbol
 _atom_site_label
 _atom_site_symmetry_multiplicity
 _atom_site_fract_x
 _atom_site_fract_y
 _atom_site_fract_z
 _atom_site_occupancy
  Li  Li0  1  0.430155  0.834619  0.737915  1
  Li  Li1  1  0.365308  0.856221  0.047919  1
  Li  Li2  1  0.165058  0.569650  0.237229  1
  Li  Li3  1  0.144232  0.635124  0.547948  1
  Li  Li4  1  0.755994  0.519748  0.774513  1
  Li  Li5  1  0.479949  0.243427  0.274180  1
  Co  Co6  1  0.806673  0.993704  0.580814  1
  Co  Co7  1  0.008928  0.818840  0.923466  1
  Co  Co8  1  0.006037  0.192142  0.080652  1
  Co  Co9  1  0.182643  0.992624  0.423836  1
  Si  Si10  1  0.877231  0.879651  0.250400  1
  Si  Si11  1  0.521076  0.682564  0.400161  1
  Si  Si12  1  0.317064  0.478356  0.900656  1
  Si  Si13  1  0.677904  0.524963  0.095262  1
  Si  Si14  1  0.474783  0.322397  0.595386  1
  Si  Si15  1  0.119970  0.122787  0.750487  1
  O  O16  1  0.126062  0.889440  0.299351  1
  O  O17  1  0.110689  0.874691  0.799308  1
  O  O18  1  0.244187  0.696787  0.434344  1
  O  O19  1  0.303214  0.755217  0.934382  1
  O  O20  1  0.584066  0.795897  0.307056  1
  O  O21  1  0.800518  0.888700  0.450817  1
  O  O22  1  0.943536  0.797417  0.048626  1
  O  O23  1  0.457482  0.607977  0.592619  1
  O  O24  1  0.391486  0.543067  0.093040  1
  O  O25  1  0.203401  0.415186  0.807262  1
  O  O26  1  0.767491  0.581781  0.193022  1
  O  O27  1  0.645208  0.550955  0.890897  1
  O  O28  1  0.447824  0.354882  0.390720  1
  O  O29  1  0.111590  0.199752  0.951084  1
  O  O30  1  0.203171  0.057842  0.548562  1
  O  O31  1  0.417862  0.232798  0.693342  1
  O  O32  1  0.663932  0.231373  0.069246  1
  O  O33  1  0.769614  0.336998  0.569157  1
  O  O34  1  0.980735  0.164226  0.205529  1
  O  O35  1  0.834447  0.018572  0.705504  1
