# generated using pymatgen
data_VOF3
_symmetry_space_group_name_H-M   'P 1'
_cell_length_a   5.63252276
_cell_length_b   10.89258919
_cell_length_c   5.46280959
_cell_angle_alpha   88.32235699
_cell_angle_beta   120.26212529
_cell_angle_gamma   93.35283748
_symmetry_Int_Tables_number   1
_chemical_formula_structural   VOF3
_chemical_formula_sum   'V4 O4 F12'
_cell_volume   288.99049225
_cell_formula_units_Z   4
loop_
 _symmetry_equiv_pos_site_id
 _symmetry_equiv_pos_as_xyz
  1  'x, y, z'
loop_
 _atom_site_type_symbol
 _atom_site_label
 _atom_site_symmetry_multiplicity
 _atom_site_fract_x
 _atom_site_fract_y
 _atom_site_fract_z
 _atom_site_occupancy
  V  V0  1  0.059224  0.973773  0.016493  1
  V  V1  1  0.042965  0.479008  0.019354  1
  V  V2  1  0.524434  0.222151  0.984812  1
  V  V3  1  0.456176  0.727517  0.979917  1
  O  O4  1  0.304430  0.404822  0.078618  1
  O  O5  1  0.316296  0.891148  0.067790  1
  O  O6  1  0.182362  0.641145  0.930079  1
  O  O7  1  0.668302  0.112290  0.927739  1
  F  F8  1  0.169764  0.049660  0.341568  1
  F  F9  1  0.127903  0.547850  0.346152  1
  F  F10  1  0.849928  0.859483  0.077728  1
  F  F11  1  0.824479  0.352016  0.078916  1
  F  F12  1  0.331697  0.298069  0.655477  1
  F  F13  1  0.350187  0.805435  0.655061  1
  F  F14  1  0.645557  0.217504  0.353633  1
  F  F15  1  0.670760  0.726200  0.351728  1
  F  F16  1  0.191629  0.137230  0.921372  1
  F  F17  1  0.834818  0.970274  0.645868  1
  F  F18  1  0.808455  0.467649  0.650526  1
  F  F19  1  0.640635  0.616775  0.917170  1
