# generated using pymatgen
data_LiFe2(BO3)2
_symmetry_space_group_name_H-M   'P 1'
_cell_length_a   5.24665356
_cell_length_b   9.11349174
_cell_length_c   11.33475663
_cell_angle_alpha   67.18419063
_cell_angle_beta   76.91028306
_cell_angle_gamma   89.36196464
_symmetry_Int_Tables_number   1
_chemical_formula_structural   LiFe2(BO3)2
_chemical_formula_sum   'Li4 Fe8 B8 O24'
_cell_volume   484.81027034
_cell_formula_units_Z   4
loop_
 _symmetry_equiv_pos_site_id
 _symmetry_equiv_pos_as_xyz
  1  'x, y, z'
loop_
 _atom_site_type_symbol
 _atom_site_label
 _atom_site_symmetry_multiplicity
 _atom_site_fract_x
 _atom_site_fract_y
 _atom_site_fract_z
 _atom_site_occupancy
  Li  Li0  1  0.714664  0.722981  0.900368  1
  Li  Li1  1  0.527840  0.510911  0.633689  1
  Li  Li2  1  0.217738  0.219955  0.905163  1
  Li  Li3  1  0.228512  0.247429  0.165847  1
  Fe  Fe4  1  0.984398  0.644701  0.374961  1
  Fe  Fe5  1  0.732157  0.065408  0.879746  1
  Fe  Fe6  1  0.512104  0.853872  0.629365  1
  Fe  Fe7  1  0.749209  0.446638  0.133438  1
  Fe  Fe8  1  0.237734  0.559139  0.882232  1
  Fe  Fe9  1  0.489355  0.151243  0.379960  1
  Fe  Fe10  1  0.034866  0.338654  0.626667  1
  Fe  Fe11  1  0.250943  0.923291  0.133992  1
  B  B12  1  0.982153  0.316740  0.375352  1
  B  B13  1  0.736127  0.395175  0.874147  1
  B  B14  1  0.533728  0.185107  0.634028  1
  B  B15  1  0.764369  0.111935  0.121731  1
  B  B16  1  0.470977  0.807371  0.387025  1
  B  B17  1  0.228344  0.901236  0.874358  1
  B  B18  1  0.011076  0.680380  0.631417  1
  B  B19  1  0.265329  0.599390  0.125931  1
  O  O20  1  0.965914  0.901313  0.878859  1
  O  O21  1  0.894031  0.279864  0.846783  1
  O  O22  1  0.841237  0.503691  0.911675  1
  O  O23  1  0.847958  0.791684  0.650404  1
  O  O24  1  0.928280  0.571169  0.586728  1
  O  O25  1  0.754123  0.152654  0.685841  1
  O  O26  1  0.741774  0.323406  0.342543  1
  O  O27  1  0.479624  0.394965  0.862555  1
  O  O28  1  0.381997  0.796366  0.831483  1
  O  O29  1  0.536552  0.923970  0.431454  1
  O  O30  1  0.628439  0.686770  0.393449  1
  O  O31  1  0.348342  0.004200  0.914237  1
  O  O32  1  0.641063  0.021879  0.072569  1
  O  O33  1  0.399369  0.311868  0.636615  1
  O  O34  1  0.454870  0.081426  0.580912  1
  O  O35  1  0.606149  0.204339  0.178626  1
  O  O36  1  0.531745  0.625591  0.096558  1
  O  O37  1  0.261566  0.671777  0.659810  1
  O  O38  1  0.243267  0.818164  0.342469  1
  O  O39  1  0.050355  0.422759  0.424839  1
  O  O40  1  0.150948  0.207780  0.355766  1
  O  O41  1  0.151642  0.484945  0.093992  1
  O  O42  1  0.104443  0.692189  0.180568  1
  O  O43  1  0.032140  0.115633  0.110336  1
