# generated using pymatgen
data_YbFeGe2O7
_symmetry_space_group_name_H-M   'P 1'
_cell_length_a   6.76979317
_cell_length_b   8.49334470
_cell_length_c   9.82105128
_cell_angle_alpha   90.00000000
_cell_angle_beta   100.11043499
_cell_angle_gamma   90.00000000
_symmetry_Int_Tables_number   1
_chemical_formula_structural   YbFeGe2O7
_chemical_formula_sum   'Yb4 Fe4 Ge8 O28'
_cell_volume   555.92365697
_cell_formula_units_Z   4
loop_
 _symmetry_equiv_pos_site_id
 _symmetry_equiv_pos_as_xyz
  1  'x, y, z'
loop_
 _atom_site_type_symbol
 _atom_site_label
 _atom_site_symmetry_multiplicity
 _atom_site_fract_x
 _atom_site_fract_y
 _atom_site_fract_z
 _atom_site_occupancy
  O  O0  1  0.944652  0.083890  0.366615  1
  O  O1  1  0.055348  0.583890  0.633385  1
  O  O2  1  0.055348  0.916110  0.633385  1
  O  O3  1  0.944652  0.416110  0.366615  1
  O  O4  1  0.143005  0.250000  0.621759  1
  O  O5  1  0.856995  0.750000  0.378241  1
  O  O6  1  0.341805  0.250000  0.382623  1
  O  O7  1  0.658195  0.750000  0.617377  1
  O  O8  1  0.444206  0.583993  0.866216  1
  O  O9  1  0.555794  0.083993  0.133784  1
  O  O10  1  0.555794  0.416007  0.133784  1
  O  O11  1  0.444206  0.916007  0.866216  1
  O  O12  1  0.158726  0.250000  0.117522  1
  O  O13  1  0.841274  0.750000  0.882478  1
  O  O14  1  0.953158  0.568972  0.140941  1
  O  O15  1  0.046842  0.068972  0.859059  1
  O  O16  1  0.546510  0.569013  0.359130  1
  O  O17  1  0.453490  0.069013  0.640870  1
  O  O18  1  0.453490  0.430987  0.640870  1
  O  O19  1  0.546510  0.930987  0.359130  1
  O  O20  1  0.642542  0.750000  0.121287  1
  O  O21  1  0.357458  0.250000  0.878713  1
  O  O22  1  0.239963  0.750000  0.074132  1
  O  O23  1  0.760037  0.250000  0.925868  1
  O  O24  1  0.259241  0.750000  0.425488  1
  O  O25  1  0.740759  0.250000  0.574512  1
  O  O26  1  0.953158  0.931028  0.140941  1
  O  O27  1  0.046842  0.431028  0.859059  1
  Fe  Fe28  1  0.749857  0.946468  0.250054  1
  Fe  Fe29  1  0.250143  0.446468  0.749946  1
  Fe  Fe30  1  0.250143  0.053532  0.749946  1
  Fe  Fe31  1  0.749857  0.553532  0.250054  1
  Ge  Ge32  1  0.562146  0.250000  0.025529  1
  Ge  Ge33  1  0.437854  0.750000  0.974471  1
  Ge  Ge34  1  0.033942  0.250000  0.950621  1
  Ge  Ge35  1  0.966058  0.750000  0.049379  1
  Ge  Ge36  1  0.466945  0.250000  0.549384  1
  Ge  Ge37  1  0.533055  0.750000  0.450616  1
  Ge  Ge38  1  0.061475  0.750000  0.525295  1
  Ge  Ge39  1  0.938525  0.250000  0.474705  1
  Yb  Yb40  1  0.249814  0.040144  0.250177  1
  Yb  Yb41  1  0.750186  0.540144  0.749823  1
  Yb  Yb42  1  0.750186  0.959856  0.749823  1
  Yb  Yb43  1  0.249814  0.459856  0.250177  1
