# generated using pymatgen
data_In2Co2O7
_symmetry_space_group_name_H-M   'P 1'
_cell_length_a   6.88130535
_cell_length_b   6.87314462
_cell_length_c   6.86856580
_cell_angle_alpha   59.98912865
_cell_angle_beta   60.04313169
_cell_angle_gamma   59.95709471
_symmetry_Int_Tables_number   1
_chemical_formula_structural   In2Co2O7
_chemical_formula_sum   'In4 Co4 O14'
_cell_volume   229.68991968
_cell_formula_units_Z   2
loop_
 _symmetry_equiv_pos_site_id
 _symmetry_equiv_pos_as_xyz
  1  'x, y, z'
loop_
 _atom_site_type_symbol
 _atom_site_label
 _atom_site_symmetry_multiplicity
 _atom_site_fract_x
 _atom_site_fract_y
 _atom_site_fract_z
 _atom_site_occupancy
  In  In0  1  0.000003  -0.000000  0.000004  1
  In  In1  1  0.500007  0.999977  0.000003  1
  In  In2  1  0.999979  0.500015  0.999981  1
  In  In3  1  0.999980  0.999990  0.500003  1
  Co  Co4  1  0.500022  0.500001  0.999956  1
  Co  Co5  1  0.499980  0.000023  0.499973  1
  Co  Co6  1  -0.000006  0.499993  0.500016  1
  Co  Co7  1  0.500018  0.500018  0.499999  1
  O  O8  1  0.125273  0.124978  0.124862  1
  O  O9  1  0.578919  0.172721  0.169068  1
  O  O10  1  0.579287  0.171259  0.579563  1
  O  O11  1  0.169275  0.579717  0.171737  1
  O  O12  1  0.579422  0.578300  0.171830  1
  O  O13  1  0.173499  0.168658  0.579185  1
  O  O14  1  0.830726  0.419923  0.421284  1
  O  O15  1  0.169286  0.580008  0.578813  1
  O  O16  1  0.826503  0.831328  0.420867  1
  O  O17  1  0.420653  0.828761  0.420494  1
  O  O18  1  0.420600  0.421804  0.828102  1
  O  O19  1  0.830704  0.420287  0.828289  1
  O  O20  1  0.421118  0.827193  0.830849  1
  O  O21  1  0.874754  0.875043  0.875121  1
