# generated using pymatgen
data_LiNiPO4
_symmetry_space_group_name_H-M   'P 1'
_cell_length_a   7.87395660
_cell_length_b   8.89668136
_cell_length_c   4.88253896
_cell_angle_alpha   89.99723936
_cell_angle_beta   89.99995238
_cell_angle_gamma   90.00009096
_symmetry_Int_Tables_number   1
_chemical_formula_structural   LiNiPO4
_chemical_formula_sum   'Li4 Ni4 P4 O16'
_cell_volume   342.03202385
_cell_formula_units_Z   4
loop_
 _symmetry_equiv_pos_site_id
 _symmetry_equiv_pos_as_xyz
  1  'x, y, z'
loop_
 _atom_site_type_symbol
 _atom_site_label
 _atom_site_symmetry_multiplicity
 _atom_site_fract_x
 _atom_site_fract_y
 _atom_site_fract_z
 _atom_site_occupancy
  Li  Li0  1  0.048281  0.620174  0.937365  1
  Li  Li1  1  0.451718  0.120176  0.437366  1
  Li  Li2  1  0.548288  0.879828  0.937361  1
  Li  Li3  1  0.951713  0.379828  0.437361  1
  Ni  Ni4  1  0.166809  0.026236  0.998229  1
  Ni  Ni5  1  0.333190  0.526246  0.498195  1
  Ni  Ni6  1  0.666790  0.473752  0.998181  1
  Ni  Ni7  1  0.833203  0.973732  0.498129  1
  P  P8  1  0.224913  0.858962  0.561546  1
  P  P9  1  0.275086  0.358960  0.061541  1
  P  P10  1  0.724911  0.641045  0.561532  1
  P  P11  1  0.775089  0.141043  0.061523  1
  O  O12  1  0.057664  0.934378  0.669024  1
  O  O13  1  0.135429  0.458297  0.202173  1
  O  O14  1  0.241594  0.859707  0.249262  1
  O  O15  1  0.221814  0.697082  0.674472  1
  O  O16  1  0.278189  0.197082  0.174477  1
  O  O17  1  0.258408  0.359712  0.749258  1
  O  O18  1  0.364570  0.958298  0.702176  1
  O  O19  1  0.442333  0.434377  0.169027  1
  O  O20  1  0.557656  0.565629  0.669004  1
  O  O21  1  0.635434  0.041701  0.202178  1
  O  O22  1  0.741595  0.640300  0.249247  1
  O  O23  1  0.721808  0.802915  0.674475  1
  O  O24  1  0.778192  0.302915  0.174473  1
  O  O25  1  0.758409  0.140293  0.749242  1
  O  O26  1  0.864570  0.541704  0.702174  1
  O  O27  1  0.942344  0.065627  0.169007  1
