# generated using pymatgen
data_Li3V3P8O29
_symmetry_space_group_name_H-M   'P 1'
_cell_length_a   9.78501858
_cell_length_b   9.77397477
_cell_length_c   14.50300025
_cell_angle_alpha   89.25797817
_cell_angle_beta   89.38482240
_cell_angle_gamma   60.01264321
_symmetry_Int_Tables_number   1
_chemical_formula_structural   Li3V3P8O29
_chemical_formula_sum   'Li6 V6 P16 O58'
_cell_volume   1201.25438219
_cell_formula_units_Z   2
loop_
 _symmetry_equiv_pos_site_id
 _symmetry_equiv_pos_as_xyz
  1  'x, y, z'
loop_
 _atom_site_type_symbol
 _atom_site_label
 _atom_site_symmetry_multiplicity
 _atom_site_fract_x
 _atom_site_fract_y
 _atom_site_fract_z
 _atom_site_occupancy
  Li  Li0  1  0.073402  0.217235  0.947119  1
  Li  Li1  1  0.299777  0.779005  0.552697  1
  Li  Li2  1  0.321202  0.909765  0.060624  1
  Li  Li3  1  0.925045  0.293185  0.545676  1
  Li  Li4  1  0.779010  0.919320  0.554574  1
  Li  Li5  1  0.917055  0.778790  0.059822  1
  V  V6  1  0.002569  0.566115  0.250919  1
  V  V7  1  0.433542  0.001664  0.253682  1
  V  V8  1  0.435592  0.564284  0.754093  1
  V  V9  1  0.569584  0.433260  0.243497  1
  V  V10  1  0.565826  0.003617  0.749741  1
  V  V11  1  0.996291  0.435931  0.747885  1
  P  P12  1  0.092425  0.229794  0.159570  1
  P  P13  1  0.228006  0.086873  0.662670  1
  P  P14  1  0.089217  0.686396  0.666237  1
  P  P15  1  0.335469  0.334134  0.365255  1
  P  P16  1  0.328148  0.331437  0.865151  1
  P  P17  1  0.226675  0.689549  0.163188  1
  P  P18  1  0.319045  0.765119  0.340651  1
  P  P19  1  0.686710  0.086789  0.163711  1
  P  P20  1  0.318605  0.912482  0.840987  1
  P  P21  1  0.687239  0.231115  0.662571  1
  P  P22  1  0.771640  0.310441  0.843653  1
  P  P23  1  0.666719  0.672860  0.130781  1
  P  P24  1  0.665337  0.668829  0.633070  1
  P  P25  1  0.909202  0.316634  0.334845  1
  P  P26  1  0.770740  0.910720  0.340996  1
  P  P27  1  0.910570  0.768474  0.842134  1
  O  O28  1  0.987429  0.245934  0.423487  1
  O  O29  1  0.082530  0.257457  0.661135  1
  O  O30  1  0.202169  0.015149  0.759072  1
  O  O31  1  0.248620  0.991251  0.930508  1
  O  O32  1  0.098529  0.382507  0.178656  1
  O  O33  1  0.261047  0.082576  0.164354  1
  O  O34  1  0.179852  0.330226  0.823371  1
  O  O35  1  0.097209  0.523256  0.680296  1
  O  O36  1  0.976224  0.759992  0.934118  1
  O  O37  1  0.083487  0.661220  0.161095  1
  O  O38  1  0.337158  0.183314  0.322780  1
  O  O39  1  0.182252  0.480605  0.321662  1
  O  O40  1  0.381746  0.093887  0.676746  1
  O  O41  1  0.330401  0.333279  0.467051  1
  O  O42  1  0.326300  0.324107  0.966853  1
  O  O43  1  0.526257  0.093046  0.179236  1
  O  O44  1  0.331924  0.479435  0.822695  1
  O  O45  1  0.477098  0.184441  0.819688  1
  O  O46  1  0.259106  0.660437  0.663415  1
  O  O47  1  0.200480  0.781951  0.259684  1
  O  O48  1  0.226368  0.786719  0.083754  1
  O  O49  1  0.251738  0.763269  0.432075  1
  O  O50  1  0.381230  0.528542  0.173981  1
  O  O51  1  0.478046  0.338463  0.319809  1
  O  O52  1  0.659437  0.087052  0.662050  1
  O  O53  1  0.340514  0.745250  0.830748  1
  O  O54  1  0.525726  0.383737  0.680015  1
  O  O55  1  0.232060  0.990818  0.583682  1
  O  O56  1  0.766541  0.978752  0.432103  1
  O  O57  1  0.477995  0.615081  0.318836  1
  O  O58  1  0.655361  0.258816  0.164586  1
  O  O59  1  0.784420  0.014144  0.259089  1
  O  O60  1  0.341410  0.911461  0.326268  1
  O  O61  1  0.516729  0.668272  0.675385  1
  O  O62  1  0.617758  0.473974  0.822224  1
  O  O63  1  0.769476  0.235388  0.931208  1
  O  O64  1  0.774256  0.237007  0.580213  1
  O  O65  1  0.788574  0.204778  0.754742  1
  O  O66  1  0.741957  0.339702  0.325862  1
  O  O67  1  0.516121  0.820598  0.171875  1
  O  O68  1  0.479773  0.902878  0.820080  1
  O  O69  1  0.664550  0.523733  0.174123  1
  O  O70  1  0.673574  0.659978  0.531066  1
  O  O71  1  0.661172  0.676414  0.028340  1
  O  O72  1  0.619164  0.900586  0.321316  1
  O  O73  1  0.815569  0.516968  0.676134  1
  O  O74  1  0.666151  0.818509  0.671064  1
  O  O75  1  0.917579  0.336098  0.833076  1
  O  O76  1  0.003755  0.207405  0.248116  1
  O  O77  1  0.015102  0.235171  0.071241  1
  O  O78  1  0.900498  0.479290  0.316214  1
  O  O79  1  0.818652  0.669077  0.169248  1
  O  O80  1  0.744934  0.914822  0.824018  1
  O  O81  1  0.900619  0.617826  0.817968  1
  O  O82  1  0.778172  0.992277  0.083661  1
  O  O83  1  0.915653  0.743259  0.326481  1
  O  O84  1  0.990527  0.777454  0.586901  1
  O  O85  1  0.019903  0.779693  0.762431  1
