# generated using pymatgen
data_Li4Mn3Ni2Sn3O16
_symmetry_space_group_name_H-M   'P 1'
_cell_length_a   6.04394036
_cell_length_b   6.04300898
_cell_length_c   9.69790648
_cell_angle_alpha   90.00034134
_cell_angle_beta   89.60833523
_cell_angle_gamma   119.99498199
_symmetry_Int_Tables_number   1
_chemical_formula_structural   Li4Mn3Ni2Sn3O16
_chemical_formula_sum   'Li4 Mn3 Ni2 Sn3 O16'
_cell_volume   306.75416958
_cell_formula_units_Z   1
loop_
 _symmetry_equiv_pos_site_id
 _symmetry_equiv_pos_as_xyz
  1  'x, y, z'
loop_
 _atom_site_type_symbol
 _atom_site_label
 _atom_site_symmetry_multiplicity
 _atom_site_fract_x
 _atom_site_fract_y
 _atom_site_fract_z
 _atom_site_occupancy
  Li  Li0  1  0.346684  0.673359  0.882036  1
  Li  Li1  1  0.968694  0.984362  0.995559  1
  Li  Li2  1  0.976482  0.988237  0.502576  1
  Li  Li3  1  0.676927  0.338475  0.391822  1
  Mn  Mn4  1  0.663165  0.831609  0.216748  1
  Mn  Mn5  1  0.832543  0.662454  0.715113  1
  Mn  Mn6  1  0.832508  0.170081  0.715107  1
  Ni  Ni7  1  0.334963  0.667454  0.492220  1
  Ni  Ni8  1  0.671243  0.335626  0.985893  1
  Sn  Sn9  1  0.171356  0.832631  0.214393  1
  Sn  Sn10  1  0.171362  0.338750  0.214400  1
  Sn  Sn11  1  0.339312  0.169670  0.713976  1
  O  O12  1  0.146367  0.832386  0.602501  1
  O  O13  1  0.036886  0.518455  0.342392  1
  O  O14  1  0.358301  0.679161  0.099370  1
  O  O15  1  0.979635  0.989831  0.318748  1
  O  O16  1  0.979117  0.989576  0.811861  1
  O  O17  1  0.146353  0.313986  0.602495  1
  O  O18  1  0.497249  0.967605  0.336292  1
  O  O19  1  0.497257  0.529679  0.336297  1
  O  O20  1  0.312625  0.156325  0.091901  1
  O  O21  1  0.679359  0.839690  0.612877  1
  O  O22  1  0.533869  0.494838  0.834165  1
  O  O23  1  0.533864  0.039065  0.834168  1
  O  O24  1  0.691573  0.345800  0.606399  1
  O  O25  1  0.828314  0.679604  0.105367  1
  O  O26  1  0.965671  0.482846  0.827794  1
  O  O27  1  0.828319  0.148743  0.105371  1
