# generated using pymatgen
data_Li2MnFe(BO3)2
_symmetry_space_group_name_H-M   'P 1'
_cell_length_a   8.25987388
_cell_length_b   14.30769804
_cell_length_c   3.16164602
_cell_angle_alpha   90.00000000
_cell_angle_beta   90.00000000
_cell_angle_gamma   89.97790197
_symmetry_Int_Tables_number   1
_chemical_formula_structural   Li2MnFe(BO3)2
_chemical_formula_sum   'Li6 Mn3 Fe3 B6 O18'
_cell_volume   373.64260749
_cell_formula_units_Z   3
loop_
 _symmetry_equiv_pos_site_id
 _symmetry_equiv_pos_as_xyz
  1  'x, y, z'
loop_
 _atom_site_type_symbol
 _atom_site_label
 _atom_site_symmetry_multiplicity
 _atom_site_fract_x
 _atom_site_fract_y
 _atom_site_fract_z
 _atom_site_occupancy
  Li  Li0  1  0.292364  0.991449  0.500000  1
  Li  Li1  1  0.338951  0.358565  0.500000  1
  Li  Li2  1  0.364776  0.650285  0.500000  1
  Li  Li3  1  0.793586  0.491645  0.500000  1
  Li  Li4  1  0.842460  0.856978  0.500000  1
  Li  Li5  1  0.867690  0.151184  0.500000  1
  Mn  Mn6  1  0.633000  0.005830  0.000000  1
  Mn  Mn7  1  0.673823  0.314611  0.000000  1
  Mn  Mn8  1  0.691850  0.679760  0.000000  1
  Fe  Fe9  1  0.137666  0.504030  0.000000  1
  Fe  Fe10  1  0.176019  0.815986  0.000000  1
  Fe  Fe11  1  0.187210  0.179672  0.000000  1
  B  B12  1  0.002727  0.666095  0.500000  1
  B  B13  1  0.001226  0.999178  0.000000  1
  B  B14  1  0.002078  0.333259  0.500000  1
  B  B15  1  0.497473  0.167257  0.500000  1
  B  B16  1  0.498897  0.500869  0.000000  1
  B  B17  1  0.497984  0.833281  0.500000  1
  O  O18  1  0.013714  0.430387  0.500000  1
  O  O19  1  0.019300  0.763065  0.500000  1
  O  O20  1  0.138341  0.608518  0.500000  1
  O  O21  1  0.141191  0.278429  0.500000  1
  O  O22  1  0.153722  0.957802  0.000000  1
  O  O23  1  0.344549  0.126459  0.500000  1
  O  O24  1  0.347113  0.789987  0.500000  1
  O  O25  1  0.361321  0.444186  0.000000  1
  O  O26  1  0.481510  0.597484  0.000000  1
  O  O27  1  0.508290  0.930226  0.500000  1
  O  O28  1  0.512902  0.264201  0.500000  1
  O  O29  1  0.636498  0.111835  0.500000  1
  O  O30  1  0.638638  0.780211  0.500000  1
  O  O31  1  0.652735  0.460802  0.000000  1
  O  O32  1  0.848812  0.625998  0.500000  1
  O  O33  1  0.850985  0.290749  0.500000  1
  O  O34  1  0.863249  0.943325  0.000000  1
  O  O35  1  0.987348  0.096402  0.000000  1
