# generated using pymatgen
data_Ca2Mn3P3H6O17
_symmetry_space_group_name_H-M   'P 1'
_cell_length_a   9.20252617
_cell_length_b   13.46857748
_cell_length_c   11.76490309
_cell_angle_alpha   90.00000000
_cell_angle_beta   104.23451650
_cell_angle_gamma   90.00000000
_symmetry_Int_Tables_number   1
_chemical_formula_structural   Ca2Mn3P3H6O17
_chemical_formula_sum   'Ca8 Mn12 P12 H24 O68'
_cell_volume   1413.42962462
_cell_formula_units_Z   4
loop_
 _symmetry_equiv_pos_site_id
 _symmetry_equiv_pos_as_xyz
  1  'x, y, z'
loop_
 _atom_site_type_symbol
 _atom_site_label
 _atom_site_symmetry_multiplicity
 _atom_site_fract_x
 _atom_site_fract_y
 _atom_site_fract_z
 _atom_site_occupancy
  Ca  Ca0  1  0.342320  0.125451  0.052654  1
  Ca  Ca1  1  0.657680  0.625451  0.447346  1
  Ca  Ca2  1  0.657680  0.874549  0.947346  1
  Ca  Ca3  1  0.342320  0.374549  0.552654  1
  Ca  Ca4  1  0.659335  0.378620  0.904170  1
  Ca  Ca5  1  0.340664  0.878620  0.595830  1
  Ca  Ca6  1  0.340664  0.621380  0.095830  1
  Ca  Ca7  1  0.659335  0.121380  0.404170  1
  Mn  Mn8  1  0.000000  0.500000  0.500000  1
  Mn  Mn9  1  0.000000  0.000000  0.000000  1
  Mn  Mn10  1  0.000000  0.500000  0.000000  1
  Mn  Mn11  1  0.000000  0.000000  0.500000  1
  Mn  Mn12  1  0.003419  0.375226  0.737215  1
  Mn  Mn13  1  0.996581  0.875226  0.762785  1
  Mn  Mn14  1  0.996581  0.624774  0.262785  1
  Mn  Mn15  1  0.003419  0.124774  0.237215  1
  Mn  Mn16  1  0.004901  0.260931  0.986074  1
  Mn  Mn17  1  0.995099  0.760931  0.513926  1
  Mn  Mn18  1  0.995099  0.739069  0.013926  1
  Mn  Mn19  1  0.004901  0.239069  0.486074  1
  P  P20  1  0.279355  0.380140  0.950871  1
  P  P21  1  0.720645  0.880140  0.549129  1
  P  P22  1  0.720645  0.619860  0.049129  1
  P  P23  1  0.279355  0.119860  0.450871  1
  P  P24  1  0.054351  0.375896  0.262056  1
  P  P25  1  0.945649  0.875896  0.237944  1
  P  P26  1  0.945649  0.624104  0.737944  1
  P  P27  1  0.054351  0.124104  0.762056  1
  P  P28  1  0.728829  0.369109  0.518086  1
  P  P29  1  0.271171  0.869109  0.981914  1
  P  P30  1  0.271171  0.630891  0.481914  1
  P  P31  1  0.728829  0.130891  0.018086  1
  H  H32  1  0.387894  0.543462  0.760599  1
  H  H33  1  0.612106  0.043462  0.739401  1
  H  H34  1  0.612106  0.456538  0.239401  1
  H  H35  1  0.387894  0.956538  0.260599  1
  H  H36  1  0.648662  0.468751  0.687041  1
  H  H37  1  0.351338  0.968751  0.812959  1
  H  H38  1  0.351338  0.531249  0.312959  1
  H  H39  1  0.648662  0.031249  0.187041  1
  H  H40  1  0.697625  0.196760  0.727080  1
  H  H41  1  0.302375  0.696760  0.772920  1
  H  H42  1  0.302375  0.803240  0.272920  1
  H  H43  1  0.697625  0.303240  0.227080  1
  H  H44  1  0.290509  0.173840  0.788471  1
  H  H45  1  0.709491  0.673840  0.711529  1
  H  H46  1  0.709491  0.826160  0.211529  1
  H  H47  1  0.290509  0.326160  0.288471  1
  H  H48  1  0.699866  0.252386  0.725917  1
  H  H49  1  0.300134  0.752386  0.774083  1
  H  H50  1  0.300134  0.747614  0.274083  1
  H  H51  1  0.699866  0.247614  0.225917  1
  H  H52  1  0.563934  0.080793  0.611715  1
  H  H53  1  0.436066  0.580793  0.888285  1
  H  H54  1  0.436066  0.919207  0.388285  1
  H  H55  1  0.563934  0.419207  0.111715  1
  O  O56  1  0.448986  0.376731  0.979611  1
  O  O57  1  0.551014  0.876731  0.520389  1
  O  O58  1  0.551014  0.623269  0.020389  1
  O  O59  1  0.448986  0.123269  0.479611  1
  O  O60  1  0.225038  0.286062  0.011238  1
  O  O61  1  0.774962  0.786062  0.488762  1
  O  O62  1  0.774962  0.713938  0.988762  1
  O  O63  1  0.225038  0.213938  0.511238  1
  O  O64  1  0.219936  0.474797  0.002766  1
  O  O65  1  0.780064  0.974797  0.497234  1
  O  O66  1  0.780064  0.525203  0.997234  1
  O  O67  1  0.219936  0.025203  0.502766  1
  O  O68  1  0.212199  0.369930  0.815972  1
  O  O69  1  0.787801  0.869930  0.684028  1
  O  O70  1  0.787801  0.630070  0.184028  1
  O  O71  1  0.212199  0.130070  0.315972  1
  O  O72  1  0.237172  0.378337  0.319262  1
  O  O73  1  0.762828  0.878337  0.180738  1
  O  O74  1  0.762828  0.621663  0.680738  1
  O  O75  1  0.237172  0.121663  0.819262  1
  O  O76  1  0.996912  0.279709  0.303436  1
  O  O77  1  0.003088  0.779709  0.196564  1
  O  O78  1  0.003088  0.720291  0.696564  1
  O  O79  1  0.996912  0.220291  0.803436  1
  O  O80  1  0.023178  0.379248  0.128920  1
  O  O81  1  0.976822  0.879248  0.371080  1
  O  O82  1  0.976822  0.620752  0.871080  1
  O  O83  1  0.023178  0.120752  0.628920  1
  O  O84  1  0.002507  0.467875  0.316203  1
  O  O85  1  0.997493  0.967875  0.183797  1
  O  O86  1  0.997493  0.532125  0.683797  1
  O  O87  1  0.002507  0.032125  0.816203  1
  O  O88  1  0.559606  0.367800  0.485536  1
  O  O89  1  0.440394  0.867800  0.014464  1
  O  O90  1  0.440394  0.632200  0.514464  1
  O  O91  1  0.559606  0.132200  0.985536  1
  O  O92  1  0.790907  0.270869  0.475281  1
  O  O93  1  0.209093  0.770869  0.024719  1
  O  O94  1  0.209093  0.729131  0.524719  1
  O  O95  1  0.790907  0.229131  0.975281  1
  O  O96  1  0.792904  0.379386  0.653436  1
  O  O97  1  0.207096  0.879386  0.846564  1
  O  O98  1  0.207096  0.620614  0.346564  1
  O  O99  1  0.792904  0.120614  0.153436  1
  O  O100  1  0.784005  0.463547  0.460812  1
  O  O101  1  0.215995  0.963547  0.039188  1
  O  O102  1  0.215995  0.536453  0.539188  1
  O  O103  1  0.784005  0.036453  0.960812  1
  O  O104  1  0.942822  0.387641  0.894983  1
  O  O105  1  0.057178  0.887641  0.605017  1
  O  O106  1  0.057178  0.612359  0.105017  1
  O  O107  1  0.942822  0.112359  0.394983  1
  O  O108  1  0.059520  0.365117  0.572083  1
  O  O109  1  0.940480  0.865117  0.927917  1
  O  O110  1  0.940480  0.634883  0.427917  1
  O  O111  1  0.059520  0.134883  0.072083  1
  O  O112  1  0.564622  0.476855  0.725383  1
  O  O113  1  0.435378  0.976855  0.774617  1
  O  O114  1  0.435378  0.523145  0.274617  1
  O  O115  1  0.564622  0.023145  0.225383  1
  O  O116  1  0.506690  0.373946  0.726364  1
  O  O117  1  0.493310  0.873946  0.773636  1
  O  O118  1  0.493310  0.626054  0.273636  1
  O  O119  1  0.506690  0.126054  0.226364  1
  O  O120  1  0.651978  0.058878  0.672400  1
  O  O121  1  0.348022  0.558878  0.827600  1
  O  O122  1  0.348022  0.941122  0.327600  1
  O  O123  1  0.651978  0.441122  0.172400  1
