# generated using pymatgen
data_Fe5Co(PO4)6
_symmetry_space_group_name_H-M   'P 1'
_cell_length_a   8.36496947
_cell_length_b   8.60186343
_cell_length_c   8.60186350
_cell_angle_alpha   59.99999957
_cell_angle_beta   59.05868616
_cell_angle_gamma   59.05868137
_symmetry_Int_Tables_number   1
_chemical_formula_structural   Fe5Co(PO4)6
_chemical_formula_sum   'Fe5 Co1 P6 O24'
_cell_volume   431.32686182
_cell_formula_units_Z   1
loop_
 _symmetry_equiv_pos_site_id
 _symmetry_equiv_pos_as_xyz
  1  'x, y, z'
loop_
 _atom_site_type_symbol
 _atom_site_label
 _atom_site_symmetry_multiplicity
 _atom_site_fract_x
 _atom_site_fract_y
 _atom_site_fract_z
 _atom_site_occupancy
  Fe  Fe0  1  0.004594  0.998469  0.998469  1
  Fe  Fe1  1  0.059698  0.646768  0.646768  1
  Fe  Fe2  1  0.497164  0.500946  0.500946  1
  Fe  Fe3  1  0.435787  0.854738  0.854738  1
  Fe  Fe4  1  0.937755  0.354081  0.354081  1
  Co  Co5  1  0.579978  0.140007  0.140007  1
  P  P6  1  0.255347  0.250138  0.538242  1
  P  P7  1  0.255347  0.956273  0.250138  1
  P  P8  1  0.255347  0.538242  0.956273  1
  P  P9  1  0.744513  0.451150  0.049930  1
  P  P10  1  0.744513  0.049930  0.754408  1
  P  P11  1  0.744513  0.754408  0.451150  1
  O  O12  1  0.064726  0.107281  0.326304  1
  O  O13  1  0.064726  0.501690  0.107281  1
  O  O14  1  0.064726  0.326304  0.501690  1
  O  O15  1  0.218235  0.094256  0.744086  1
  O  O16  1  0.443186  0.183461  0.380851  1
  O  O17  1  0.285121  0.404448  0.559843  1
  O  O18  1  0.218235  0.943423  0.094256  1
  O  O19  1  0.285121  0.750589  0.404448  1
  O  O20  1  0.559660  0.607864  0.007193  1
  O  O21  1  0.285121  0.559843  0.750589  1
  O  O22  1  0.776676  0.247480  0.062668  1
  O  O23  1  0.559660  0.007193  0.825282  1
  O  O24  1  0.443186  0.992501  0.183461  1
  O  O25  1  0.218235  0.744086  0.943423  1
  O  O26  1  0.714057  0.434779  0.252301  1
  O  O27  1  0.443186  0.380851  0.992501  1
  O  O28  1  0.714057  0.252301  0.598864  1
  O  O29  1  0.776676  0.062668  0.913176  1
  O  O30  1  0.714057  0.598864  0.434779  1
  O  O31  1  0.559660  0.825282  0.607864  1
  O  O32  1  0.776676  0.913176  0.247480  1
  O  O33  1  0.933487  0.685936  0.488174  1
  O  O34  1  0.933487  0.488174  0.892403  1
  O  O35  1  0.933487  0.892403  0.685936  1
