# generated using pymatgen
data_Ag2B8O13
_symmetry_space_group_name_H-M   'P 1'
_cell_length_a   12.03895666
_cell_length_b   7.89822624
_cell_length_c   10.66395301
_cell_angle_alpha   89.99107001
_cell_angle_beta   99.77537960
_cell_angle_gamma   90.00672958
_symmetry_Int_Tables_number   1
_chemical_formula_structural   Ag2B8O13
_chemical_formula_sum   'Ag8 B32 O52'
_cell_volume   999.27464740
_cell_formula_units_Z   4
loop_
 _symmetry_equiv_pos_site_id
 _symmetry_equiv_pos_as_xyz
  1  'x, y, z'
loop_
 _atom_site_type_symbol
 _atom_site_label
 _atom_site_symmetry_multiplicity
 _atom_site_fract_x
 _atom_site_fract_y
 _atom_site_fract_z
 _atom_site_occupancy
  Ag  Ag0  1  0.084600  0.862624  0.536008  1
  Ag  Ag1  1  0.085163  0.637463  0.036092  1
  Ag  Ag2  1  0.382716  0.609173  0.688353  1
  Ag  Ag3  1  0.389916  0.928845  0.197893  1
  Ag  Ag4  1  0.610334  0.072536  0.802310  1
  Ag  Ag5  1  0.610211  0.428460  0.302311  1
  Ag  Ag6  1  0.914759  0.362524  0.963835  1
  Ag  Ag7  1  0.914849  0.137650  0.463847  1
  B  B8  1  0.004199  0.340823  0.721746  1
  B  B9  1  0.004280  0.159058  0.221721  1
  B  B10  1  0.137768  0.585907  0.762641  1
  B  B11  1  0.124686  0.405242  0.565273  1
  B  B12  1  0.137911  0.914006  0.262282  1
  B  B13  1  0.239300  0.081759  0.889192  1
  B  B14  1  0.124664  0.094755  0.065254  1
  B  B15  1  0.296935  0.510347  0.958206  1
  B  B16  1  0.239232  0.418480  0.388999  1
  B  B17  1  0.327139  0.051030  0.695033  1
  B  B18  1  0.296726  0.989753  0.458239  1
  B  B19  1  0.397289  0.893132  0.897775  1
  B  B20  1  0.327213  0.449691  0.194976  1
  B  B21  1  0.397185  0.606902  0.396415  1
  B  B22  1  0.441550  0.186424  0.548222  1
  B  B23  1  0.558443  0.685789  0.951825  1
  B  B24  1  0.441461  0.313985  0.047933  1
  B  B25  1  0.558547  0.814020  0.452009  1
  B  B26  1  0.602764  0.393171  0.603325  1
  B  B27  1  0.672560  0.549659  0.804410  1
  B  B28  1  0.602806  0.107022  0.102921  1
  B  B29  1  0.703282  0.010631  0.541619  1
  B  B30  1  0.672799  0.949898  0.304630  1
  B  B31  1  0.760534  0.581503  0.610742  1
  B  B32  1  0.703255  0.489398  0.041489  1
  B  B33  1  0.875296  0.905226  0.934732  1
  B  B34  1  0.760654  0.918486  0.110697  1
  B  B35  1  0.862039  0.085929  0.737672  1
  B  B36  1  0.875308  0.594711  0.434788  1
  B  B37  1  0.861994  0.414070  0.237621  1
  B  B38  1  0.995642  0.841000  0.778277  1
  B  B39  1  0.995705  0.659050  0.278213  1
  O  O40  1  0.058235  0.463120  0.800396  1
  O  O41  1  0.036619  0.311699  0.602465  1
  O  O42  1  0.084141  0.755811  0.744249  1
  O  O43  1  0.153638  0.140211  0.949449  1
  O  O44  1  0.058362  0.036763  0.300337  1
  O  O45  1  0.036530  0.188151  0.102405  1
  O  O46  1  0.084215  0.744220  0.244273  1
  O  O47  1  0.170703  0.536703  0.638058  1
  O  O48  1  0.153721  0.359715  0.449596  1
  O  O49  1  0.243188  0.598263  0.855040  1
  O  O50  1  0.244363  0.121898  0.766688  1
  O  O51  1  0.171193  0.963696  0.138138  1
  O  O52  1  0.322575  0.980140  0.960210  1
  O  O53  1  0.266236  0.972522  0.576156  1
  O  O54  1  0.243570  0.902196  0.354856  1
  O  O55  1  0.244438  0.378038  0.266717  1
  O  O56  1  0.388303  0.407368  0.944630  1
  O  O57  1  0.322310  0.520819  0.459495  1
  O  O58  1  0.266135  0.526908  0.075938  1
  O  O59  1  0.397659  0.915841  0.771159  1
  O  O60  1  0.407878  0.179517  0.663838  1
  O  O61  1  0.388126  0.092944  0.444606  1
  O  O62  1  0.470081  0.787616  0.975717  1
  O  O63  1  0.398112  0.583740  0.270508  1
  O  O64  1  0.407680  0.319455  0.163700  1
  O  O65  1  0.469771  0.712606  0.475257  1
  O  O66  1  0.529909  0.287835  0.524762  1
  O  O67  1  0.592295  0.680531  0.836259  1
  O  O68  1  0.602812  0.415605  0.729428  1
  O  O69  1  0.529952  0.212282  0.024585  1
  O  O70  1  0.611602  0.907566  0.555342  1
  O  O71  1  0.592340  0.819535  0.336357  1
  O  O72  1  0.602051  0.083606  0.229129  1
  O  O73  1  0.733974  0.473128  0.923946  1
  O  O74  1  0.677253  0.480054  0.539812  1
  O  O75  1  0.611613  0.592317  0.055268  1
  O  O76  1  0.755533  0.621975  0.733123  1
  O  O77  1  0.756437  0.097624  0.645146  1
  O  O78  1  0.733913  0.026925  0.423860  1
  O  O79  1  0.677519  0.020318  0.039943  1
  O  O80  1  0.828877  0.036291  0.861885  1
  O  O81  1  0.755575  0.878116  0.233236  1
  O  O82  1  0.756396  0.402230  0.145243  1
  O  O83  1  0.846365  0.640217  0.550443  1
  O  O84  1  0.828896  0.463623  0.361890  1
  O  O85  1  0.915800  0.255729  0.755705  1
  O  O86  1  0.963484  0.811828  0.897596  1
  O  O87  1  0.941704  0.963258  0.699663  1
  O  O88  1  0.846353  0.859762  0.050528  1
  O  O89  1  0.915817  0.244231  0.255754  1
  O  O90  1  0.963471  0.688149  0.397558  1
  O  O91  1  0.941688  0.536755  0.199663  1
