# generated using pymatgen
data_NaLi2MnPCO7
_symmetry_space_group_name_H-M   'P 1'
_cell_length_a   8.68884647
_cell_length_b   6.70327949
_cell_length_c   10.08331654
_cell_angle_alpha   90.05612383
_cell_angle_beta   88.82205656
_cell_angle_gamma   89.65033811
_symmetry_Int_Tables_number   1
_chemical_formula_structural   NaLi2MnPCO7
_chemical_formula_sum   'Na4 Li8 Mn4 P4 C4 O28'
_cell_volume   587.15492874
_cell_formula_units_Z   4
loop_
 _symmetry_equiv_pos_site_id
 _symmetry_equiv_pos_as_xyz
  1  'x, y, z'
loop_
 _atom_site_type_symbol
 _atom_site_label
 _atom_site_symmetry_multiplicity
 _atom_site_fract_x
 _atom_site_fract_y
 _atom_site_fract_z
 _atom_site_occupancy
  Na  Na0  1  0.083871  0.252381  0.878087  1
  Na  Na1  1  0.251341  0.998590  0.624470  1
  Na  Na2  1  0.251684  0.501592  0.126654  1
  Na  Na3  1  0.747934  0.499474  0.375912  1
  Li  Li4  1  0.081620  0.239839  0.376570  1
  Li  Li5  1  0.267260  0.481110  0.614500  1
  Li  Li6  1  0.267666  0.016335  0.120959  1
  Li  Li7  1  0.733462  0.518753  0.882919  1
  Li  Li8  1  0.733264  0.980067  0.884265  1
  Li  Li9  1  0.735316  0.986017  0.383661  1
  Li  Li10  1  0.914372  0.746725  0.625482  1
  Li  Li11  1  0.913039  0.763851  0.124388  1
  Mn  Mn12  1  0.358434  0.752328  0.887365  1
  Mn  Mn13  1  0.358255  0.747615  0.388800  1
  Mn  Mn14  1  0.646183  0.244894  0.612849  1
  Mn  Mn15  1  0.643926  0.250045  0.109821  1
  P  P16  1  0.415121  0.254823  0.850345  1
  P  P17  1  0.405494  0.240646  0.351523  1
  P  P18  1  0.597259  0.744208  0.649117  1
  P  P19  1  0.594086  0.759321  0.145926  1
  C  C20  1  0.041208  0.749427  0.867245  1
  C  C21  1  0.044908  0.760229  0.365389  1
  C  C22  1  0.954036  0.257988  0.629421  1
  C  C23  1  0.947683  0.238895  0.139017  1
  O  O24  1  0.100370  0.281286  0.647342  1
  O  O25  1  0.095737  0.223263  0.153836  1
  O  O26  1  0.089139  0.750316  0.988525  1
  O  O27  1  0.090317  0.751194  0.487683  1
  O  O28  1  0.140870  0.749844  0.768618  1
  O  O29  1  0.146175  0.750802  0.268077  1
  O  O30  1  0.322386  0.068926  0.897668  1
  O  O31  1  0.323785  0.438878  0.902733  1
  O  O32  1  0.303937  0.062895  0.397890  1
  O  O33  1  0.314263  0.430650  0.397220  1
  O  O34  1  0.420923  0.261552  0.695446  1
  O  O35  1  0.429785  0.732577  0.596684  1
  O  O36  1  0.420077  0.236155  0.196529  1
  O  O37  1  0.426924  0.768637  0.093726  1
  O  O38  1  0.584215  0.250411  0.898970  1
  O  O39  1  0.585377  0.753170  0.804583  1
  O  O40  1  0.570619  0.232910  0.406842  1
  O  O41  1  0.581496  0.767774  0.300726  1
  O  O42  1  0.697126  0.561948  0.606408  1
  O  O43  1  0.687035  0.928211  0.596140  1
  O  O44  1  0.683540  0.568266  0.100788  1
  O  O45  1  0.695217  0.933670  0.092809  1
  O  O46  1  0.859983  0.244338  0.731329  1
  O  O47  1  0.857378  0.244312  0.243119  1
  O  O48  1  0.901620  0.246623  0.509934  1
  O  O49  1  0.888180  0.250529  0.022249  1
  O  O50  1  0.895206  0.748584  0.841842  1
  O  O51  1  0.900898  0.777128  0.337597  1
