# generated using pymatgen
data_K4Tc2H6C8O21
_symmetry_space_group_name_H-M   'P 1'
_cell_length_a   9.59400113
_cell_length_b   10.11132757
_cell_length_c   12.97084115
_cell_angle_alpha   84.24598076
_cell_angle_beta   87.54362839
_cell_angle_gamma   69.53486421
_symmetry_Int_Tables_number   1
_chemical_formula_structural   K4Tc2H6C8O21
_chemical_formula_sum   'K8 Tc4 H12 C16 O42'
_cell_volume   1172.87970885
_cell_formula_units_Z   2
loop_
 _symmetry_equiv_pos_site_id
 _symmetry_equiv_pos_as_xyz
  1  'x, y, z'
loop_
 _atom_site_type_symbol
 _atom_site_label
 _atom_site_symmetry_multiplicity
 _atom_site_fract_x
 _atom_site_fract_y
 _atom_site_fract_z
 _atom_site_occupancy
  K  K0  1  0.887523  0.712403  0.060468  1
  K  K1  1  0.112477  0.287597  0.939532  1
  K  K2  1  0.585788  0.599764  0.631393  1
  K  K3  1  0.414212  0.400236  0.368607  1
  K  K4  1  0.401263  0.655917  0.110234  1
  K  K5  1  0.598737  0.344083  0.889766  1
  K  K6  1  0.224462  0.013011  0.646900  1
  K  K7  1  0.775538  0.986989  0.353100  1
  Tc  Tc8  1  0.720532  0.916977  0.731754  1
  Tc  Tc9  1  0.279468  0.083023  0.268246  1
  Tc  Tc10  1  0.968593  0.738506  0.722002  1
  Tc  Tc11  1  0.031407  0.261494  0.277998  1
  H  H12  1  0.871359  0.370678  0.697884  1
  H  H13  1  0.128641  0.629322  0.302116  1
  H  H14  1  0.852640  0.477287  0.782322  1
  H  H15  1  0.147360  0.522713  0.217678  1
  H  H16  1  0.810066  0.648124  0.308222  1
  H  H17  1  0.189934  0.351876  0.691778  1
  H  H18  1  0.668882  0.741740  0.247833  1
  H  H19  1  0.331118  0.258260  0.752167  1
  H  H20  1  0.975440  0.031475  0.013449  1
  H  H21  1  0.024560  0.968525  0.986551  1
  H  H22  1  0.941023  0.000413  0.701815  1
  H  H23  1  0.058977  0.999587  0.298185  1
  C  C24  1  0.591706  0.221446  0.665688  1
  C  C25  1  0.408294  0.778554  0.334312  1
  C  C26  1  0.644941  0.147387  0.565193  1
  C  C27  1  0.355059  0.852613  0.434807  1
  C  C28  1  0.450629  0.922139  0.835306  1
  C  C29  1  0.549371  0.077861  0.164694  1
  C  C30  1  0.573192  0.866417  0.919199  1
  C  C31  1  0.426808  0.133583  0.080801  1
  C  C32  1  0.281374  0.664109  0.812794  1
  C  C33  1  0.718626  0.335891  0.187206  1
  C  C34  1  0.231993  0.611153  0.919508  1
  C  C35  1  0.768007  0.388847  0.080492  1
  C  C36  1  0.051813  0.723687  0.500867  1
  C  C37  1  0.948187  0.276313  0.499133  1
  C  C38  1  0.103382  0.568247  0.550303  1
  C  C39  1  0.896618  0.431753  0.449697  1
  O  O40  1  0.616576  0.134075  0.749814  1
  O  O41  1  0.383424  0.865925  0.250186  1
  O  O42  1  0.707961  0.010262  0.580709  1
  O  O43  1  0.292039  0.989738  0.419291  1
  O  O44  1  0.502826  0.923959  0.738962  1
  O  O45  1  0.497174  0.076041  0.261038  1
  O  O46  1  0.706317  0.862291  0.884336  1
  O  O47  1  0.293683  0.137709  0.115664  1
  O  O48  1  0.185874  0.726432  0.738040  1
  O  O49  1  0.814126  0.273568  0.261960  1
  O  O50  1  0.974617  0.645407  0.843075  1
  O  O51  1  0.025383  0.354593  0.156925  1
  O  O52  1  0.006142  0.816648  0.567758  1
  O  O53  1  0.993858  0.183352  0.432242  1
  O  O54  1  0.061954  0.553691  0.647368  1
  O  O55  1  0.938046  0.446309  0.352632  1
  O  O56  1  0.775645  0.734436  0.683518  1
  O  O57  1  0.224355  0.265564  0.316482  1
  O  O58  1  0.917037  0.943500  0.761122  1
  O  O59  1  0.082963  0.056500  0.238878  1
  O  O60  1  0.529860  0.351268  0.664163  1
  O  O61  1  0.470140  0.648732  0.335837  1
  O  O62  1  0.627461  0.213956  0.478580  1
  O  O63  1  0.372539  0.786044  0.521420  1
  O  O64  1  0.317317  0.961206  0.857599  1
  O  O65  1  0.682683  0.038794  0.142401  1
  O  O66  1  0.548804  0.829001  0.009062  1
  O  O67  1  0.451196  0.170999  0.990938  1
  O  O68  1  0.416770  0.646296  0.802034  1
  O  O69  1  0.583230  0.353704  0.197966  1
  O  O70  1  0.278495  0.477895  0.938250  1
  O  O71  1  0.721505  0.522105  0.061750  1
  O  O72  1  0.055591  0.752401  0.405371  1
  O  O73  1  0.944409  0.247599  0.594629  1
  O  O74  1  0.178469  0.468769  0.501336  1
  O  O75  1  0.821531  0.531231  0.498664  1
  O  O76  1  0.815297  0.406141  0.761183  1
  O  O77  1  0.184703  0.593859  0.238817  1
  O  O78  1  0.835249  0.296029  0.019631  1
  O  O79  1  0.164751  0.703971  0.980369  1
  O  O80  1  0.766478  0.740203  0.267868  1
  O  O81  1  0.233522  0.259797  0.732132  1
