# generated using pymatgen
data_V3O5F
_symmetry_space_group_name_H-M   'P 1'
_cell_length_a   7.39767275
_cell_length_b   5.52051293
_cell_length_c   5.52051293
_cell_angle_alpha   71.83519046
_cell_angle_beta   69.81939974
_cell_angle_gamma   69.81939974
_symmetry_Int_Tables_number   1
_chemical_formula_structural   V3O5F
_chemical_formula_sum   'V6 O10 F2'
_cell_volume   193.80896964
_cell_formula_units_Z   2
loop_
 _symmetry_equiv_pos_site_id
 _symmetry_equiv_pos_as_xyz
  1  'x, y, z'
loop_
 _atom_site_type_symbol
 _atom_site_label
 _atom_site_symmetry_multiplicity
 _atom_site_fract_x
 _atom_site_fract_y
 _atom_site_fract_z
 _atom_site_occupancy
  V  V0  1  0.812226  0.659697  0.659697  1
  V  V1  1  0.666667  0.333333  0.333333  1
  V  V2  1  0.342029  0.644622  0.644622  1
  V  V3  1  0.166667  0.333333  0.333333  1
  V  V4  1  0.521107  0.006970  0.006970  1
  V  V5  1  0.991305  0.022045  0.022045  1
  O  O6  1  0.666667  0.032967  0.633699  1
  O  O7  1  0.330184  0.367826  0.969075  1
  O  O8  1  0.974698  0.229840  0.229840  1
  O  O9  1  0.624259  0.570910  0.570910  1
  O  O10  1  0.709075  0.095756  0.095756  1
  O  O11  1  0.358635  0.436827  0.436827  1
  O  O12  1  0.003150  0.298841  0.697591  1
  O  O13  1  0.666667  0.633699  0.032967  1
  O  O14  1  0.330184  0.969075  0.367826  1
  O  O15  1  0.003150  0.697591  0.298841  1
  F  F16  1  0.296853  0.895148  0.895148  1
  F  F17  1  0.036481  0.771519  0.771519  1
