# generated using pymatgen
data_Li2Si2NiO6
_symmetry_space_group_name_H-M   'P 1'
_cell_length_a   5.11639699
_cell_length_b   10.43934070
_cell_length_c   5.14153312
_cell_angle_alpha   103.17617931
_cell_angle_beta   85.75008993
_cell_angle_gamma   76.93440231
_symmetry_Int_Tables_number   1
_chemical_formula_structural   Li2Si2NiO6
_chemical_formula_sum   'Li4 Si4 Ni2 O12'
_cell_volume   258.17143926
_cell_formula_units_Z   2
loop_
 _symmetry_equiv_pos_site_id
 _symmetry_equiv_pos_as_xyz
  1  'x, y, z'
loop_
 _atom_site_type_symbol
 _atom_site_label
 _atom_site_symmetry_multiplicity
 _atom_site_fract_x
 _atom_site_fract_y
 _atom_site_fract_z
 _atom_site_occupancy
  Li  Li0  1  0.549203  0.831990  0.914717  1
  Li  Li1  1  0.131467  0.669493  0.832437  1
  Li  Li2  1  0.822828  0.332386  0.126773  1
  Li  Li3  1  0.910448  0.169598  0.546038  1
  Si  Si4  1  0.147934  0.837164  0.408125  1
  Si  Si5  1  0.735758  0.662835  0.322723  1
  Si  Si6  1  0.319739  0.338523  0.734134  1
  Si  Si7  1  0.404988  0.165024  0.146412  1
  Ni  Ni8  1  0.739733  0.501327  0.737429  1
  Ni  Ni9  1  0.988647  0.000364  0.984275  1
  O  O10  1  0.058505  0.990752  0.599376  1
  O  O11  1  0.181103  0.831035  0.086818  1
  O  O12  1  0.934867  0.748705  0.492787  1
  O  O13  1  0.433213  0.751571  0.491728  1
  O  O14  1  0.764084  0.669626  0.008155  1
  O  O15  1  0.799857  0.509485  0.361617  1
  O  O16  1  0.363694  0.490959  0.797900  1
  O  O17  1  0.002271  0.332663  0.758613  1
  O  O18  1  0.488170  0.248012  0.433711  1
  O  O19  1  0.486334  0.255909  0.938379  1
  O  O20  1  0.082056  0.169681  0.175109  1
  O  O21  1  0.601011  0.012559  0.054143  1
