# generated using pymatgen
data_Ti17(NO4)6
_symmetry_space_group_name_H-M   'P 1'
_cell_length_a   7.50209543
_cell_length_b   7.50209543
_cell_length_c   20.06791852
_cell_angle_alpha   90.00000000
_cell_angle_beta   90.00000000
_cell_angle_gamma   80.34062269
_symmetry_Int_Tables_number   1
_chemical_formula_structural   Ti17(NO4)6
_chemical_formula_sum   'Ti34 N12 O48'
_cell_volume   1113.43867755
_cell_formula_units_Z   2
loop_
 _symmetry_equiv_pos_site_id
 _symmetry_equiv_pos_as_xyz
  1  'x, y, z'
loop_
 _atom_site_type_symbol
 _atom_site_label
 _atom_site_symmetry_multiplicity
 _atom_site_fract_x
 _atom_site_fract_y
 _atom_site_fract_z
 _atom_site_occupancy
  Ti  Ti0  1  0.972705  0.694082  0.778513  1
  Ti  Ti1  1  0.695552  0.978792  0.211410  1
  Ti  Ti2  1  0.695552  0.978792  0.038590  1
  Ti  Ti3  1  0.972447  0.694803  0.287216  1
  Ti  Ti4  1  0.972705  0.694082  0.471487  1
  Ti  Ti5  1  0.972447  0.694803  0.962784  1
  Ti  Ti6  1  0.698815  0.968291  0.716257  1
  Ti  Ti7  1  0.698815  0.968291  0.533743  1
  Ti  Ti8  1  0.360871  0.967759  0.125000  1
  Ti  Ti9  1  0.365574  0.972463  0.625000  1
  Ti  Ti10  1  0.970748  0.362586  0.875000  1
  Ti  Ti11  1  0.970748  0.362586  0.375000  1
  Ti  Ti12  1  0.365042  0.634519  0.033743  1
  Ti  Ti13  1  0.694104  0.301307  0.625000  1
  Ti  Ti14  1  0.638530  0.360886  0.787216  1
  Ti  Ti15  1  0.639252  0.360628  0.971487  1
  Ti  Ti16  1  0.638530  0.360886  0.462784  1
  Ti  Ti17  1  0.354542  0.637781  0.538590  1
  Ti  Ti18  1  0.354542  0.637781  0.711410  1
  Ti  Ti19  1  0.365042  0.634519  0.216257  1
  Ti  Ti20  1  0.639252  0.360628  0.278513  1
  Ti  Ti21  1  0.301121  0.696234  0.874488  1
  Ti  Ti22  1  0.301121  0.696234  0.375512  1
  Ti  Ti23  1  0.637099  0.032212  0.374488  1
  Ti  Ti24  1  0.637099  0.032212  0.875512  1
  Ti  Ti25  1  0.032027  0.639229  0.125000  1
  Ti  Ti26  1  0.305746  0.027652  0.463930  1
  Ti  Ti27  1  0.305682  0.027587  0.963930  1
  Ti  Ti28  1  0.027794  0.312578  0.711513  1
  Ti  Ti29  1  0.305746  0.027652  0.786070  1
  Ti  Ti30  1  0.027794  0.312578  0.538487  1
  Ti  Ti31  1  0.305682  0.027587  0.286070  1
  Ti  Ti32  1  0.020755  0.305539  0.038487  1
  Ti  Ti33  1  0.020755  0.305539  0.211513  1
  N  N34  1  0.397194  0.936139  0.875000  1
  N  N35  1  0.397194  0.936139  0.375000  1
  N  N36  1  0.933135  0.374209  0.625000  1
  N  N37  1  0.959124  0.400199  0.125000  1
  N  N38  1  0.731480  0.271619  0.875483  1
  N  N39  1  0.292629  0.733683  0.625000  1
  N  N40  1  0.731480  0.271619  0.374517  1
  N  N41  1  0.270420  0.729645  0.125000  1
  N  N42  1  0.603689  0.062914  0.625000  1
  N  N43  1  0.061714  0.601853  0.375483  1
  N  N44  1  0.599650  0.040705  0.125000  1
  N  N45  1  0.061714  0.601853  0.874517  1
  O  O46  1  0.876270  0.789421  0.554617  1
  O  O47  1  0.881380  0.786387  0.190701  1
  O  O48  1  0.782198  0.878394  0.309812  1
  O  O49  1  0.783905  0.883916  0.811000  1
  O  O50  1  0.782198  0.878394  0.940187  1
  O  O51  1  0.783905  0.883916  0.439000  1
  O  O52  1  0.876270  0.789421  0.695383  1
  O  O53  1  0.881380  0.786387  0.059299  1
  O  O54  1  0.476283  0.859754  0.718796  1
  O  O55  1  0.476283  0.859754  0.531204  1
  O  O56  1  0.473580  0.857050  0.031204  1
  O  O57  1  0.473580  0.857050  0.218796  1
  O  O58  1  0.855740  0.477906  0.968665  1
  O  O59  1  0.855427  0.477593  0.468665  1
  O  O60  1  0.855740  0.477906  0.281335  1
  O  O61  1  0.855427  0.477593  0.781335  1
  O  O62  1  0.807045  0.190266  0.718838  1
  O  O63  1  0.543912  0.457064  0.054617  1
  O  O64  1  0.807045  0.190266  0.531162  1
  O  O65  1  0.546947  0.451953  0.559299  1
  O  O66  1  0.546947  0.451953  0.690701  1
  O  O67  1  0.454939  0.551135  0.809813  1
  O  O68  1  0.454939  0.551135  0.440188  1
  O  O69  1  0.449417  0.549428  0.939000  1
  O  O70  1  0.183123  0.815950  0.965708  1
  O  O71  1  0.823280  0.176897  0.024737  1
  O  O72  1  0.543912  0.457064  0.195383  1
  O  O73  1  0.449417  0.549428  0.311000  1
  O  O74  1  0.187292  0.811812  0.781037  1
  O  O75  1  0.187292  0.811812  0.468963  1
  O  O76  1  0.823280  0.176897  0.225263  1
  O  O77  1  0.183123  0.815950  0.284292  1
  O  O78  1  0.143067  0.526288  0.031162  1
  O  O79  1  0.143067  0.526288  0.218838  1
  O  O80  1  0.521521  0.146042  0.281037  1
  O  O81  1  0.517384  0.150210  0.465708  1
  O  O82  1  0.521521  0.146042  0.968963  1
  O  O83  1  0.156436  0.510053  0.725263  1
  O  O84  1  0.156436  0.510053  0.524737  1
  O  O85  1  0.517384  0.150210  0.784292  1
  O  O86  1  0.213311  0.118381  0.190842  1
  O  O87  1  0.122671  0.217529  0.939898  1
  O  O88  1  0.214952  0.120022  0.559158  1
  O  O89  1  0.213311  0.118381  0.059158  1
  O  O90  1  0.214952  0.120022  0.690842  1
  O  O91  1  0.122671  0.217529  0.310102  1
  O  O92  1  0.115805  0.210662  0.439898  1
  O  O93  1  0.115805  0.210662  0.810102  1
