# generated using pymatgen
data_Na5Bi2As(CO4)4
_symmetry_space_group_name_H-M   'P 1'
_cell_length_a   10.44947592
_cell_length_b   10.43570992
_cell_length_c   18.15361700
_cell_angle_alpha   90.27168247
_cell_angle_beta   72.67365898
_cell_angle_gamma   119.69212599
_symmetry_Int_Tables_number   1
_chemical_formula_structural   Na5Bi2As(CO4)4
_chemical_formula_sum   'Na20 Bi8 As4 C16 O64'
_cell_volume   1617.13971533
_cell_formula_units_Z   4
loop_
 _symmetry_equiv_pos_site_id
 _symmetry_equiv_pos_as_xyz
  1  'x, y, z'
loop_
 _atom_site_type_symbol
 _atom_site_label
 _atom_site_symmetry_multiplicity
 _atom_site_fract_x
 _atom_site_fract_y
 _atom_site_fract_z
 _atom_site_occupancy
  Na  Na0  1  0.922179  0.404677  0.161052  1
  Na  Na1  1  0.678859  0.284576  0.535069  1
  Na  Na2  1  0.680223  0.785741  0.035237  1
  Na  Na3  1  0.925740  0.712947  0.464830  1
  Na  Na4  1  0.330783  0.411914  0.157018  1
  Na  Na5  1  0.931348  0.215207  0.963721  1
  Na  Na6  1  0.321719  0.105292  0.463277  1
  Na  Na7  1  0.926013  0.022630  0.164412  1
  Na  Na8  1  0.930810  0.511826  0.657352  1
  Na  Na9  1  0.072416  0.091636  0.339827  1
  Na  Na10  1  0.934490  0.917161  0.660596  1
  Na  Na11  1  0.068325  0.784386  0.034092  1
  Na  Na12  1  0.068590  0.476823  0.340523  1
  Na  Na13  1  0.682757  0.589952  0.840571  1
  Na  Na14  1  0.681184  0.897487  0.534268  1
  Na  Na15  1  0.321427  0.213762  0.963943  1
  Na  Na16  1  0.321989  0.714411  0.464289  1
  Na  Na17  1  0.312377  0.908909  0.664318  1
  Na  Na18  1  0.322376  0.609780  0.964799  1
  Na  Na19  1  0.068554  0.587787  0.839795  1
  Bi  Bi20  1  0.503594  0.006890  0.999473  1
  Bi  Bi21  1  0.505332  0.249804  0.248272  1
  Bi  Bi22  1  0.492414  0.496082  0.499328  1
  Bi  Bi23  1  0.502909  0.754477  0.252157  1
  Bi  Bi24  1  0.495367  0.245458  0.751831  1
  Bi  Bi25  1  0.502677  0.753648  0.750797  1
  Bi  Bi26  1  0.995016  0.747333  0.250322  1
  Bi  Bi27  1  0.002347  0.246454  0.748078  1
  As  As28  1  0.874810  0.187195  0.437542  1
  As  As29  1  0.126731  0.314272  0.062548  1
  As  As30  1  0.875366  0.687736  0.937475  1
  As  As31  1  0.123077  0.810573  0.562509  1
  C  C32  1  0.667931  0.078777  0.136436  1
  C  C33  1  0.271223  0.078322  0.141539  1
  C  C34  1  0.718858  0.420971  0.360751  1
  C  C35  1  0.722095  0.612843  0.170678  1
  C  C36  1  0.718292  0.110156  0.670781  1
  C  C37  1  0.341650  0.419228  0.357979  1
  C  C38  1  0.721555  0.798895  0.360422  1
  C  C39  1  0.719890  0.300813  0.857692  1
  C  C40  1  0.285324  0.195413  0.636930  1
  C  C41  1  0.279627  0.697106  0.139256  1
  C  C42  1  0.663874  0.580930  0.639176  1
  C  C43  1  0.280846  0.587776  0.641085  1
  C  C44  1  0.271221  0.886121  0.332890  1
  C  C45  1  0.279940  0.396023  0.832741  1
  C  C46  1  0.716982  0.918113  0.859695  1
  C  C47  1  0.340521  0.919392  0.862035  1
  O  O48  1  0.671330  0.128998  0.070192  1
  O  O49  1  0.936517  0.076178  0.467633  1
  O  O50  1  0.955959  0.226821  0.336087  1
  O  O51  1  0.669036  0.152643  0.193944  1
  O  O52  1  0.284028  0.026295  0.075872  1
  O  O53  1  0.934873  0.359272  0.468394  1
  O  O54  1  0.671932  0.086542  0.477848  1
  O  O55  1  0.838289  0.988258  0.796676  1
  O  O56  1  0.713717  0.484859  0.176770  1
  O  O57  1  0.850396  0.486128  0.302113  1
  O  O58  1  0.387071  0.200430  0.148753  1
  O  O59  1  0.595599  0.303441  0.355628  1
  O  O60  1  0.839373  0.228430  0.677304  1
  O  O61  1  0.852712  0.734796  0.166151  1
  O  O62  1  0.284274  0.017077  0.331784  1
  O  O63  1  0.328897  0.414509  0.026984  1
  O  O64  1  0.057312  0.144054  0.030677  1
  O  O65  1  0.710862  0.475945  0.425950  1
  O  O66  1  0.601938  0.620861  0.169661  1
  O  O67  1  0.598104  0.118309  0.668799  1
  O  O68  1  0.338541  0.349671  0.297885  1
  O  O69  1  0.851309  0.806772  0.358645  1
  O  O70  1  0.849259  0.306050  0.853384  1
  O  O71  1  0.058407  0.414353  0.028925  1
  O  O72  1  0.062893  0.284668  0.163612  1
  O  O73  1  0.667691  0.953855  0.144140  1
  O  O74  1  0.664528  0.456711  0.644672  1
  O  O75  1  0.402823  0.261761  0.570611  1
  O  O76  1  0.398142  0.761542  0.073975  1
  O  O77  1  0.715386  0.850338  0.297536  1
  O  O78  1  0.348310  0.364977  0.419837  1
  O  O79  1  0.713292  0.366128  0.798881  1
  O  O80  1  0.662811  0.633910  0.574702  1
  O  O81  1  0.291361  0.639480  0.198593  1
  O  O82  1  0.301344  0.135671  0.693502  1
  O  O83  1  0.348137  0.046958  0.858294  1
  O  O84  1  0.600677  0.738363  0.424704  1
  O  O85  1  0.596291  0.230854  0.919958  1
  O  O86  1  0.338185  0.542339  0.355127  1
  O  O87  1  0.956066  0.595780  0.967620  1
  O  O88  1  0.937256  0.708714  0.836001  1
  O  O89  1  0.154124  0.186859  0.644617  1
  O  O90  1  0.148163  0.688392  0.144501  1
  O  O91  1  0.666664  0.653163  0.698076  1
  O  O92  1  0.385582  0.870897  0.335295  1
  O  O93  1  0.293911  0.539832  0.575019  1
  O  O94  1  0.397285  0.382571  0.833203  1
  O  O95  1  0.672438  0.596251  0.968386  1
  O  O96  1  0.935868  0.850210  0.977776  1
  O  O97  1  0.713153  0.983392  0.666726  1
  O  O98  1  0.397595  0.712688  0.647818  1
  O  O99  1  0.149985  0.280934  0.832743  1
  O  O100  1  0.140048  0.768576  0.333271  1
  O  O101  1  0.598037  0.789870  0.858265  1
  O  O102  1  0.293362  0.527613  0.834022  1
  O  O103  1  0.151074  0.514636  0.700664  1
  O  O104  1  0.138338  0.007090  0.199966  1
  O  O105  1  0.325220  0.912074  0.530412  1
  O  O106  1  0.057949  0.643948  0.527089  1
  O  O107  1  0.711369  0.974050  0.924188  1
  O  O108  1  0.337392  0.850131  0.801945  1
  O  O109  1  0.056851  0.912769  0.528856  1
  O  O110  1  0.051674  0.773226  0.663588  1
  O  O111  1  0.337362  0.860379  0.926343  1
