# generated using pymatgen
data_Co3C7S2O7
_symmetry_space_group_name_H-M   'P 1'
_cell_length_a   11.82372544
_cell_length_b   13.60462681
_cell_length_c   9.50478442
_cell_angle_alpha   101.10269473
_cell_angle_beta   109.86983218
_cell_angle_gamma   72.62801663
_symmetry_Int_Tables_number   1
_chemical_formula_structural   Co3C7S2O7
_chemical_formula_sum   'Co12 C28 S8 O28'
_cell_volume   1365.22187768
_cell_formula_units_Z   4
loop_
 _symmetry_equiv_pos_site_id
 _symmetry_equiv_pos_as_xyz
  1  'x, y, z'
loop_
 _atom_site_type_symbol
 _atom_site_label
 _atom_site_symmetry_multiplicity
 _atom_site_fract_x
 _atom_site_fract_y
 _atom_site_fract_z
 _atom_site_occupancy
  Co  Co0  1  0.692594  0.268703  0.471126  1
  Co  Co1  1  0.307406  0.731297  0.528874  1
  Co  Co2  1  0.713800  0.328630  0.254888  1
  Co  Co3  1  0.286200  0.671370  0.745112  1
  Co  Co4  1  0.903895  0.220068  0.431899  1
  Co  Co5  1  0.096105  0.779932  0.568101  1
  Co  Co6  1  0.361281  0.241391  0.231507  1
  Co  Co7  1  0.638719  0.758609  0.768493  1
  Co  Co8  1  0.382873  0.298515  0.013661  1
  Co  Co9  1  0.617127  0.701485  0.986339  1
  Co  Co10  1  0.272991  0.155919  0.969890  1
  Co  Co11  1  0.727009  0.844081  0.030110  1
  C  C12  1  0.688225  0.176576  0.576852  1
  C  C13  1  0.311775  0.823424  0.423148  1
  C  C14  1  0.723455  0.370691  0.612372  1
  C  C15  1  0.276545  0.629309  0.387628  1
  C  C16  1  0.740558  0.310779  0.078611  1
  C  C17  1  0.259442  0.689221  0.921389  1
  C  C18  1  0.740135  0.451940  0.330764  1
  C  C19  1  0.259865  0.548060  0.669236  1
  C  C20  1  0.957242  0.133779  0.570743  1
  C  C21  1  0.042758  0.866221  0.429257  1
  C  C22  1  0.965310  0.325727  0.536023  1
  C  C23  1  0.034690  0.674273  0.463977  1
  C  C24  1  0.997949  0.172610  0.310777  1
  C  C25  1  0.002051  0.827390  0.689223  1
  C  C26  1  0.387987  0.153908  0.361371  1
  C  C27  1  0.612013  0.846092  0.638629  1
  C  C28  1  0.219864  0.326847  0.251051  1
  C  C29  1  0.780136  0.673153  0.748949  1
  C  C30  1  0.435335  0.287760  0.856508  1
  C  C31  1  0.564665  0.712240  0.143492  1
  C  C32  1  0.249474  0.404307  0.974453  1
  C  C33  1  0.750526  0.595693  0.025547  1
  C  C34  1  0.255406  0.044779  0.023858  1
  C  C35  1  0.744594  0.955221  0.976142  1
  C  C36  1  0.119824  0.236345  0.937868  1
  C  C37  1  0.880176  0.763655  0.062132  1
  C  C38  1  0.277399  0.116750  0.783036  1
  C  C39  1  0.722601  0.883250  0.216964  1
  S  S40  1  0.741480  0.170378  0.285248  1
  S  S41  1  0.258520  0.829622  0.714752  1
  S  S42  1  0.466214  0.147128  0.088158  1
  S  S43  1  0.533786  0.852872  0.911842  1
  S  S44  1  0.489411  0.340609  0.371237  1
  S  S45  1  0.510589  0.659391  0.628763  1
  S  S46  1  0.505870  0.388316  0.189609  1
  S  S47  1  0.494130  0.611684  0.810391  1
  O  O48  1  0.690447  0.114170  0.645358  1
  O  O49  1  0.309553  0.885830  0.354642  1
  O  O50  1  0.747656  0.435665  0.706825  1
  O  O51  1  0.252344  0.564335  0.293175  1
  O  O52  1  0.759167  0.295951  0.963570  1
  O  O53  1  0.240833  0.704049  0.036430  1
  O  O54  1  0.755065  0.533645  0.378890  1
  O  O55  1  0.244935  0.466355  0.621110  1
  O  O56  1  0.992957  0.076944  0.661881  1
  O  O57  1  0.007043  0.923056  0.338119  1
  O  O58  1  0.009778  0.391536  0.605941  1
  O  O59  1  0.990222  0.608464  0.394059  1
  O  O60  1  0.058487  0.140013  0.230919  1
  O  O61  1  0.941513  0.859988  0.769081  1
  O  O62  1  0.404212  0.095846  0.444535  1
  O  O63  1  0.595788  0.904154  0.555465  1
  O  O64  1  0.125548  0.377925  0.263853  1
  O  O65  1  0.874452  0.622075  0.736147  1
  O  O66  1  0.467342  0.278772  0.751261  1
  O  O67  1  0.532658  0.721228  0.248739  1
  O  O68  1  0.163073  0.473478  0.946450  1
  O  O69  1  0.836927  0.526522  0.053550  1
  O  O70  1  0.243087  0.970929  0.053263  1
  O  O71  1  0.756913  0.029071  0.946737  1
  O  O72  1  0.018792  0.286848  0.913809  1
  O  O73  1  0.981208  0.713152  0.086191  1
  O  O74  1  0.276073  0.089762  0.659606  1
  O  O75  1  0.723927  0.910238  0.340394  1
