# generated using pymatgen
data_In3NO3
_symmetry_space_group_name_H-M   'P 1'
_cell_length_a   6.53023508
_cell_length_b   6.59776570
_cell_length_c   6.59776570
_cell_angle_alpha   59.32398040
_cell_angle_beta   90.00000000
_cell_angle_gamma   119.66199020
_symmetry_Int_Tables_number   1
_chemical_formula_structural   In3NO3
_chemical_formula_sum   'In6 N2 O6'
_cell_volume   199.95835258
_cell_formula_units_Z   2
loop_
 _symmetry_equiv_pos_site_id
 _symmetry_equiv_pos_as_xyz
  1  'x, y, z'
loop_
 _atom_site_type_symbol
 _atom_site_label
 _atom_site_symmetry_multiplicity
 _atom_site_fract_x
 _atom_site_fract_y
 _atom_site_fract_z
 _atom_site_occupancy
  In  In0  1  0.625000  0.250000  0.125000  1
  In  In1  1  0.989894  0.979789  0.989894  1
  In  In2  1  0.625000  0.250000  0.625000  1
  In  In3  1  0.260106  0.520211  0.260106  1
  In  In4  1  0.625000  0.750000  0.625000  1
  In  In5  1  0.125000  0.750000  0.625000  1
  N  N6  1  0.858731  0.717463  0.858731  1
  N  N7  1  0.391269  0.782537  0.391269  1
  O  O8  1  0.857818  0.243373  0.385555  1
  O  O9  1  0.385555  0.243373  0.385555  1
  O  O10  1  0.864445  0.728891  0.392182  1
  O  O11  1  0.864445  0.256627  0.864445  1
  O  O12  1  0.392182  0.256627  0.864445  1
  O  O13  1  0.385555  0.771109  0.857818  1
