# generated using pymatgen
data_Fe2P3C8N3(ClO2)4
_symmetry_space_group_name_H-M   'P 1'
_cell_length_a   8.24762625
_cell_length_b   15.72523186
_cell_length_c   16.97499667
_cell_angle_alpha   90.00000000
_cell_angle_beta   90.00000000
_cell_angle_gamma   97.48450391
_symmetry_Int_Tables_number   1
_chemical_formula_structural   Fe2P3C8N3(ClO2)4
_chemical_formula_sum   'Fe8 P12 C32 N12 Cl16 O32'
_cell_volume   2182.82913213
_cell_formula_units_Z   4
loop_
 _symmetry_equiv_pos_site_id
 _symmetry_equiv_pos_as_xyz
  1  'x, y, z'
loop_
 _atom_site_type_symbol
 _atom_site_label
 _atom_site_symmetry_multiplicity
 _atom_site_fract_x
 _atom_site_fract_y
 _atom_site_fract_z
 _atom_site_occupancy
  Fe  Fe0  1  0.100311  0.898942  0.498044  1
  Fe  Fe1  1  0.638244  0.255098  0.490438  1
  Fe  Fe2  1  0.310123  0.803117  0.416082  1
  Fe  Fe3  1  0.689877  0.196883  0.916082  1
  Fe  Fe4  1  0.361756  0.744902  0.990438  1
  Fe  Fe5  1  0.395952  0.597724  0.901326  1
  Fe  Fe6  1  0.604048  0.402276  0.401326  1
  Fe  Fe7  1  0.899689  0.101058  0.998044  1
  P  P8  1  0.047308  0.083541  0.734478  1
  P  P9  1  0.353267  0.446775  0.637990  1
  P  P10  1  0.419566  0.615805  0.033970  1
  P  P11  1  0.952692  0.916459  0.234478  1
  P  P12  1  0.316457  0.499084  0.157002  1
  P  P13  1  0.214239  0.041604  0.258385  1
  P  P14  1  0.840065  0.096907  0.866821  1
  P  P15  1  0.785761  0.958396  0.758385  1
  P  P16  1  0.683543  0.500916  0.657002  1
  P  P17  1  0.646733  0.553225  0.137990  1
  P  P18  1  0.159935  0.903093  0.366821  1
  P  P19  1  0.580434  0.384195  0.533970  1
  C  C20  1  0.420513  0.221533  0.481936  1
  C  C21  1  0.642941  0.356574  0.305032  1
  C  C22  1  0.579487  0.778467  0.981936  1
  C  C23  1  0.978333  0.984177  0.499030  1
  C  C24  1  0.819522  0.441870  0.412886  1
  C  C25  1  0.277574  0.975419  0.519367  1
  C  C26  1  0.435948  0.489752  0.896684  1
  C  C27  1  0.357059  0.643426  0.805032  1
  C  C28  1  0.917992  0.824665  0.477216  1
  C  C29  1  0.137317  0.720682  0.401794  1
  C  C30  1  0.564052  0.510248  0.396684  1
  C  C31  1  0.882560  0.147010  0.096035  1
  C  C32  1  0.359758  0.803687  0.079745  1
  C  C33  1  0.640242  0.196313  0.579745  1
  C  C34  1  0.722426  0.024581  0.019367  1
  C  C35  1  0.613747  0.629561  0.888487  1
  C  C36  1  0.082008  0.175335  0.977216  1
  C  C37  1  0.382310  0.749911  0.502485  1
  C  C38  1  0.400330  0.764366  0.330071  1
  C  C39  1  0.516485  0.114061  0.924986  1
  C  C40  1  0.617690  0.250089  0.002485  1
  C  C41  1  0.853741  0.292504  0.504624  1
  C  C42  1  0.862683  0.279318  0.901794  1
  C  C43  1  0.599670  0.235634  0.830071  1
  C  C44  1  0.320400  0.813335  0.907716  1
  C  C45  1  0.117440  0.852990  0.596035  1
  C  C46  1  0.180478  0.558130  0.912886  1
  C  C47  1  0.483515  0.885939  0.424986  1
  C  C48  1  0.146259  0.707496  0.004624  1
  C  C49  1  0.386253  0.370439  0.388487  1
  C  C50  1  0.021667  0.015823  0.999030  1
  C  C51  1  0.679600  0.186665  0.407716  1
  N  N52  1  0.735207  0.007820  0.834041  1
  N  N53  1  0.933682  0.999667  0.703852  1
  N  N54  1  0.066318  0.000333  0.203852  1
  N  N55  1  0.277091  0.558213  0.085986  1
  N  N56  1  0.996342  0.131785  0.810572  1
  N  N57  1  0.498534  0.504179  0.683666  1
  N  N58  1  0.501466  0.495821  0.183666  1
  N  N59  1  0.264793  0.992180  0.334041  1
  N  N60  1  0.003658  0.868215  0.310572  1
  N  N61  1  0.722909  0.441787  0.585986  1
  N  N62  1  0.604228  0.615254  0.069752  1
  N  N63  1  0.395772  0.384746  0.569752  1
  Cl  Cl64  1  0.722612  0.947364  0.247601  1
  Cl  Cl65  1  0.171227  0.161214  0.290486  1
  Cl  Cl66  1  0.409709  0.070315  0.186283  1
  Cl  Cl67  1  0.828773  0.838786  0.790486  1
  Cl  Cl68  1  0.590291  0.929685  0.686283  1
  Cl  Cl69  1  0.082120  0.167100  0.644018  1
  Cl  Cl70  1  0.805513  0.475302  0.096414  1
  Cl  Cl71  1  0.277388  0.052636  0.747601  1
  Cl  Cl72  1  0.811467  0.473092  0.753766  1
  Cl  Cl73  1  0.194487  0.524698  0.596414  1
  Cl  Cl74  1  0.917880  0.832900  0.144018  1
  Cl  Cl75  1  0.212969  0.375921  0.136594  1
  Cl  Cl76  1  0.787664  0.619395  0.220922  1
  Cl  Cl77  1  0.212336  0.380605  0.720922  1
  Cl  Cl78  1  0.787031  0.624079  0.636594  1
  Cl  Cl79  1  0.188533  0.526908  0.253766  1
  O  O80  1  0.384524  0.026787  0.537546  1
  O  O81  1  0.098977  0.959386  0.999207  1
  O  O82  1  0.357813  0.841708  0.138174  1
  O  O83  1  0.642187  0.158292  0.638174  1
  O  O84  1  0.954399  0.472365  0.417192  1
  O  O85  1  0.966352  0.334791  0.889798  1
  O  O86  1  0.247842  0.355134  0.375861  1
  O  O87  1  0.464567  0.419443  0.895500  1
  O  O88  1  0.795076  0.781391  0.467347  1
  O  O89  1  0.430987  0.718318  0.557671  1
  O  O90  1  0.615476  0.973213  0.037546  1
  O  O91  1  0.282757  0.196035  0.478606  1
  O  O92  1  0.045601  0.527635  0.917192  1
  O  O93  1  0.541853  0.262408  0.774638  1
  O  O94  1  0.204924  0.218609  0.967347  1
  O  O95  1  0.752158  0.644866  0.875861  1
  O  O96  1  0.131989  0.823183  0.657429  1
  O  O97  1  0.717243  0.803965  0.978606  1
  O  O98  1  0.901023  0.040614  0.499207  1
  O  O99  1  0.033648  0.665209  0.389798  1
  O  O100  1  0.569013  0.281682  0.057671  1
  O  O101  1  0.705682  0.143316  0.355376  1
  O  O102  1  0.294318  0.856684  0.855376  1
  O  O103  1  0.990981  0.312967  0.517141  1
  O  O104  1  0.535433  0.580557  0.395500  1
  O  O105  1  0.331334  0.673839  0.745134  1
  O  O106  1  0.009019  0.687033  0.017141  1
  O  O107  1  0.601028  0.934535  0.429898  1
  O  O108  1  0.458147  0.737592  0.274638  1
  O  O109  1  0.668666  0.326161  0.245134  1
  O  O110  1  0.398972  0.065465  0.929898  1
  O  O111  1  0.868011  0.176817  0.157429  1
