# generated using pymatgen
data_Li2Zr7Fe(PO4)12
_symmetry_space_group_name_H-M   'P 1'
_cell_length_a   9.00242332
_cell_length_b   9.05131797
_cell_length_c   12.57775009
_cell_angle_alpha   89.89827183
_cell_angle_beta   90.06433872
_cell_angle_gamma   89.91213590
_symmetry_Int_Tables_number   1
_chemical_formula_structural   Li2Zr7Fe(PO4)12
_chemical_formula_sum   'Li2 Zr7 Fe1 P12 O48'
_cell_volume   1024.87935229
_cell_formula_units_Z   1
loop_
 _symmetry_equiv_pos_site_id
 _symmetry_equiv_pos_as_xyz
  1  'x, y, z'
loop_
 _atom_site_type_symbol
 _atom_site_label
 _atom_site_symmetry_multiplicity
 _atom_site_fract_x
 _atom_site_fract_y
 _atom_site_fract_z
 _atom_site_occupancy
  Li  Li0  1  0.714952  0.772511  0.676713  1
  Li  Li1  1  0.784168  0.280751  0.813953  1
  Zr  Zr2  1  0.248132  0.536319  0.381510  1
  Zr  Zr3  1  0.251044  0.036148  0.118564  1
  Zr  Zr4  1  0.250463  0.964956  0.622702  1
  Zr  Zr5  1  0.248468  0.467965  0.877217  1
  Zr  Zr6  1  0.749672  0.534739  0.121069  1
  Zr  Zr7  1  0.747440  0.959006  0.886156  1
  Zr  Zr8  1  0.750059  0.034271  0.378531  1
  Fe  Fe9  1  0.751423  0.460162  0.612350  1
  P  P10  1  0.032844  0.252833  0.504367  1
  P  P11  1  0.101750  0.109913  0.855914  1
  P  P12  1  0.109859  0.395283  0.142217  1
  P  P13  1  0.389652  0.895313  0.357586  1
  P  P14  1  0.405215  0.608083  0.643042  1
  P  P15  1  0.460570  0.750045  0.001468  1
  P  P16  1  0.538809  0.250993  0.996651  1
  P  P17  1  0.611545  0.107109  0.645144  1
  P  P18  1  0.611238  0.395485  0.359412  1
  P  P19  1  0.895757  0.891621  0.144797  1
  P  P20  1  0.883958  0.599140  0.848352  1
  P  P21  1  0.960615  0.746271  0.505154  1
  O  O22  1  0.055457  0.644797  0.434804  1
  O  O23  1  0.061312  0.842531  0.576711  1
  O  O24  1  0.064708  0.908194  0.153544  1
  O  O25  1  0.054888  0.590577  0.841082  1
  O  O26  1  0.133415  0.348625  0.433657  1
  O  O27  1  0.162094  0.439801  0.030426  1
  O  O28  1  0.153528  0.064432  0.967545  1
  O  O29  1  0.129808  0.152632  0.575100  1
  O  O30  1  0.154161  0.233983  0.165567  1
  O  O31  1  0.149291  0.270042  0.831416  1
  O  O32  1  0.180373  0.497838  0.226353  1
  O  O33  1  0.168569  0.001828  0.774298  1
  O  O34  1  0.322479  0.000913  0.274124  1
  O  O35  1  0.337854  0.502304  0.726155  1
  O  O36  1  0.361919  0.770452  0.666774  1
  O  O37  1  0.345112  0.734268  0.334564  1
  O  O38  1  0.346773  0.564051  0.532712  1
  O  O39  1  0.360144  0.843260  0.072851  1
  O  O40  1  0.334726  0.939397  0.468877  1
  O  O41  1  0.363440  0.654886  0.928050  1
  O  O42  1  0.441005  0.096079  0.653217  1
  O  O43  1  0.440450  0.410802  0.353818  1
  O  O44  1  0.445102  0.144148  0.063272  1
  O  O45  1  0.438211  0.349609  0.927111  1
  O  O46  1  0.560823  0.652465  0.071725  1
  O  O47  1  0.558376  0.851086  0.930659  1
  O  O48  1  0.577486  0.597969  0.648518  1
  O  O49  1  0.560400  0.908835  0.351707  1
  O  O50  1  0.635182  0.346439  0.070745  1
  O  O51  1  0.664901  0.434012  0.471487  1
  O  O52  1  0.662745  0.067477  0.532601  1
  O  O53  1  0.646245  0.166233  0.920298  1
  O  O54  1  0.667126  0.262717  0.676973  1
  O  O55  1  0.653556  0.234450  0.333367  1
  O  O56  1  0.680931  0.501522  0.277141  1
  O  O57  1  0.680425  0.989081  0.722859  1
  O  O58  1  0.821319  0.997865  0.223968  1
  O  O59  1  0.816449  0.486397  0.768926  1
  O  O60  1  0.851255  0.730622  0.167399  1
  O  O61  1  0.831048  0.758579  0.817092  1
  O  O62  1  0.843071  0.931648  0.030559  1
  O  O63  1  0.830562  0.561133  0.961090  1
  O  O64  1  0.853125  0.659272  0.578466  1
  O  O65  1  0.863868  0.846284  0.433454  1
  O  O66  1  0.939401  0.410382  0.149331  1
  O  O67  1  0.928733  0.104723  0.847201  1
  O  O68  1  0.934695  0.156832  0.430965  1
  O  O69  1  0.935881  0.350684  0.575836  1
