# generated using pymatgen
data_TiAlO3
_symmetry_space_group_name_H-M   'P 1'
_cell_length_a   4.93736421
_cell_length_b   4.93789654
_cell_length_c   5.43742923
_cell_angle_alpha   63.03031993
_cell_angle_beta   116.94845720
_cell_angle_gamma   119.98368288
_symmetry_Int_Tables_number   1
_chemical_formula_structural   TiAlO3
_chemical_formula_sum   'Ti2 Al2 O6'
_cell_volume   97.83082802
_cell_formula_units_Z   2
loop_
 _symmetry_equiv_pos_site_id
 _symmetry_equiv_pos_as_xyz
  1  'x, y, z'
loop_
 _atom_site_type_symbol
 _atom_site_label
 _atom_site_symmetry_multiplicity
 _atom_site_fract_x
 _atom_site_fract_y
 _atom_site_fract_z
 _atom_site_occupancy
  Ti  Ti0  1  0.648495  0.352013  0.945495  1
  Ti  Ti1  1  0.351511  0.647985  0.054532  1
  Al  Al2  1  0.848288  0.151687  0.544910  1
  Al  Al3  1  0.151711  0.848320  0.455071  1
  O  O4  1  0.946022  0.772106  0.734834  1
  O  O5  1  0.560566  0.053787  0.734861  1
  O  O6  1  0.227707  0.439307  0.734655  1
  O  O7  1  0.772299  0.560693  0.265350  1
  O  O8  1  0.439418  0.946214  0.265124  1
  O  O9  1  0.053982  0.227887  0.265169  1
