# generated using pymatgen
data_MnTlO3
_symmetry_space_group_name_H-M   'P 1'
_cell_length_a   5.56038720
_cell_length_b   7.96530409
_cell_length_c   5.42177408
_cell_angle_alpha   90.00196666
_cell_angle_beta   90.00068366
_cell_angle_gamma   90.00359687
_symmetry_Int_Tables_number   1
_chemical_formula_structural   MnTlO3
_chemical_formula_sum   'Mn4 Tl4 O12'
_cell_volume   240.13132183
_cell_formula_units_Z   4
loop_
 _symmetry_equiv_pos_site_id
 _symmetry_equiv_pos_as_xyz
  1  'x, y, z'
loop_
 _atom_site_type_symbol
 _atom_site_label
 _atom_site_symmetry_multiplicity
 _atom_site_fract_x
 _atom_site_fract_y
 _atom_site_fract_z
 _atom_site_occupancy
  Mn  Mn0  1  0.000436  0.000051  0.499715  1
  Mn  Mn1  1  0.999543  0.499798  0.500011  1
  Mn  Mn2  1  0.499787  0.999909  0.999729  1
  Mn  Mn3  1  0.499944  0.500431  0.000466  1
  Tl  Tl4  1  0.049537  0.249998  0.984742  1
  Tl  Tl5  1  0.450635  0.750026  0.484564  1
  Tl  Tl6  1  0.549640  0.250006  0.515269  1
  Tl  Tl7  1  0.950563  0.749977  0.015401  1
  O  O8  1  0.051725  0.749828  0.608640  1
  O  O9  1  0.197085  0.558708  0.197677  1
  O  O10  1  0.196973  0.941253  0.197915  1
  O  O11  1  0.303011  0.058682  0.697948  1
  O  O12  1  0.302840  0.441238  0.697756  1
  O  O13  1  0.448280  0.249881  0.108705  1
  O  O14  1  0.551844  0.750048  0.891321  1
  O  O15  1  0.696954  0.941269  0.302231  1
  O  O16  1  0.697058  0.558775  0.302260  1
  O  O17  1  0.802934  0.058744  0.802349  1
  O  O18  1  0.803020  0.441263  0.801985  1
  O  O19  1  0.948191  0.250114  0.391320  1
