# generated using pymatgen
data_LiMn2O3F
_symmetry_space_group_name_H-M   'P 1'
_cell_length_a   6.02308078
_cell_length_b   8.03491390
_cell_length_c   8.03491390
_cell_angle_alpha   116.35906564
_cell_angle_beta   112.32878674
_cell_angle_gamma   67.67121326
_symmetry_Int_Tables_number   1
_chemical_formula_structural   LiMn2O3F
_chemical_formula_sum   'Li4 Mn8 O12 F4'
_cell_volume   311.65255667
_cell_formula_units_Z   4
loop_
 _symmetry_equiv_pos_site_id
 _symmetry_equiv_pos_as_xyz
  1  'x, y, z'
loop_
 _atom_site_type_symbol
 _atom_site_label
 _atom_site_symmetry_multiplicity
 _atom_site_fract_x
 _atom_site_fract_y
 _atom_site_fract_z
 _atom_site_occupancy
  Li  Li0  1  0.358160  0.986319  0.243781  1
  Li  Li1  1  0.132531  0.263186  0.005406  1
  Li  Li2  1  0.858160  0.756219  0.013681  1
  Li  Li3  1  0.632531  0.994594  0.736814  1
  Mn  Mn4  1  0.750857  0.235545  0.222958  1
  Mn  Mn5  1  0.013171  0.989963  0.490442  1
  Mn  Mn6  1  0.513171  0.509558  0.010037  1
  Mn  Mn7  1  0.891054  0.621984  0.376444  1
  Mn  Mn8  1  0.624248  0.382212  0.637900  1
  Mn  Mn9  1  0.391054  0.623556  0.378016  1
  Mn  Mn10  1  0.124248  0.362100  0.617788  1
  Mn  Mn11  1  0.250857  0.777042  0.764455  1
  O  O12  1  0.420029  0.391250  0.137490  1
  O  O13  1  0.882960  0.388634  0.159026  1
  O  O14  1  0.071899  0.124923  0.365486  1
  O  O15  1  0.729726  0.478731  0.498916  1
  O  O16  1  0.989282  0.241371  0.708703  1
  O  O17  1  0.546117  0.722763  0.254455  1
  O  O18  1  0.489282  0.291297  0.758629  1
  O  O19  1  0.046117  0.745545  0.277237  1
  O  O20  1  0.229726  0.501084  0.521269  1
  O  O21  1  0.920029  0.862510  0.608750  1
  O  O22  1  0.571899  0.634514  0.875077  1
  O  O23  1  0.382960  0.840974  0.611366  1
  F  F24  1  0.232253  0.010037  0.001829  1
  F  F25  1  0.607714  0.131851  0.365937  1
  F  F26  1  0.107714  0.634063  0.868149  1
  F  F27  1  0.732253  0.998171  0.989963  1
