# generated using pymatgen
data_Cr4OF11
_symmetry_space_group_name_H-M   'P 1'
_cell_length_a   5.08142593
_cell_length_b   5.34728025
_cell_length_c   16.91759400
_cell_angle_alpha   92.09368039
_cell_angle_beta   98.95102236
_cell_angle_gamma   61.39539067
_symmetry_Int_Tables_number   1
_chemical_formula_structural   Cr4OF11
_chemical_formula_sum   'Cr8 O2 F22'
_cell_volume   398.27806806
_cell_formula_units_Z   2
loop_
 _symmetry_equiv_pos_site_id
 _symmetry_equiv_pos_as_xyz
  1  'x, y, z'
loop_
 _atom_site_type_symbol
 _atom_site_label
 _atom_site_symmetry_multiplicity
 _atom_site_fract_x
 _atom_site_fract_y
 _atom_site_fract_z
 _atom_site_occupancy
  Cr  Cr0  1  0.746457  0.641916  0.128978  1
  Cr  Cr1  1  0.743642  0.128581  0.624529  1
  Cr  Cr2  1  0.497525  0.751673  0.749839  1
  Cr  Cr3  1  0.515317  0.228045  0.247353  1
  Cr  Cr4  1  0.274456  0.857669  0.377204  1
  Cr  Cr5  1  0.248487  0.377006  0.875234  1
  Cr  Cr6  1  0.979276  0.508451  0.495612  1
  Cr  Cr7  1  0.996908  0.005052  0.000895  1
  O  O8  1  0.749092  0.936120  0.187605  1
  O  O9  1  0.686953  0.657675  0.406675  1
  F  F10  1  0.812778  0.785083  0.033637  1
  F  F11  1  0.748647  0.811988  0.562484  1
  F  F12  1  0.757566  0.320275  0.064165  1
  F  F13  1  0.683676  0.969115  0.717567  1
  F  F14  1  0.683975  0.466347  0.217447  1
  F  F15  1  0.811542  0.594714  0.843388  1
  F  F16  1  0.825604  0.084750  0.341870  1
  F  F17  1  0.812972  0.281959  0.531515  1
  F  F18  1  0.312282  0.842908  0.094202  1
  F  F19  1  0.747100  0.437798  0.687652  1
  F  F20  1  0.266455  0.556079  0.311669  1
  F  F21  1  0.685542  0.157495  0.906884  1
  F  F22  1  0.182588  0.908655  0.656563  1
  F  F23  1  0.185547  0.406026  0.158276  1
  F  F24  1  0.182880  0.716788  0.467903  1
  F  F25  1  0.313906  0.532498  0.782188  1
  F  F26  1  0.308403  0.346351  0.589264  1
  F  F27  1  0.315661  0.031888  0.283272  1
  F  F28  1  0.245194  0.689450  0.938232  1
  F  F29  1  0.243004  0.185499  0.437513  1
  F  F30  1  0.250100  0.064382  0.812381  1
  F  F31  1  0.186460  0.217765  0.968002  1
