# generated using pymatgen
data_Li3Mn3(PO4)4
_symmetry_space_group_name_H-M   'P 1'
_cell_length_a   8.97390479
_cell_length_b   8.71138032
_cell_length_c   9.93496717
_cell_angle_alpha   107.35837711
_cell_angle_beta   104.76444425
_cell_angle_gamma   110.64349956
_symmetry_Int_Tables_number   1
_chemical_formula_structural   Li3Mn3(PO4)4
_chemical_formula_sum   'Li6 Mn6 P8 O32'
_cell_volume   634.84557901
_cell_formula_units_Z   2
loop_
 _symmetry_equiv_pos_site_id
 _symmetry_equiv_pos_as_xyz
  1  'x, y, z'
loop_
 _atom_site_type_symbol
 _atom_site_label
 _atom_site_symmetry_multiplicity
 _atom_site_fract_x
 _atom_site_fract_y
 _atom_site_fract_z
 _atom_site_occupancy
  Li  Li0  1  0.479791  0.042515  0.784938  1
  Li  Li1  1  0.379779  0.352079  0.835474  1
  Li  Li2  1  0.336604  0.275173  0.287897  1
  Li  Li3  1  0.663396  0.724827  0.712103  1
  Li  Li4  1  0.620221  0.647921  0.164526  1
  Li  Li5  1  0.520209  0.957485  0.215062  1
  Mn  Mn6  1  0.070762  0.806021  0.578693  1
  Mn  Mn7  1  0.085059  0.835229  0.148156  1
  Mn  Mn8  1  0.043370  0.483303  0.262042  1
  Mn  Mn9  1  0.956630  0.516697  0.737958  1
  Mn  Mn10  1  0.914941  0.164771  0.851844  1
  Mn  Mn11  1  0.929238  0.193979  0.421307  1
  P  P12  1  0.267918  0.589377  0.603885  1
  P  P13  1  0.189427  0.009717  0.917532  1
  P  P14  1  0.229572  0.553126  0.044259  1
  P  P15  1  0.247702  0.071876  0.483334  1
  P  P16  1  0.752298  0.928124  0.516666  1
  P  P17  1  0.770428  0.446874  0.955741  1
  P  P18  1  0.810573  0.990283  0.082468  1
  P  P19  1  0.732082  0.410623  0.396115  1
  O  O20  1  0.065959  0.810289  0.783838  1
  O  O21  1  0.062147  0.434050  0.884262  1
  O  O22  1  0.125187  0.857768  0.412557  1
  O  O23  1  0.096615  0.476210  0.622063  1
  O  O24  1  0.283135  0.782990  0.642968  1
  O  O25  1  0.119243  0.133758  0.864131  1
  O  O26  1  0.223453  0.496208  0.427716  1
  O  O27  1  0.253022  0.750959  0.109780  1
  O  O28  1  0.130878  0.166791  0.476261  1
  O  O29  1  0.184358  0.455654  0.148046  1
  O  O30  1  0.428790  0.589489  0.696034  1
  O  O31  1  0.375021  0.076825  0.936203  1
  O  O32  1  0.361232  0.139104  0.652563  1
  O  O33  1  0.670606  0.911439  0.633260  1
  O  O34  1  0.166850  0.015627  0.068773  1
  O  O35  1  0.615348  0.449870  0.982689  1
  O  O36  1  0.384652  0.550130  0.017311  1
  O  O37  1  0.833150  0.984373  0.931227  1
  O  O38  1  0.329394  0.088561  0.366740  1
  O  O39  1  0.638768  0.860896  0.347437  1
  O  O40  1  0.624979  0.923175  0.063797  1
  O  O41  1  0.571210  0.410511  0.303966  1
  O  O42  1  0.815642  0.544346  0.851954  1
  O  O43  1  0.869122  0.833209  0.523739  1
  O  O44  1  0.746978  0.249041  0.890220  1
  O  O45  1  0.776547  0.503792  0.572284  1
  O  O46  1  0.880757  0.866242  0.135869  1
  O  O47  1  0.716865  0.217010  0.357033  1
  O  O48  1  0.903385  0.523790  0.377937  1
  O  O49  1  0.874813  0.142233  0.587443  1
  O  O50  1  0.937853  0.565950  0.115738  1
  O  O51  1  0.934041  0.189711  0.216162  1
