# generated using pymatgen
data_Mn6O5F7
_symmetry_space_group_name_H-M   'P 1'
_cell_length_a   5.69554987
_cell_length_b   5.11636487
_cell_length_c   14.68418214
_cell_angle_alpha   91.61911899
_cell_angle_beta   89.39064252
_cell_angle_gamma   89.92807406
_symmetry_Int_Tables_number   1
_chemical_formula_structural   Mn6O5F7
_chemical_formula_sum   'Mn12 O10 F14'
_cell_volume   427.70902307
_cell_formula_units_Z   2
loop_
 _symmetry_equiv_pos_site_id
 _symmetry_equiv_pos_as_xyz
  1  'x, y, z'
loop_
 _atom_site_type_symbol
 _atom_site_label
 _atom_site_symmetry_multiplicity
 _atom_site_fract_x
 _atom_site_fract_y
 _atom_site_fract_z
 _atom_site_occupancy
  Mn  Mn0  1  0.111442  0.960535  0.005691  1
  Mn  Mn1  1  0.854413  0.511684  0.172272  1
  Mn  Mn2  1  0.119365  0.010325  0.333321  1
  Mn  Mn3  1  0.919539  0.504673  0.513950  1
  Mn  Mn4  1  0.115005  0.045323  0.664721  1
  Mn  Mn5  1  0.966077  0.507932  0.821180  1
  Mn  Mn6  1  0.523014  0.012723  0.167682  1
  Mn  Mn7  1  0.508963  0.482052  0.001518  1
  Mn  Mn8  1  0.430584  0.515411  0.662049  1
  Mn  Mn9  1  0.575689  0.048594  0.491682  1
  Mn  Mn10  1  0.412226  0.507234  0.329413  1
  Mn  Mn11  1  0.419877  0.959939  0.825919  1
  O  O12  1  0.150536  0.356621  0.593228  1
  O  O13  1  0.204918  0.739422  0.744899  1
  O  O14  1  0.392088  0.181265  0.066284  1
  O  O15  1  0.361990  0.825994  0.264329  1
  O  O16  1  0.329375  0.754638  0.933744  1
  O  O17  1  0.354106  0.212882  0.735993  1
  O  O18  1  0.360626  0.195747  0.395945  1
  O  O19  1  0.644569  0.355387  0.574478  1
  O  O20  1  0.609903  0.326935  0.236342  1
  O  O21  1  0.618279  0.688021  0.103783  1
  F  F22  1  0.099457  0.344657  0.246970  1
  F  F23  1  0.104938  0.685154  0.098523  1
  F  F24  1  0.157913  0.665337  0.418293  1
  F  F25  1  0.107352  0.214848  0.908888  1
  F  F26  1  0.407224  0.836834  0.586959  1
  F  F27  1  0.583419  0.242118  0.898081  1
  F  F28  1  0.661053  0.681229  0.428226  1
  F  F29  1  0.662709  0.676391  0.754713  1
  F  F30  1  0.878808  0.176406  0.415609  1
  F  F31  1  0.886734  0.174531  0.078354  1
  F  F32  1  0.860104  0.178093  0.751477  1
  F  F33  1  0.902337  0.873866  0.578192  1
  F  F34  1  0.836606  0.701593  0.937734  1
  F  F35  1  0.868759  0.845608  0.259562  1
