# generated using pymatgen
data_LiMnF4
_symmetry_space_group_name_H-M   'P 1'
_cell_length_a   10.87952568
_cell_length_b   5.83278600
_cell_length_c   5.02166745
_cell_angle_alpha   90.00000000
_cell_angle_beta   90.00000000
_cell_angle_gamma   90.00000000
_symmetry_Int_Tables_number   1
_chemical_formula_structural   LiMnF4
_chemical_formula_sum   'Li4 Mn4 F16'
_cell_volume   318.66469722
_cell_formula_units_Z   4
loop_
 _symmetry_equiv_pos_site_id
 _symmetry_equiv_pos_as_xyz
  1  'x, y, z'
loop_
 _atom_site_type_symbol
 _atom_site_label
 _atom_site_symmetry_multiplicity
 _atom_site_fract_x
 _atom_site_fract_y
 _atom_site_fract_z
 _atom_site_occupancy
  Li  Li0  1  0.080477  0.250000  0.423056  1
  Li  Li1  1  0.419523  0.750000  0.923056  1
  Li  Li2  1  0.580477  0.250000  0.076944  1
  Li  Li3  1  0.919523  0.750000  0.576944  1
  Mn  Mn4  1  0.240479  0.750000  0.464556  1
  Mn  Mn5  1  0.259521  0.250000  0.964556  1
  Mn  Mn6  1  0.740479  0.750000  0.035444  1
  Mn  Mn7  1  0.759521  0.250000  0.535444  1
  F  F8  1  0.088991  0.750000  0.625307  1
  F  F9  1  0.111840  0.250000  0.793458  1
  F  F10  1  0.186351  0.024134  0.246503  1
  F  F11  1  0.186351  0.475865  0.246503  1
  F  F12  1  0.313649  0.524134  0.746503  1
  F  F13  1  0.313649  0.975866  0.746503  1
  F  F14  1  0.388160  0.750000  0.293458  1
  F  F15  1  0.411009  0.250000  0.125307  1
  F  F16  1  0.588991  0.750000  0.874693  1
  F  F17  1  0.611840  0.250000  0.706542  1
  F  F18  1  0.686351  0.024134  0.253497  1
  F  F19  1  0.686351  0.475865  0.253497  1
  F  F20  1  0.813649  0.524134  0.753497  1
  F  F21  1  0.813649  0.975866  0.753497  1
  F  F22  1  0.888160  0.750000  0.206542  1
  F  F23  1  0.911009  0.250000  0.374693  1
