# generated using pymatgen
data_Mn12O5F19
_symmetry_space_group_name_H-M   'P 1'
_cell_length_a   4.84539893
_cell_length_b   5.80207938
_cell_length_c   16.07447526
_cell_angle_alpha   89.70317402
_cell_angle_beta   89.89938535
_cell_angle_gamma   87.61303588
_symmetry_Int_Tables_number   1
_chemical_formula_structural   Mn12O5F19
_chemical_formula_sum   'Mn12 O5 F19'
_cell_volume   451.50927716
_cell_formula_units_Z   1
loop_
 _symmetry_equiv_pos_site_id
 _symmetry_equiv_pos_as_xyz
  1  'x, y, z'
loop_
 _atom_site_type_symbol
 _atom_site_label
 _atom_site_symmetry_multiplicity
 _atom_site_fract_x
 _atom_site_fract_y
 _atom_site_fract_z
 _atom_site_occupancy
  Mn  Mn0  1  0.991710  0.169551  0.412040  1
  Mn  Mn1  1  0.023950  0.831596  0.238888  1
  Mn  Mn2  1  0.001293  0.158133  0.081745  1
  Mn  Mn3  1  0.031068  0.146522  0.747460  1
  Mn  Mn4  1  0.004635  0.844288  0.584729  1
  Mn  Mn5  1  0.012731  0.842350  0.909764  1
  Mn  Mn6  1  0.478617  0.310233  0.589746  1
  Mn  Mn7  1  0.529444  0.336933  0.926071  1
  Mn  Mn8  1  0.515410  0.333538  0.256925  1
  Mn  Mn9  1  0.498413  0.656092  0.083543  1
  Mn  Mn10  1  0.523284  0.647447  0.416202  1
  Mn  Mn11  1  0.487260  0.668983  0.753557  1
  O  O12  1  0.204560  0.099465  0.643367  1
  O  O13  1  0.225619  0.888489  0.127427  1
  O  O14  1  0.224163  0.892118  0.802912  1
  O  O15  1  0.725647  0.388956  0.037598  1
  O  O16  1  0.727604  0.398811  0.366649  1
  F  F17  1  0.220145  0.110056  0.304193  1
  F  F18  1  0.212766  0.125072  0.971343  1
  F  F19  1  0.241282  0.888820  0.468540  1
  F  F20  1  0.255045  0.391663  0.146241  1
  F  F21  1  0.271009  0.617598  0.312388  1
  F  F22  1  0.265680  0.393530  0.475188  1
  F  F23  1  0.265604  0.596689  0.642779  1
  F  F24  1  0.280961  0.396386  0.813192  1
  F  F25  1  0.277662  0.619049  0.976703  1
  F  F26  1  0.709487  0.624578  0.192304  1
  F  F27  1  0.729831  0.615896  0.531382  1
  F  F28  1  0.730898  0.616179  0.863013  1
  F  F29  1  0.740371  0.382963  0.701177  1
  F  F30  1  0.776171  0.113624  0.187564  1
  F  F31  1  0.760220  0.107124  0.521650  1
  F  F32  1  0.770331  0.888577  0.354413  1
  F  F33  1  0.758932  0.892725  0.017125  1
  F  F34  1  0.785337  0.126383  0.851044  1
  F  F35  1  0.742861  0.879584  0.691136  1
