# generated using pymatgen
data_LiFe2OF3
_symmetry_space_group_name_H-M   'P 1'
_cell_length_a   6.32760225
_cell_length_b   6.32760225
_cell_length_c   5.94254891
_cell_angle_alpha   59.38520761
_cell_angle_beta   88.34406030
_cell_angle_gamma   119.64255357
_symmetry_Int_Tables_number   1
_chemical_formula_structural   LiFe2OF3
_chemical_formula_sum   'Li2 Fe4 O2 F6'
_cell_volume   164.95358113
_cell_formula_units_Z   2
loop_
 _symmetry_equiv_pos_site_id
 _symmetry_equiv_pos_as_xyz
  1  'x, y, z'
loop_
 _atom_site_type_symbol
 _atom_site_label
 _atom_site_symmetry_multiplicity
 _atom_site_fract_x
 _atom_site_fract_y
 _atom_site_fract_z
 _atom_site_occupancy
  Li  Li0  1  0.625000  0.250000  0.125000  1
  Li  Li1  1  0.625000  0.750000  0.625000  1
  Fe  Fe2  1  0.019159  0.085244  0.895598  1
  Fe  Fe3  1  0.625000  0.250000  0.625000  1
  Fe  Fe4  1  0.230841  0.414756  0.354402  1
  Fe  Fe5  1  0.125000  0.750000  0.625000  1
  O  O6  1  0.869325  0.299782  0.830893  1
  O  O7  1  0.380675  0.200218  0.419107  1
  F  F8  1  0.857352  0.225190  0.371219  1
  F  F9  1  0.876712  0.763368  0.359922  1
  F  F10  1  0.403591  0.771429  0.371219  1
  F  F11  1  0.846409  0.728571  0.878781  1
  F  F12  1  0.392648  0.274810  0.878781  1
  F  F13  1  0.373288  0.736632  0.890078  1
