# generated using pymatgen
data_Li6Ni9(PO4)8
_symmetry_space_group_name_H-M   'P 1'
_cell_length_a   9.14528778
_cell_length_b   8.76445025
_cell_length_c   8.68493457
_cell_angle_alpha   102.06335674
_cell_angle_beta   99.80020215
_cell_angle_gamma   112.10791580
_symmetry_Int_Tables_number   1
_chemical_formula_structural   Li6Ni9(PO4)8
_chemical_formula_sum   'Li6 Ni9 P8 O32'
_cell_volume   606.44312893
_cell_formula_units_Z   1
loop_
 _symmetry_equiv_pos_site_id
 _symmetry_equiv_pos_as_xyz
  1  'x, y, z'
loop_
 _atom_site_type_symbol
 _atom_site_label
 _atom_site_symmetry_multiplicity
 _atom_site_fract_x
 _atom_site_fract_y
 _atom_site_fract_z
 _atom_site_occupancy
  Li  Li0  1  0.028307  0.900688  0.638482  1
  Li  Li1  1  0.255339  0.719279  0.019182  1
  Li  Li2  1  0.352945  0.315377  0.321795  1
  Li  Li3  1  0.647055  0.684623  0.678205  1
  Li  Li4  1  0.744661  0.280721  0.980818  1
  Li  Li5  1  0.971693  0.099312  0.361518  1
  Ni  Ni6  1  0.000000  0.500000  0.500000  1
  Ni  Ni7  1  0.070897  0.270573  0.804853  1
  Ni  Ni8  1  0.416649  0.854576  0.701871  1
  Ni  Ni9  1  0.000000  0.000000  0.000000  1
  Ni  Ni10  1  0.457630  0.706836  0.321528  1
  Ni  Ni11  1  0.500000  0.500000  0.000000  1
  Ni  Ni12  1  0.542370  0.293164  0.678472  1
  Ni  Ni13  1  0.583351  0.145424  0.298129  1
  Ni  Ni14  1  0.929103  0.729427  0.195147  1
  P  P15  1  0.283708  0.957481  0.391191  1
  P  P16  1  0.090042  0.379431  0.166800  1
  P  P17  1  0.278925  0.448155  0.660714  1
  P  P18  1  0.347456  0.119950  0.954120  1
  P  P19  1  0.652544  0.880050  0.045880  1
  P  P20  1  0.721075  0.551845  0.339286  1
  P  P21  1  0.909958  0.620569  0.833200  1
  P  P22  1  0.716292  0.042519  0.608809  1
  O  O23  1  0.123122  0.956319  0.299869  1
  O  O24  1  0.018861  0.676734  0.011150  1
  O  O25  1  0.023496  0.482151  0.278323  1
  O  O26  1  0.331820  0.936767  0.885814  1
  O  O27  1  0.258813  0.899258  0.543982  1
  O  O28  1  0.251021  0.593304  0.601933  1
  O  O29  1  0.123579  0.272870  0.582117  1
  O  O30  1  0.077098  0.211631  0.210493  1
  O  O31  1  0.295328  0.484278  0.850484  1
  O  O32  1  0.342821  0.850608  0.270757  1
  O  O33  1  0.174020  0.120807  0.901570  1
  O  O34  1  0.274667  0.482449  0.179701  1
  O  O35  1  0.587819  0.814392  0.857865  1
  O  O36  1  0.575246  0.852857  0.554093  1
  O  O37  1  0.433394  0.442558  0.619720  1
  O  O38  1  0.461558  0.255783  0.883100  1
  O  O39  1  0.538442  0.744217  0.116900  1
  O  O40  1  0.566606  0.557442  0.380280  1
  O  O41  1  0.424754  0.147143  0.445907  1
  O  O42  1  0.412181  0.185608  0.142135  1
  O  O43  1  0.725333  0.517551  0.820299  1
  O  O44  1  0.825980  0.879193  0.098430  1
  O  O45  1  0.657179  0.149392  0.729243  1
  O  O46  1  0.704672  0.515722  0.149516  1
  O  O47  1  0.922902  0.788369  0.789507  1
  O  O48  1  0.876421  0.727130  0.417883  1
  O  O49  1  0.748979  0.406696  0.398067  1
  O  O50  1  0.741187  0.100742  0.456018  1
  O  O51  1  0.668180  0.063233  0.114186  1
  O  O52  1  0.976504  0.517849  0.721677  1
  O  O53  1  0.981139  0.323266  0.988850  1
  O  O54  1  0.876878  0.043681  0.700131  1
