# generated using pymatgen
data_LiCu3F10
_symmetry_space_group_name_H-M   'P 1'
_cell_length_a   8.11394395
_cell_length_b   7.60390034
_cell_length_c   14.17961979
_cell_angle_alpha   73.55585591
_cell_angle_beta   97.62234902
_cell_angle_gamma   117.94150846
_symmetry_Int_Tables_number   1
_chemical_formula_structural   LiCu3F10
_chemical_formula_sum   'Li4 Cu12 F40'
_cell_volume   741.25140659
_cell_formula_units_Z   4
loop_
 _symmetry_equiv_pos_site_id
 _symmetry_equiv_pos_as_xyz
  1  'x, y, z'
loop_
 _atom_site_type_symbol
 _atom_site_label
 _atom_site_symmetry_multiplicity
 _atom_site_fract_x
 _atom_site_fract_y
 _atom_site_fract_z
 _atom_site_occupancy
  Li  Li0  1  0.008245  0.947161  0.863374  1
  Li  Li1  1  0.286552  0.745914  0.790015  1
  Li  Li2  1  0.991755  0.938915  0.363374  1
  Li  Li3  1  0.713448  0.459362  0.290015  1
  Cu  Cu4  1  0.967334  0.444001  0.969103  1
  Cu  Cu5  1  0.240075  0.848487  0.211168  1
  Cu  Cu6  1  0.387196  0.970480  0.521182  1
  Cu  Cu7  1  0.251143  0.357804  0.201304  1
  Cu  Cu8  1  0.414210  0.464013  0.524978  1
  Cu  Cu9  1  0.371105  0.210257  0.783976  1
  Cu  Cu10  1  0.628895  0.839152  0.283976  1
  Cu  Cu11  1  0.612804  0.583284  0.021182  1
  Cu  Cu12  1  0.759925  0.608412  0.711168  1
  Cu  Cu13  1  0.585790  0.049802  0.024978  1
  Cu  Cu14  1  0.748857  0.106661  0.701304  1
  Cu  Cu15  1  0.032666  0.476667  0.469103  1
  F  F16  1  0.971385  0.730338  0.647216  1
  F  F17  1  0.203253  0.938371  0.799911  1
  F  F18  1  0.117882  0.675038  0.324776  1
  F  F19  1  0.207810  0.972133  0.433323  1
  F  F20  1  0.087165  0.693893  0.987436  1
  F  F21  1  0.294972  0.873118  0.648589  1
  F  F22  1  0.944460  0.281078  0.621412  1
  F  F23  1  0.178179  0.240588  0.826578  1
  F  F24  1  0.329401  0.627541  0.192323  1
  F  F25  1  0.167854  0.496022  0.903914  1
  F  F26  1  0.166866  0.342686  0.457847  1
  F  F27  1  0.458076  0.950574  0.282615  1
  F  F28  1  0.267101  0.642813  0.524240  1
  F  F29  1  0.308008  0.281228  0.648826  1
  F  F30  1  0.521310  0.781814  0.003197  1
  F  F31  1  0.157667  0.080739  0.234888  1
  F  F32  1  0.612051  0.988104  0.566921  1
  F  F33  1  0.387949  0.376054  0.066921  1
  F  F34  1  0.435363  0.373151  0.288876  1
  F  F35  1  0.472043  0.132410  0.910334  1
  F  F36  1  0.527957  0.660367  0.410334  1
  F  F37  1  0.541924  0.492498  0.782615  1
  F  F38  1  0.627232  0.637230  0.594951  1
  F  F39  1  0.478690  0.260504  0.503197  1
  F  F40  1  0.372768  0.009998  0.094951  1
  F  F41  1  0.842333  0.923072  0.734888  1
  F  F42  1  0.705028  0.578146  0.148589  1
  F  F43  1  0.792190  0.764322  0.933323  1
  F  F44  1  0.732899  0.375712  0.024240  1
  F  F45  1  0.796747  0.735119  0.299911  1
  F  F46  1  0.670599  0.298139  0.692323  1
  F  F47  1  0.564637  0.937789  0.788876  1
  F  F48  1  0.912835  0.606727  0.487436  1
  F  F49  1  0.832146  0.328168  0.403914  1
  F  F50  1  0.028615  0.758953  0.147216  1
  F  F51  1  0.691992  0.973221  0.148826  1
  F  F52  1  0.833134  0.175820  0.957847  1
  F  F53  1  0.882118  0.557156  0.824776  1
  F  F54  1  0.055540  0.336618  0.121412  1
  F  F55  1  0.821821  0.062408  0.326578  1
