# generated using pymatgen
data_LiFe4(PO4)3
_symmetry_space_group_name_H-M   'P 1'
_cell_length_a   9.03534876
_cell_length_b   10.41508131
_cell_length_c   8.97555301
_cell_angle_alpha   115.52419004
_cell_angle_beta   60.21868583
_cell_angle_gamma   116.21985965
_symmetry_Int_Tables_number   1
_chemical_formula_structural   LiFe4(PO4)3
_chemical_formula_sum   'Li2 Fe8 P6 O24'
_cell_volume   632.93699850
_cell_formula_units_Z   2
loop_
 _symmetry_equiv_pos_site_id
 _symmetry_equiv_pos_as_xyz
  1  'x, y, z'
loop_
 _atom_site_type_symbol
 _atom_site_label
 _atom_site_symmetry_multiplicity
 _atom_site_fract_x
 _atom_site_fract_y
 _atom_site_fract_z
 _atom_site_occupancy
  Li  Li0  1  0.016387  0.032793  0.006981  1
  Li  Li1  1  0.516387  0.532793  0.509425  1
  Fe  Fe2  1  0.313946  0.993084  0.033692  1
  Fe  Fe3  1  0.032784  0.992074  0.647702  1
  Fe  Fe4  1  0.151496  0.458966  0.156700  1
  Fe  Fe5  1  0.149633  0.490325  0.534741  1
  Fe  Fe6  1  0.649633  0.990325  0.305951  1
  Fe  Fe7  1  0.813946  0.493084  0.145445  1
  Fe  Fe8  1  0.532784  0.492074  0.811586  1
  Fe  Fe9  1  0.651496  0.958966  0.650770  1
  P  P10  1  0.280979  0.860223  0.642840  1
  P  P11  1  0.433263  0.360443  0.145295  1
  P  P12  1  0.143553  0.357772  0.783180  1
  P  P13  1  0.933263  0.860443  0.281883  1
  P  P14  1  0.643553  0.857772  0.931039  1
  P  P15  1  0.780979  0.360223  0.436405  1
  O  O16  1  0.129542  0.862735  0.188269  1
  O  O17  1  0.182208  0.860069  0.544591  1
  O  O18  1  0.392270  0.443561  0.060492  1
  O  O19  1  0.309144  0.200620  0.122300  1
  O  O20  1  0.216776  0.948165  0.842065  1
  O  O21  1  0.542880  0.853786  0.126890  1
  O  O22  1  0.390959  0.448218  0.344636  1
  O  O23  1  0.269063  0.701676  0.620081  1
  O  O24  1  0.042880  0.353786  0.684016  1
  O  O25  1  0.489365  0.945547  0.556863  1
  O  O26  1  0.060276  0.443907  0.990481  1
  O  O27  1  0.629542  0.362735  0.044925  1
  O  O28  1  0.890959  0.948218  0.212623  1
  O  O29  1  0.809144  0.700620  0.269175  1
  O  O30  1  0.119848  0.200371  0.776807  1
  O  O31  1  0.342686  0.447039  0.713442  1
  O  O32  1  0.560276  0.943907  0.893150  1
  O  O33  1  0.892270  0.943561  0.490799  1
  O  O34  1  0.716776  0.448165  0.389324  1
  O  O35  1  0.619848  0.700371  0.803716  1
  O  O36  1  0.769063  0.201676  0.312533  1
  O  O37  1  0.682208  0.360069  0.633270  1
  O  O38  1  0.842686  0.947039  0.890912  1
  O  O39  1  0.989365  0.445547  0.399319  1
