# generated using pymatgen
data_Mn3(O2F)2
_symmetry_space_group_name_H-M   'P 1'
_cell_length_a   10.30627914
_cell_length_b   6.53067352
_cell_length_c   3.08295360
_cell_angle_alpha   90.00000000
_cell_angle_beta   90.00000000
_cell_angle_gamma   108.47215205
_symmetry_Int_Tables_number   1
_chemical_formula_structural   Mn3(O2F)2
_chemical_formula_sum   'Mn6 O8 F4'
_cell_volume   196.81310662
_cell_formula_units_Z   2
loop_
 _symmetry_equiv_pos_site_id
 _symmetry_equiv_pos_as_xyz
  1  'x, y, z'
loop_
 _atom_site_type_symbol
 _atom_site_label
 _atom_site_symmetry_multiplicity
 _atom_site_fract_x
 _atom_site_fract_y
 _atom_site_fract_z
 _atom_site_occupancy
  Mn  Mn0  1  0.013463  0.006734  0.000000  1
  Mn  Mn1  1  0.333354  0.166628  0.500000  1
  Mn  Mn2  1  0.014832  0.507414  0.500000  1
  Mn  Mn3  1  0.653169  0.326615  0.000000  1
  Mn  Mn4  1  0.333301  0.666557  0.000000  1
  Mn  Mn5  1  0.651847  0.825969  0.500000  1
  O  O6  1  0.135280  0.067665  0.500000  1
  O  O7  1  0.001452  0.308645  0.000000  1
  O  O8  1  0.001523  0.692911  0.000000  1
  O  O9  1  0.665173  0.024713  0.000000  1
  O  O10  1  0.531395  0.265645  0.500000  1
  O  O11  1  0.206897  0.603374  0.500000  1
  O  O12  1  0.459742  0.729864  0.500000  1
  O  O13  1  0.665127  0.640451  0.000000  1
  F  F14  1  0.333380  0.359493  0.000000  1
  F  F15  1  0.798766  0.399429  0.500000  1
  F  F16  1  0.333452  0.973849  0.000000  1
  F  F17  1  0.867845  0.934046  0.500000  1
