# generated using pymatgen
data_Na6Mn3(PO4)4
_symmetry_space_group_name_H-M   'P 1'
_cell_length_a   6.75940186
_cell_length_b   10.63214932
_cell_length_c   10.93660514
_cell_angle_alpha   90.39720301
_cell_angle_beta   89.88615497
_cell_angle_gamma   108.50012014
_symmetry_Int_Tables_number   1
_chemical_formula_structural   Na6Mn3(PO4)4
_chemical_formula_sum   'Na12 Mn6 P8 O32'
_cell_volume   745.34561119
_cell_formula_units_Z   2
loop_
 _symmetry_equiv_pos_site_id
 _symmetry_equiv_pos_as_xyz
  1  'x, y, z'
loop_
 _atom_site_type_symbol
 _atom_site_label
 _atom_site_symmetry_multiplicity
 _atom_site_fract_x
 _atom_site_fract_y
 _atom_site_fract_z
 _atom_site_occupancy
  Na  Na0  1  0.012594  0.824650  0.443172  1
  Na  Na1  1  0.179916  0.904356  0.685938  1
  Na  Na2  1  0.004770  0.492233  0.502382  1
  Na  Na3  1  0.056597  0.144918  0.651893  1
  Na  Na4  1  0.092159  0.148006  0.150469  1
  Na  Na5  1  0.249379  0.137897  0.926030  1
  Na  Na6  1  0.490768  0.497131  0.002729  1
  Na  Na7  1  0.725339  0.904340  0.187483  1
  Na  Na8  1  0.806953  0.821821  0.947242  1
  Na  Na9  1  0.399496  0.007519  0.262786  1
  Na  Na10  1  0.606913  0.006320  0.762888  1
  Na  Na11  1  0.894958  0.140598  0.427097  1
  Mn  Mn12  1  0.325966  0.685023  0.756948  1
  Mn  Mn13  1  0.359854  0.686233  0.256803  1
  Mn  Mn14  1  0.503893  0.504005  0.507808  1
  Mn  Mn15  1  0.624472  0.310230  0.753243  1
  Mn  Mn16  1  0.686195  0.309762  0.254288  1
  Mn  Mn17  1  0.999284  0.502278  0.007702  1
  P  P18  1  0.242083  0.844985  0.018146  1
  P  P19  1  0.172496  0.400142  0.753079  1
  P  P20  1  0.229370  0.401671  0.253221  1
  P  P21  1  0.601639  0.845941  0.517376  1
  P  P22  1  0.391548  0.158899  0.498074  1
  P  P23  1  0.779007  0.596802  0.763399  1
  P  P24  1  0.820308  0.597859  0.263407  1
  P  P25  1  0.767199  0.158443  0.996485  1
  O  O26  1  0.044786  0.722239  0.015565  1
  O  O27  1  0.002670  0.688238  0.734965  1
  O  O28  1  0.047600  0.684877  0.295143  1
  O  O29  1  0.007815  0.304121  0.281553  1
  O  O30  1  0.327609  0.876049  0.883541  1
  O  O31  1  0.203446  0.499910  0.863011  1
  O  O32  1  0.412617  0.816619  0.101091  1
  O  O33  1  0.259081  0.496699  0.643487  1
  O  O34  1  0.237366  0.498073  0.144045  1
  O  O35  1  0.406894  0.817055  0.603908  1
  O  O36  1  0.296525  0.500759  0.363832  1
  O  O37  1  0.541635  0.875823  0.383719  1
  O  O38  1  0.297306  0.303605  0.780795  1
  O  O39  1  0.309823  0.278287  0.506578  1
  O  O40  1  0.212112  0.038862  0.443311  1
  O  O41  1  0.185719  0.966968  0.072359  1
  O  O42  1  0.371611  0.317200  0.220270  1
  O  O43  1  0.638522  0.683258  0.795752  1
  O  O44  1  0.687746  0.688297  0.234338  1
  O  O45  1  0.678550  0.724418  0.512952  1
  O  O46  1  0.440236  0.122981  0.632861  1
  O  O47  1  0.701865  0.497323  0.653569  1
  O  O48  1  0.761722  0.498937  0.872900  1
  O  O49  1  0.600181  0.189601  0.913989  1
  O  O50  1  0.589310  0.188538  0.414828  1
  O  O51  1  0.740743  0.501187  0.374120  1
  O  O52  1  0.798898  0.497046  0.154936  1
  O  O53  1  0.682132  0.124682  0.131686  1
  O  O54  1  0.945655  0.313936  0.720074  1
  O  O55  1  0.780134  0.968840  0.569867  1
  O  O56  1  0.822957  0.037297  0.941499  1
  O  O57  1  0.970679  0.276752  0.004552  1
