# generated using pymatgen
data_LiFeSiO4
_symmetry_space_group_name_H-M   'P 1'
_cell_length_a   5.13368757
_cell_length_b   5.46103794
_cell_length_c   6.93874331
_cell_angle_alpha   90.00000000
_cell_angle_beta   90.18611704
_cell_angle_gamma   90.00000000
_symmetry_Int_Tables_number   1
_chemical_formula_structural   LiFeSiO4
_chemical_formula_sum   'Li2 Fe2 Si2 O8'
_cell_volume   194.52846452
_cell_formula_units_Z   2
loop_
 _symmetry_equiv_pos_site_id
 _symmetry_equiv_pos_as_xyz
  1  'x, y, z'
loop_
 _atom_site_type_symbol
 _atom_site_label
 _atom_site_symmetry_multiplicity
 _atom_site_fract_x
 _atom_site_fract_y
 _atom_site_fract_z
 _atom_site_occupancy
  Li  Li0  1  0.531581  0.407015  0.819101  1
  Li  Li1  1  0.031585  0.592981  0.319105  1
  Fe  Fe2  1  0.019448  0.185656  -0.000057  1
  Fe  Fe3  1  0.519448  0.814344  0.499943  1
  Si  Si4  1  0.020324  0.682349  0.750232  1
  Si  Si5  1  0.520324  0.317651  0.250232  1
  O  O6  1  0.943435  0.865930  0.927143  1
  O  O7  1  0.912167  0.405608  0.802129  1
  O  O8  1  0.338087  0.679736  0.715624  1
  O  O9  1  0.881462  0.757216  0.542669  1
  O  O10  1  0.443435  0.134070  0.427143  1
  O  O11  1  0.412167  0.594392  0.302129  1
  O  O12  1  0.838087  0.320264  0.215624  1
  O  O13  1  0.381462  0.242784  0.042669  1
