# generated using pymatgen
data_Li4TiFe4(Co2O9)2
_symmetry_space_group_name_H-M   'P 1'
_cell_length_a   8.81679193
_cell_length_b   25.05148830
_cell_length_c   2.89410077
_cell_angle_alpha   90.00064459
_cell_angle_beta   90.00037800
_cell_angle_gamma   89.99352517
_symmetry_Int_Tables_number   1
_chemical_formula_structural   Li4TiFe4(Co2O9)2
_chemical_formula_sum   'Li8 Ti2 Fe8 Co8 O36'
_cell_volume   639.23091432
_cell_formula_units_Z   2
loop_
 _symmetry_equiv_pos_site_id
 _symmetry_equiv_pos_as_xyz
  1  'x, y, z'
loop_
 _atom_site_type_symbol
 _atom_site_label
 _atom_site_symmetry_multiplicity
 _atom_site_fract_x
 _atom_site_fract_y
 _atom_site_fract_z
 _atom_site_occupancy
  Li  Li0  1  0.174409  0.996336  0.000000  1
  Li  Li1  1  0.200588  0.203523  0.000001  1
  Li  Li2  1  0.297996  0.703404  0.000001  1
  Li  Li3  1  0.324365  0.495798  -0.000000  1
  Li  Li4  1  0.704090  0.527739  0.999998  1
  Li  Li5  1  0.692617  0.295556  0.000001  1
  Li  Li6  1  0.808454  0.795486  0.999999  1
  Li  Li7  1  0.796474  0.028038  1.000000  1
  Ti  Ti8  1  0.497045  0.396549  0.999999  1
  Ti  Ti9  1  0.002718  0.896778  0.999999  1
  Fe  Fe10  1  0.020128  0.301537  0.999998  1
  Fe  Fe11  1  0.148794  0.588268  0.500009  1
  Fe  Fe12  1  0.351022  0.088268  0.500001  1
  Fe  Fe13  1  0.479096  0.802047  0.000001  1
  Fe  Fe14  1  0.515792  0.194849  0.000000  1
  Fe  Fe15  1  0.642597  0.912192  0.500001  1
  Fe  Fe16  1  0.857499  0.411906  0.499999  1
  Fe  Fe17  1  0.985270  0.695002  0.000000  1
  Co  Co18  1  0.001903  0.500562  0.000000  1
  Co  Co19  1  0.003525  0.106827  0.999983  1
  Co  Co20  1  0.148743  0.805619  0.499999  1
  Co  Co21  1  0.351205  0.305515  0.499999  1
  Co  Co22  1  0.496646  0.606781  0.999871  1
  Co  Co23  1  0.498011  0.000460  0.000000  1
  Co  Co24  1  0.643421  0.690430  0.500007  1
  Co  Co25  1  0.856526  0.190266  0.500002  1
  O  O26  1  0.003597  0.427257  0.999999  1
  O  O27  1  0.999701  0.575113  0.000002  1
  O  O28  1  0.064349  0.940848  0.500003  1
  O  O29  1  0.045822  0.156704  0.499994  1
  O  O30  1  0.115642  0.666126  0.500000  1
  O  O31  1  0.093762  0.761834  0.000001  1
  O  O32  1  0.143625  0.505870  0.500010  1
  O  O33  1  0.158204  0.274630  0.499998  1
  O  O34  1  0.199204  0.851298  0.999999  1
  O  O35  1  0.198933  0.083199  0.000004  1
  O  O36  1  0.301411  0.583543  0.000035  1
  O  O37  1  0.300792  0.351413  0.000001  1
  O  O38  1  0.342364  0.775041  0.500001  1
  O  O39  1  0.356317  0.005830  0.500001  1
  O  O40  1  0.405660  0.261663  0.999999  1
  O  O41  1  0.384745  0.165822  0.499999  1
  O  O42  1  0.454068  0.656894  0.499944  1
  O  O43  1  0.435378  0.440670  0.500001  1
  O  O44  1  0.499353  0.074899  0.000002  1
  O  O45  1  0.497362  0.927251  0.999999  1
  O  O46  1  0.552282  0.562174  0.500134  1
  O  O47  1  0.542255  0.339103  0.500000  1
  O  O48  1  0.600888  0.833629  0.500002  1
  O  O49  1  0.596856  0.735972  -0.000002  1
  O  O50  1  0.643422  0.996164  0.500002  1
  O  O51  1  0.657758  0.215241  0.500000  1
  O  O52  1  0.681793  0.643019  0.999992  1
  O  O53  1  0.702836  0.411755  1.000000  1
  O  O54  1  0.797206  0.912094  0.000001  1
  O  O55  1  0.818214  0.143240  0.999996  1
  O  O56  1  0.841775  0.715235  0.500000  1
  O  O57  1  0.856763  0.496229  0.499999  1
  O  O58  1  0.903300  0.235627  0.000001  1
  O  O59  1  0.899365  0.333356  0.499999  1
  O  O60  1  0.957479  0.839457  0.499999  1
  O  O61  1  0.948584  0.062058  0.500015  1
