# generated using pymatgen
data_Li2MnVP2(O4F)2
_symmetry_space_group_name_H-M   'P 1'
_cell_length_a   5.20046707
_cell_length_b   10.50452814
_cell_length_c   10.48708148
_cell_angle_alpha   78.37344126
_cell_angle_beta   80.53220421
_cell_angle_gamma   82.71480201
_symmetry_Int_Tables_number   1
_chemical_formula_structural   Li2MnVP2(O4F)2
_chemical_formula_sum   'Li6 Mn3 V3 P6 O24 F6'
_cell_volume   550.88783061
_cell_formula_units_Z   3
loop_
 _symmetry_equiv_pos_site_id
 _symmetry_equiv_pos_as_xyz
  1  'x, y, z'
loop_
 _atom_site_type_symbol
 _atom_site_label
 _atom_site_symmetry_multiplicity
 _atom_site_fract_x
 _atom_site_fract_y
 _atom_site_fract_z
 _atom_site_occupancy
  Li  Li0  1  0.004253  0.270162  0.080433  1
  Li  Li1  1  0.333202  0.397973  0.587079  1
  Li  Li2  1  0.667308  0.066098  0.253689  1
  Li  Li3  1  0.332692  0.933902  0.746311  1
  Li  Li4  1  0.666798  0.602027  0.412921  1
  Li  Li5  1  0.995747  0.729838  0.919567  1
  Mn  Mn6  1  0.500000  0.500000  0.000000  1
  Mn  Mn7  1  0.331996  0.667235  0.666033  1
  Mn  Mn8  1  0.668004  0.332765  0.333967  1
  V  V9  1  0.000000  0.000000  0.000000  1
  V  V10  1  0.168051  0.833178  0.331913  1
  V  V11  1  0.831949  0.166822  0.668087  1
  P  P12  1  0.187820  0.136581  0.373115  1
  P  P13  1  0.148309  0.528972  0.294198  1
  P  P14  1  0.517606  0.800266  0.037533  1
  P  P15  1  0.482394  0.199734  0.962467  1
  P  P16  1  0.851691  0.471028  0.705802  1
  P  P17  1  0.812180  0.863419  0.626885  1
  O  O18  1  0.257497  0.112661  0.026023  1
  O  O19  1  0.027970  0.665168  0.323561  1
  O  O20  1  0.119346  0.133829  0.521341  1
  O  O21  1  0.219567  0.530897  0.146724  1
  O  O22  1  0.076326  0.558148  0.639613  1
  O  O23  1  0.058138  0.816283  0.699890  1
  O  O24  1  0.411035  0.224269  0.307647  1
  O  O25  1  0.392444  0.480883  0.368931  1
  O  O26  1  0.306408  0.001106  0.342053  1
  O  O27  1  0.449931  0.800116  0.185316  1
  O  O28  1  0.363181  0.335403  0.992953  1
  O  O29  1  0.723477  0.148620  0.037286  1
  O  O30  1  0.276523  0.851380  0.962714  1
  O  O31  1  0.636819  0.664597  0.007047  1
  O  O32  1  0.550069  0.199884  0.814684  1
  O  O33  1  0.693592  0.998894  0.657947  1
  O  O34  1  0.607556  0.519117  0.631069  1
  O  O35  1  0.588965  0.775731  0.692353  1
  O  O36  1  0.941862  0.183717  0.300110  1
  O  O37  1  0.923673  0.441852  0.360387  1
  O  O38  1  0.780433  0.469103  0.853276  1
  O  O39  1  0.880654  0.866171  0.478659  1
  O  O40  1  0.972030  0.334832  0.676439  1
  O  O41  1  0.742503  0.887339  0.973977  1
  F  F42  1  0.067211  0.062593  0.801404  1
  F  F43  1  0.251364  0.604003  0.869089  1
  F  F44  1  0.405110  0.732051  0.459682  1
  F  F45  1  0.594890  0.267949  0.540318  1
  F  F46  1  0.748636  0.395997  0.130911  1
  F  F47  1  0.932789  0.937407  0.198596  1
