# generated using pymatgen
data_Li2NiP2O7
_symmetry_space_group_name_H-M   'P 1'
_cell_length_a   5.18213573
_cell_length_b   6.42720347
_cell_length_c   8.86761877
_cell_angle_alpha   109.96761607
_cell_angle_beta   95.67540749
_cell_angle_gamma   106.01231315
_symmetry_Int_Tables_number   1
_chemical_formula_structural   Li2NiP2O7
_chemical_formula_sum   'Li4 Ni2 P4 O14'
_cell_volume   260.66003286
_cell_formula_units_Z   2
loop_
 _symmetry_equiv_pos_site_id
 _symmetry_equiv_pos_as_xyz
  1  'x, y, z'
loop_
 _atom_site_type_symbol
 _atom_site_label
 _atom_site_symmetry_multiplicity
 _atom_site_fract_x
 _atom_site_fract_y
 _atom_site_fract_z
 _atom_site_occupancy
  Li  Li0  1  0.111555  0.749227  0.018374  1
  Li  Li1  1  0.331557  0.188034  0.742609  1
  Li  Li2  1  0.668443  0.811966  0.257391  1
  Li  Li3  1  0.888445  0.250773  0.981626  1
  Ni  Ni4  1  0.101225  0.601104  0.363332  1
  Ni  Ni5  1  0.898775  0.398896  0.636668  1
  P  P6  1  0.240797  0.152626  0.392296  1
  P  P7  1  0.576216  0.686643  0.879671  1
  P  P8  1  0.423784  0.313357  0.120329  1
  P  P9  1  0.759203  0.847374  0.607704  1
  O  O10  1  0.064855  0.893757  0.333335  1
  O  O11  1  0.059981  0.311468  0.422354  1
  O  O12  1  0.266157  0.560777  0.832103  1
  O  O13  1  0.255930  0.483775  0.154881  1
  O  O14  1  0.319588  0.133973  0.945463  1
  O  O15  1  0.522391  0.769990  0.464469  1
  O  O16  1  0.642259  0.843518  0.768986  1
  O  O17  1  0.357741  0.156482  0.231014  1
  O  O18  1  0.477609  0.230010  0.535531  1
  O  O19  1  0.680412  0.866027  0.054537  1
  O  O20  1  0.744070  0.516225  0.845119  1
  O  O21  1  0.733843  0.439223  0.167897  1
  O  O22  1  0.940019  0.688532  0.577646  1
  O  O23  1  0.935145  0.106243  0.666665  1
