# generated using pymatgen
data_NaLi5Mn2P2(CO7)2
_symmetry_space_group_name_H-M   'P 1'
_cell_length_a   8.65484661
_cell_length_b   13.30711639
_cell_length_c   5.01175455
_cell_angle_alpha   89.91888858
_cell_angle_beta   87.79227256
_cell_angle_gamma   90.66802352
_symmetry_Int_Tables_number   1
_chemical_formula_structural   NaLi5Mn2P2(CO7)2
_chemical_formula_sum   'Na2 Li10 Mn4 P4 C4 O28'
_cell_volume   576.74038773
_cell_formula_units_Z   2
loop_
 _symmetry_equiv_pos_site_id
 _symmetry_equiv_pos_as_xyz
  1  'x, y, z'
loop_
 _atom_site_type_symbol
 _atom_site_label
 _atom_site_symmetry_multiplicity
 _atom_site_fract_x
 _atom_site_fract_y
 _atom_site_fract_z
 _atom_site_occupancy
  Na  Na0  1  0.087950  0.623425  0.751889  1
  Na  Na1  1  0.247023  0.000681  0.252791  1
  Li  Li2  1  0.083647  0.135957  0.746191  1
  Li  Li3  1  0.270266  0.238242  0.229140  1
  Li  Li4  1  0.266766  0.511017  0.224238  1
  Li  Li5  1  0.272352  0.732278  0.223137  1
  Li  Li6  1  0.732218  0.265051  0.770878  1
  Li  Li7  1  0.735803  0.487849  0.774571  1
  Li  Li8  1  0.735636  0.759920  0.772773  1
  Li  Li9  1  0.734434  0.986801  0.770549  1
  Li  Li10  1  0.910098  0.868152  0.257675  1
  Li  Li11  1  0.914930  0.373377  0.258441  1
  Mn  Mn12  1  0.353771  0.373346  0.773857  1
  Mn  Mn13  1  0.356650  0.873762  0.772510  1
  Mn  Mn14  1  0.646930  0.125486  0.223154  1
  Mn  Mn15  1  0.648674  0.624514  0.229000  1
  P  P16  1  0.416505  0.624476  0.712253  1
  P  P17  1  0.408845  0.127344  0.707445  1
  P  P18  1  0.590991  0.373953  0.287241  1
  P  P19  1  0.593400  0.873690  0.286512  1
  C  C20  1  0.039561  0.377397  0.726959  1
  C  C21  1  0.039055  0.872251  0.731172  1
  C  C22  1  0.953261  0.624326  0.265978  1
  C  C23  1  0.957098  0.131613  0.279476  1
  O  O24  1  0.099877  0.141312  0.347283  1
  O  O25  1  0.103722  0.623573  0.278312  1
  O  O26  1  0.078683  0.873943  0.977925  1
  O  O27  1  0.078678  0.377538  0.974547  1
  O  O28  1  0.144458  0.867228  0.539485  1
  O  O29  1  0.146205  0.379704  0.536092  1
  O  O30  1  0.313668  0.031009  0.782621  1
  O  O31  1  0.310918  0.215122  0.828067  1
  O  O32  1  0.326405  0.531318  0.824880  1
  O  O33  1  0.324334  0.716311  0.819420  1
  O  O34  1  0.420676  0.138292  0.396958  1
  O  O35  1  0.415806  0.623534  0.399055  1
  O  O36  1  0.421026  0.372797  0.195751  1
  O  O37  1  0.424605  0.867086  0.192436  1
  O  O38  1  0.576482  0.125439  0.808291  1
  O  O39  1  0.587178  0.626905  0.796325  1
  O  O40  1  0.584204  0.372845  0.600519  1
  O  O41  1  0.585738  0.876165  0.599297  1
  O  O42  1  0.688034  0.284228  0.178228  1
  O  O43  1  0.684019  0.467406  0.183151  1
  O  O44  1  0.693055  0.783457  0.188372  1
  O  O45  1  0.683079  0.967184  0.174462  1
  O  O46  1  0.849191  0.125190  0.468088  1
  O  O47  1  0.865665  0.624402  0.482190  1
  O  O48  1  0.921024  0.127996  0.030592  1
  O  O49  1  0.888513  0.625121  0.037050  1
  O  O50  1  0.894081  0.874780  0.668614  1
  O  O51  1  0.894810  0.375210  0.664161  1
