# generated using pymatgen
data_Li4Ti2Mn3V3O16
_symmetry_space_group_name_H-M   'P 1'
_cell_length_a   6.01595156
_cell_length_b   5.88400631
_cell_length_c   9.61469336
_cell_angle_alpha   89.66836387
_cell_angle_beta   92.80211103
_cell_angle_gamma   119.06002031
_symmetry_Int_Tables_number   1
_chemical_formula_structural   Li4Ti2Mn3V3O16
_chemical_formula_sum   'Li4 Ti2 Mn3 V3 O16'
_cell_volume   297.07643328
_cell_formula_units_Z   1
loop_
 _symmetry_equiv_pos_site_id
 _symmetry_equiv_pos_as_xyz
  1  'x, y, z'
loop_
 _atom_site_type_symbol
 _atom_site_label
 _atom_site_symmetry_multiplicity
 _atom_site_fract_x
 _atom_site_fract_y
 _atom_site_fract_z
 _atom_site_occupancy
  Li  Li0  1  0.312757  0.653215  0.901000  1
  Li  Li1  1  0.006336  0.005170  0.990449  1
  Li  Li2  1  0.002267  0.000735  0.492063  1
  Li  Li3  1  0.672825  0.336740  0.401022  1
  Ti  Ti4  1  0.318465  0.657683  0.498258  1
  Ti  Ti5  1  0.676370  0.346924  0.995883  1
  Mn  Mn6  1  0.667004  0.835061  0.206567  1
  Mn  Mn7  1  0.818910  0.657251  0.710310  1
  Mn  Mn8  1  0.824152  0.165662  0.708841  1
  V  V9  1  0.194344  0.844754  0.220496  1
  V  V10  1  0.190780  0.348349  0.219135  1
  V  V11  1  0.343676  0.163422  0.726802  1
  O  O12  1  0.188851  0.841821  0.593470  1
  O  O13  1  0.045300  0.522609  0.341296  1
  O  O14  1  0.299387  0.651728  0.103343  1
  O  O15  1  0.021517  0.010293  0.304837  1
  O  O16  1  0.003114  0.002196  0.800169  1
  O  O17  1  0.190170  0.343672  0.594779  1
  O  O18  1  0.465272  0.963340  0.344468  1
  O  O19  1  0.463333  0.500176  0.343171  1
  O  O20  1  0.340148  0.170168  0.103894  1
  O  O21  1  0.673276  0.836965  0.588790  1
  O  O22  1  0.496858  0.463286  0.850735  1
  O  O23  1  0.490639  0.028571  0.846163  1
  O  O24  1  0.646422  0.323993  0.609219  1
  O  O25  1  0.852435  0.666934  0.088692  1
  O  O26  1  0.942621  0.471451  0.836527  1
  O  O27  1  0.852771  0.188134  0.087458  1
