# generated using pymatgen
data_Li2MnV(PO4)3
_symmetry_space_group_name_H-M   'P 1'
_cell_length_a   8.95526709
_cell_length_b   8.31154582
_cell_length_c   8.40858883
_cell_angle_alpha   59.58801967
_cell_angle_beta   64.08196423
_cell_angle_gamma   90.94737206
_symmetry_Int_Tables_number   1
_chemical_formula_structural   Li2MnV(PO4)3
_chemical_formula_sum   'Li4 Mn2 V2 P6 O24'
_cell_volume   462.09063515
_cell_formula_units_Z   2
loop_
 _symmetry_equiv_pos_site_id
 _symmetry_equiv_pos_as_xyz
  1  'x, y, z'
loop_
 _atom_site_type_symbol
 _atom_site_label
 _atom_site_symmetry_multiplicity
 _atom_site_fract_x
 _atom_site_fract_y
 _atom_site_fract_z
 _atom_site_occupancy
  Li  Li0  1  0.129233  0.076868  0.605323  1
  Li  Li1  1  0.137418  0.325041  0.944903  1
  Li  Li2  1  0.624966  0.807400  0.632240  1
  Li  Li3  1  0.856174  0.255706  0.818910  1
  Mn  Mn4  1  0.564650  0.862152  0.284556  1
  Mn  Mn5  1  0.432484  0.136237  0.717557  1
  V  V6  1  0.039432  0.362611  0.302300  1
  V  V7  1  0.958464  0.657548  0.689052  1
  P  P8  1  0.246629  0.043887  0.221070  1
  P  P9  1  0.249872  0.463459  0.499610  1
  P  P10  1  0.246745  0.755975  0.794539  1
  P  P11  1  0.752219  0.255131  0.203504  1
  P  P12  1  0.745139  0.532567  0.500517  1
  P  P13  1  0.750480  0.952193  0.789900  1
  O  O14  1  0.107070  0.830930  0.394059  1
  O  O15  1  0.252326  0.131255  0.009011  1
  O  O16  1  0.182236  0.170021  0.311055  1
  O  O17  1  0.183305  0.479410  0.349486  1
  O  O18  1  0.099168  0.460861  0.691729  1
  O  O19  1  0.106874  0.798117  0.726481  1
  O  O20  1  0.423696  0.026083  0.197238  1
  O  O21  1  0.270734  0.257754  0.607448  1
  O  O22  1  0.416058  0.626491  0.372290  1
  O  O23  1  0.182183  0.536752  0.987746  1
  O  O24  1  0.259510  0.892306  0.863925  1
  O  O25  1  0.420252  0.788631  0.613564  1
  O  O26  1  0.585897  0.218057  0.389493  1
  O  O27  1  0.740846  0.115020  0.134463  1
  O  O28  1  0.823636  0.465199  0.991396  1
  O  O29  1  0.572531  0.369939  0.636857  1
  O  O30  1  0.714926  0.734487  0.409058  1
  O  O31  1  0.583268  0.971290  0.781553  1
  O  O32  1  0.904934  0.225846  0.253652  1
  O  O33  1  0.885661  0.519859  0.317623  1
  O  O34  1  0.812776  0.506120  0.652794  1
  O  O35  1  0.804856  0.818057  0.706904  1
  O  O36  1  0.733565  0.873535  0.003830  1
  O  O37  1  0.899184  0.157650  0.627374  1
