# generated using pymatgen
data_Ni7(PO4)6
_symmetry_space_group_name_H-M   'P 1'
_cell_length_a   8.79966664
_cell_length_b   8.79966632
_cell_length_c   6.57155853
_cell_angle_alpha   80.75019558
_cell_angle_beta   99.24980399
_cell_angle_gamma   71.96214098
_symmetry_Int_Tables_number   1
_chemical_formula_structural   Ni7(PO4)6
_chemical_formula_sum   'Ni7 P6 O24'
_cell_volume   465.39260323
_cell_formula_units_Z   1
loop_
 _symmetry_equiv_pos_site_id
 _symmetry_equiv_pos_as_xyz
  1  'x, y, z'
loop_
 _atom_site_type_symbol
 _atom_site_label
 _atom_site_symmetry_multiplicity
 _atom_site_fract_x
 _atom_site_fract_y
 _atom_site_fract_z
 _atom_site_occupancy
  Ni  Ni0  1  0.007211  0.355625  0.191964  1
  Ni  Ni1  1  0.003017  0.996983  0.001354  1
  Ni  Ni2  1  0.644375  0.992789  0.191964  1
  Ni  Ni3  1  0.363477  0.997011  0.813897  1
  Ni  Ni4  1  0.674800  0.665903  0.003497  1
  Ni  Ni5  1  0.334097  0.325200  0.003497  1
  Ni  Ni6  1  0.002989  0.636523  0.813897  1
  P  P7  1  0.725520  0.906786  0.708183  1
  P  P8  1  0.917355  0.717717  0.297252  1
  P  P9  1  0.328995  0.671005  0.070833  1
  P  P10  1  0.282283  0.082645  0.297252  1
  P  P11  1  0.093214  0.274480  0.708183  1
  P  P12  1  0.678743  0.321257  0.938558  1
  O  O13  1  0.247207  0.572199  0.936727  1
  O  O14  1  0.657931  0.018141  0.491366  1
  O  O15  1  0.393882  0.031466  0.137205  1
  O  O16  1  0.095622  0.107912  0.208820  1
  O  O17  1  0.427801  0.752793  0.936727  1
  O  O18  1  0.260522  0.270932  0.281411  1
  O  O19  1  0.750207  0.717895  0.725013  1
  O  O20  1  0.029007  0.653255  0.514151  1
  O  O21  1  0.968534  0.606118  0.137205  1
  O  O22  1  0.729068  0.739478  0.281411  1
  O  O23  1  0.981859  0.342069  0.491366  1
  O  O24  1  0.552041  0.447958  0.750342  1
  O  O25  1  0.614226  0.956326  0.869362  1
  O  O26  1  0.199683  0.800317  0.140251  1
  O  O27  1  0.911360  0.885003  0.794693  1
  O  O28  1  0.806305  0.193695  0.863946  1
  O  O29  1  0.762735  0.418364  0.073436  1
  O  O30  1  0.114997  0.088640  0.794693  1
  O  O31  1  0.892088  0.904378  0.208820  1
  O  O32  1  0.043674  0.385774  0.869362  1
  O  O33  1  0.346745  0.970993  0.514151  1
  O  O34  1  0.282105  0.249793  0.725013  1
  O  O35  1  0.453828  0.546172  0.263310  1
  O  O36  1  0.581636  0.237265  0.073436  1
