# generated using pymatgen
data_Ni6OF11
_symmetry_space_group_name_H-M   'P 1'
_cell_length_a   10.49567532
_cell_length_b   6.66214782
_cell_length_c   3.08490328
_cell_angle_alpha   90.00000000
_cell_angle_beta   90.00000000
_cell_angle_gamma   108.49886268
_symmetry_Int_Tables_number   1
_chemical_formula_structural   Ni6OF11
_chemical_formula_sum   'Ni6 O1 F11'
_cell_volume   204.56233500
_cell_formula_units_Z   1
loop_
 _symmetry_equiv_pos_site_id
 _symmetry_equiv_pos_as_xyz
  1  'x, y, z'
loop_
 _atom_site_type_symbol
 _atom_site_label
 _atom_site_symmetry_multiplicity
 _atom_site_fract_x
 _atom_site_fract_y
 _atom_site_fract_z
 _atom_site_occupancy
  Ni  Ni0  1  0.001174  0.000596  0.000000  1
  Ni  Ni1  1  0.995696  0.497885  0.500000  1
  Ni  Ni2  1  0.336540  0.168212  0.500000  1
  Ni  Ni3  1  0.674555  0.337269  0.000000  1
  Ni  Ni4  1  0.329851  0.664884  0.000000  1
  Ni  Ni5  1  0.665012  0.832544  0.500000  1
  O  O6  1  0.796778  0.398363  0.500000  1
  F  F7  1  0.132702  0.066234  0.500000  1
  F  F8  1  0.999402  0.301397  0.000000  1
  F  F9  1  0.666453  0.028816  0.000000  1
  F  F10  1  0.999444  0.698086  0.000000  1
  F  F11  1  0.334161  0.363795  0.000000  1
  F  F12  1  0.198731  0.599467  0.500000  1
  F  F13  1  0.538279  0.269189  0.500000  1
  F  F14  1  0.461875  0.730809  0.500000  1
  F  F15  1  0.666652  0.637747  0.000000  1
  F  F16  1  0.334347  0.970396  0.000000  1
  F  F17  1  0.868348  0.934310  0.500000  1
