# generated using pymatgen
data_BaYCl5
_symmetry_space_group_name_H-M   'P 1'
_cell_length_a   7.21699308
_cell_length_b   24.05442616
_cell_length_c   9.90242527
_cell_angle_alpha   90.00000000
_cell_angle_beta   93.02948387
_cell_angle_gamma   90.00000000
_symmetry_Int_Tables_number   1
_chemical_formula_structural   BaYCl5
_chemical_formula_sum   'Ba8 Y8 Cl40'
_cell_volume   1716.66479061
_cell_formula_units_Z   8
loop_
 _symmetry_equiv_pos_site_id
 _symmetry_equiv_pos_as_xyz
  1  'x, y, z'
loop_
 _atom_site_type_symbol
 _atom_site_label
 _atom_site_symmetry_multiplicity
 _atom_site_fract_x
 _atom_site_fract_y
 _atom_site_fract_z
 _atom_site_occupancy
  Ba  Ba0  1  0.151262  0.542697  0.756193  1
  Ba  Ba1  1  0.317233  0.266086  0.492013  1
  Ba  Ba2  1  0.348738  0.042697  0.743807  1
  Ba  Ba3  1  0.182767  0.766086  0.007987  1
  Ba  Ba4  1  0.817233  0.233914  0.992013  1
  Ba  Ba5  1  0.651262  0.957303  0.256193  1
  Ba  Ba6  1  0.682767  0.733914  0.507987  1
  Ba  Ba7  1  0.848738  0.457303  0.243807  1
  Y  Y8  1  0.263667  0.370413  0.964082  1
  Y  Y9  1  0.236333  0.870413  0.535918  1
  Y  Y10  1  0.227759  0.106962  0.132812  1
  Y  Y11  1  0.272241  0.606962  0.367188  1
  Y  Y12  1  0.727759  0.393038  0.632812  1
  Y  Y13  1  0.772241  0.893038  0.867188  1
  Y  Y14  1  0.763667  0.129587  0.464082  1
  Y  Y15  1  0.736333  0.629587  0.035918  1
  Cl  Cl16  1  0.033049  0.119967  0.904277  1
  Cl  Cl17  1  0.019602  0.363880  0.505523  1
  Cl  Cl18  1  0.082058  0.161234  0.569920  1
  Cl  Cl19  1  0.100092  0.920707  0.756609  1
  Cl  Cl20  1  0.067788  0.588987  0.140758  1
  Cl  Cl21  1  0.057013  0.345631  0.165462  1
  Cl  Cl22  1  0.176344  0.276268  0.838300  1
  Cl  Cl23  1  0.157702  0.209960  0.207071  1
  Cl  Cl24  1  0.222341  0.972325  0.443681  1
  Cl  Cl25  1  0.213182  0.503693  0.435043  1
  Cl  Cl26  1  0.323656  0.776268  0.661700  1
  Cl  Cl27  1  0.286818  0.003693  0.064957  1
  Cl  Cl28  1  0.277659  0.472325  0.056319  1
  Cl  Cl29  1  0.342298  0.709960  0.292929  1
  Cl  Cl30  1  0.399908  0.420707  0.743391  1
  Cl  Cl31  1  0.417942  0.661234  0.930080  1
  Cl  Cl32  1  0.442987  0.845631  0.334538  1
  Cl  Cl33  1  0.432212  0.088987  0.359242  1
  Cl  Cl34  1  0.480398  0.863880  0.994477  1
  Cl  Cl35  1  0.466950  0.619967  0.595723  1
  Cl  Cl36  1  0.533050  0.380033  0.404277  1
  Cl  Cl37  1  0.519602  0.136120  0.005523  1
  Cl  Cl38  1  0.567788  0.911013  0.640758  1
  Cl  Cl39  1  0.557013  0.154369  0.665462  1
  Cl  Cl40  1  0.582058  0.338766  0.069920  1
  Cl  Cl41  1  0.600092  0.579293  0.256609  1
  Cl  Cl42  1  0.657702  0.290040  0.707071  1
  Cl  Cl43  1  0.722341  0.527675  0.943681  1
  Cl  Cl44  1  0.713182  0.996307  0.935043  1
  Cl  Cl45  1  0.676344  0.223732  0.338300  1
  Cl  Cl46  1  0.786818  0.496307  0.564957  1
  Cl  Cl47  1  0.777659  0.027675  0.556319  1
  Cl  Cl48  1  0.842298  0.790040  0.792929  1
  Cl  Cl49  1  0.823656  0.723732  0.161700  1
  Cl  Cl50  1  0.942987  0.654369  0.834538  1
  Cl  Cl51  1  0.932212  0.411013  0.859242  1
  Cl  Cl52  1  0.899908  0.079293  0.243391  1
  Cl  Cl53  1  0.917942  0.838766  0.430080  1
  Cl  Cl54  1  0.980398  0.636120  0.494477  1
  Cl  Cl55  1  0.966950  0.880033  0.095723  1
