# generated using pymatgen
data_Li4Cr3Co2Sb3O16
_symmetry_space_group_name_H-M   'P 1'
_cell_length_a   6.09568804
_cell_length_b   6.12920914
_cell_length_c   9.85675970
_cell_angle_alpha   90.00413215
_cell_angle_beta   89.65919542
_cell_angle_gamma   120.17729619
_symmetry_Int_Tables_number   1
_chemical_formula_structural   Li4Cr3Co2Sb3O16
_chemical_formula_sum   'Li4 Cr3 Co2 Sb3 O16'
_cell_volume   318.34875187
_cell_formula_units_Z   1
loop_
 _symmetry_equiv_pos_site_id
 _symmetry_equiv_pos_as_xyz
  1  'x, y, z'
loop_
 _atom_site_type_symbol
 _atom_site_label
 _atom_site_symmetry_multiplicity
 _atom_site_fract_x
 _atom_site_fract_y
 _atom_site_fract_z
 _atom_site_occupancy
  Li  Li0  1  0.341644  0.670814  0.900128  1
  Li  Li1  1  0.019528  0.009762  0.005672  1
  Li  Li2  1  0.022543  0.011285  0.490593  1
  Li  Li3  1  0.671861  0.335941  0.372889  1
  Cr  Cr4  1  0.167794  0.830655  0.215167  1
  Cr  Cr5  1  0.167776  0.337190  0.215194  1
  Cr  Cr6  1  0.335792  0.167885  0.715840  1
  Co  Co7  1  0.307366  0.653771  0.475943  1
  Co  Co8  1  0.653991  0.327004  0.017916  1
  Sb  Sb9  1  0.659316  0.829693  0.215244  1
  Sb  Sb10  1  0.829880  0.662246  0.715710  1
  Sb  Sb11  1  0.829834  0.167567  0.715725  1
  O  O12  1  0.148730  0.838052  0.606276  1
  O  O13  1  0.034453  0.517286  0.331184  1
  O  O14  1  0.334305  0.667148  0.105310  1
  O  O15  1  0.996775  0.998421  0.311503  1
  O  O16  1  -0.000576  -0.000329  0.819715  1
  O  O17  1  0.148646  0.310483  0.606328  1
  O  O18  1  0.485435  0.966285  0.334366  1
  O  O19  1  0.485355  0.519393  0.334542  1
  O  O20  1  0.318196  0.159143  0.106145  1
  O  O21  1  0.688558  0.844248  0.602668  1
  O  O22  1  0.519288  0.487408  0.828201  1
  O  O23  1  0.519284  0.031847  0.828206  1
  O  O24  1  0.666100  0.333041  0.603046  1
  O  O25  1  0.837241  0.685374  0.101754  1
  O  O26  1  0.973582  0.486780  0.830854  1
  O  O27  1  0.837300  0.151906  0.101722  1
