# generated using pymatgen
data_Fe3(O2F)2
_symmetry_space_group_name_H-M   'P 1'
_cell_length_a   4.73863510
_cell_length_b   4.73863510
_cell_length_c   9.04199690
_cell_angle_alpha   89.57009717
_cell_angle_beta   90.42990283
_cell_angle_gamma   95.24483322
_symmetry_Int_Tables_number   1
_chemical_formula_structural   Fe3(O2F)2
_chemical_formula_sum   'Fe6 O8 F4'
_cell_volume   202.17448839
_cell_formula_units_Z   2
loop_
 _symmetry_equiv_pos_site_id
 _symmetry_equiv_pos_as_xyz
  1  'x, y, z'
loop_
 _atom_site_type_symbol
 _atom_site_label
 _atom_site_symmetry_multiplicity
 _atom_site_fract_x
 _atom_site_fract_y
 _atom_site_fract_z
 _atom_site_occupancy
  Fe  Fe0  1  0.992697  0.007303  0.006305  1
  Fe  Fe1  1  0.000000  0.000000  0.333333  1
  Fe  Fe2  1  0.007303  0.992697  0.660362  1
  Fe  Fe3  1  0.535675  0.464325  0.167209  1
  Fe  Fe4  1  0.500000  0.500000  0.833333  1
  Fe  Fe5  1  0.464325  0.535675  0.499458  1
  O  O6  1  0.180409  0.819591  0.496025  1
  O  O7  1  0.313535  0.299959  0.993474  1
  O  O8  1  0.303538  0.303538  0.333333  1
  O  O9  1  0.299959  0.313535  0.673192  1
  O  O10  1  0.700041  0.686465  0.993474  1
  O  O11  1  0.696462  0.696462  0.333333  1
  O  O12  1  0.686465  0.700041  0.673192  1
  O  O13  1  0.819591  0.180409  0.170642  1
  F  F14  1  0.197450  0.802550  0.164035  1
  F  F15  1  0.190065  0.809935  0.835421  1
  F  F16  1  0.809935  0.190065  0.831246  1
  F  F17  1  0.802550  0.197450  0.502631  1
