# generated using pymatgen
data_Fe3(OF2)2
_symmetry_space_group_name_H-M   'P 1'
_cell_length_a   7.66296333
_cell_length_b   5.72603824
_cell_length_c   5.72603824
_cell_angle_alpha   70.36929106
_cell_angle_beta   70.13144661
_cell_angle_gamma   70.13144661
_symmetry_Int_Tables_number   1
_chemical_formula_structural   Fe3(OF2)2
_chemical_formula_sum   'Fe6 O4 F8'
_cell_volume   215.21537316
_cell_formula_units_Z   2
loop_
 _symmetry_equiv_pos_site_id
 _symmetry_equiv_pos_as_xyz
  1  'x, y, z'
loop_
 _atom_site_type_symbol
 _atom_site_label
 _atom_site_symmetry_multiplicity
 _atom_site_fract_x
 _atom_site_fract_y
 _atom_site_fract_z
 _atom_site_occupancy
  Fe  Fe0  1  0.840786  0.642152  0.670309  1
  Fe  Fe1  1  0.664515  0.353136  0.314002  1
  Fe  Fe2  1  0.335485  0.685998  0.646864  1
  Fe  Fe3  1  0.159214  0.329691  0.357848  1
  Fe  Fe4  1  0.500000  0.980408  0.019592  1
  Fe  Fe5  1  0.000000  0.986582  0.013418  1
  O  O6  1  0.331570  0.990878  0.350437  1
  O  O7  1  0.668430  0.649563  0.009122  1
  O  O8  1  0.000000  0.286623  0.713377  1
  O  O9  1  0.000000  0.692688  0.307312  1
  F  F10  1  0.662655  0.040509  0.629890  1
  F  F11  1  0.337345  0.370110  0.959491  1
  F  F12  1  0.296192  0.907285  0.909102  1
  F  F13  1  0.972821  0.223563  0.232242  1
  F  F14  1  0.640220  0.568472  0.566316  1
  F  F15  1  0.027179  0.767758  0.776437  1
  F  F16  1  0.359780  0.433685  0.431528  1
  F  F17  1  0.703808  0.090898  0.092715  1
