# generated using pymatgen
data_LiMnF3
_symmetry_space_group_name_H-M   'P 1'
_cell_length_a   7.72487624
_cell_length_b   12.01624691
_cell_length_c   5.56543710
_cell_angle_alpha   90.00000000
_cell_angle_beta   76.88970348
_cell_angle_gamma   90.00000000
_symmetry_Int_Tables_number   1
_chemical_formula_structural   LiMnF3
_chemical_formula_sum   'Li8 Mn8 F24'
_cell_volume   503.14101817
_cell_formula_units_Z   8
loop_
 _symmetry_equiv_pos_site_id
 _symmetry_equiv_pos_as_xyz
  1  'x, y, z'
loop_
 _atom_site_type_symbol
 _atom_site_label
 _atom_site_symmetry_multiplicity
 _atom_site_fract_x
 _atom_site_fract_y
 _atom_site_fract_z
 _atom_site_occupancy
  Li  Li0  1  0.015090  0.841859  0.538738  1
  Li  Li1  1  0.282113  0.483046  0.118308  1
  Li  Li2  1  0.217887  0.983046  0.881692  1
  Li  Li3  1  0.484910  0.341859  0.461262  1
  Li  Li4  1  0.515090  0.658141  0.538738  1
  Li  Li5  1  0.782113  0.016955  0.118308  1
  Li  Li6  1  0.717887  0.516954  0.881692  1
  Li  Li7  1  0.984910  0.158141  0.461262  1
  Mn  Mn8  1  0.120821  0.562344  0.681597  1
  Mn  Mn9  1  0.112941  0.238770  0.912489  1
  Mn  Mn10  1  0.387059  0.738770  0.087511  1
  Mn  Mn11  1  0.379179  0.062344  0.318403  1
  Mn  Mn12  1  0.620821  0.937656  0.681597  1
  Mn  Mn13  1  0.612941  0.261230  0.912489  1
  Mn  Mn14  1  0.887059  0.761230  0.087511  1
  Mn  Mn15  1  0.879179  0.437656  0.318403  1
  F  F16  1  0.081349  0.735549  0.750853  1
  F  F17  1  0.118017  0.769411  0.231589  1
  F  F18  1  0.135553  0.428789  0.415338  1
  F  F19  1  0.159861  0.102955  0.635103  1
  F  F20  1  0.135088  0.088273  0.143553  1
  F  F21  1  0.112784  0.420065  0.933596  1
  F  F22  1  0.387216  0.920065  0.066404  1
  F  F23  1  0.364912  0.588273  0.856447  1
  F  F24  1  0.340139  0.602955  0.364897  1
  F  F25  1  0.364447  0.928789  0.584662  1
  F  F26  1  0.381983  0.269411  0.768411  1
  F  F27  1  0.418651  0.235549  0.249147  1
  F  F28  1  0.581349  0.764451  0.750853  1
  F  F29  1  0.618017  0.730589  0.231589  1
  F  F30  1  0.635553  0.071211  0.415338  1
  F  F31  1  0.659861  0.397045  0.635103  1
  F  F32  1  0.635088  0.411727  0.143553  1
  F  F33  1  0.612784  0.079935  0.933596  1
  F  F34  1  0.887216  0.579935  0.066404  1
  F  F35  1  0.864912  0.911727  0.856447  1
  F  F36  1  0.840139  0.897045  0.364897  1
  F  F37  1  0.864447  0.571211  0.584662  1
  F  F38  1  0.881983  0.230589  0.768411  1
  F  F39  1  0.918651  0.264451  0.249147  1
