# generated using pymatgen
data_Li8BiS6
_symmetry_space_group_name_H-M   'P 1'
_cell_length_a   7.11462226
_cell_length_b   7.11463941
_cell_length_c   13.47914273
_cell_angle_alpha   90.00082484
_cell_angle_beta   90.00103983
_cell_angle_gamma   120.00075778
_symmetry_Int_Tables_number   1
_chemical_formula_structural   Li8BiS6
_chemical_formula_sum   'Li16 Bi2 S12'
_cell_volume   590.87324801
_cell_formula_units_Z   2
loop_
 _symmetry_equiv_pos_site_id
 _symmetry_equiv_pos_as_xyz
  1  'x, y, z'
loop_
 _atom_site_type_symbol
 _atom_site_label
 _atom_site_symmetry_multiplicity
 _atom_site_fract_x
 _atom_site_fract_y
 _atom_site_fract_z
 _atom_site_occupancy
  Li  Li0  1  0.999998  0.674072  0.765500  1
  Li  Li1  1  0.999987  0.611194  0.132805  1
  Li  Li2  1  0.000003  0.388829  0.632811  1
  Li  Li3  1  0.999992  0.325952  0.265492  1
  Li  Li4  1  0.333321  0.666682  0.396091  1
  Li  Li5  1  0.333322  0.666658  0.896092  1
  Li  Li6  1  0.325929  0.325938  0.765494  1
  Li  Li7  1  0.388781  0.388781  0.132800  1
  Li  Li8  1  0.611177  0.611187  0.632812  1
  Li  Li9  1  0.325951  0.999999  0.265493  1
  Li  Li10  1  0.674036  0.674044  0.265492  1
  Li  Li11  1  0.388821  0.000013  0.632811  1
  Li  Li12  1  0.666656  0.333330  0.896091  1
  Li  Li13  1  0.666666  0.333349  0.396092  1
  Li  Li14  1  0.611192  0.999988  0.132803  1
  Li  Li15  1  0.674064  0.000008  0.765500  1
  Bi  Bi16  1  0.999984  0.999997  0.992205  1
  Bi  Bi17  1  0.999987  1.000000  0.492326  1
  S  S18  1  0.999992  0.646437  0.950276  1
  S  S19  1  0.000026  0.353552  0.450249  1
  S  S20  1  0.333325  0.666651  0.213633  1
  S  S21  1  0.999987  0.999995  0.188184  1
  S  S22  1  0.999993  0.000004  0.688267  1
  S  S23  1  0.333338  0.666689  0.713635  1
  S  S24  1  0.353544  0.353531  0.950256  1
  S  S25  1  0.353523  0.999992  0.450258  1
  S  S26  1  0.646451  0.646457  0.450253  1
  S  S27  1  0.666679  0.333351  0.713634  1
  S  S28  1  0.666648  0.333313  0.213633  1
  S  S29  1  0.646421  0.000004  0.950273  1
