# generated using pymatgen
data_Ca3Tl4O9
_symmetry_space_group_name_H-M   'P 1'
_cell_length_a   11.28700073
_cell_length_b   6.75669228
_cell_length_c   12.49799027
_cell_angle_alpha   90.00000000
_cell_angle_beta   102.54178454
_cell_angle_gamma   90.00000000
_symmetry_Int_Tables_number   1
_chemical_formula_structural   Ca3Tl4O9
_chemical_formula_sum   'Ca12 Tl16 O36'
_cell_volume   930.38789671
_cell_formula_units_Z   4
loop_
 _symmetry_equiv_pos_site_id
 _symmetry_equiv_pos_as_xyz
  1  'x, y, z'
loop_
 _atom_site_type_symbol
 _atom_site_label
 _atom_site_symmetry_multiplicity
 _atom_site_fract_x
 _atom_site_fract_y
 _atom_site_fract_z
 _atom_site_occupancy
  Ca  Ca0  1  0.948021  0.752758  0.706688  1
  Ca  Ca1  1  0.949988  0.247579  0.713640  1
  Ca  Ca2  1  0.764422  0.501253  0.127842  1
  Ca  Ca3  1  0.735578  0.748747  0.872158  1
  Ca  Ca4  1  0.550012  0.002421  0.286360  1
  Ca  Ca5  1  0.551979  0.497242  0.293312  1
  Ca  Ca6  1  0.449988  0.502421  0.713640  1
  Ca  Ca7  1  0.448021  0.997242  0.706688  1
  Ca  Ca8  1  0.264422  0.248747  0.127842  1
  Ca  Ca9  1  0.235578  0.001253  0.872158  1
  Ca  Ca10  1  0.051979  0.252758  0.293312  1
  Ca  Ca11  1  0.050012  0.747579  0.286360  1
  Tl  Tl12  1  0.851009  0.500288  0.435128  1
  Tl  Tl13  1  0.848954  0.999535  0.437326  1
  Tl  Tl14  1  0.760306  0.997250  0.129177  1
  Tl  Tl15  1  0.739694  0.252750  0.870823  1
  Tl  Tl16  1  0.651046  0.250465  0.562674  1
  Tl  Tl17  1  0.648991  0.749712  0.564872  1
  Tl  Tl18  1  0.497654  0.750635  0.000481  1
  Tl  Tl19  1  0.502346  0.250635  0.999519  1
  Tl  Tl20  1  0.351009  0.249712  0.435128  1
  Tl  Tl21  1  0.348954  0.750465  0.437326  1
  Tl  Tl22  1  0.260306  0.752750  0.129177  1
  Tl  Tl23  1  0.239694  0.497250  0.870823  1
  Tl  Tl24  1  0.151046  0.499535  0.562674  1
  Tl  Tl25  1  0.148991  0.000288  0.564872  1
  Tl  Tl26  1  0.002346  0.499365  0.999519  1
  Tl  Tl27  1  0.997654  0.999365  0.000481  1
  O  O28  1  0.871391  0.754180  0.053538  1
  O  O29  1  0.867448  0.247568  0.047300  1
  O  O30  1  0.909237  0.498802  0.283366  1
  O  O31  1  0.904614  0.001466  0.279780  1
  O  O32  1  0.874015  0.004264  0.837207  1
  O  O33  1  0.875132  0.498922  0.838271  1
  O  O34  1  0.805437  0.001776  0.602899  1
  O  O35  1  0.807364  0.498314  0.601254  1
  O  O36  1  0.692636  0.751686  0.398746  1
  O  O37  1  0.694563  0.248224  0.397101  1
  O  O38  1  0.625985  0.245737  0.162793  1
  O  O39  1  0.624868  0.751077  0.161729  1
  O  O40  1  0.595386  0.248534  0.720220  1
  O  O41  1  0.590763  0.751198  0.716634  1
  O  O42  1  0.632552  0.002432  0.952700  1
  O  O43  1  0.628609  0.495820  0.946462  1
  O  O44  1  0.498811  0.000044  0.501443  1
  O  O45  1  0.501189  0.500044  0.498557  1
  O  O46  1  0.371391  0.995820  0.053538  1
  O  O47  1  0.367448  0.502432  0.047300  1
  O  O48  1  0.409237  0.251198  0.283366  1
  O  O49  1  0.404614  0.748534  0.279780  1
  O  O50  1  0.374015  0.745736  0.837207  1
  O  O51  1  0.375132  0.251078  0.838271  1
  O  O52  1  0.307364  0.251686  0.601254  1
  O  O53  1  0.305437  0.748224  0.602899  1
  O  O54  1  0.194563  0.501776  0.397101  1
  O  O55  1  0.192636  0.998314  0.398746  1
  O  O56  1  0.125985  0.504264  0.162793  1
  O  O57  1  0.124868  0.998923  0.161729  1
  O  O58  1  0.095386  0.501466  0.720220  1
  O  O59  1  0.090763  0.998802  0.716634  1
  O  O60  1  0.132552  0.747568  0.952700  1
  O  O61  1  0.128609  0.254180  0.946462  1
  O  O62  1  0.998811  0.749956  0.501443  1
  O  O63  1  0.001189  0.249956  0.498557  1
