# generated using pymatgen
data_Li2FePCO7
_symmetry_space_group_name_H-M   'P 1'
_cell_length_a   5.07988140
_cell_length_b   11.16778748
_cell_length_c   10.03253657
_cell_angle_alpha   73.90777865
_cell_angle_beta   96.35065346
_cell_angle_gamma   91.57498420
_symmetry_Int_Tables_number   1
_chemical_formula_structural   Li2FePCO7
_chemical_formula_sum   'Li8 Fe4 P4 C4 O28'
_cell_volume   543.49607972
_cell_formula_units_Z   4
loop_
 _symmetry_equiv_pos_site_id
 _symmetry_equiv_pos_as_xyz
  1  'x, y, z'
loop_
 _atom_site_type_symbol
 _atom_site_label
 _atom_site_symmetry_multiplicity
 _atom_site_fract_x
 _atom_site_fract_y
 _atom_site_fract_z
 _atom_site_occupancy
  Li  Li0  1  0.715689  0.153805  0.120141  1
  Li  Li1  1  0.693058  0.656472  0.612234  1
  Li  Li2  1  0.602149  0.912864  0.332882  1
  Li  Li3  1  0.357569  0.696317  0.102955  1
  Li  Li4  1  0.329064  0.147671  0.614628  1
  Li  Li5  1  0.233698  0.461609  0.312960  1
  Li  Li6  1  0.186035  0.428640  0.680398  1
  Li  Li7  1  0.198304  0.953424  0.887616  1
  Fe  Fe8  1  0.780618  0.263643  0.420870  1
  Fe  Fe9  1  0.785126  0.758712  0.918855  1
  Fe  Fe10  1  0.166371  0.360003  0.003104  1
  Fe  Fe11  1  0.160558  0.861609  0.507341  1
  P  P12  1  0.699616  0.474814  0.123269  1
  P  P13  1  0.698711  0.977640  0.624637  1
  P  P14  1  0.249010  0.143592  0.302663  1
  P  P15  1  0.250476  0.647845  0.802155  1
  C  C16  1  0.729427  0.905868  0.065943  1
  C  C17  1  0.651827  0.415054  0.551426  1
  C  C18  1  0.234573  0.712854  0.367441  1
  C  C19  1  0.284581  0.206131  0.877394  1
  O  O20  1  0.960948  0.873283  0.042772  1
  O  O21  1  0.819952  0.427780  0.013168  1
  O  O22  1  0.857266  0.418429  0.268888  1
  O  O23  1  0.899779  0.387154  0.550341  1
  O  O24  1  0.707412  0.619521  0.086480  1
  O  O25  1  0.806699  0.932032  0.507338  1
  O  O26  1  0.717053  0.121604  0.591979  1
  O  O27  1  0.858850  0.915802  0.765968  1
  O  O28  1  0.544577  0.186379  0.294442  1
  O  O29  1  0.691839  0.973985  0.143416  1
  O  O30  1  0.570681  0.486558  0.615993  1
  O  O31  1  0.401221  0.437381  0.132465  1
  O  O32  1  0.482106  0.358288  0.478328  1
  O  O33  1  0.431817  0.755641  0.442423  1
  O  O34  1  0.544242  0.689503  0.787386  1
  O  O35  1  0.279839  0.640213  0.295383  1
  O  O36  1  0.452707  0.232528  0.972544  1
  O  O37  1  0.321787  0.123692  0.815017  1
  O  O38  1  0.398373  0.944635  0.629290  1
  O  O39  1  0.527941  0.857830  0.000566  1
  O  O40  1  0.083026  0.202966  0.162236  1
  O  O41  1  0.249018  0.999564  0.337416  1
  O  O42  1  0.131471  0.185241  0.420801  1
  O  O43  1  0.229795  0.505348  0.833989  1
  O  O44  1  0.003354  0.754626  0.375778  1
  O  O45  1  0.079083  0.705906  0.661816  1
  O  O46  1  0.147957  0.693541  0.920700  1
  O  O47  1  0.067542  0.274588  0.847644  1
