# generated using pymatgen
data_LiAg2F4
_symmetry_space_group_name_H-M   'P 1'
_cell_length_a   6.06444233
_cell_length_b   7.00047763
_cell_length_c   9.69379689
_cell_angle_alpha   90.00000000
_cell_angle_beta   92.53562846
_cell_angle_gamma   90.00000000
_symmetry_Int_Tables_number   1
_chemical_formula_structural   LiAg2F4
_chemical_formula_sum   'Li4 Ag8 F16'
_cell_volume   411.13744666
_cell_formula_units_Z   4
loop_
 _symmetry_equiv_pos_site_id
 _symmetry_equiv_pos_as_xyz
  1  'x, y, z'
loop_
 _atom_site_type_symbol
 _atom_site_label
 _atom_site_symmetry_multiplicity
 _atom_site_fract_x
 _atom_site_fract_y
 _atom_site_fract_z
 _atom_site_occupancy
  Li  Li0  1  0.171238  0.280326  0.068230  1
  Li  Li1  1  0.328762  0.780326  0.431770  1
  Li  Li2  1  0.671238  0.219674  0.568230  1
  Li  Li3  1  0.828762  0.719674  0.931770  1
  Ag  Ag4  1  0.218750  0.007960  0.723466  1
  Ag  Ag5  1  0.199515  0.329406  0.445638  1
  Ag  Ag6  1  0.281250  0.507960  0.776534  1
  Ag  Ag7  1  0.300485  0.829406  0.054362  1
  Ag  Ag8  1  0.699515  0.170594  0.945638  1
  Ag  Ag9  1  0.718750  0.492040  0.223466  1
  Ag  Ag10  1  0.800485  0.670594  0.554362  1
  Ag  Ag11  1  0.781250  0.992040  0.276534  1
  F  F12  1  0.020227  0.744613  0.779831  1
  F  F13  1  0.056165  0.157037  0.899297  1
  F  F14  1  0.075514  0.624494  0.400134  1
  F  F15  1  0.246964  0.026186  0.489157  1
  F  F16  1  0.253036  0.526186  0.010843  1
  F  F17  1  0.443835  0.657037  0.600703  1
  F  F18  1  0.424486  0.124494  0.099866  1
  F  F19  1  0.479773  0.244613  0.720169  1
  F  F20  1  0.520227  0.755387  0.279831  1
  F  F21  1  0.575514  0.875506  0.900134  1
  F  F22  1  0.556165  0.342963  0.399297  1
  F  F23  1  0.746964  0.473814  0.989157  1
  F  F24  1  0.753036  0.973814  0.510843  1
  F  F25  1  0.924486  0.375506  0.599866  1
  F  F26  1  0.943835  0.842963  0.100703  1
  F  F27  1  0.979773  0.255387  0.220169  1
