# generated using pymatgen
data_Ti2N2O
_symmetry_space_group_name_H-M   'P 1'
_cell_length_a   8.22448804
_cell_length_b   8.22418002
_cell_length_c   8.23517447
_cell_angle_alpha   109.59604041
_cell_angle_beta   109.52533183
_cell_angle_gamma   109.43673155
_symmetry_Int_Tables_number   1
_chemical_formula_structural   Ti2N2O
_chemical_formula_sum   'Ti16 N16 O8'
_cell_volume   428.03094219
_cell_formula_units_Z   8
loop_
 _symmetry_equiv_pos_site_id
 _symmetry_equiv_pos_as_xyz
  1  'x, y, z'
loop_
 _atom_site_type_symbol
 _atom_site_label
 _atom_site_symmetry_multiplicity
 _atom_site_fract_x
 _atom_site_fract_y
 _atom_site_fract_z
 _atom_site_occupancy
  Ti  Ti0  1  0.957735  0.251243  0.204807  1
  Ti  Ti1  1  0.511412  0.007860  0.998813  1
  Ti  Ti2  1  0.701048  0.453167  0.237832  1
  Ti  Ti3  1  0.793274  0.048465  0.755774  1
  Ti  Ti4  1  0.749933  0.784520  0.038693  1
  Ti  Ti5  1  0.744764  0.284968  0.531679  1
  Ti  Ti6  1  0.011353  0.514036  0.999407  1
  Ti  Ti7  1  0.489663  0.495034  0.510381  1
  Ti  Ti8  1  0.551587  0.762569  0.306895  1
  Ti  Ti9  1  0.998468  0.996299  0.495268  1
  Ti  Ti10  1  0.447972  0.246943  0.708097  1
  Ti  Ti11  1  0.262104  0.711656  0.466101  1
  Ti  Ti12  1  0.244979  0.211974  0.953590  1
  Ti  Ti13  1  0.219427  0.955071  0.260882  1
  Ti  Ti14  1  0.286398  0.541951  0.744541  1
  Ti  Ti15  1  0.042023  0.741325  0.788171  1
  N  N16  1  0.765277  0.040932  0.492622  1
  N  N17  1  0.734889  0.228166  0.274855  1
  N  N18  1  0.461842  0.223553  0.448012  1
  N  N19  1  0.775026  0.723928  0.264265  1
  N  N20  1  0.050321  0.273489  0.009226  1
  N  N21  1  0.223290  0.446720  0.457512  1
  N  N22  1  0.277754  0.734913  0.223908  1
  N  N23  1  0.512966  0.237138  0.961671  1
  N  N24  1  0.547729  0.541749  0.774857  1
  N  N25  1  0.953321  0.727720  0.994543  1
  N  N26  1  0.223230  0.273963  0.738620  1
  N  N27  1  0.539788  0.772827  0.549219  1
  N  N28  1  0.036001  0.488654  0.764446  1
  N  N29  1  0.723479  0.988377  0.949236  1
  N  N30  1  0.230484  0.958672  0.506945  1
  N  N31  1  0.263162  0.774067  0.726430  1
  O  O32  1  0.957780  0.506210  0.231798  1
  O  O33  1  0.267592  0.008155  0.042075  1
  O  O34  1  0.454134  0.456926  0.225880  1
  O  O35  1  0.723362  0.261891  0.776206  1
  O  O36  1  0.006165  0.052582  0.278365  1
  O  O37  1  0.777940  0.555243  0.542045  1
  O  O38  1  0.491557  0.768207  0.043105  1
  O  O39  1  0.990775  0.948837  0.723228  1
