# generated using pymatgen
data_Li2Ni(PO3)5
_symmetry_space_group_name_H-M   'P 1'
_cell_length_a   7.01019277
_cell_length_b   7.01019277
_cell_length_c   13.54942462
_cell_angle_alpha   82.98232278
_cell_angle_beta   97.01767722
_cell_angle_gamma   66.95686829
_symmetry_Int_Tables_number   1
_chemical_formula_structural   Li2Ni(PO3)5
_chemical_formula_sum   'Li4 Ni2 P10 O30'
_cell_volume   597.51061089
_cell_formula_units_Z   2
loop_
 _symmetry_equiv_pos_site_id
 _symmetry_equiv_pos_as_xyz
  1  'x, y, z'
loop_
 _atom_site_type_symbol
 _atom_site_label
 _atom_site_symmetry_multiplicity
 _atom_site_fract_x
 _atom_site_fract_y
 _atom_site_fract_z
 _atom_site_occupancy
  Li  Li0  1  0.256752  0.250711  0.711456  1
  Li  Li1  1  0.749289  0.743248  0.211456  1
  Li  Li2  1  0.799193  0.376446  0.615824  1
  Li  Li3  1  0.623554  0.200807  0.115824  1
  Ni  Ni4  1  0.843757  0.900249  0.774370  1
  Ni  Ni5  1  0.099751  0.156243  0.274370  1
  P  P6  1  0.652703  0.962704  0.529904  1
  P  P7  1  0.284294  0.610860  0.549889  1
  P  P8  1  0.373747  0.819115  0.828494  1
  P  P9  1  0.037296  0.347297  0.029904  1
  P  P10  1  0.389140  0.715706  0.049889  1
  P  P11  1  0.180885  0.626253  0.328494  1
  P  P12  1  0.176661  0.092682  0.522192  1
  P  P13  1  0.907318  0.823339  0.022192  1
  P  P14  1  0.774018  0.446411  0.822911  1
  P  P15  1  0.553589  0.225982  0.322911  1
  O  O16  1  0.155511  0.839653  0.794294  1
  O  O17  1  0.160347  0.844489  0.294294  1
  O  O18  1  0.227899  0.513920  0.639722  1
  O  O19  1  0.486080  0.772101  0.139722  1
  O  O20  1  0.214137  0.852116  0.552849  1
  O  O21  1  0.147884  0.785863  0.052850  1
  O  O22  1  0.401829  0.845461  0.947360  1
  O  O23  1  0.154539  0.598171  0.447360  1
  O  O24  1  0.452586  0.966882  0.774576  1
  O  O25  1  0.033118  0.547414  0.274576  1
  O  O26  1  0.251232  0.299319  0.002613  1
  O  O27  1  0.700682  0.748768  0.502613  1
  O  O28  1  0.821970  0.925265  0.914199  1
  O  O29  1  0.518119  0.510076  0.549003  1
  O  O30  1  0.074735  0.178030  0.414199  1
  O  O31  1  0.531751  0.576657  0.833126  1
  O  O32  1  0.489924  0.481881  0.049003  1
  O  O33  1  0.423343  0.468249  0.333126  1
  O  O34  1  0.073991  0.206405  0.600578  1
  O  O35  1  0.793595  0.926009  0.100578  1
  O  O36  1  0.412345  0.078717  0.541687  1
  O  O37  1  0.921283  0.587655  0.041687  1
  O  O38  1  0.872918  0.592931  0.788006  1
  O  O39  1  0.407069  0.127082  0.288006  1
  O  O40  1  0.879361  0.326368  0.939130  1
  O  O41  1  0.673632  0.120639  0.439130  1
  O  O42  1  0.780402  0.282588  0.760103  1
  O  O43  1  0.717412  0.219598  0.260103  1
  O  O44  1  0.783316  0.977735  0.623513  1
  O  O45  1  0.022265  0.216684  0.123513  1
