# generated using pymatgen
data_Li8NbNi3(PO4)6
_symmetry_space_group_name_H-M   'P 1'
_cell_length_a   8.87873182
_cell_length_b   8.87873191
_cell_length_c   8.79108386
_cell_angle_alpha   120.33035857
_cell_angle_beta   59.66963635
_cell_angle_gamma   120.00000001
_symmetry_Int_Tables_number   1
_chemical_formula_structural   Li8NbNi3(PO4)6
_chemical_formula_sum   'Li8 Nb1 Ni3 P6 O24'
_cell_volume   487.57626105
_cell_formula_units_Z   1
loop_
 _symmetry_equiv_pos_site_id
 _symmetry_equiv_pos_as_xyz
  1  'x, y, z'
loop_
 _atom_site_type_symbol
 _atom_site_label
 _atom_site_symmetry_multiplicity
 _atom_site_fract_x
 _atom_site_fract_y
 _atom_site_fract_z
 _atom_site_occupancy
  Li  Li0  1  0.310130  0.349261  0.206122  1
  Li  Li1  1  0.833009  0.689870  0.206122  1
  Li  Li2  1  0.650739  0.166991  0.206122  1
  Li  Li3  1  0.974026  0.025974  0.077922  1
  Li  Li4  1  0.332729  0.841508  0.811202  1
  Li  Li5  1  0.477322  0.522680  0.568036  1
  Li  Li6  1  0.158492  0.302424  0.811202  1
  Li  Li7  1  0.697576  0.667271  0.811202  1
  Nb  Nb8  1  0.146345  0.853655  0.560964  1
  Ni  Ni9  1  0.650527  0.349473  0.048419  1
  Ni  Ni10  1  0.852226  0.147774  0.443321  1
  Ni  Ni11  1  0.347993  0.652007  0.956019  1
  P  P12  1  0.554630  0.752087  0.243757  1
  P  P13  1  0.247913  0.046301  0.243757  1
  P  P14  1  0.953699  0.445370  0.243757  1
  P  P15  1  0.045814  0.539997  0.747986  1
  P  P16  1  0.746196  0.954186  0.747986  1
  P  P17  1  0.460003  0.253804  0.747986  1
  O  O18  1  0.272564  0.874818  0.068814  1
  O  O19  1  0.125182  0.466560  0.068814  1
  O  O20  1  0.533440  0.727436  0.068814  1
  O  O21  1  0.179367  0.999191  0.420780  1
  O  O22  1  0.000809  0.600956  0.420780  1
  O  O23  1  0.751386  0.889199  0.242781  1
  O  O24  1  0.399044  0.820633  0.420780  1
  O  O25  1  0.538530  0.571345  0.247842  1
  O  O26  1  0.110801  0.104967  0.242781  1
  O  O27  1  0.428655  0.215026  0.247842  1
  O  O28  1  0.784974  0.461470  0.247842  1
  O  O29  1  0.010349  0.386832  0.572484  1
  O  O30  1  0.100549  0.738721  0.744362  1
  O  O31  1  0.803999  0.989651  0.572484  1
  O  O32  1  0.895033  0.248614  0.242781  1
  O  O33  1  0.222806  0.547147  0.754260  1
  O  O34  1  0.570082  0.777194  0.754260  1
  O  O35  1  0.893808  0.899451  0.744362  1
  O  O36  1  0.452853  0.429918  0.754260  1
  O  O37  1  0.613168  0.196001  0.572484  1
  O  O38  1  0.261279  0.106192  0.744362  1
  O  O39  1  0.468290  0.280060  0.930966  1
  O  O40  1  0.880804  0.531710  0.930966  1
  O  O41  1  0.719940  0.119196  0.930966  1
