# generated using pymatgen
data_LiMnP2HO7
_symmetry_space_group_name_H-M   'P 1'
_cell_length_a   6.61614617
_cell_length_b   6.63660124
_cell_length_c   6.59711309
_cell_angle_alpha   68.99980872
_cell_angle_beta   92.81466010
_cell_angle_gamma   97.20969817
_symmetry_Int_Tables_number   1
_chemical_formula_structural   LiMnP2HO7
_chemical_formula_sum   'Li2 Mn2 P4 H2 O14'
_cell_volume   268.28982448
_cell_formula_units_Z   2
loop_
 _symmetry_equiv_pos_site_id
 _symmetry_equiv_pos_as_xyz
  1  'x, y, z'
loop_
 _atom_site_type_symbol
 _atom_site_label
 _atom_site_symmetry_multiplicity
 _atom_site_fract_x
 _atom_site_fract_y
 _atom_site_fract_z
 _atom_site_occupancy
  Li  Li0  1  0.139618  0.251598  0.779364  1
  Li  Li1  1  0.860382  0.748402  0.220636  1
  Mn  Mn2  1  0.343937  0.110455  0.271180  1
  Mn  Mn3  1  0.656063  0.889545  0.728820  1
  P  P4  1  0.159725  0.782010  0.758107  1
  P  P5  1  0.385526  0.637423  0.183314  1
  P  P6  1  0.614474  0.362577  0.816686  1
  P  P7  1  0.840275  0.217990  0.241893  1
  H  H8  1  0.177467  0.676884  0.478126  1
  H  H9  1  0.822533  0.323116  0.521874  1
  O  O10  1  0.094078  0.623246  0.630122  1
  O  O11  1  0.015908  0.113181  0.194676  1
  O  O12  1  0.238485  0.618233  0.981284  1
  O  O13  1  0.272738  0.773334  0.279910  1
  O  O14  1  0.335532  0.949476  0.640387  1
  O  O15  1  0.386899  0.404421  0.332205  1
  O  O16  1  0.409211  0.242518  0.916747  1
  O  O17  1  0.590789  0.757482  0.083253  1
  O  O18  1  0.613101  0.595579  0.667795  1
  O  O19  1  0.664468  0.050524  0.359613  1
  O  O20  1  0.727262  0.226666  0.720090  1
  O  O21  1  0.761515  0.381767  0.018716  1
  O  O22  1  0.984092  0.886819  0.805324  1
  O  O23  1  0.905922  0.376754  0.369878  1
