# generated using pymatgen
data_Li6FeCo9O20
_symmetry_space_group_name_H-M   'P 1'
_cell_length_a   7.74288995
_cell_length_b   4.98589666
_cell_length_c   9.81604530
_cell_angle_alpha   85.80845187
_cell_angle_beta   81.11076712
_cell_angle_gamma   70.31131475
_symmetry_Int_Tables_number   1
_chemical_formula_structural   Li6FeCo9O20
_chemical_formula_sum   'Li6 Fe1 Co9 O20'
_cell_volume   352.42070143
_cell_formula_units_Z   1
loop_
 _symmetry_equiv_pos_site_id
 _symmetry_equiv_pos_as_xyz
  1  'x, y, z'
loop_
 _atom_site_type_symbol
 _atom_site_label
 _atom_site_symmetry_multiplicity
 _atom_site_fract_x
 _atom_site_fract_y
 _atom_site_fract_z
 _atom_site_occupancy
  Li  Li0  1  0.099557  0.695675  0.502115  1
  Li  Li1  1  0.200443  0.404325  0.997885  1
  Li  Li2  1  0.495943  0.504133  0.500883  1
  Li  Li3  1  0.598129  0.204193  0.998576  1
  Li  Li4  1  0.701871  0.895807  0.501424  1
  Li  Li5  1  0.804057  0.595867  -0.000883  1
  Fe  Fe6  1  0.150000  0.050000  0.250000  1
  Co  Co7  1  0.052321  0.351009  0.743801  1
  Co  Co8  1  0.348220  0.451174  0.250005  1
  Co  Co9  1  0.247679  0.748991  0.756199  1
  Co  Co10  1  0.452685  0.150316  0.747129  1
  Co  Co11  1  0.547896  0.851198  0.249447  1
  Co  Co12  1  0.752104  0.248802  0.250553  1
  Co  Co13  1  0.650000  0.550000  0.750000  1
  Co  Co14  1  0.951780  0.648826  0.249995  1
  Co  Co15  1  0.847315  0.949684  0.752871  1
  O  O16  1  0.063217  0.008441  0.655205  1
  O  O17  1  0.132352  0.399944  0.351978  1
  O  O18  1  0.167648  0.700056  0.148022  1
  O  O19  1  0.013795  0.666975  0.858112  1
  O  O20  1  0.236783  0.091559  0.844795  1
  O  O21  1  0.369578  0.147101  0.140793  1
  O  O22  1  0.286205  0.433025  0.641888  1
  O  O23  1  0.328809  0.754290  0.359365  1
  O  O24  1  0.522844  0.187119  0.356741  1
  O  O25  1  0.421629  0.462145  0.856059  1
  O  O26  1  0.562666  0.521091  0.142613  1
  O  O27  1  0.489772  0.821230  0.643672  1
  O  O28  1  0.665297  0.209586  0.645293  1
  O  O29  1  0.737334  0.578909  0.357387  1
  O  O30  1  0.777156  0.912881  0.143259  1
  O  O31  1  0.634703  0.890414  0.854707  1
  O  O32  1  0.971191  0.345710  0.140635  1
  O  O33  1  0.810228  0.278770  0.856328  1
  O  O34  1  0.878371  0.637855  0.643941  1
  O  O35  1  0.930422  0.952899  0.359206  1
