# generated using pymatgen
data_Li5Fe8(BO3)8
_symmetry_space_group_name_H-M   'P 1'
_cell_length_a   5.22970275
_cell_length_b   9.12321676
_cell_length_c   11.38655928
_cell_angle_alpha   67.27967023
_cell_angle_beta   77.35627782
_cell_angle_gamma   89.93667548
_symmetry_Int_Tables_number   1
_chemical_formula_structural   Li5Fe8(BO3)8
_chemical_formula_sum   'Li5 Fe8 B8 O24'
_cell_volume   486.85726658
_cell_formula_units_Z   1
loop_
 _symmetry_equiv_pos_site_id
 _symmetry_equiv_pos_as_xyz
  1  'x, y, z'
loop_
 _atom_site_type_symbol
 _atom_site_label
 _atom_site_symmetry_multiplicity
 _atom_site_fract_x
 _atom_site_fract_y
 _atom_site_fract_z
 _atom_site_occupancy
  Li  Li0  1  0.705297  0.725776  0.917096  1
  Li  Li1  1  0.519836  0.494403  0.658944  1
  Li  Li2  1  0.467227  0.464085  0.410864  1
  Li  Li3  1  0.014421  0.994535  0.664874  1
  Li  Li4  1  0.232232  0.244371  0.165190  1
  Fe  Fe5  1  0.964958  0.657719  0.376355  1
  Fe  Fe6  1  0.737526  0.072604  0.881690  1
  Fe  Fe7  1  0.537402  0.844186  0.622349  1
  Fe  Fe8  1  0.754704  0.440478  0.135921  1
  Fe  Fe9  1  0.223349  0.561900  0.879213  1
  Fe  Fe10  1  0.487624  0.140509  0.381553  1
  Fe  Fe11  1  0.027848  0.347117  0.632386  1
  Fe  Fe12  1  0.260634  0.926555  0.127296  1
  B  B13  1  0.990953  0.318908  0.377591  1
  B  B14  1  0.737730  0.406432  0.871366  1
  B  B15  1  0.529859  0.186638  0.621777  1
  B  B16  1  0.761088  0.101268  0.133245  1
  B  B17  1  0.466497  0.810522  0.373680  1
  B  B18  1  0.227015  0.885892  0.883142  1
  B  B19  1  0.019681  0.682179  0.633712  1
  B  B20  1  0.269165  0.604997  0.122963  1
  O  O21  1  0.980202  0.903245  0.860033  1
  O  O22  1  0.881162  0.297783  0.837301  1
  O  O23  1  0.849704  0.507924  0.917533  1
  O  O24  1  0.906032  0.816047  0.635292  1
  O  O25  1  0.909026  0.577462  0.592603  1
  O  O26  1  0.759682  0.153944  0.664284  1
  O  O27  1  0.736050  0.324435  0.352966  1
  O  O28  1  0.481460  0.422384  0.859504  1
  O  O29  1  0.378075  0.771772  0.848581  1
  O  O30  1  0.551900  0.920821  0.418718  1
  O  O31  1  0.582484  0.672839  0.391599  1
  O  O32  1  0.345759  0.975776  0.933007  1
  O  O33  1  0.630013  0.011437  0.087911  1
  O  O34  1  0.415343  0.325698  0.611360  1
  O  O35  1  0.412341  0.077285  0.582924  1
  O  O36  1  0.614262  0.206233  0.180293  1
  O  O37  1  0.533767  0.615948  0.111771  1
  O  O38  1  0.255741  0.648075  0.677412  1
  O  O39  1  0.249587  0.842681  0.318746  1
  O  O40  1  0.083646  0.427829  0.417260  1
  O  O41  1  0.147276  0.205155  0.355405  1
  O  O42  1  0.159024  0.489819  0.086522  1
  O  O43  1  0.111668  0.708141  0.162229  1
  O  O44  1  0.023716  0.092852  0.131503  1
