# generated using pymatgen
data_Na5Cr2As(CO4)4
_symmetry_space_group_name_H-M   'P 1'
_cell_length_a   9.92761835
_cell_length_b   9.93880080
_cell_length_c   9.87907516
_cell_angle_alpha   119.87613575
_cell_angle_beta   60.23639972
_cell_angle_gamma   120.36026397
_symmetry_Int_Tables_number   1
_chemical_formula_structural   Na5Cr2As(CO4)4
_chemical_formula_sum   'Na10 Cr4 As2 C8 O32'
_cell_volume   689.21360296
_cell_formula_units_Z   2
loop_
 _symmetry_equiv_pos_site_id
 _symmetry_equiv_pos_as_xyz
  1  'x, y, z'
loop_
 _atom_site_type_symbol
 _atom_site_label
 _atom_site_symmetry_multiplicity
 _atom_site_fract_x
 _atom_site_fract_y
 _atom_site_fract_z
 _atom_site_occupancy
  Na  Na0  1  0.914043  0.158014  0.924126  1
  Na  Na1  1  0.914371  0.156848  0.318824  1
  Na  Na2  1  0.680154  0.424126  0.658014  1
  Na  Na3  1  0.681176  0.423654  0.085629  1
  Na  Na4  1  0.329155  0.170845  0.920845  1
  Na  Na5  1  0.341986  0.585957  0.319846  1
  Na  Na6  1  0.343152  0.585629  0.923654  1
  Na  Na7  1  0.079155  0.420845  0.670845  1
  Na  Na8  1  0.075874  0.819846  0.085957  1
  Na  Na9  1  0.076346  0.818824  0.656848  1
  Cr  Cr10  1  0.499763  0.999343  0.002286  1
  Cr  Cr11  1  0.500657  0.000237  0.497294  1
  Cr  Cr12  1  0.502706  0.502286  0.499343  1
  Cr  Cr13  1  0.997714  0.997294  0.500237  1
  As  As14  1  0.873127  0.626873  0.876873  1
  As  As15  1  0.123127  0.376873  0.126873  1
  C  C16  1  0.712666  0.137728  0.712541  1
  C  C17  1  0.635221  0.214335  0.290856  1
  C  C18  1  0.287479  0.212541  0.637728  1
  C  C19  1  0.287459  0.212521  0.287334  1
  C  C20  1  0.711742  0.790856  0.714335  1
  C  C21  1  0.709144  0.788258  0.364779  1
  C  C22  1  0.362272  0.787334  0.712521  1
  C  C23  1  0.285665  0.864779  0.288258  1
  O  O24  1  0.855730  0.140378  0.686684  1
  O  O25  1  0.641282  0.101478  0.315722  1
  O  O26  1  0.687492  0.141457  0.597470  1
  O  O27  1  0.639636  0.188970  0.145838  1
  O  O28  1  0.598150  0.139452  0.855231  1
  O  O29  1  0.946062  0.553364  0.662949  1
  O  O30  1  0.946636  0.553938  0.944355  1
  O  O31  1  0.631912  0.353972  0.406948  1
  O  O32  1  0.313316  0.097964  0.144270  1
  O  O33  1  0.402036  0.186684  0.640378  1
  O  O34  1  0.961236  0.837729  0.937883  1
  O  O35  1  0.662271  0.538764  0.938611  1
  O  O36  1  0.855527  0.815722  0.601478  1
  O  O37  1  0.684278  0.644473  0.358718  1
  O  O38  1  0.402530  0.356496  0.312508  1
  O  O39  1  0.143504  0.097470  0.641457  1
  O  O40  1  0.854162  0.903496  0.360364  1
  O  O41  1  0.596504  0.645838  0.688970  1
  O  O42  1  0.313929  0.355231  0.639452  1
  O  O43  1  0.144769  0.186071  0.401850  1
  O  O44  1  0.337051  0.444355  0.053938  1
  O  O45  1  0.055645  0.162949  0.053364  1
  O  O46  1  0.684888  0.906948  0.853972  1
  O  O47  1  0.593052  0.815112  0.368088  1
  O  O48  1  0.359622  0.644270  0.597964  1
  O  O49  1  0.062117  0.438611  0.038764  1
  O  O50  1  0.061389  0.437883  0.337729  1
  O  O51  1  0.398522  0.858718  0.144473  1
  O  O52  1  0.358543  0.812508  0.856496  1
  O  O53  1  0.311030  0.860364  0.403496  1
  O  O54  1  0.360548  0.901850  0.686071  1
  O  O55  1  0.146028  0.868088  0.315112  1
