# generated using pymatgen
data_Na2SmPCO7
_symmetry_space_group_name_H-M   'P 1'
_cell_length_a   9.41393056
_cell_length_b   7.11187632
_cell_length_c   5.18577661
_cell_angle_alpha   90.00000000
_cell_angle_beta   90.82261785
_cell_angle_gamma   90.00000000
_symmetry_Int_Tables_number   1
_chemical_formula_structural   Na2SmPCO7
_chemical_formula_sum   'Na4 Sm2 P2 C2 O14'
_cell_volume   347.15564138
_cell_formula_units_Z   2
loop_
 _symmetry_equiv_pos_site_id
 _symmetry_equiv_pos_as_xyz
  1  'x, y, z'
loop_
 _atom_site_type_symbol
 _atom_site_label
 _atom_site_symmetry_multiplicity
 _atom_site_fract_x
 _atom_site_fract_y
 _atom_site_fract_z
 _atom_site_occupancy
  Na  Na0  1  0.205729  0.494673  0.228592  1
  Na  Na1  1  0.205729  0.005327  0.228592  1
  Na  Na2  1  0.794271  0.505327  0.771408  1
  Na  Na3  1  0.794271  0.994673  0.771408  1
  Sm  Sm4  1  0.377181  0.750000  0.764062  1
  Sm  Sm5  1  0.622819  0.250000  0.235938  1
  P  P6  1  0.412938  0.250000  0.706760  1
  P  P7  1  0.587062  0.750000  0.293240  1
  C  C8  1  0.076491  0.750000  0.730952  1
  C  C9  1  0.923509  0.250000  0.269048  1
  O  O10  1  0.057257  0.250000  0.298885  1
  O  O11  1  0.140453  0.750000  0.957159  1
  O  O12  1  0.163433  0.750000  0.531518  1
  O  O13  1  0.350488  0.071372  0.831855  1
  O  O14  1  0.350488  0.428628  0.831855  1
  O  O15  1  0.420228  0.750000  0.250660  1
  O  O16  1  0.389120  0.250000  0.408823  1
  O  O17  1  0.610880  0.750000  0.591177  1
  O  O18  1  0.579772  0.250000  0.749340  1
  O  O19  1  0.649512  0.571372  0.168145  1
  O  O20  1  0.649512  0.928628  0.168145  1
  O  O21  1  0.836567  0.250000  0.468482  1
  O  O22  1  0.859547  0.250000  0.042841  1
  O  O23  1  0.942743  0.750000  0.701115  1
