# generated using pymatgen
data_Li6V3P8O29
_symmetry_space_group_name_H-M   'P 1'
_cell_length_a   9.81283909
_cell_length_b   9.79783840
_cell_length_c   13.96271924
_cell_angle_alpha   90.01934816
_cell_angle_beta   89.75323084
_cell_angle_gamma   59.97196114
_symmetry_Int_Tables_number   1
_chemical_formula_structural   Li6V3P8O29
_chemical_formula_sum   'Li12 V6 P16 O58'
_cell_volume   1162.24311882
_cell_formula_units_Z   2
loop_
 _symmetry_equiv_pos_site_id
 _symmetry_equiv_pos_as_xyz
  1  'x, y, z'
loop_
 _atom_site_type_symbol
 _atom_site_label
 _atom_site_symmetry_multiplicity
 _atom_site_fract_x
 _atom_site_fract_y
 _atom_site_fract_z
 _atom_site_occupancy
  Li  Li0  1  0.907078  0.763481  0.061562  1
  Li  Li1  1  0.762064  0.904313  0.561900  1
  Li  Li2  1  0.905958  0.334325  0.560221  1
  Li  Li3  1  0.660955  0.674423  0.885625  1
  Li  Li4  1  0.765973  0.322401  0.061303  1
  Li  Li5  1  0.324223  0.907133  0.063524  1
  Li  Li6  1  0.667143  0.235390  0.439959  1
  Li  Li7  1  0.338993  0.760654  0.560403  1
  Li  Li8  1  0.099982  0.666239  0.439785  1
  Li  Li9  1  0.099070  0.233096  0.942297  1
  Li  Li10  1  0.988791  0.967038  0.996200  1
  Li  Li11  1  0.037416  0.016617  0.494325  1
  V  V12  1  0.562513  0.437190  0.246827  1
  V  V13  1  0.434776  0.562266  0.753873  1
  V  V14  1  0.559633  0.003216  0.749466  1
  V  V15  1  0.436553  0.002465  0.251448  1
  V  V16  1  0.000292  0.565551  0.250380  1
  V  V17  1  0.001482  0.436669  0.747830  1
  P  P18  1  0.905225  0.779473  0.842571  1
  P  P19  1  0.772231  0.914656  0.344865  1
  P  P20  1  0.909917  0.314400  0.342320  1
  P  P21  1  0.666421  0.669024  0.127413  1
  P  P22  1  0.665925  0.665324  0.629831  1
  P  P23  1  0.778605  0.313808  0.843945  1
  P  P24  1  0.690842  0.225678  0.658353  1
  P  P25  1  0.313261  0.911196  0.844533  1
  P  P26  1  0.696713  0.081975  0.159157  1
  P  P27  1  0.312138  0.774253  0.342682  1
  P  P28  1  0.220236  0.693722  0.157811  1
  P  P29  1  0.335017  0.334115  0.368079  1
  P  P30  1  0.330616  0.332584  0.870102  1
  P  P31  1  0.086288  0.689982  0.658277  1
  P  P32  1  0.222449  0.082021  0.657782  1
  P  P33  1  0.087111  0.225345  0.158323  1
  O  O34  1  0.997562  0.777232  0.569342  1
  O  O35  1  0.919080  0.747020  0.341818  1
  O  O36  1  0.807733  0.991634  0.078813  1
  O  O37  1  0.738078  0.919214  0.836303  1
  O  O38  1  0.894986  0.626604  0.829003  1
  O  O39  1  0.810933  0.678198  0.166455  1
  O  O40  1  0.911198  0.470571  0.328634  1
  O  O41  1  0.998558  0.226595  0.069436  1
  O  O42  1  0.923997  0.336570  0.839953  1
  O  O43  1  0.675124  0.810618  0.669815  1
  O  O44  1  0.621987  0.906103  0.329970  1
  O  O45  1  0.812649  0.511083  0.670570  1
  O  O46  1  0.665422  0.672134  0.019201  1
  O  O47  1  0.666215  0.660744  0.522842  1
  O  O48  1  0.676633  0.513750  0.164975  1
  O  O49  1  0.478500  0.894975  0.830197  1
  O  O50  1  0.512290  0.813285  0.168157  1
  O  O51  1  0.740112  0.342389  0.338291  1
  O  O52  1  0.796005  0.206458  0.752064  1
  O  O53  1  0.782537  0.222488  0.569660  1
  O  O54  1  0.781742  0.229939  0.934106  1
  O  O55  1  0.629025  0.479522  0.831320  1
  O  O56  1  0.513633  0.673059  0.673381  1
  O  O57  1  0.660286  0.256304  0.159249  1
  O  O58  1  0.467009  0.615266  0.327668  1
  O  O59  1  0.343227  0.910771  0.337731  1
  O  O60  1  0.793199  0.010413  0.258202  1
  O  O61  1  0.770494  0.999214  0.436144  1
  O  O62  1  0.206752  0.986947  0.578468  1
  O  O63  1  0.665827  0.082860  0.658256  1
  O  O64  1  0.535468  0.381587  0.669296  1
  O  O65  1  0.335964  0.745581  0.840894  1
  O  O66  1  0.489623  0.324403  0.327457  1
  O  O67  1  0.377703  0.539972  0.165156  1
  O  O68  1  0.201733  0.801818  0.076580  1
  O  O69  1  0.227781  0.775610  0.434793  1
  O  O70  1  0.196038  0.789950  0.257150  1
  O  O71  1  0.254615  0.662221  0.657856  1
  O  O72  1  0.473294  0.185437  0.821163  1
  O  O73  1  0.544981  0.074570  0.164632  1
  O  O74  1  0.336267  0.477014  0.824858  1
  O  O75  1  0.328236  0.329076  0.976146  1
  O  O76  1  0.337162  0.333257  0.474812  1
  O  O77  1  0.188513  0.489271  0.329620  1
  O  O78  1  0.382807  0.073261  0.662556  1
  O  O79  1  0.331598  0.189555  0.320125  1
  O  O80  1  0.081606  0.658922  0.159110  1
  O  O81  1  0.001767  0.793699  0.752324  1
  O  O82  1  0.985444  0.782135  0.933285  1
  O  O83  1  0.085978  0.533148  0.669292  1
  O  O84  1  0.181139  0.333041  0.828139  1
  O  O85  1  0.090615  0.378569  0.172333  1
  O  O86  1  0.253423  0.081264  0.158839  1
  O  O87  1  0.232156  0.999623  0.935403  1
  O  O88  1  0.200376  0.011233  0.758169  1
  O  O89  1  0.083970  0.253166  0.656320  1
  O  O90  1  0.987080  0.228385  0.433109  1
  O  O91  1  0.998841  0.204485  0.251113  1
