# generated using pymatgen
data_Co6C13(SeO6)2
_symmetry_space_group_name_H-M   'P 1'
_cell_length_a   9.39739694
_cell_length_b   9.37261213
_cell_length_c   15.49575385
_cell_angle_alpha   77.04757458
_cell_angle_beta   72.47347705
_cell_angle_gamma   60.12280846
_symmetry_Int_Tables_number   1
_chemical_formula_structural   Co6C13(SeO6)2
_chemical_formula_sum   'Co12 C26 Se4 O24'
_cell_volume   1123.96136210
_cell_formula_units_Z   2
loop_
 _symmetry_equiv_pos_site_id
 _symmetry_equiv_pos_as_xyz
  1  'x, y, z'
loop_
 _atom_site_type_symbol
 _atom_site_label
 _atom_site_symmetry_multiplicity
 _atom_site_fract_x
 _atom_site_fract_y
 _atom_site_fract_z
 _atom_site_occupancy
  Co  Co0  1  0.556251  0.208679  0.532569  1
  Co  Co1  1  0.271723  0.679319  0.857004  1
  Co  Co2  1  0.507479  0.470899  0.323826  1
  Co  Co3  1  0.785207  0.379404  0.352183  1
  Co  Co4  1  0.199149  0.969672  0.824448  1
  Co  Co5  1  0.982151  0.880646  0.852710  1
  Co  Co6  1  0.649263  0.411621  0.527186  1
  Co  Co7  1  0.373615  0.500788  0.499061  1
  Co  Co8  1  0.690460  0.176798  0.357479  1
  Co  Co9  1  0.128024  0.001595  0.999417  1
  Co  Co10  1  0.201861  0.708105  0.032602  1
  Co  Co11  1  0.913771  0.912285  0.027016  1
  C  C12  1  0.997360  0.244489  0.359549  1
  C  C13  1  0.492917  0.594274  0.832087  1
  C  C14  1  0.413199  0.631877  0.037419  1
  C  C15  1  0.093083  0.178561  0.782965  1
  C  C16  1  0.808109  0.066914  0.827354  1
  C  C17  1  0.873738  0.990048  0.369904  1
  C  C18  1  0.728824  0.102994  0.030431  1
  C  C19  1  0.400255  0.958209  0.798664  1
  C  C20  1  0.593479  0.358523  0.432100  1
  C  C21  1  0.184289  0.499372  0.503434  1
  C  C22  1  0.262064  0.493097  0.870215  1
  C  C23  1  0.578395  0.091676  0.331852  1
  C  C24  1  0.444181  0.681542  0.282820  1
  C  C25  1  0.000464  0.217966  0.988065  1
  C  C26  1  0.345374  0.456917  0.297489  1
  C  C27  1  0.296976  0.716493  0.486778  1
  C  C28  1  0.116110  0.858491  0.932557  1
  C  C29  1  0.835233  0.280172  0.566792  1
  C  C30  1  0.416876  0.131400  0.537794  1
  C  C31  1  0.899787  0.744659  0.857430  1
  C  C32  1  0.640659  0.602944  0.530482  1
  C  C33  1  0.314392  0.002704  0.002090  1
  C  C34  1  0.798920  0.566125  0.326813  1
  C  C35  1  0.176535  0.528296  0.074531  1
  C  C36  1  0.819823  0.780474  0.064253  1
  C  C37  1  0.719134  0.027250  0.572903  1
  Se  Se38  1  0.034670  0.893439  0.140740  1
  Se  Se39  1  0.432019  0.395046  0.640261  1
  Se  Se40  1  0.194794  0.824919  0.724163  1
  Se  Se41  1  0.753448  0.321958  0.224463  1
  O  O42  1  0.844660  0.658699  0.856540  1
  O  O43  1  0.956907  0.194639  0.593592  1
  O  O44  1  0.551795  0.586194  0.039694  1
  O  O45  1  0.244185  0.858840  0.478348  1
  O  O46  1  0.325513  0.079746  0.541534  1
  O  O47  1  0.692031  0.187096  0.809834  1
  O  O48  1  0.162710  0.409503  0.104061  1
  O  O49  1  0.260628  0.367516  0.878374  1
  O  O50  1  0.632599  0.728296  0.536294  1
  O  O51  1  0.917179  0.360150  0.982190  1
  O  O52  1  0.238534  0.448800  0.279371  1
  O  O53  1  0.760035  0.691891  0.090392  1
  O  O54  1  0.603884  0.225794  0.035626  1
  O  O55  1  0.812616  0.686611  0.309249  1
  O  O56  1  0.028487  0.313695  0.751562  1
  O  O57  1  0.060157  0.498364  0.505748  1
  O  O58  1  0.530658  0.956361  0.778615  1
  O  O59  1  0.638514  0.536321  0.812593  1
  O  O60  1  0.436012  0.005272  0.003317  1
  O  O61  1  0.137617  0.158658  0.361693  1
  O  O62  1  0.826673  0.909571  0.599672  1
  O  O63  1  0.993016  0.865196  0.377418  1
  O  O64  1  0.399809  0.817798  0.252382  1
  O  O65  1  0.509290  0.036013  0.310780  1
