# generated using pymatgen
data_Li4V(BO3)2
_symmetry_space_group_name_H-M   'P 1'
_cell_length_a   9.26768779
_cell_length_b   7.87214635
_cell_length_c   3.38018300
_cell_angle_alpha   90.00000000
_cell_angle_beta   90.00000000
_cell_angle_gamma   90.00000000
_symmetry_Int_Tables_number   1
_chemical_formula_structural   Li4V(BO3)2
_chemical_formula_sum   'Li8 V2 B4 O12'
_cell_volume   246.60664084
_cell_formula_units_Z   2
loop_
 _symmetry_equiv_pos_site_id
 _symmetry_equiv_pos_as_xyz
  1  'x, y, z'
loop_
 _atom_site_type_symbol
 _atom_site_label
 _atom_site_symmetry_multiplicity
 _atom_site_fract_x
 _atom_site_fract_y
 _atom_site_fract_z
 _atom_site_occupancy
  Li  Li0  1  0.051828  0.175728  0.500000  1
  Li  Li1  1  0.198841  0.010110  0.000000  1
  Li  Li2  1  0.301159  0.510110  0.500000  1
  Li  Li3  1  0.448172  0.675728  0.000000  1
  Li  Li4  1  0.551828  0.324272  0.000000  1
  Li  Li5  1  0.698841  0.489890  0.500000  1
  Li  Li6  1  0.801159  0.989890  0.000000  1
  Li  Li7  1  0.948172  0.824272  0.500000  1
  V  V8  1  0.000000  0.500000  0.000000  1
  V  V9  1  0.500000  0.000000  0.500000  1
  B  B10  1  0.204389  0.771706  0.500000  1
  B  B11  1  0.295611  0.271706  0.000000  1
  B  B12  1  0.704389  0.728294  0.000000  1
  B  B13  1  0.795611  0.228294  0.500000  1
  O  O14  1  0.117892  0.623389  0.500000  1
  O  O15  1  0.145681  0.257924  0.000000  1
  O  O16  1  0.138129  0.926686  0.500000  1
  O  O17  1  0.361871  0.426686  0.000000  1
  O  O18  1  0.354319  0.757924  0.500000  1
  O  O19  1  0.382108  0.123389  0.000000  1
  O  O20  1  0.617892  0.876611  0.000000  1
  O  O21  1  0.645681  0.242076  0.500000  1
  O  O22  1  0.638129  0.573314  0.000000  1
  O  O23  1  0.861871  0.073314  0.500000  1
  O  O24  1  0.854319  0.742076  0.000000  1
  O  O25  1  0.882108  0.376611  0.500000  1
