# generated using pymatgen
data_LiTi3VO8
_symmetry_space_group_name_H-M   'P 1'
_cell_length_a   5.98574777
_cell_length_b   5.98556286
_cell_length_c   6.12296775
_cell_angle_alpha   90.00073736
_cell_angle_beta   60.75095622
_cell_angle_gamma   60.00087765
_symmetry_Int_Tables_number   1
_chemical_formula_structural   LiTi3VO8
_chemical_formula_sum   'Li1 Ti3 V1 O8'
_cell_volume   156.85946995
_cell_formula_units_Z   1
loop_
 _symmetry_equiv_pos_site_id
 _symmetry_equiv_pos_as_xyz
  1  'x, y, z'
loop_
 _atom_site_type_symbol
 _atom_site_label
 _atom_site_symmetry_multiplicity
 _atom_site_fract_x
 _atom_site_fract_y
 _atom_site_fract_z
 _atom_site_occupancy
  Li  Li0  1  0.000000  0.500000  0.500000  1
  Ti  Ti1  1  0.000000  0.500000  0.000000  1
  Ti  Ti2  1  0.500000  0.500000  0.000000  1
  Ti  Ti3  1  0.500001  0.000000  0.000000  1
  V  V4  1  0.000000  0.999999  0.000000  1
  O  O5  1  0.463085  0.268460  0.805301  1
  O  O6  1  0.481022  0.759490  0.798829  1
  O  O7  1  0.960596  0.279921  0.798821  1
  O  O8  1  0.960592  0.759475  0.798818  1
  O  O9  1  0.039408  0.240524  0.201182  1
  O  O10  1  0.039404  0.720079  0.201179  1
  O  O11  1  0.518979  0.240510  0.201172  1
  O  O12  1  0.536914  0.731540  0.194699  1
