# generated using pymatgen
data_Ni3Sb(PO4)4
_symmetry_space_group_name_H-M   'P 1'
_cell_length_a   4.85610050
_cell_length_b   9.96260723
_cell_length_c   5.87642391
_cell_angle_alpha   90.00000000
_cell_angle_beta   90.00000000
_cell_angle_gamma   90.14012549
_symmetry_Int_Tables_number   1
_chemical_formula_structural   Ni3Sb(PO4)4
_chemical_formula_sum   'Ni3 Sb1 P4 O16'
_cell_volume   284.29714154
_cell_formula_units_Z   1
loop_
 _symmetry_equiv_pos_site_id
 _symmetry_equiv_pos_as_xyz
  1  'x, y, z'
loop_
 _atom_site_type_symbol
 _atom_site_label
 _atom_site_symmetry_multiplicity
 _atom_site_fract_x
 _atom_site_fract_y
 _atom_site_fract_z
 _atom_site_occupancy
  Ni  Ni0  1  0.035214  0.729636  0.750000  1
  Ni  Ni1  1  0.454942  0.224358  0.750000  1
  Ni  Ni2  1  0.545331  0.765193  0.250000  1
  Sb  Sb3  1  0.966744  0.280270  0.250000  1
  P  P4  1  0.089988  0.600982  0.250000  1
  P  P5  1  0.399508  0.090096  0.250000  1
  P  P6  1  0.595851  0.901390  0.750000  1
  P  P7  1  0.921374  0.413219  0.750000  1
  O  O8  1  0.187043  0.443884  0.250000  1
  O  O9  1  0.234084  0.666946  0.043076  1
  O  O10  1  0.234084  0.666946  0.456924  1
  O  O11  1  0.225206  0.386884  0.750000  1
  O  O12  1  0.279874  0.890156  0.750000  1
  O  O13  1  0.248120  0.172299  0.050957  1
  O  O14  1  0.248120  0.172299  0.449043  1
  O  O15  1  0.340354  0.944688  0.250000  1
  O  O16  1  0.657868  0.052926  0.750000  1
  O  O17  1  0.736778  0.830849  0.544167  1
  O  O18  1  0.736778  0.830849  0.955833  1
  O  O19  1  0.715387  0.120630  0.250000  1
  O  O20  1  0.779782  0.599891  0.250000  1
  O  O21  1  0.770850  0.330120  0.543507  1
  O  O22  1  0.770850  0.330120  0.956493  1
  O  O23  1  0.825872  0.555367  0.750000  1
