# generated using pymatgen
data_Sr(BRh)2
_symmetry_space_group_name_H-M   'P 1'
_cell_length_a   5.62313149
_cell_length_b   5.62313149
_cell_length_c   6.16374626
_cell_angle_alpha   105.41202930
_cell_angle_beta   105.41202939
_cell_angle_gamma   114.66942797
_symmetry_Int_Tables_number   1
_chemical_formula_structural   Sr(BRh)2
_chemical_formula_sum   'Sr2 B4 Rh4'
_cell_volume   154.14962454
_cell_formula_units_Z   2
loop_
 _symmetry_equiv_pos_site_id
 _symmetry_equiv_pos_as_xyz
  1  'x, y, z'
loop_
 _atom_site_type_symbol
 _atom_site_label
 _atom_site_symmetry_multiplicity
 _atom_site_fract_x
 _atom_site_fract_y
 _atom_site_fract_z
 _atom_site_occupancy
  B  B0  1  0.546637  0.453363  0.250000  1
  B  B1  1  0.796637  0.203363  0.750000  1
  B  B2  1  0.203363  0.796637  0.250000  1
  B  B3  1  0.453363  0.546637  0.750000  1
  Sr  Sr4  1  0.875000  0.125000  0.250000  1
  Sr  Sr5  1  0.125000  0.875000  0.750000  1
  Rh  Rh6  1  0.505719  0.755719  0.511439  1
  Rh  Rh7  1  0.755719  0.505719  0.011439  1
  Rh  Rh8  1  0.494281  0.244281  0.488561  1
  Rh  Rh9  1  0.244281  0.494281  0.988561  1
