# generated using pymatgen
data_LiMn2(SO4)3
_symmetry_space_group_name_H-M   'P 1'
_cell_length_a   8.47222686
_cell_length_b   8.80867070
_cell_length_c   12.49512835
_cell_angle_alpha   90.00000000
_cell_angle_beta   88.37367254
_cell_angle_gamma   90.00000000
_symmetry_Int_Tables_number   1
_chemical_formula_structural   LiMn2(SO4)3
_chemical_formula_sum   'Li4 Mn8 S12 O48'
_cell_volume   932.12401000
_cell_formula_units_Z   4
loop_
 _symmetry_equiv_pos_site_id
 _symmetry_equiv_pos_as_xyz
  1  'x, y, z'
loop_
 _atom_site_type_symbol
 _atom_site_label
 _atom_site_symmetry_multiplicity
 _atom_site_fract_x
 _atom_site_fract_y
 _atom_site_fract_z
 _atom_site_occupancy
  Li  Li0  1  0.194661  0.714722  0.821418  1
  Li  Li1  1  0.305339  0.214722  0.678582  1
  Li  Li2  1  0.694661  0.785278  0.321418  1
  Li  Li3  1  0.805339  0.285278  0.178582  1
  Mn  Mn4  1  0.248858  0.962587  0.385409  1
  Mn  Mn5  1  0.247659  0.540193  0.607954  1
  Mn  Mn6  1  0.251142  0.462587  0.114591  1
  Mn  Mn7  1  0.252341  0.040193  0.892046  1
  Mn  Mn8  1  0.747659  0.959807  0.107954  1
  Mn  Mn9  1  0.748858  0.537413  0.885409  1
  Mn  Mn10  1  0.752341  0.459807  0.392046  1
  Mn  Mn11  1  0.751142  0.037413  0.614591  1
  S  S12  1  0.039582  0.245800  0.505570  1
  S  S13  1  0.103033  0.120892  0.149274  1
  S  S14  1  0.107995  0.392303  0.852156  1
  S  S15  1  0.392005  0.892303  0.647844  1
  S  S16  1  0.396967  0.620892  0.350726  1
  S  S17  1  0.460418  0.745800  0.994430  1
  S  S18  1  0.539582  0.254200  0.005570  1
  S  S19  1  0.603033  0.379108  0.649274  1
  S  S20  1  0.607995  0.107697  0.352156  1
  S  S21  1  0.892005  0.607697  0.147844  1
  S  S22  1  0.896967  0.879108  0.850726  1
  S  S23  1  0.960418  0.754200  0.494430  1
  O  O24  1  0.037323  0.636631  0.557208  1
  O  O25  1  0.065742  0.620064  0.126403  1
  O  O26  1  0.068914  0.906961  0.824515  1
  O  O27  1  0.067476  0.813214  0.406196  1
  O  O28  1  0.088868  0.122523  0.430709  1
  O  O29  1  0.117490  0.290767  0.170672  1
  O  O30  1  0.134519  0.091299  0.035393  1
  O  O31  1  0.139369  0.510727  0.768826  1
  O  O32  1  0.179786  0.308086  0.560435  1
  O  O33  1  0.166997  0.243049  0.810611  1
  O  O34  1  0.191426  0.434789  0.949100  1
  O  O35  1  0.203789  0.030592  0.217107  1
  O  O36  1  0.296211  0.530592  0.282893  1
  O  O37  1  0.308574  0.934790  0.550900  1
  O  O38  1  0.333003  0.743049  0.689389  1
  O  O39  1  0.320214  0.808086  0.939565  1
  O  O40  1  0.365481  0.591299  0.464607  1
  O  O41  1  0.360631  0.010727  0.731174  1
  O  O42  1  0.382510  0.790768  0.329328  1
  O  O43  1  0.411132  0.622523  0.069291  1
  O  O44  1  0.432524  0.313214  0.093804  1
  O  O45  1  0.434258  0.120064  0.373597  1
  O  O46  1  0.431086  0.406961  0.675485  1
  O  O47  1  0.462677  0.136631  0.942792  1
  O  O48  1  0.537323  0.863369  0.057208  1
  O  O49  1  0.568914  0.593039  0.324515  1
  O  O50  1  0.565742  0.879936  0.626403  1
  O  O51  1  0.567476  0.686786  0.906196  1
  O  O52  1  0.588868  0.377477  0.930709  1
  O  O53  1  0.617490  0.209233  0.670672  1
  O  O54  1  0.639369  0.989273  0.268826  1
  O  O55  1  0.634519  0.408701  0.535393  1
  O  O56  1  0.679786  0.191914  0.060435  1
  O  O57  1  0.666997  0.256951  0.310611  1
  O  O58  1  0.691426  0.065211  0.449100  1
  O  O59  1  0.703789  0.469408  0.717107  1
  O  O60  1  0.796211  0.969408  0.782893  1
  O  O61  1  0.808574  0.565210  0.050900  1
  O  O62  1  0.833003  0.756951  0.189389  1
  O  O63  1  0.820214  0.691914  0.439565  1
  O  O64  1  0.860631  0.489273  0.231174  1
  O  O65  1  0.865481  0.908701  0.964607  1
  O  O66  1  0.882510  0.709232  0.829328  1
  O  O67  1  0.911132  0.877477  0.569291  1
  O  O68  1  0.932524  0.186786  0.593804  1
  O  O69  1  0.931086  0.093039  0.175485  1
  O  O70  1  0.934258  0.379936  0.873597  1
  O  O71  1  0.962677  0.363369  0.442792  1
