# generated using pymatgen
data_Li5Ti2Fe3O10
_symmetry_space_group_name_H-M   'P 1'
_cell_length_a   5.23842917
_cell_length_b   5.16799813
_cell_length_c   7.84074349
_cell_angle_alpha   71.10450657
_cell_angle_beta   107.98150445
_cell_angle_gamma   99.92469801
_symmetry_Int_Tables_number   1
_chemical_formula_structural   Li5Ti2Fe3O10
_chemical_formula_sum   'Li5 Ti2 Fe3 O10'
_cell_volume   190.39923649
_cell_formula_units_Z   1
loop_
 _symmetry_equiv_pos_site_id
 _symmetry_equiv_pos_as_xyz
  1  'x, y, z'
loop_
 _atom_site_type_symbol
 _atom_site_label
 _atom_site_symmetry_multiplicity
 _atom_site_fract_x
 _atom_site_fract_y
 _atom_site_fract_z
 _atom_site_occupancy
  Li  Li0  1  0.220099  0.494837  0.405043  1
  Li  Li1  1  0.399636  0.513671  0.790112  1
  Li  Li2  1  0.496879  0.998502  0.500087  1
  Li  Li3  1  0.780712  0.500697  0.598199  1
  Li  Li4  1  0.598343  0.485780  0.211522  1
  Ti  Ti5  1  0.095754  0.021832  0.694200  1
  Ti  Ti6  1  0.900875  0.973069  0.312408  1
  Fe  Fe7  1  0.998270  0.494830  0.001136  1
  Fe  Fe8  1  0.312562  0.000873  0.106149  1
  Fe  Fe9  1  0.685030  0.996634  0.894807  1
  O  O10  1  0.048769  0.245218  0.845791  1
  O  O11  1  0.134189  0.781475  0.539906  1
  O  O12  1  0.315390  0.749728  0.933040  1
  O  O13  1  0.215856  0.252783  0.240134  1
  O  O14  1  0.423062  0.228852  0.660323  1
  O  O15  1  0.576145  0.764468  0.344923  1
  O  O16  1  0.780213  0.741952  0.763480  1
  O  O17  1  0.677746  0.244404  0.070904  1
  O  O18  1  0.863501  0.213447  0.463725  1
  O  O19  1  0.947045  0.757109  0.152781  1
