# generated using pymatgen
data_BaCaI4
_symmetry_space_group_name_H-M   'P 1'
_cell_length_a   4.96636157
_cell_length_b   11.08584270
_cell_length_c   7.85009927
_cell_angle_alpha   44.89205382
_cell_angle_beta   88.84568004
_cell_angle_gamma   89.65023184
_symmetry_Int_Tables_number   1
_chemical_formula_structural   BaCaI4
_chemical_formula_sum   'Ba1 Ca1 I4'
_cell_volume   304.95109794
_cell_formula_units_Z   1
loop_
 _symmetry_equiv_pos_site_id
 _symmetry_equiv_pos_as_xyz
  1  'x, y, z'
loop_
 _atom_site_type_symbol
 _atom_site_label
 _atom_site_symmetry_multiplicity
 _atom_site_fract_x
 _atom_site_fract_y
 _atom_site_fract_z
 _atom_site_occupancy
  Ba  Ba0  1  0.484390  0.001932  0.498943  1
  Ca  Ca1  1  0.987386  0.501420  0.499877  1
  I  I2  1  0.980801  0.203259  0.525604  1
  I  I3  1  0.989131  0.773335  0.526264  1
  I  I4  1  0.474876  0.314446  0.868345  1
  I  I5  1  0.496329  0.687100  0.133209  1
