# generated using pymatgen
data_Li10Zn3(GeO4)4
_symmetry_space_group_name_H-M   'P 1'
_cell_length_a   11.05642464
_cell_length_b   6.49135790
_cell_length_c   5.37418950
_cell_angle_alpha   91.49985190
_cell_angle_beta   91.86255726
_cell_angle_gamma   91.97588393
_symmetry_Int_Tables_number   1
_chemical_formula_structural   Li10Zn3(GeO4)4
_chemical_formula_sum   'Li10 Zn3 Ge4 O16'
_cell_volume   385.13521505
_cell_formula_units_Z   1
loop_
 _symmetry_equiv_pos_site_id
 _symmetry_equiv_pos_as_xyz
  1  'x, y, z'
loop_
 _atom_site_type_symbol
 _atom_site_label
 _atom_site_symmetry_multiplicity
 _atom_site_fract_x
 _atom_site_fract_y
 _atom_site_fract_z
 _atom_site_occupancy
  Li  Li0  1  0.078286  0.257144  0.647870  1
  Li  Li1  1  0.174859  0.453132  0.146603  1
  Li  Li2  1  0.431988  0.735855  0.172682  1
  Li  Li3  1  0.490220  0.074096  0.823658  1
  Li  Li4  1  0.657104  0.965059  0.173292  1
  Li  Li5  1  0.814454  0.051957  0.609689  1
  Li  Li6  1  0.802478  0.798273  0.924163  1
  Li  Li7  1  0.830908  0.456864  0.625111  1
  Li  Li8  1  0.935255  0.742725  0.366804  1
  Li  Li9  1  0.944948  0.525501  0.989011  1
  Zn  Zn10  1  0.180264  0.971501  0.319840  1
  Zn  Zn11  1  0.344498  0.503790  0.774964  1
  Zn  Zn12  1  0.665319  0.451839  0.148329  1
  Ge  Ge13  1  0.092623  0.760604  0.811160  1
  Ge  Ge14  1  0.417712  0.237787  0.292469  1
  Ge  Ge15  1  0.600077  0.724433  0.660124  1
  Ge  Ge16  1  0.918830  0.191364  0.148024  1
  O  O17  1  0.070792  0.222852  0.267150  1
  O  O18  1  0.079696  0.737556  0.147232  1
  O  O19  1  0.151355  0.983943  0.683673  1
  O  O20  1  0.165249  0.522891  0.750794  1
  O  O21  1  0.347863  0.453275  0.155061  1
  O  O22  1  0.344092  0.995361  0.211862  1
  O  O23  1  0.426052  0.279948  0.617318  1
  O  O24  1  0.454171  0.753378  0.782860  1
  O  O25  1  0.599715  0.701195  0.327752  1
  O  O26  1  0.562550  0.203309  0.163149  1
  O  O27  1  0.676501  0.957375  0.772675  1
  O  O28  1  0.695278  0.541557  0.805622  1
  O  O29  1  0.846189  0.425060  0.266351  1
  O  O30  1  0.838238  0.969800  0.246557  1
  O  O31  1  0.917572  0.244372  0.823036  1
  O  O32  1  0.934892  0.715992  0.720684  1
