# generated using pymatgen
data_Mg5H10(C2O9)2
_symmetry_space_group_name_H-M   'P 1'
_cell_length_a   10.15475658
_cell_length_b   9.20406468
_cell_length_c   8.40983511
_cell_angle_alpha   90.00000000
_cell_angle_beta   114.48856975
_cell_angle_gamma   90.00000000
_symmetry_Int_Tables_number   1
_chemical_formula_structural   Mg5H10(C2O9)2
_chemical_formula_sum   'Mg10 H20 C8 O36'
_cell_volume   715.31781630
_cell_formula_units_Z   2
loop_
 _symmetry_equiv_pos_site_id
 _symmetry_equiv_pos_as_xyz
  1  'x, y, z'
loop_
 _atom_site_type_symbol
 _atom_site_label
 _atom_site_symmetry_multiplicity
 _atom_site_fract_x
 _atom_site_fract_y
 _atom_site_fract_z
 _atom_site_occupancy
  Mg  Mg0  1  0.344646  0.430438  0.859442  1
  Mg  Mg1  1  0.655354  0.930438  0.640558  1
  Mg  Mg2  1  0.655354  0.569562  0.140558  1
  Mg  Mg3  1  0.344646  0.069562  0.359442  1
  Mg  Mg4  1  0.345475  0.068966  0.991647  1
  Mg  Mg5  1  0.654525  0.568966  0.508353  1
  Mg  Mg6  1  0.654525  0.931034  0.008353  1
  Mg  Mg7  1  0.345475  0.431034  0.491647  1
  Mg  Mg8  1  0.000000  0.500000  0.500000  1
  Mg  Mg9  1  0.000000  0.000000  0.000000  1
  H  H10  1  0.233665  0.622316  0.619099  1
  H  H11  1  0.766335  0.122316  0.880901  1
  H  H12  1  0.766335  0.377684  0.380901  1
  H  H13  1  0.233665  0.877684  0.119099  1
  H  H14  1  0.147500  0.873812  0.791417  1
  H  H15  1  0.852500  0.373812  0.708583  1
  H  H16  1  0.852500  0.126188  0.208583  1
  H  H17  1  0.147500  0.626188  0.291417  1
  H  H18  1  0.301509  0.803390  0.859587  1
  H  H19  1  0.698491  0.303390  0.640413  1
  H  H20  1  0.698491  0.196610  0.140413  1
  H  H21  1  0.301509  0.696610  0.359587  1
  H  H22  1  0.137003  0.595970  0.869927  1
  H  H23  1  0.862997  0.095970  0.630073  1
  H  H24  1  0.862997  0.404030  0.130073  1
  H  H25  1  0.137003  0.904030  0.369927  1
  H  H26  1  0.246188  0.584275  0.076505  1
  H  H27  1  0.753812  0.084275  0.423495  1
  H  H28  1  0.753812  0.415725  0.923495  1
  H  H29  1  0.246188  0.915725  0.576505  1
  C  C30  1  0.079822  0.233491  0.772212  1
  C  C31  1  0.920178  0.733491  0.727788  1
  C  C32  1  0.920178  0.766509  0.227788  1
  C  C33  1  0.079822  0.266509  0.272212  1
  C  C34  1  0.473881  0.167276  0.737468  1
  C  C35  1  0.526119  0.667276  0.762532  1
  C  C36  1  0.526119  0.832724  0.262532  1
  C  C37  1  0.473881  0.332724  0.237468  1
  O  O38  1  0.225832  0.516502  0.615878  1
  O  O39  1  0.774168  0.016502  0.884122  1
  O  O40  1  0.774168  0.483498  0.384122  1
  O  O41  1  0.225832  0.983498  0.115878  1
  O  O42  1  0.246410  0.887900  0.794081  1
  O  O43  1  0.753590  0.387900  0.705919  1
  O  O44  1  0.753590  0.112100  0.205919  1
  O  O45  1  0.246410  0.612100  0.294081  1
  O  O46  1  0.239907  0.576391  0.956701  1
  O  O47  1  0.760093  0.076391  0.543299  1
  O  O48  1  0.760093  0.423609  0.043299  1
  O  O49  1  0.239907  0.923609  0.456701  1
  O  O50  1  0.005176  0.331566  0.664182  1
  O  O51  1  0.994824  0.831566  0.835818  1
  O  O52  1  0.994824  0.668434  0.335818  1
  O  O53  1  0.005176  0.168434  0.164182  1
  O  O54  1  0.014449  0.122763  0.800346  1
  O  O55  1  0.985551  0.622763  0.699654  1
  O  O56  1  0.985551  0.877237  0.199654  1
  O  O57  1  0.014449  0.377237  0.300346  1
  O  O58  1  0.220987  0.243043  0.853463  1
  O  O59  1  0.779013  0.743043  0.646537  1
  O  O60  1  0.779013  0.756957  0.146537  1
  O  O61  1  0.220987  0.256957  0.353463  1
  O  O62  1  0.431242  0.300681  0.717035  1
  O  O63  1  0.568758  0.800681  0.782965  1
  O  O64  1  0.568758  0.699319  0.282965  1
  O  O65  1  0.431242  0.199319  0.217035  1
  O  O66  1  0.495251  0.099050  0.881845  1
  O  O67  1  0.504749  0.599050  0.618155  1
  O  O68  1  0.504749  0.900950  0.118155  1
  O  O69  1  0.495251  0.400950  0.381845  1
  O  O70  1  0.497598  0.102113  0.614875  1
  O  O71  1  0.502402  0.602113  0.885125  1
  O  O72  1  0.502402  0.897887  0.385125  1
  O  O73  1  0.497598  0.397887  0.114875  1
