# generated using pymatgen
data_Li3Fe3OF7
_symmetry_space_group_name_H-M   'P 1'
_cell_length_a   5.18893379
_cell_length_b   10.25965345
_cell_length_c   3.11863896
_cell_angle_alpha   90.00000000
_cell_angle_beta   90.00000000
_cell_angle_gamma   90.22927950
_symmetry_Int_Tables_number   1
_chemical_formula_structural   Li3Fe3OF7
_chemical_formula_sum   'Li3 Fe3 O1 F7'
_cell_volume   166.02460045
_cell_formula_units_Z   1
loop_
 _symmetry_equiv_pos_site_id
 _symmetry_equiv_pos_as_xyz
  1  'x, y, z'
loop_
 _atom_site_type_symbol
 _atom_site_label
 _atom_site_symmetry_multiplicity
 _atom_site_fract_x
 _atom_site_fract_y
 _atom_site_fract_z
 _atom_site_occupancy
  Li  Li0  1  0.388297  0.043357  0.750000  1
  Li  Li1  1  0.475163  0.357028  0.750000  1
  Li  Li2  1  0.946280  0.447499  0.250000  1
  Fe  Fe3  1  0.022799  0.871528  0.750000  1
  Fe  Fe4  1  0.521234  0.635117  0.250000  1
  Fe  Fe5  1  0.965535  0.136116  0.250000  1
  O  O6  1  0.182142  0.975961  0.250000  1
  F  F7  1  0.210850  0.219186  0.750000  1
  F  F8  1  0.303659  0.463411  0.250000  1
  F  F9  1  0.320699  0.717459  0.750000  1
  F  F10  1  0.731450  0.295308  0.250000  1
  F  F11  1  0.742802  0.527935  0.750000  1
  F  F12  1  0.740186  0.041613  0.750000  1
  F  F13  1  0.823065  0.768481  0.250000  1
