# generated using pymatgen
data_K2NiPCO7
_symmetry_space_group_name_H-M   'P 1'
_cell_length_a   9.58949015
_cell_length_b   7.04686007
_cell_length_c   5.42835825
_cell_angle_alpha   90.00000000
_cell_angle_beta   89.70960091
_cell_angle_gamma   90.00000000
_symmetry_Int_Tables_number   1
_chemical_formula_structural   K2NiPCO7
_chemical_formula_sum   'K4 Ni2 P2 C2 O14'
_cell_volume   366.82091374
_cell_formula_units_Z   2
loop_
 _symmetry_equiv_pos_site_id
 _symmetry_equiv_pos_as_xyz
  1  'x, y, z'
loop_
 _atom_site_type_symbol
 _atom_site_label
 _atom_site_symmetry_multiplicity
 _atom_site_fract_x
 _atom_site_fract_y
 _atom_site_fract_z
 _atom_site_occupancy
  K  K0  1  0.253905  0.473716  0.245881  1
  K  K1  1  0.253905  0.026284  0.245881  1
  K  K2  1  0.746095  0.526284  0.754119  1
  K  K3  1  0.746095  0.973716  0.754119  1
  Ni  Ni4  1  0.359073  0.750000  0.773526  1
  Ni  Ni5  1  0.640927  0.250000  0.226474  1
  P  P6  1  0.428979  0.250000  0.719154  1
  P  P7  1  0.571021  0.750000  0.280846  1
  C  C8  1  0.101970  0.750000  0.727983  1
  C  C9  1  0.898030  0.250000  0.272017  1
  O  O10  1  0.027847  0.250000  0.294110  1
  O  O11  1  0.164817  0.750000  0.939574  1
  O  O12  1  0.187800  0.750000  0.540876  1
  O  O13  1  0.339314  0.070110  0.763041  1
  O  O14  1  0.339314  0.429891  0.763041  1
  O  O15  1  0.440474  0.750000  0.115315  1
  O  O16  1  0.474398  0.250000  0.441086  1
  O  O17  1  0.525602  0.750000  0.558914  1
  O  O18  1  0.559526  0.250000  0.884685  1
  O  O19  1  0.660686  0.570110  0.236959  1
  O  O20  1  0.660686  0.929890  0.236959  1
  O  O21  1  0.812200  0.250000  0.459124  1
  O  O22  1  0.835183  0.250000  0.060426  1
  O  O23  1  0.972153  0.750000  0.705890  1
