# generated using pymatgen
data_LiFePCO7
_symmetry_space_group_name_H-M   'P 1'
_cell_length_a   8.48977825
_cell_length_b   8.24125466
_cell_length_c   8.28284136
_cell_angle_alpha   77.87939311
_cell_angle_beta   85.86210024
_cell_angle_gamma   93.64496174
_symmetry_Int_Tables_number   1
_chemical_formula_structural   LiFePCO7
_chemical_formula_sum   'Li4 Fe4 P4 C4 O28'
_cell_volume   563.28045251
_cell_formula_units_Z   4
loop_
 _symmetry_equiv_pos_site_id
 _symmetry_equiv_pos_as_xyz
  1  'x, y, z'
loop_
 _atom_site_type_symbol
 _atom_site_label
 _atom_site_symmetry_multiplicity
 _atom_site_fract_x
 _atom_site_fract_y
 _atom_site_fract_z
 _atom_site_occupancy
  Li  Li0  1  0.888886  0.256820  0.501966  1
  Li  Li1  1  0.711589  0.410484  0.128627  1
  Li  Li2  1  0.109234  0.736047  0.513340  1
  Li  Li3  1  0.115611  0.228511  0.012807  1
  Fe  Fe4  1  0.664886  0.530848  0.720057  1
  Fe  Fe5  1  0.664200  0.021951  0.221644  1
  Fe  Fe6  1  0.336950  0.973028  0.775072  1
  Fe  Fe7  1  0.336865  0.479436  0.270686  1
  P  P8  1  0.577674  0.244532  0.506459  1
  P  P9  1  0.576873  0.745616  0.998441  1
  P  P10  1  0.424706  0.263933  0.993900  1
  P  P11  1  0.422064  0.758728  0.488464  1
  C  C12  1  0.951109  0.473704  0.784011  1
  C  C13  1  0.951175  0.973975  0.274866  1
  C  C14  1  0.054025  0.029699  0.724096  1
  C  C15  1  0.039066  0.506372  0.230732  1
  O  O16  1  0.931278  0.586342  0.654215  1
  O  O17  1  0.928115  0.097551  0.155238  1
  O  O18  1  0.918055  0.065252  0.687366  1
  O  O19  1  0.819399  0.405140  0.872130  1
  O  O20  1  0.899819  0.523725  0.190206  1
  O  O21  1  0.821752  0.890198  0.352152  1
  O  O22  1  0.690001  0.364983  0.575852  1
  O  O23  1  0.692804  0.195104  0.371220  1
  O  O24  1  0.686023  0.693753  0.864088  1
  O  O25  1  0.672996  0.881183  0.060850  1
  O  O26  1  0.521278  0.091422  0.645505  1
  O  O27  1  0.576579  0.207268  0.076090  1
  O  O28  1  0.569966  0.680525  0.554770  1
  O  O29  1  0.533813  0.586758  0.141296  1
  O  O30  1  0.478916  0.410672  0.847216  1
  O  O31  1  0.433920  0.325012  0.432012  1
  O  O32  1  0.420292  0.806236  0.934952  1
  O  O33  1  0.478498  0.911638  0.347910  1
  O  O34  1  0.324026  0.127676  0.936783  1
  O  O35  1  0.310192  0.813678  0.619048  1
  O  O36  1  0.307008  0.321459  0.119415  1
  O  O37  1  0.310909  0.637083  0.419621  1
  O  O38  1  0.180581  0.114011  0.640606  1
  O  O39  1  0.081134  0.422932  0.827493  1
  O  O40  1  0.158411  0.600598  0.147808  1
  O  O41  1  0.083099  0.933075  0.321373  1
  O  O42  1  0.072540  0.394417  0.355482  1
  O  O43  1  0.089497  0.911858  0.842885  1
