# generated using pymatgen
data_Li2Si5Ni5O16
_symmetry_space_group_name_H-M   'P 1'
_cell_length_a   7.00786191
_cell_length_b   10.06297139
_cell_length_c   4.92555257
_cell_angle_alpha   90.03248304
_cell_angle_beta   90.04862783
_cell_angle_gamma   89.23726337
_symmetry_Int_Tables_number   1
_chemical_formula_structural   Li2Si5Ni5O16
_chemical_formula_sum   'Li2 Si5 Ni5 O16'
_cell_volume   347.31858693
_cell_formula_units_Z   1
loop_
 _symmetry_equiv_pos_site_id
 _symmetry_equiv_pos_as_xyz
  1  'x, y, z'
loop_
 _atom_site_type_symbol
 _atom_site_label
 _atom_site_symmetry_multiplicity
 _atom_site_fract_x
 _atom_site_fract_y
 _atom_site_fract_z
 _atom_site_occupancy
  Li  Li0  1  0.496568  0.661832  0.339835  1
  Li  Li1  1  0.002537  0.856642  0.817214  1
  Si  Si2  1  0.012025  0.663764  0.303574  1
  Si  Si3  1  0.233992  0.407491  0.179929  1
  Si  Si4  1  0.258965  0.901486  0.332920  1
  Si  Si5  1  0.741410  0.090931  0.685043  1
  Si  Si6  1  0.767496  0.593186  0.797490  1
  Ni  Ni7  1  0.987496  0.144282  0.191664  1
  Ni  Ni8  1  0.483527  0.152565  0.195507  1
  Ni  Ni9  1  0.502127  0.355822  0.696782  1
  Ni  Ni10  1  0.503960  0.848312  0.817142  1
  Ni  Ni11  1  0.000496  0.338437  0.689963  1
  O  O12  1  0.047228  0.330476  0.293418  1
  O  O13  1  0.067162  0.815283  0.212614  1
  O  O14  1  0.236744  0.056130  0.230330  1
  O  O15  1  0.245880  0.393974  0.849643  1
  O  O16  1  0.248850  0.882871  0.658254  1
  O  O17  1  0.204291  0.568337  0.265064  1
  O  O18  1  0.433833  0.348137  0.303484  1
  O  O19  1  0.451480  0.835340  0.208641  1
  O  O20  1  0.565066  0.659572  0.723553  1
  O  O21  1  0.550058  0.168566  0.805338  1
  O  O22  1  0.735716  0.117809  0.354233  1
  O  O23  1  0.758254  0.434697  0.735002  1
  O  O24  1  0.827779  0.618549  0.121050  1
  O  O25  1  0.750903  0.935854  0.771319  1
  O  O26  1  0.947311  0.660159  0.624020  1
  O  O27  1  0.938843  0.159493  0.796976  1
