# generated using pymatgen
data_Li6V3P8O29
_symmetry_space_group_name_H-M   'P 1'
_cell_length_a   9.83153761
_cell_length_b   9.82915437
_cell_length_c   13.89647916
_cell_angle_alpha   90.21670533
_cell_angle_beta   90.13272843
_cell_angle_gamma   60.10428503
_symmetry_Int_Tables_number   1
_chemical_formula_structural   Li6V3P8O29
_chemical_formula_sum   'Li12 V6 P16 O58'
_cell_volume   1164.19376842
_cell_formula_units_Z   2
loop_
 _symmetry_equiv_pos_site_id
 _symmetry_equiv_pos_as_xyz
  1  'x, y, z'
loop_
 _atom_site_type_symbol
 _atom_site_label
 _atom_site_symmetry_multiplicity
 _atom_site_fract_x
 _atom_site_fract_y
 _atom_site_fract_z
 _atom_site_occupancy
  Li  Li0  1  0.907458  0.317790  0.561546  1
  Li  Li1  1  0.667495  0.671337  0.383961  1
  Li  Li2  1  0.669293  0.670814  0.883170  1
  Li  Li3  1  0.774467  0.315322  0.061931  1
  Li  Li4  1  0.316540  0.909901  0.061287  1
  Li  Li5  1  0.676497  0.225402  0.441398  1
  Li  Li6  1  0.314865  0.772807  0.561877  1
  Li  Li7  1  0.680666  0.091123  0.938785  1
  Li  Li8  1  0.223675  0.679600  0.942191  1
  Li  Li9  1  0.089656  0.682106  0.438773  1
  Li  Li10  1  0.226904  0.094336  0.440299  1
  Li  Li11  1  0.096856  0.229007  0.939730  1
  V  V12  1  0.567638  0.430566  0.248011  1
  V  V13  1  0.431982  0.564651  0.750808  1
  V  V14  1  0.572527  0.998823  0.745867  1
  V  V15  1  0.435129  0.002835  0.250687  1
  V  V16  1  0.000396  0.571031  0.245420  1
  V  V17  1  0.002743  0.433032  0.747677  1
  P  P18  1  0.912612  0.770182  0.842508  1
  P  P19  1  0.771715  0.913533  0.341346  1
  P  P20  1  0.910066  0.322076  0.341634  1
  P  P21  1  0.666055  0.667283  0.126518  1
  P  P22  1  0.665576  0.664998  0.626587  1
  P  P23  1  0.771128  0.320327  0.841402  1
  P  P24  1  0.680465  0.231324  0.657552  1
  P  P25  1  0.320715  0.911322  0.842780  1
  P  P26  1  0.682259  0.085253  0.155138  1
  P  P27  1  0.321092  0.769372  0.343651  1
  P  P28  1  0.231294  0.681577  0.159023  1
  P  P29  1  0.331878  0.334406  0.373585  1
  P  P30  1  0.335915  0.330721  0.873909  1
  P  P31  1  0.083885  0.684677  0.654973  1
  P  P32  1  0.233561  0.086333  0.658183  1
  P  P33  1  0.088091  0.231557  0.157434  1
  O  O34  1  0.003454  0.751958  0.562652  1
  O  O35  1  0.918931  0.746439  0.340877  1
  O  O36  1  0.753672  0.006829  0.062796  1
  O  O37  1  0.746963  0.917791  0.842105  1
  O  O38  1  0.889569  0.625417  0.826447  1
  O  O39  1  0.809978  0.670956  0.169779  1
  O  O40  1  0.890056  0.486553  0.326946  1
  O  O41  1  0.997383  0.244914  0.066978  1
  O  O42  1  0.920921  0.335685  0.840859  1
  O  O43  1  0.669804  0.808903  0.670666  1
  O  O44  1  0.626688  0.889743  0.326812  1
  O  O45  1  0.813932  0.510439  0.663342  1
  O  O46  1  0.661896  0.667089  0.018259  1
  O  O47  1  0.660018  0.664317  0.518644  1
  O  O48  1  0.670257  0.513323  0.163890  1
  O  O49  1  0.485327  0.892096  0.827207  1
  O  O50  1  0.513313  0.816763  0.166462  1
  O  O51  1  0.744087  0.338709  0.341472  1
  O  O52  1  0.790884  0.212111  0.749976  1
  O  O53  1  0.759249  0.242715  0.567826  1
  O  O54  1  0.757902  0.244081  0.931431  1
  O  O55  1  0.627896  0.486832  0.825689  1
  O  O56  1  0.512740  0.668424  0.667260  1
  O  O57  1  0.668076  0.250902  0.161409  1
  O  O58  1  0.486814  0.627202  0.325965  1
  O  O59  1  0.333747  0.919135  0.344751  1
  O  O60  1  0.793518  0.993011  0.245352  1
  O  O61  1  0.759933  0.008946  0.427072  1
  O  O62  1  0.243901  0.997004  0.567714  1
  O  O63  1  0.662253  0.085758  0.660883  1
  O  O64  1  0.521382  0.381266  0.673621  1
  O  O65  1  0.335477  0.747625  0.844356  1
  O  O66  1  0.483863  0.328408  0.333665  1
  O  O67  1  0.382828  0.522455  0.177668  1
  O  O68  1  0.246795  0.756736  0.068723  1
  O  O69  1  0.243008  0.753750  0.432266  1
  O  O70  1  0.212232  0.790158  0.250896  1
  O  O71  1  0.249778  0.665077  0.660287  1
  O  O72  1  0.488879  0.184190  0.833046  1
  O  O73  1  0.520273  0.100931  0.174925  1
  O  O74  1  0.333060  0.484567  0.831617  1
  O  O75  1  0.336255  0.336713  0.981051  1
  O  O76  1  0.329083  0.329775  0.480740  1
  O  O77  1  0.184588  0.483601  0.331983  1
  O  O78  1  0.378969  0.100819  0.677259  1
  O  O79  1  0.331264  0.181427  0.331420  1
  O  O80  1  0.087554  0.660117  0.159989  1
  O  O81  1  0.991876  0.792401  0.745504  1
  O  O82  1  0.008547  0.760874  0.927026  1
  O  O83  1  0.093867  0.523100  0.677443  1
  O  O84  1  0.188334  0.327316  0.833330  1
  O  O85  1  0.101430  0.377867  0.177548  1
  O  O86  1  0.249641  0.081895  0.157907  1
  O  O87  1  0.241644  0.003634  0.932292  1
  O  O88  1  0.212143  0.998129  0.750388  1
  O  O89  1  0.082942  0.249435  0.658447  1
  O  O90  1  0.999764  0.242359  0.431549  1
  O  O91  1  0.997083  0.213102  0.249775  1
