# generated using pymatgen
data_Rb2Fe2O3
_symmetry_space_group_name_H-M   'P 1'
_cell_length_a   12.09719317
_cell_length_b   6.37125854
_cell_length_c   8.23166599
_cell_angle_alpha   89.99986397
_cell_angle_beta   90.00083555
_cell_angle_gamma   90.00027715
_symmetry_Int_Tables_number   1
_chemical_formula_structural   Rb2Fe2O3
_chemical_formula_sum   'Rb8 Fe8 O12'
_cell_volume   634.45026682
_cell_formula_units_Z   4
loop_
 _symmetry_equiv_pos_site_id
 _symmetry_equiv_pos_as_xyz
  1  'x, y, z'
loop_
 _atom_site_type_symbol
 _atom_site_label
 _atom_site_symmetry_multiplicity
 _atom_site_fract_x
 _atom_site_fract_y
 _atom_site_fract_z
 _atom_site_occupancy
  Rb  Rb0  1  0.058447  0.250000  0.877199  1
  Rb  Rb1  1  0.120773  0.750005  0.503244  1
  Rb  Rb2  1  0.379234  0.250008  0.003242  1
  Rb  Rb3  1  0.441555  0.750005  0.377204  1
  Rb  Rb4  1  0.558444  0.249998  0.622806  1
  Rb  Rb5  1  0.620770  0.749993  0.996763  1
  Rb  Rb6  1  0.879228  0.250005  0.496753  1
  Rb  Rb7  1  0.941554  0.749998  0.122802  1
  Fe  Fe8  1  0.145303  0.250000  0.280388  1
  Fe  Fe9  1  0.226836  0.750001  0.098362  1
  Fe  Fe10  1  0.273173  0.250000  0.598426  1
  Fe  Fe11  1  0.354685  0.750000  0.780464  1
  Fe  Fe12  1  0.645305  0.250003  0.219568  1
  Fe  Fe13  1  0.726838  0.750002  0.401644  1
  Fe  Fe14  1  0.773176  0.249998  0.901558  1
  Fe  Fe15  1  0.854704  0.750000  0.719562  1
  O  O16  1  0.123833  0.249997  0.513683  1
  O  O17  1  0.145976  0.999356  0.151859  1
  O  O18  1  0.145976  0.500646  0.151858  1
  O  O19  1  0.354006  0.000700  0.651856  1
  O  O20  1  0.354007  0.499292  0.651855  1
  O  O21  1  0.376148  0.749998  0.013704  1
  O  O22  1  0.623856  0.249999  0.986298  1
  O  O23  1  0.645986  0.999333  0.348152  1
  O  O24  1  0.645986  0.500668  0.348153  1
  O  O25  1  0.854019  0.499326  0.848147  1
  O  O26  1  0.854020  0.000670  0.848141  1
  O  O27  1  0.876161  0.749997  0.486308  1
