# generated using pymatgen
data_Na5Cu(HO2)2
_symmetry_space_group_name_H-M   'P 1'
_cell_length_a   6.10900447
_cell_length_b   8.89518092
_cell_length_c   12.05800426
_cell_angle_alpha   90.00001076
_cell_angle_beta   89.99965773
_cell_angle_gamma   90.00001660
_symmetry_Int_Tables_number   1
_chemical_formula_structural   Na5Cu(HO2)2
_chemical_formula_sum   'Na20 Cu4 H8 O16'
_cell_volume   655.24039211
_cell_formula_units_Z   4
loop_
 _symmetry_equiv_pos_site_id
 _symmetry_equiv_pos_as_xyz
  1  'x, y, z'
loop_
 _atom_site_type_symbol
 _atom_site_label
 _atom_site_symmetry_multiplicity
 _atom_site_fract_x
 _atom_site_fract_y
 _atom_site_fract_z
 _atom_site_occupancy
  Na  Na0  1  0.052275  0.750000  0.041644  1
  Na  Na1  1  0.063410  0.250000  0.207538  1
  Na  Na2  1  0.086473  0.250001  0.729152  1
  Na  Na3  1  0.240977  0.505770  0.360674  1
  Na  Na4  1  0.240978  0.994231  0.360673  1
  Na  Na5  1  0.259022  0.005770  0.860674  1
  Na  Na6  1  0.259023  0.494230  0.860675  1
  Na  Na7  1  0.413527  0.750000  0.229152  1
  Na  Na8  1  0.436591  0.750001  0.707539  1
  Na  Na9  1  0.447726  0.250000  0.541644  1
  Na  Na10  1  0.552273  0.750000  0.458357  1
  Na  Na11  1  0.563408  0.250000  0.292457  1
  Na  Na12  1  0.586474  0.250000  0.770849  1
  Na  Na13  1  0.740978  0.505768  0.139327  1
  Na  Na14  1  0.740977  0.994232  0.139326  1
  Na  Na15  1  0.759023  0.005769  0.639327  1
  Na  Na16  1  0.759023  0.494232  0.639327  1
  Na  Na17  1  0.913527  0.750000  0.270848  1
  Na  Na18  1  0.936592  0.750000  0.792458  1
  Na  Na19  1  0.947727  0.250000  0.958357  1
  Cu  Cu20  1  0.002547  0.749998  0.524142  1
  Cu  Cu21  1  0.497449  0.249998  0.024137  1
  Cu  Cu22  1  0.502551  0.749999  0.975858  1
  Cu  Cu23  1  0.997445  0.249998  0.475861  1
  H  H24  1  0.226903  0.505591  0.123501  1
  H  H25  1  0.226905  0.994410  0.123500  1
  H  H26  1  0.273096  0.005591  0.623500  1
  H  H27  1  0.273096  0.494410  0.623500  1
  H  H28  1  0.726906  0.505593  0.376501  1
  H  H29  1  0.726905  0.994408  0.376501  1
  H  H30  1  0.773094  0.005593  0.876502  1
  H  H31  1  0.773094  0.494408  0.876502  1
  O  O32  1  0.121463  0.549094  0.175655  1
  O  O33  1  0.121463  0.950907  0.175655  1
  O  O34  1  0.194277  0.750000  0.411094  1
  O  O35  1  0.228659  0.250000  0.378744  1
  O  O36  1  0.271340  0.750000  0.878744  1
  O  O37  1  0.305725  0.250000  0.911095  1
  O  O38  1  0.378538  0.049094  0.675655  1
  O  O39  1  0.378537  0.450906  0.675655  1
  O  O40  1  0.621461  0.950907  0.324345  1
  O  O41  1  0.621461  0.549094  0.324344  1
  O  O42  1  0.694283  0.750000  0.088909  1
  O  O43  1  0.728647  0.250000  0.121251  1
  O  O44  1  0.771350  0.750000  0.621252  1
  O  O45  1  0.805717  0.250000  0.588910  1
  O  O46  1  0.878540  0.049094  0.824344  1
  O  O47  1  0.878540  0.450906  0.824344  1
