# generated using pymatgen
data_V4OF11
_symmetry_space_group_name_H-M   'P 1'
_cell_length_a   5.25372840
_cell_length_b   5.44933593
_cell_length_c   17.49760359
_cell_angle_alpha   90.75522246
_cell_angle_beta   98.26969794
_cell_angle_gamma   61.66140394
_symmetry_Int_Tables_number   1
_chemical_formula_structural   V4OF11
_chemical_formula_sum   'V8 O2 F22'
_cell_volume   435.45203977
_cell_formula_units_Z   2
loop_
 _symmetry_equiv_pos_site_id
 _symmetry_equiv_pos_as_xyz
  1  'x, y, z'
loop_
 _atom_site_type_symbol
 _atom_site_label
 _atom_site_symmetry_multiplicity
 _atom_site_fract_x
 _atom_site_fract_y
 _atom_site_fract_z
 _atom_site_occupancy
  V  V0  1  0.752584  0.628463  0.123746  1
  V  V1  1  0.750767  0.126165  0.624591  1
  V  V2  1  0.499022  0.247554  0.251846  1
  V  V3  1  0.499193  0.748348  0.750510  1
  V  V4  1  0.265139  0.892863  0.372404  1
  V  V5  1  0.246900  0.370308  0.876209  1
  V  V6  1  0.992273  0.985045  0.007373  1
  V  V7  1  0.002695  0.504754  0.498254  1
  O  O8  1  0.921699  0.840116  0.080284  1
  O  O9  1  0.408673  0.075308  0.335177  1
  F  F10  1  0.975736  0.309733  0.062833  1
  F  F11  1  0.978122  0.812825  0.560851  1
  F  F12  1  0.530085  0.938204  0.186297  1
  F  F13  1  0.923048  0.032666  0.288448  1
  F  F14  1  0.926408  0.340324  0.587737  1
  F  F15  1  0.927145  0.533933  0.787806  1
  F  F16  1  0.420566  0.788239  0.037154  1
  F  F17  1  0.577307  0.413886  0.163973  1
  F  F18  1  0.573960  0.911765  0.661071  1
  F  F19  1  0.572935  0.714734  0.462353  1
  F  F20  1  0.474641  0.557904  0.315079  1
  F  F21  1  0.522719  0.437925  0.688254  1
  F  F22  1  0.427512  0.287479  0.535729  1
  F  F23  1  0.426601  0.584173  0.839232  1
  F  F24  1  0.576078  0.214817  0.962837  1
  F  F25  1  0.082800  0.674723  0.411005  1
  F  F26  1  0.076518  0.465640  0.211934  1
  F  F27  1  0.072097  0.964033  0.713155  1
  F  F28  1  0.475126  0.060411  0.812507  1
  F  F29  1  0.019887  0.694592  0.935855  1
  F  F30  1  0.026518  0.186960  0.437726  1
  F  F31  1  0.075247  0.156112  0.917770  1
