# generated using pymatgen
data_Ca2Al11Si13Ag7O48
_symmetry_space_group_name_H-M   'P 1'
_cell_length_a   12.94690859
_cell_length_b   12.22018229
_cell_length_c   12.17337955
_cell_angle_alpha   90.06293035
_cell_angle_beta   89.42536639
_cell_angle_gamma   89.86799810
_symmetry_Int_Tables_number   1
_chemical_formula_structural   Ca2Al11Si13Ag7O48
_chemical_formula_sum   'Ca2 Al11 Si13 Ag7 O48'
_cell_volume   1925.89081063
_cell_formula_units_Z   1
loop_
 _symmetry_equiv_pos_site_id
 _symmetry_equiv_pos_as_xyz
  1  'x, y, z'
loop_
 _atom_site_type_symbol
 _atom_site_label
 _atom_site_symmetry_multiplicity
 _atom_site_fract_x
 _atom_site_fract_y
 _atom_site_fract_z
 _atom_site_occupancy
  Ca  Ca0  1  0.773351  0.819634  0.186283  1
  Ca  Ca1  1  0.777186  0.821190  0.815483  1
  Al  Al2  1  0.373423  0.195053  0.000003  1
  Al  Al3  1  0.374445  0.804260  0.999335  1
  Al  Al4  1  0.374829  0.001493  0.803582  1
  Al  Al5  1  0.619491  0.189632  0.003279  1
  Al  Al6  1  0.609694  0.998453  0.199208  1
  Al  Al7  1  0.608102  0.804361  0.002270  1
  Al  Al8  1  0.614132  0.999321  0.804915  1
  Al  Al9  1  0.832799  0.998254  0.637398  1
  Al  Al10  1  0.825206  0.370003  0.000207  1
  Al  Al11  1  0.831946  0.641116  0.000947  1
  Al  Al12  1  0.829862  0.998253  0.362380  1
  Si  Si13  1  0.005140  0.631329  0.811216  1
  Si  Si14  1  0.007057  0.813942  0.629617  1
  Si  Si15  1  0.178970  0.001173  0.625063  1
  Si  Si16  1  0.173210  0.629710  0.999599  1
  Si  Si17  1  0.175722  0.372358  0.999443  1
  Si  Si18  1  0.177759  0.001531  0.366674  1
  Si  Si19  1  0.371743  0.001566  0.192228  1
  Si  Si20  1  0.003061  0.185346  0.629629  1
  Si  Si21  1  0.001846  0.184439  0.367167  1
  Si  Si22  1  0.997966  0.370396  0.186368  1
  Si  Si23  1  0.004297  0.369264  0.813959  1
  Si  Si24  1  0.999233  0.629571  0.189710  1
  Si  Si25  1  0.005494  0.815095  0.366714  1
  Ag  Ag26  1  0.211932  0.809915  0.803789  1
  Ag  Ag27  1  0.208615  0.190980  0.803854  1
  Ag  Ag28  1  0.211544  0.799372  0.191381  1
  Ag  Ag29  1  0.208192  0.201768  0.191722  1
  Ag  Ag30  1  0.569556  0.423429  0.001510  1
  Ag  Ag31  1  0.787359  0.185660  0.815029  1
  Ag  Ag32  1  0.784039  0.186233  0.186557  1
  O  O33  1  0.995246  0.500075  0.220944  1
  O  O34  1  0.017543  0.299445  0.699446  1
  O  O35  1  0.021884  0.698023  0.302973  1
  O  O36  1  0.002760  0.789019  0.497769  1
  O  O37  1  0.022625  0.697528  0.695210  1
  O  O38  1  0.107218  0.110683  0.653310  1
  O  O39  1  0.098921  0.652753  0.108776  1
  O  O40  1  0.108319  0.111557  0.337742  1
  O  O41  1  0.102366  0.347602  0.109470  1
  O  O42  1  0.106792  0.659497  0.887593  1
  O  O43  1  0.111312  0.887991  0.651483  1
  O  O44  1  0.109936  0.342278  0.886801  1
  O  O45  1  0.110975  0.888846  0.338872  1
  O  O46  1  0.203880  0.501269  0.995439  1
  O  O47  1  0.207162  0.002367  0.494413  1
  O  O48  1  0.277483  0.300585  0.010763  1
  O  O49  1  0.277726  0.003075  0.698689  1
  O  O50  1  0.270255  0.707228  0.011542  1
  O  O51  1  0.279135  0.002851  0.290735  1
  O  O52  1  0.347520  0.113552  0.121066  1
  O  O53  1  0.342447  0.119429  0.883442  1
  O  O54  1  0.348677  0.890346  0.119881  1
  O  O55  1  0.343031  0.883990  0.884217  1
  O  O56  1  0.495875  0.253335  0.002732  1
  O  O57  1  0.495268  0.004782  0.745205  1
  O  O58  1  0.491242  0.736475  0.001734  1
  O  O59  1  0.481684  0.003648  0.250292  1
  O  O60  1  0.638431  0.116979  0.125319  1
  O  O61  1  0.646593  0.114265  0.884960  1
  O  O62  1  0.623352  0.875451  0.125948  1
  O  O63  1  0.628949  0.877554  0.881735  1
  O  O64  1  0.731040  0.977472  0.726635  1
  O  O65  1  0.710246  0.298790  0.003539  1
  O  O66  1  0.736483  0.740605  0.003174  1
  O  O67  1  0.723818  0.977856  0.279442  1
  O  O68  1  0.801239  0.507369  0.998847  1
  O  O69  1  0.821215  0.995445  0.499886  1
  O  O70  1  0.902711  0.120184  0.673999  1
  O  O71  1  0.902550  0.118274  0.323464  1
  O  O72  1  0.896630  0.332517  0.121696  1
  O  O73  1  0.902780  0.332109  0.881688  1
  O  O74  1  0.896473  0.675826  0.129591  1
  O  O75  1  0.902327  0.676958  0.874982  1
  O  O76  1  0.904000  0.875144  0.318827  1
  O  O77  1  0.905671  0.874708  0.678241  1
  O  O78  1  0.001435  0.213794  0.498033  1
  O  O79  1  0.014953  0.298962  0.298599  1
  O  O80  1  0.004419  0.500412  0.784335  1
