# generated using pymatgen
data_Li3Sb(PO4)2
_symmetry_space_group_name_H-M   'P 1'
_cell_length_a   8.74691166
_cell_length_b   8.74671682
_cell_length_c   7.22989995
_cell_angle_alpha   89.99081478
_cell_angle_beta   90.00220268
_cell_angle_gamma   120.00166129
_symmetry_Int_Tables_number   1
_chemical_formula_structural   Li3Sb(PO4)2
_chemical_formula_sum   'Li9 Sb3 P6 O24'
_cell_volume   479.02198802
_cell_formula_units_Z   3
loop_
 _symmetry_equiv_pos_site_id
 _symmetry_equiv_pos_as_xyz
  1  'x, y, z'
loop_
 _atom_site_type_symbol
 _atom_site_label
 _atom_site_symmetry_multiplicity
 _atom_site_fract_x
 _atom_site_fract_y
 _atom_site_fract_z
 _atom_site_occupancy
  Li  Li0  1  0.364608  0.051932  0.657180  1
  Li  Li1  1  0.947848  0.312594  0.657420  1
  Li  Li2  1  0.999923  0.000684  0.499193  1
  Li  Li3  1  0.333415  0.666786  0.523069  1
  Li  Li4  1  0.312640  0.364584  0.342784  1
  Li  Li5  1  0.687407  0.635276  0.657548  1
  Li  Li6  1  0.666710  0.333382  0.476898  1
  Li  Li7  1  0.052018  0.687453  0.342606  1
  Li  Li8  1  0.635368  0.947905  0.342340  1
  Sb  Sb9  1  0.999910  0.000070  0.998851  1
  Sb  Sb10  1  0.333253  0.666530  0.044342  1
  Sb  Sb11  1  0.666648  0.333217  0.955989  1
  P  P12  1  0.024739  0.688862  0.756211  1
  P  P13  1  0.311187  0.335800  0.756242  1
  P  P14  1  0.664187  0.975436  0.756201  1
  P  P15  1  0.335705  0.024577  0.243871  1
  P  P16  1  0.688828  0.664118  0.244112  1
  P  P17  1  0.975401  0.311088  0.244119  1
  O  O18  1  0.131726  0.929019  0.265673  1
  O  O19  1  0.156176  0.729859  0.596008  1
  O  O20  1  0.118817  0.734918  0.945491  1
  O  O21  1  0.393824  0.878516  0.253619  1
  O  O22  1  0.121545  0.515327  0.253695  1
  O  O23  1  0.070974  0.202595  0.266866  1
  O  O24  1  0.616462  0.881447  0.945267  1
  O  O25  1  0.202486  0.131539  0.733946  1
  O  O26  1  0.264784  0.383211  0.945680  1
  O  O27  1  0.270655  0.426758  0.596290  1
  O  O28  1  0.573204  0.843805  0.595784  1
  O  O29  1  0.484659  0.606203  0.253856  1
  O  O30  1  0.515257  0.393646  0.746518  1
  O  O31  1  0.426547  0.156161  0.403863  1
  O  O32  1  0.729466  0.573444  0.404172  1
  O  O33  1  0.734801  0.616066  0.054739  1
  O  O34  1  0.797392  0.868320  0.266009  1
  O  O35  1  0.383889  0.118789  0.054364  1
  O  O36  1  0.929071  0.797488  0.734617  1
  O  O37  1  0.878577  0.484817  0.746207  1
  O  O38  1  0.606328  0.121579  0.746169  1
  O  O39  1  0.881653  0.264754  0.054571  1
  O  O40  1  0.843790  0.270652  0.403896  1
  O  O41  1  0.868321  0.070791  0.733726  1
