# generated using pymatgen
data_Li4V2Fe3Ni3O16
_symmetry_space_group_name_H-M   'P 1'
_cell_length_a   5.85862365
_cell_length_b   5.85597412
_cell_length_c   9.49299895
_cell_angle_alpha   89.98780369
_cell_angle_beta   87.85474910
_cell_angle_gamma   119.97999820
_symmetry_Int_Tables_number   1
_chemical_formula_structural   Li4V2Fe3Ni3O16
_chemical_formula_sum   'Li4 V2 Fe3 Ni3 O16'
_cell_volume   281.84353515
_cell_formula_units_Z   1
loop_
 _symmetry_equiv_pos_site_id
 _symmetry_equiv_pos_as_xyz
  1  'x, y, z'
loop_
 _atom_site_type_symbol
 _atom_site_label
 _atom_site_symmetry_multiplicity
 _atom_site_fract_x
 _atom_site_fract_y
 _atom_site_fract_z
 _atom_site_occupancy
  Li  Li0  1  0.341430  0.670800  0.898046  1
  Li  Li1  1  0.993092  0.996819  0.990088  1
  Li  Li2  1  0.005352  0.002673  0.493754  1
  Li  Li3  1  0.667223  0.333726  0.404245  1
  V  V4  1  0.349831  0.674969  0.492601  1
  V  V5  1  0.700043  0.350181  0.989694  1
  Fe  Fe6  1  0.178707  0.834485  0.216550  1
  Fe  Fe7  1  0.178721  0.344225  0.216578  1
  Fe  Fe8  1  0.340138  0.170132  0.718910  1
  Ni  Ni9  1  0.657785  0.828890  0.214465  1
  Ni  Ni10  1  0.830504  0.656507  0.712904  1
  Ni  Ni11  1  0.830558  0.173906  0.712923  1
  O  O12  1  0.160436  0.821767  0.595285  1
  O  O13  1  0.031194  0.515598  0.340472  1
  O  O14  1  0.334350  0.667175  0.104502  1
  O  O15  1  0.997073  0.998480  0.303492  1
  O  O16  1  0.977456  0.988678  0.799766  1
  O  O17  1  0.160486  0.338440  0.595336  1
  O  O18  1  0.466336  0.957085  0.356741  1
  O  O19  1  0.466258  0.509159  0.356734  1
  O  O20  1  0.339811  0.169969  0.087813  1
  O  O21  1  0.640283  0.820038  0.584818  1
  O  O22  1  0.527767  0.485530  0.840471  1
  O  O23  1  0.527701  0.042254  0.840396  1
  O  O24  1  0.681530  0.340772  0.610385  1
  O  O25  1  0.825939  0.650372  0.088819  1
  O  O26  1  0.964124  0.482001  0.853189  1
  O  O27  1  0.825874  0.175667  0.088860  1
