# generated using pymatgen
data_Cu3(OF)2
_symmetry_space_group_name_H-M   'P 1'
_cell_length_a   8.03926357
_cell_length_b   8.20420067
_cell_length_c   10.37122826
_cell_angle_alpha   90.00000000
_cell_angle_beta   72.59729449
_cell_angle_gamma   90.00000000
_symmetry_Int_Tables_number   1
_chemical_formula_structural   Cu3(OF)2
_chemical_formula_sum   'Cu24 O16 F16'
_cell_volume   652.73075249
_cell_formula_units_Z   8
loop_
 _symmetry_equiv_pos_site_id
 _symmetry_equiv_pos_as_xyz
  1  'x, y, z'
loop_
 _atom_site_type_symbol
 _atom_site_label
 _atom_site_symmetry_multiplicity
 _atom_site_fract_x
 _atom_site_fract_y
 _atom_site_fract_z
 _atom_site_occupancy
  Cu  Cu0  1  0.075227  0.791109  0.355579  1
  Cu  Cu1  1  0.105114  0.419370  0.380579  1
  Cu  Cu2  1  0.232971  0.180294  0.165962  1
  Cu  Cu3  1  0.075227  0.708891  0.855579  1
  Cu  Cu4  1  0.307714  0.513232  0.069823  1
  Cu  Cu5  1  0.105114  0.080630  0.880579  1
  Cu  Cu6  1  0.232971  0.319706  0.665962  1
  Cu  Cu7  1  0.450069  0.927631  0.268127  1
  Cu  Cu8  1  0.307714  0.986768  0.569823  1
  Cu  Cu9  1  0.594324  0.153394  0.007138  1
  Cu  Cu10  1  0.405676  0.653394  0.492863  1
  Cu  Cu11  1  0.549931  0.427631  0.231873  1
  Cu  Cu12  1  0.450069  0.572369  0.768127  1
  Cu  Cu13  1  0.594324  0.346606  0.507137  1
  Cu  Cu14  1  0.405676  0.846606  0.992863  1
  Cu  Cu15  1  0.692286  0.013232  0.430177  1
  Cu  Cu16  1  0.549931  0.072369  0.731873  1
  Cu  Cu17  1  0.767029  0.680294  0.334038  1
  Cu  Cu18  1  0.894886  0.919370  0.119421  1
  Cu  Cu19  1  0.692286  0.486768  0.930177  1
  Cu  Cu20  1  0.924773  0.291109  0.144421  1
  Cu  Cu21  1  0.767029  0.819706  0.834038  1
  Cu  Cu22  1  0.894886  0.580630  0.619421  1
  Cu  Cu23  1  0.924773  0.208891  0.644421  1
  O  O24  1  0.061692  0.098685  0.074661  1
  O  O25  1  0.123222  0.386226  0.190273  1
  O  O26  1  0.061692  0.401315  0.574661  1
  O  O27  1  0.123222  0.113774  0.690273  1
  O  O28  1  0.401658  0.020259  0.116438  1
  O  O29  1  0.504101  0.373682  0.067247  1
  O  O30  1  0.495899  0.873682  0.432753  1
  O  O31  1  0.401658  0.479741  0.616438  1
  O  O32  1  0.598342  0.520258  0.383562  1
  O  O33  1  0.504101  0.126318  0.567247  1
  O  O34  1  0.495899  0.626318  0.932753  1
  O  O35  1  0.598342  0.979742  0.883562  1
  O  O36  1  0.876778  0.886226  0.309727  1
  O  O37  1  0.938308  0.598685  0.425339  1
  O  O38  1  0.876778  0.613774  0.809727  1
  O  O39  1  0.938308  0.901315  0.925339  1
  F  F40  1  0.188838  0.729472  0.094507  1
  F  F41  1  0.198247  0.992728  0.366279  1
  F  F42  1  0.188838  0.770528  0.594507  1
  F  F43  1  0.294688  0.664815  0.321450  1
  F  F44  1  0.198247  0.507272  0.866279  1
  F  F45  1  0.333674  0.305326  0.335161  1
  F  F46  1  0.294688  0.835185  0.821450  1
  F  F47  1  0.666326  0.805326  0.164839  1
  F  F48  1  0.333674  0.194674  0.835161  1
  F  F49  1  0.705312  0.164815  0.178550  1
  F  F50  1  0.666326  0.694674  0.664839  1
  F  F51  1  0.801753  0.492728  0.133721  1
  F  F52  1  0.705312  0.335185  0.678550  1
  F  F53  1  0.811162  0.229472  0.405493  1
  F  F54  1  0.801753  0.007272  0.633721  1
  F  F55  1  0.811162  0.270528  0.905493  1
