# generated using pymatgen
data_Li32Mn13Cr3O48
_symmetry_space_group_name_H-M   'P 1'
_cell_length_a   5.01457647
_cell_length_b   8.68471898
_cell_length_c   19.47352656
_cell_angle_alpha   98.27872966
_cell_angle_beta   94.83223188
_cell_angle_gamma   89.85001387
_symmetry_Int_Tables_number   1
_chemical_formula_structural   Li32Mn13Cr3O48
_chemical_formula_sum   'Li32 Mn13 Cr3 O48'
_cell_volume   836.21632828
_cell_formula_units_Z   1
loop_
 _symmetry_equiv_pos_site_id
 _symmetry_equiv_pos_as_xyz
  1  'x, y, z'
loop_
 _atom_site_type_symbol
 _atom_site_label
 _atom_site_symmetry_multiplicity
 _atom_site_fract_x
 _atom_site_fract_y
 _atom_site_fract_z
 _atom_site_occupancy
  Li  Li0  1  0.992839  0.168158  0.249806  1
  Li  Li1  1  0.875157  0.372760  0.374990  1
  Li  Li2  1  0.751609  0.249717  0.999725  1
  Li  Li3  1  0.743725  0.920098  0.000443  1
  Li  Li4  1  0.988408  0.168793  0.750372  1
  Li  Li5  1  0.753325  0.580502  0.500179  1
  Li  Li6  1  0.875455  0.373409  0.875156  1
  Li  Li7  1  0.749472  0.249499  0.499695  1
  Li  Li8  1  0.744881  0.920248  0.500511  1
  Li  Li9  1  0.624861  0.125070  0.124982  1
  Li  Li10  1  0.756098  0.580305  0.999824  1
  Li  Li11  1  0.506331  0.331465  0.250074  1
  Li  Li12  1  0.627952  0.123855  0.624814  1
  Li  Li13  1  0.501047  0.999752  0.250272  1
  Li  Li14  1  0.489915  0.668914  0.249447  1
  Li  Li15  1  0.510358  0.332469  0.750973  1
  Li  Li16  1  0.375351  0.874912  0.374950  1
  Li  Li17  1  0.500404  0.000123  0.750452  1
  Li  Li18  1  0.249167  0.749983  -0.000017  1
  Li  Li19  1  0.493267  0.668012  0.749677  1
  Li  Li20  1  0.243010  0.418109  0.999771  1
  Li  Li21  1  0.376196  0.875116  0.874899  1
  Li  Li22  1  0.253454  0.078869  0.499073  1
  Li  Li23  1  0.253264  0.750609  0.500130  1
  Li  Li24  1  0.124855  0.625017  0.124937  1
  Li  Li25  1  0.244270  0.420345  0.499783  1
  Li  Li26  1  0.007808  0.831774  0.250321  1
  Li  Li27  1  0.255942  0.081747  0.999417  1
  Li  Li28  1  0.125552  0.625875  0.625271  1
  Li  Li29  1  0.002240  0.500004  0.249602  1
  Li  Li30  1  0.006365  0.831401  0.750072  1
  Li  Li31  1  0.000358  0.500138  0.750078  1
  Mn  Mn32  1  0.875292  0.041743  0.374907  1
  Mn  Mn33  1  0.873916  0.706955  0.874806  1
  Mn  Mn34  1  0.625834  0.791443  0.124927  1
  Mn  Mn35  1  0.624610  0.458443  0.124947  1
  Mn  Mn36  1  0.624738  0.791570  0.625160  1
  Mn  Mn37  1  0.626793  0.459836  0.625778  1
  Mn  Mn38  1  0.375395  0.541651  0.374902  1
  Mn  Mn39  1  0.374122  0.208527  0.374891  1
  Mn  Mn40  1  0.375016  0.541875  0.875139  1
  Mn  Mn41  1  0.374598  0.210194  0.875389  1
  Mn  Mn42  1  0.124702  0.958423  0.124897  1
  Mn  Mn43  1  0.125749  0.291446  0.124924  1
  Mn  Mn44  1  0.122817  0.957269  0.624324  1
  Cr  Cr45  1  0.873937  0.705203  0.374909  1
  Cr  Cr46  1  0.879243  0.039832  0.875071  1
  Cr  Cr47  1  0.132256  0.291049  0.624962  1
  O  O48  1  0.963969  0.106595  0.068787  1
  O  O49  1  0.928171  0.785251  0.069005  1
  O  O50  1  0.927349  0.427407  0.068073  1
  O  O51  1  0.962471  0.102654  0.568244  1
  O  O52  1  0.822434  0.964732  0.180853  1
  O  O53  1  0.822877  0.322623  0.181968  1
  O  O54  1  0.927499  0.783812  0.568965  1
  O  O55  1  0.926335  0.425459  0.568073  1
  O  O56  1  0.785835  0.643248  0.181044  1
  O  O57  1  0.716710  0.857564  0.319022  1
  O  O58  1  0.821107  0.964715  0.681204  1
  O  O59  1  0.820804  0.323869  0.682428  1
  O  O60  1  0.678068  0.537631  0.319134  1
  O  O61  1  0.677079  0.178371  0.318058  1
  O  O62  1  0.788322  0.644492  0.681170  1
  O  O63  1  0.712321  0.854497  0.818753  1
  O  O64  1  0.464093  0.606685  0.069008  1
  O  O65  1  0.565302  0.713359  0.431487  1
  O  O66  1  0.571981  0.072728  0.431604  1
  O  O67  1  0.677977  0.534738  0.819352  1
  O  O68  1  0.675308  0.177378  0.817764  1
  O  O69  1  0.427577  0.927432  0.067910  1
  O  O70  1  0.428342  0.285253  0.069086  1
  O  O71  1  0.537106  0.392997  0.430808  1
  O  O72  1  0.463457  0.607413  0.569177  1
  O  O73  1  0.571255  0.715184  0.930983  1
  O  O74  1  0.572699  0.073788  0.932051  1
  O  O75  1  0.322956  0.822728  0.181853  1
  O  O76  1  0.322118  0.464497  0.180911  1
  O  O77  1  0.427131  0.927609  0.568233  1
  O  O78  1  0.427841  0.287822  0.568969  1
  O  O79  1  0.537256  0.393722  0.930949  1
  O  O80  1  0.286005  0.143218  0.180909  1
  O  O81  1  0.212583  0.356421  0.319044  1
  O  O82  1  0.322982  0.822551  0.682147  1
  O  O83  1  0.326457  0.466739  0.681666  1
  O  O84  1  0.183209  0.675787  0.317333  1
  O  O85  1  0.178092  0.035546  0.319100  1
  O  O86  1  0.279281  0.143290  0.680878  1
  O  O87  1  0.213377  0.357056  0.819226  1
  O  O88  1  0.072467  0.574511  0.431740  1
  O  O89  1  0.072146  0.215450  0.430825  1
  O  O90  1  0.177064  0.678080  0.818310  1
  O  O91  1  0.176360  0.037246  0.819101  1
  O  O92  1  0.032772  0.893653  0.430758  1
  O  O93  1  0.072503  0.572197  0.931938  1
  O  O94  1  0.075220  0.216671  0.931406  1
  O  O95  1  0.033775  0.892827  0.931078  1
