# generated using pymatgen
data_FeP3H18C6(SO)6
_symmetry_space_group_name_H-M   'P 1'
_cell_length_a   9.21827987
_cell_length_b   9.21827987
_cell_length_c   13.33573886
_cell_angle_alpha   84.09943441
_cell_angle_beta   95.90056559
_cell_angle_gamma   104.31682063
_symmetry_Int_Tables_number   1
_chemical_formula_structural   FeP3H18C6(SO)6
_chemical_formula_sum   'Fe2 P6 H36 C12 S12 O12'
_cell_volume   1088.68897578
_cell_formula_units_Z   2
loop_
 _symmetry_equiv_pos_site_id
 _symmetry_equiv_pos_as_xyz
  1  'x, y, z'
loop_
 _atom_site_type_symbol
 _atom_site_label
 _atom_site_symmetry_multiplicity
 _atom_site_fract_x
 _atom_site_fract_y
 _atom_site_fract_z
 _atom_site_occupancy
  Fe  Fe0  1  0.836764  0.836764  0.750000  1
  Fe  Fe1  1  0.163236  0.163236  0.250000  1
  P  P2  1  0.567831  0.567831  0.750000  1
  P  P3  1  0.432169  0.432169  0.250000  1
  P  P4  1  0.142183  0.794554  0.851211  1
  P  P5  1  0.794554  0.142183  0.648789  1
  P  P6  1  0.857817  0.205446  0.148789  1
  P  P7  1  0.205446  0.857817  0.351211  1
  H  H8  1  0.562778  0.311854  0.965962  1
  H  H9  1  0.311854  0.562778  0.534038  1
  H  H10  1  0.437222  0.688146  0.034038  1
  H  H11  1  0.688146  0.437222  0.465962  1
  H  H12  1  0.677943  0.498657  0.951342  1
  H  H13  1  0.498657  0.677943  0.548658  1
  H  H14  1  0.322057  0.501343  0.048658  1
  H  H15  1  0.501343  0.322057  0.451342  1
  H  H16  1  0.717781  0.350479  0.888628  1
  H  H17  1  0.350479  0.717781  0.611372  1
  H  H18  1  0.282219  0.649521  0.111372  1
  H  H19  1  0.649521  0.282219  0.388628  1
  H  H20  1  0.192174  0.427861  0.840731  1
  H  H21  1  0.427861  0.192174  0.659269  1
  H  H22  1  0.807826  0.572139  0.159269  1
  H  H23  1  0.572139  0.807826  0.340731  1
  H  H24  1  0.021089  0.463538  0.873210  1
  H  H25  1  0.463538  0.021089  0.626790  1
  H  H26  1  0.978911  0.536462  0.126790  1
  H  H27  1  0.536462  0.978911  0.373210  1
  H  H28  1  0.082280  0.519978  0.748108  1
  H  H29  1  0.519978  0.082280  0.751892  1
  H  H30  1  0.917720  0.480022  0.251892  1
  H  H31  1  0.480022  0.917720  0.248108  1
  H  H32  1  0.283506  0.121493  0.851987  1
  H  H33  1  0.121493  0.283506  0.648013  1
  H  H34  1  0.716494  0.878507  0.148013  1
  H  H35  1  0.878507  0.716494  0.351987  1
  H  H36  1  0.191772  0.052899  0.966398  1
  H  H37  1  0.052899  0.191772  0.533602  1
  H  H38  1  0.808228  0.947101  0.033602  1
  H  H39  1  0.947101  0.808228  0.466398  1
  H  H40  1  0.392739  0.094605  0.969164  1
  H  H41  1  0.094605  0.392739  0.530836  1
  H  H42  1  0.607261  0.905395  0.030836  1
  H  H43  1  0.905395  0.607261  0.469164  1
  C  C44  1  0.628861  0.395348  0.913601  1
  C  C45  1  0.395348  0.628861  0.586399  1
  C  C46  1  0.371139  0.604653  0.086399  1
  C  C47  1  0.604653  0.371139  0.413601  1
  C  C48  1  0.118998  0.506574  0.828749  1
  C  C49  1  0.506574  0.118998  0.671251  1
  C  C50  1  0.881002  0.493426  0.171251  1
  C  C51  1  0.493426  0.881002  0.328749  1
  C  C52  1  0.287631  0.051586  0.923731  1
  C  C53  1  0.051586  0.287631  0.576269  1
  C  C54  1  0.712369  0.948414  0.076269  1
  C  C55  1  0.948414  0.712369  0.423731  1
  S  S56  1  0.761370  0.592242  0.685951  1
  S  S57  1  0.592242  0.761370  0.814049  1
  S  S58  1  0.238630  0.407758  0.314049  1
  S  S59  1  0.407758  0.238630  0.185951  1
  S  S60  1  0.960018  0.768575  0.925302  1
  S  S61  1  0.768575  0.960018  0.574698  1
  S  S62  1  0.039982  0.231425  0.074698  1
  S  S63  1  0.231425  0.039982  0.425302  1
  S  S64  1  0.101827  0.864061  0.705659  1
  S  S65  1  0.864061  0.101827  0.794341  1
  S  S66  1  0.898173  0.135939  0.294341  1
  S  S67  1  0.135939  0.898173  0.205659  1
  O  O68  1  0.525311  0.422213  0.827127  1
  O  O69  1  0.422213  0.525311  0.672873  1
  O  O70  1  0.474689  0.577787  0.172873  1
  O  O71  1  0.577787  0.474689  0.327127  1
  O  O72  1  0.208528  0.647139  0.863083  1
  O  O73  1  0.647139  0.208528  0.636917  1
  O  O74  1  0.791472  0.352861  0.136917  1
  O  O75  1  0.352861  0.791472  0.363083  1
  O  O76  1  0.288490  0.900289  0.905266  1
  O  O77  1  0.900289  0.288490  0.594734  1
  O  O78  1  0.711510  0.099711  0.094734  1
  O  O79  1  0.099711  0.711510  0.405266  1
