# generated using pymatgen
data_SmZr4O9
_symmetry_space_group_name_H-M   'P 1'
_cell_length_a   3.57455849
_cell_length_b   9.94765540
_cell_length_c   5.24601878
_cell_angle_alpha   74.70809295
_cell_angle_beta   90.12254982
_cell_angle_gamma   79.69817698
_symmetry_Int_Tables_number   1
_chemical_formula_structural   SmZr4O9
_chemical_formula_sum   'Sm1 Zr4 O9'
_cell_volume   176.79616295
_cell_formula_units_Z   1
loop_
 _symmetry_equiv_pos_site_id
 _symmetry_equiv_pos_as_xyz
  1  'x, y, z'
loop_
 _atom_site_type_symbol
 _atom_site_label
 _atom_site_symmetry_multiplicity
 _atom_site_fract_x
 _atom_site_fract_y
 _atom_site_fract_z
 _atom_site_occupancy
  Sm  Sm0  1  0.392136  0.200486  0.384981  1
  Zr  Zr1  1  0.008967  0.981498  0.028345  1
  Zr  Zr2  1  0.199444  0.595172  0.218277  1
  Zr  Zr3  1  0.787875  0.419343  0.806674  1
  Zr  Zr4  1  0.598258  0.806176  0.615309  1
  O  O5  1  0.507291  0.986611  0.271652  1
  O  O6  1  0.904112  0.200283  0.999125  1
  O  O7  1  0.291618  0.414449  0.059476  1
  O  O8  1  0.699430  0.600204  0.459124  1
  O  O9  1  0.496635  0.004760  0.763547  1
  O  O10  1  0.102613  0.794710  0.370433  1
  O  O11  1  0.300499  0.394862  0.570260  1
  O  O12  1  0.100248  0.799735  0.867183  1
  O  O13  1  0.695418  0.606237  0.957179  1
