# generated using pymatgen
data_Sm(ClO4)3
_symmetry_space_group_name_H-M   'P 1'
_cell_length_a   8.39112030
_cell_length_b   9.64399709
_cell_length_c   8.39112034
_cell_angle_alpha   115.78807255
_cell_angle_beta   60.00000015
_cell_angle_gamma   115.78807443
_symmetry_Int_Tables_number   1
_chemical_formula_structural   Sm(ClO4)3
_chemical_formula_sum   'Sm2 Cl6 O24'
_cell_volume   508.48315797
_cell_formula_units_Z   2
loop_
 _symmetry_equiv_pos_site_id
 _symmetry_equiv_pos_as_xyz
  1  'x, y, z'
loop_
 _atom_site_type_symbol
 _atom_site_label
 _atom_site_symmetry_multiplicity
 _atom_site_fract_x
 _atom_site_fract_y
 _atom_site_fract_z
 _atom_site_occupancy
  Sm  Sm0  1  0.058313  0.174940  0.058313  1
  Sm  Sm1  1  0.558313  0.674940  0.558313  1
  Cl  Cl2  1  0.466992  0.500728  0.188832  1
  Cl  Cl3  1  0.188832  0.500728  0.844903  1
  Cl  Cl4  1  0.344903  0.000728  0.688832  1
  Cl  Cl5  1  0.844903  0.500728  0.466992  1
  Cl  Cl6  1  0.966992  0.000728  0.344903  1
  Cl  Cl7  1  0.688832  0.000728  0.966992  1
  O  O8  1  0.076078  0.960415  0.134929  1
  O  O9  1  0.134929  0.960415  0.749407  1
  O  O10  1  0.285459  0.372673  0.202480  1
  O  O11  1  0.001814  0.521304  0.947081  1
  O  O12  1  0.420091  0.649078  0.336619  1
  O  O13  1  0.072408  0.021304  0.447081  1
  O  O14  1  0.384733  0.872673  0.702480  1
  O  O15  1  0.749407  0.960415  0.076078  1
  O  O16  1  0.572408  0.521304  0.001814  1
  O  O17  1  0.249407  0.460415  0.634929  1
  O  O18  1  0.202480  0.372673  0.884733  1
  O  O19  1  0.336619  0.649078  0.892368  1
  O  O20  1  0.576078  0.460415  0.249407  1
  O  O21  1  0.501814  0.021304  0.072408  1
  O  O22  1  0.785459  0.872673  0.384733  1
  O  O23  1  0.702480  0.872673  0.785459  1
  O  O24  1  0.447081  0.021304  0.501814  1
  O  O25  1  0.634929  0.460415  0.576078  1
  O  O26  1  0.392368  0.149078  0.836619  1
  O  O27  1  0.892368  0.649078  0.420091  1
  O  O28  1  0.884733  0.372673  0.285459  1
  O  O29  1  0.947081  0.521304  0.572408  1
  O  O30  1  0.920091  0.149078  0.392368  1
  O  O31  1  0.836619  0.149078  0.920091  1
