# generated using pymatgen
data_CoHCO3
_symmetry_space_group_name_H-M   'P 1'
_cell_length_a   8.10968101
_cell_length_b   6.87310056
_cell_length_c   10.37465151
_cell_angle_alpha   92.11237253
_cell_angle_beta   120.64055488
_cell_angle_gamma   97.25768874
_symmetry_Int_Tables_number   1
_chemical_formula_structural   CoHCO3
_chemical_formula_sum   'Co6 H6 C6 O18'
_cell_volume   490.06097213
_cell_formula_units_Z   6
loop_
 _symmetry_equiv_pos_site_id
 _symmetry_equiv_pos_as_xyz
  1  'x, y, z'
loop_
 _atom_site_type_symbol
 _atom_site_label
 _atom_site_symmetry_multiplicity
 _atom_site_fract_x
 _atom_site_fract_y
 _atom_site_fract_z
 _atom_site_occupancy
  Co  Co0  1  0.797027  0.002945  0.763302  1
  Co  Co1  1  0.871900  0.736930  0.614149  1
  Co  Co2  1  0.128744  0.271225  0.987262  1
  Co  Co3  1  0.202973  0.997055  0.236698  1
  Co  Co4  1  0.128100  0.263070  0.385851  1
  Co  Co5  1  0.871256  0.728775  0.012738  1
  H  H6  1  0.629525  0.491761  0.743015  1
  H  H7  1  0.153496  0.157715  0.713014  1
  H  H8  1  0.633081  0.986623  0.917399  1
  H  H9  1  0.370475  0.508239  0.256985  1
  H  H10  1  0.846504  0.842285  0.286986  1
  H  H11  1  0.366919  0.013377  0.082601  1
  C  C12  1  0.686451  0.838596  0.223296  1
  C  C13  1  0.418522  0.571055  0.182815  1
  C  C14  1  0.087568  0.579823  0.521337  1
  C  C15  1  0.313549  0.161404  0.776704  1
  C  C16  1  0.581478  0.428945  0.817185  1
  C  C17  1  0.912432  0.420177  0.478663  1
  O  O18  1  0.336531  0.519892  0.045583  1
  O  O19  1  0.405237  0.312371  0.735311  1
  O  O20  1  0.280163  0.261892  0.309931  1
  O  O21  1  0.663469  0.480108  0.954417  1
  O  O22  1  0.594763  0.687629  0.264689  1
  O  O23  1  0.719837  0.738108  0.690069  1
  O  O24  1  0.603421  0.957225  0.142286  1
  O  O25  1  0.880316  0.262446  0.831858  1
  O  O26  1  0.893179  0.997816  0.638467  1
  O  O27  1  0.396579  0.042775  0.857714  1
  O  O28  1  0.119684  0.737554  0.168142  1
  O  O29  1  0.106821  0.002184  0.361533  1
  O  O30  1  0.253707  0.056494  0.079869  1
  O  O31  1  0.796048  0.459346  0.519991  1
  O  O32  1  0.101663  0.739486  0.595011  1
  O  O33  1  0.746293  0.943506  0.920131  1
  O  O34  1  0.203952  0.540654  0.480009  1
  O  O35  1  0.898337  0.260514  0.404989  1
