# generated using pymatgen
data_Li4Cu(PO3)6
_symmetry_space_group_name_H-M   'P 1'
_cell_length_a   7.65673170
_cell_length_b   7.25358981
_cell_length_c   7.49222905
_cell_angle_alpha   66.35207170
_cell_angle_beta   107.71133155
_cell_angle_gamma   80.70628313
_symmetry_Int_Tables_number   1
_chemical_formula_structural   Li4Cu(PO3)6
_chemical_formula_sum   'Li4 Cu1 P6 O18'
_cell_volume   343.40012744
_cell_formula_units_Z   1
loop_
 _symmetry_equiv_pos_site_id
 _symmetry_equiv_pos_as_xyz
  1  'x, y, z'
loop_
 _atom_site_type_symbol
 _atom_site_label
 _atom_site_symmetry_multiplicity
 _atom_site_fract_x
 _atom_site_fract_y
 _atom_site_fract_z
 _atom_site_occupancy
  Li  Li0  1  0.112825  0.215908  0.937046  1
  Li  Li1  1  0.160933  0.628268  0.554351  1
  Li  Li2  1  0.471843  0.487194  0.001694  1
  Li  Li3  1  0.849527  0.363797  0.456984  1
  Cu  Cu4  1  0.867321  0.795699  0.056790  1
  P  P5  1  0.220504  0.986935  0.684950  1
  P  P6  1  0.217290  0.340297  0.313666  1
  P  P7  1  0.502278  0.207328  0.737135  1
  P  P8  1  0.501061  0.774942  0.277064  1
  P  P9  1  0.793152  0.672945  0.680662  1
  P  P10  1  0.764653  0.021657  0.299111  1
  O  O11  1  0.068177  0.111466  0.717178  1
  O  O12  1  0.065307  0.510255  0.308771  1
  O  O13  1  0.188398  0.113988  0.435077  1
  O  O14  1  0.252129  0.757888  0.743821  1
  O  O15  1  0.402026  0.370710  0.779234  1
  O  O16  1  0.428864  0.003564  0.799856  1
  O  O17  1  0.234546  0.361453  0.114503  1
  O  O18  1  0.287240  0.837326  0.186504  1
  O  O19  1  0.430125  0.306726  0.479962  1
  O  O20  1  0.578056  0.695598  0.534809  1
  O  O21  1  0.720910  0.112021  0.838407  1
  O  O22  1  0.787998  0.660962  0.884148  1
  O  O23  1  0.559655  0.994260  0.199952  1
  O  O24  1  0.624705  0.620876  0.241228  1
  O  O25  1  0.738132  0.250938  0.230935  1
  O  O26  1  0.812591  0.902786  0.550942  1
  O  O27  1  0.938378  0.502721  0.685466  1
  O  O28  1  0.921377  0.891492  0.269753  1
