# generated using pymatgen
data_LiMnF3
_symmetry_space_group_name_H-M   'P 1'
_cell_length_a   5.97504674
_cell_length_b   5.97504674
_cell_length_c   12.14397364
_cell_angle_alpha   75.75387930
_cell_angle_beta   104.24612070
_cell_angle_gamma   119.98370488
_symmetry_Int_Tables_number   1
_chemical_formula_structural   LiMnF3
_chemical_formula_sum   'Li6 Mn6 F18'
_cell_volume   360.04774418
_cell_formula_units_Z   6
loop_
 _symmetry_equiv_pos_site_id
 _symmetry_equiv_pos_as_xyz
  1  'x, y, z'
loop_
 _atom_site_type_symbol
 _atom_site_label
 _atom_site_symmetry_multiplicity
 _atom_site_fract_x
 _atom_site_fract_y
 _atom_site_fract_z
 _atom_site_occupancy
  Li  Li0  1  0.436310  0.750291  0.750042  1
  Li  Li1  1  0.064543  0.064543  0.750000  1
  Li  Li2  1  0.249709  0.563690  0.250042  1
  Li  Li3  1  0.750291  0.436310  0.749958  1
  Li  Li4  1  0.935457  0.935457  0.250000  1
  Li  Li5  1  0.563690  0.249709  0.249958  1
  Mn  Mn6  1  0.000000  0.500000  0.500000  1
  Mn  Mn7  1  0.656101  0.843990  0.468202  1
  Mn  Mn8  1  0.843990  0.656101  0.031798  1
  Mn  Mn9  1  0.156010  0.343899  0.968202  1
  Mn  Mn10  1  0.343899  0.156010  0.531798  1
  Mn  Mn11  1  0.500000  0.000000  0.000000  1
  F  F12  1  0.366634  0.791113  0.576094  1
  F  F13  1  0.499509  0.709083  0.923892  1
  F  F14  1  0.092027  0.408189  0.775694  1
  F  F15  1  0.208887  0.633366  0.076094  1
  F  F16  1  0.290917  0.500491  0.423892  1
  F  F17  1  0.000508  0.133558  0.575992  1
  F  F18  1  0.750252  0.750252  0.750000  1
  F  F19  1  0.133558  0.000508  0.924008  1
  F  F20  1  0.591811  0.907973  0.275694  1
  F  F21  1  0.408189  0.092027  0.724306  1
  F  F22  1  0.866442  0.999492  0.075992  1
  F  F23  1  0.249748  0.249748  0.250000  1
  F  F24  1  0.999492  0.866442  0.424008  1
  F  F25  1  0.709083  0.499509  0.576108  1
  F  F26  1  0.791113  0.366634  0.923906  1
  F  F27  1  0.907973  0.591811  0.224306  1
  F  F28  1  0.500491  0.290917  0.076108  1
  F  F29  1  0.633366  0.208887  0.423906  1
