# generated using pymatgen
data_FeNi(PO4)2
_symmetry_space_group_name_H-M   'P 1'
_cell_length_a   8.43349218
_cell_length_b   8.65392973
_cell_length_c   8.65392966
_cell_angle_alpha   59.99999757
_cell_angle_beta   59.13151244
_cell_angle_gamma   59.13151724
_symmetry_Int_Tables_number   1
_chemical_formula_structural   FeNi(PO4)2
_chemical_formula_sum   'Fe3 Ni3 P6 O24'
_cell_volume   440.64779444
_cell_formula_units_Z   3
loop_
 _symmetry_equiv_pos_site_id
 _symmetry_equiv_pos_as_xyz
  1  'x, y, z'
loop_
 _atom_site_type_symbol
 _atom_site_label
 _atom_site_symmetry_multiplicity
 _atom_site_fract_x
 _atom_site_fract_y
 _atom_site_fract_z
 _atom_site_occupancy
  Fe  Fe0  1  0.004426  0.998524  0.998524  1
  Fe  Fe1  1  0.564362  0.145213  0.145213  1
  Fe  Fe2  1  0.501104  0.499632  0.499632  1
  Ni  Ni3  1  0.074455  0.641849  0.641849  1
  Ni  Ni4  1  0.429489  0.856837  0.856837  1
  Ni  Ni5  1  0.928136  0.357288  0.357288  1
  P  P6  1  0.249528  0.251112  0.548142  1
  P  P7  1  0.249528  0.951217  0.251112  1
  P  P8  1  0.249528  0.548142  0.951217  1
  P  P9  1  0.749948  0.451818  0.048875  1
  P  P10  1  0.749948  0.048875  0.749359  1
  P  P11  1  0.749948  0.749359  0.451818  1
  O  O12  1  0.062847  0.098377  0.335354  1
  O  O13  1  0.062847  0.503424  0.098377  1
  O  O14  1  0.062847  0.335354  0.503424  1
  O  O15  1  0.211934  0.096929  0.749244  1
  O  O16  1  0.431249  0.171154  0.394619  1
  O  O17  1  0.292400  0.399131  0.560930  1
  O  O18  1  0.211934  0.941893  0.096929  1
  O  O19  1  0.292400  0.747540  0.399131  1
  O  O20  1  0.566847  0.603391  0.003118  1
  O  O21  1  0.292400  0.560930  0.747540  1
  O  O22  1  0.785295  0.248357  0.061501  1
  O  O23  1  0.566847  0.003118  0.826643  1
  O  O24  1  0.431249  0.002978  0.171154  1
  O  O25  1  0.211934  0.749244  0.941893  1
  O  O26  1  0.712254  0.435418  0.252747  1
  O  O27  1  0.431249  0.394619  0.002978  1
  O  O28  1  0.712254  0.252747  0.599579  1
  O  O29  1  0.785295  0.061501  0.904847  1
  O  O30  1  0.712254  0.599579  0.435418  1
  O  O31  1  0.566847  0.826643  0.603391  1
  O  O32  1  0.785295  0.904847  0.248357  1
  O  O33  1  0.937042  0.670629  0.493383  1
  O  O34  1  0.937042  0.493383  0.898946  1
  O  O35  1  0.937042  0.898946  0.670629  1
