# generated using pymatgen
data_LiMnPCO7
_symmetry_space_group_name_H-M   'P 1'
_cell_length_a   9.41283178
_cell_length_b   10.17571362
_cell_length_c   6.23660494
_cell_angle_alpha   90.00000000
_cell_angle_beta   90.00000000
_cell_angle_gamma   61.63995165
_symmetry_Int_Tables_number   1
_chemical_formula_structural   LiMnPCO7
_chemical_formula_sum   'Li4 Mn4 P4 C4 O28'
_cell_volume   525.66155137
_cell_formula_units_Z   4
loop_
 _symmetry_equiv_pos_site_id
 _symmetry_equiv_pos_as_xyz
  1  'x, y, z'
loop_
 _atom_site_type_symbol
 _atom_site_label
 _atom_site_symmetry_multiplicity
 _atom_site_fract_x
 _atom_site_fract_y
 _atom_site_fract_z
 _atom_site_occupancy
  Li  Li0  1  0.738061  0.256018  0.967037  1
  Li  Li1  1  0.738061  0.756018  0.532963  1
  Li  Li2  1  0.261939  0.243982  0.467037  1
  Li  Li3  1  0.261939  0.743982  0.032963  1
  Mn  Mn4  1  0.672505  0.061651  0.253938  1
  Mn  Mn5  1  0.672505  0.561651  0.246062  1
  Mn  Mn6  1  0.327495  0.438349  0.753938  1
  Mn  Mn7  1  0.327495  0.938349  0.746062  1
  P  P8  1  0.574822  0.073828  0.745802  1
  P  P9  1  0.574822  0.573828  0.754198  1
  P  P10  1  0.425178  0.426172  0.245802  1
  P  P11  1  0.425178  0.926172  0.254198  1
  C  C12  1  0.952779  0.378233  0.253609  1
  C  C13  1  0.952779  0.878233  0.246391  1
  C  C14  1  0.047221  0.121767  0.753609  1
  C  C15  1  0.047221  0.621767  0.746391  1
  O  O16  1  0.898159  0.023919  0.238792  1
  O  O17  1  0.898159  0.523919  0.261208  1
  O  O18  1  0.904349  0.217893  0.763483  1
  O  O19  1  0.829607  0.348821  0.236032  1
  O  O20  1  0.904349  0.717893  0.736517  1
  O  O21  1  0.829607  0.848821  0.263968  1
  O  O22  1  0.676100  0.069075  0.943128  1
  O  O23  1  0.688313  0.058364  0.557457  1
  O  O24  1  0.688313  0.558364  0.942543  1
  O  O25  1  0.676100  0.569075  0.556872  1
  O  O26  1  0.585872  0.279230  0.232694  1
  O  O27  1  0.534945  0.441602  0.761791  1
  O  O28  1  0.585872  0.779230  0.267306  1
  O  O29  1  0.534945  0.941602  0.738209  1
  O  O30  1  0.465055  0.058398  0.261791  1
  O  O31  1  0.414128  0.220770  0.732694  1
  O  O32  1  0.465055  0.558398  0.238209  1
  O  O33  1  0.414128  0.720770  0.767306  1
  O  O34  1  0.311687  0.441636  0.057457  1
  O  O35  1  0.323900  0.430925  0.443128  1
  O  O36  1  0.311687  0.941636  0.442543  1
  O  O37  1  0.323900  0.930925  0.056872  1
  O  O38  1  0.170393  0.151179  0.736032  1
  O  O39  1  0.095651  0.282107  0.263483  1
  O  O40  1  0.170393  0.651179  0.763968  1
  O  O41  1  0.095651  0.782107  0.236517  1
  O  O42  1  0.101841  0.476081  0.738792  1
  O  O43  1  0.101841  0.976081  0.761208  1
