# generated using pymatgen
data_KH(IO3)2
_symmetry_space_group_name_H-M   'P 1'
_cell_length_a   10.69137465
_cell_length_b   8.71933410
_cell_length_c   7.53855372
_cell_angle_alpha   90.00000000
_cell_angle_beta   90.00000000
_cell_angle_gamma   112.04374448
_symmetry_Int_Tables_number   1
_chemical_formula_structural   KH(IO3)2
_chemical_formula_sum   'K4 H4 I8 O24'
_cell_volume   651.38334277
_cell_formula_units_Z   4
loop_
 _symmetry_equiv_pos_site_id
 _symmetry_equiv_pos_as_xyz
  1  'x, y, z'
loop_
 _atom_site_type_symbol
 _atom_site_label
 _atom_site_symmetry_multiplicity
 _atom_site_fract_x
 _atom_site_fract_y
 _atom_site_fract_z
 _atom_site_occupancy
  K  K0  1  0.201677  0.839956  0.752455  1
  K  K1  1  0.201677  0.339956  0.747545  1
  K  K2  1  0.798323  0.660044  0.252455  1
  K  K3  1  0.798323  0.160044  0.247545  1
  H  H4  1  0.000000  0.500000  0.000000  1
  H  H5  1  0.000000  0.000000  0.500000  1
  H  H6  1  0.500000  0.500000  0.000000  1
  H  H7  1  0.500000  0.000000  0.500000  1
  I  I8  1  0.126133  0.572754  0.302931  1
  I  I9  1  0.126133  0.072754  0.197069  1
  I  I10  1  0.493946  0.795521  0.065260  1
  I  I11  1  0.506054  0.704479  0.565260  1
  I  I12  1  0.493946  0.295521  0.434740  1
  I  I13  1  0.506054  0.204479  0.934740  1
  I  I14  1  0.873867  0.927246  0.802931  1
  I  I15  1  0.873867  0.427246  0.697069  1
  O  O16  1  0.058161  0.685324  0.452594  1
  O  O17  1  0.028150  0.511931  0.842634  1
  O  O18  1  0.058161  0.185324  0.047406  1
  O  O19  1  0.229901  0.734307  0.153206  1
  O  O20  1  0.028150  0.011931  0.657366  1
  O  O21  1  0.323765  0.649833  0.543075  1
  O  O22  1  0.229901  0.234307  0.346794  1
  O  O23  1  0.460131  0.885799  0.858217  1
  O  O24  1  0.430405  0.580097  0.971460  1
  O  O25  1  0.323765  0.149833  0.956925  1
  O  O26  1  0.569595  0.919903  0.471460  1
  O  O27  1  0.460131  0.385799  0.641783  1
  O  O28  1  0.539869  0.614201  0.358217  1
  O  O29  1  0.430405  0.080097  0.528540  1
  O  O30  1  0.676235  0.850167  0.043075  1
  O  O31  1  0.569595  0.419903  0.028540  1
  O  O32  1  0.539869  0.114201  0.141783  1
  O  O33  1  0.770099  0.765693  0.653206  1
  O  O34  1  0.676235  0.350167  0.456925  1
  O  O35  1  0.971850  0.988069  0.342634  1
  O  O36  1  0.770099  0.265693  0.846794  1
  O  O37  1  0.941839  0.814676  0.952594  1
  O  O38  1  0.971850  0.488069  0.157366  1
  O  O39  1  0.941839  0.314676  0.547406  1
