# generated using pymatgen
data_TmGaO3
_symmetry_space_group_name_H-M   'P 1'
_cell_length_a   6.02950459
_cell_length_b   6.02955212
_cell_length_c   11.66974091
_cell_angle_alpha   90.00003542
_cell_angle_beta   90.00010901
_cell_angle_gamma   120.00071827
_symmetry_Int_Tables_number   1
_chemical_formula_structural   TmGaO3
_chemical_formula_sum   'Tm6 Ga6 O18'
_cell_volume   367.41373374
_cell_formula_units_Z   6
loop_
 _symmetry_equiv_pos_site_id
 _symmetry_equiv_pos_as_xyz
  1  'x, y, z'
loop_
 _atom_site_type_symbol
 _atom_site_label
 _atom_site_symmetry_multiplicity
 _atom_site_fract_x
 _atom_site_fract_y
 _atom_site_fract_z
 _atom_site_occupancy
  Tm  Tm0  1  0.333334  0.666682  0.233704  1
  Tm  Tm1  1  -0.000002  0.000010  0.275141  1
  Tm  Tm2  1  0.999992  0.999993  0.775140  1
  Tm  Tm3  1  0.333319  0.666650  0.733704  1
  Tm  Tm4  1  0.666653  0.333320  0.733702  1
  Tm  Tm5  1  0.666664  0.333347  0.233704  1
  Ga  Ga6  1  0.999987  0.665817  0.500805  1
  Ga  Ga7  1  -0.000000  0.334182  0.000808  1
  Ga  Ga8  1  0.334144  0.334141  0.500805  1
  Ga  Ga9  1  0.334164  0.000015  0.000806  1
  Ga  Ga10  1  0.665840  0.665854  0.000806  1
  Ga  Ga11  1  0.665820  0.999984  0.500806  1
  O  O12  1  0.999991  0.693608  0.664941  1
  O  O13  1  0.999999  0.640063  0.338064  1
  O  O14  1  0.999989  0.359935  0.838064  1
  O  O15  1  0.999995  0.306393  0.164943  1
  O  O16  1  0.333336  0.666688  0.021760  1
  O  O17  1  0.999986  0.999983  0.476399  1
  O  O18  1  0.000004  0.000015  0.976397  1
  O  O19  1  0.333315  0.666643  0.521758  1
  O  O20  1  0.306374  0.306375  0.664941  1
  O  O21  1  0.359940  0.359953  0.338064  1
  O  O22  1  0.306384  0.000009  0.164942  1
  O  O23  1  0.640047  0.640052  0.838065  1
  O  O24  1  0.693612  0.693627  0.164942  1
  O  O25  1  0.359937  0.999992  0.838064  1
  O  O26  1  0.666646  0.333314  0.521758  1
  O  O27  1  0.666669  0.333357  0.021760  1
  O  O28  1  0.640055  0.000008  0.338065  1
  O  O29  1  0.693605  0.999992  0.664942  1
