# generated using pymatgen
data_LiAgF4
_symmetry_space_group_name_H-M   'P 1'
_cell_length_a   5.96790898
_cell_length_b   8.44367109
_cell_length_c   7.03082819
_cell_angle_alpha   90.00000000
_cell_angle_beta   105.71167161
_cell_angle_gamma   90.00000000
_symmetry_Int_Tables_number   1
_chemical_formula_structural   LiAgF4
_chemical_formula_sum   'Li4 Ag4 F16'
_cell_volume   341.05337769
_cell_formula_units_Z   4
loop_
 _symmetry_equiv_pos_site_id
 _symmetry_equiv_pos_as_xyz
  1  'x, y, z'
loop_
 _atom_site_type_symbol
 _atom_site_label
 _atom_site_symmetry_multiplicity
 _atom_site_fract_x
 _atom_site_fract_y
 _atom_site_fract_z
 _atom_site_occupancy
  Li  Li0  1  0.209009  0.503222  0.847990  1
  Li  Li1  1  0.290991  0.003222  0.652010  1
  Li  Li2  1  0.709009  0.996778  0.347990  1
  Li  Li3  1  0.790991  0.496778  0.152009  1
  Ag  Ag4  1  0.139374  0.163607  0.111710  1
  Ag  Ag5  1  0.360626  0.663607  0.388290  1
  Ag  Ag6  1  0.639374  0.336393  0.611710  1
  Ag  Ag7  1  0.860626  0.836393  0.888290  1
  F  F8  1  0.024650  0.989117  0.759029  1
  F  F9  1  0.137890  0.697706  0.972744  1
  F  F10  1  0.097906  0.516430  0.324006  1
  F  F11  1  0.299366  0.296901  0.963330  1
  F  F12  1  0.200634  0.796901  0.536670  1
  F  F13  1  0.362110  0.197706  0.527256  1
  F  F14  1  0.475350  0.489117  0.740971  1
  F  F15  1  0.597906  0.983570  0.824006  1
  F  F16  1  0.402094  0.016430  0.175994  1
  F  F17  1  0.524650  0.510883  0.259029  1
  F  F18  1  0.637890  0.802294  0.472744  1
  F  F19  1  0.799366  0.203099  0.463330  1
  F  F20  1  0.700634  0.703099  0.036670  1
  F  F21  1  0.902094  0.483570  0.675994  1
  F  F22  1  0.862110  0.302294  0.027256  1
  F  F23  1  0.975350  0.010883  0.240971  1
