# generated using pymatgen
data_Li5FeS4
_symmetry_space_group_name_H-M   'P 1'
_cell_length_a   11.45711030
_cell_length_b   11.42616436
_cell_length_c   11.14985770
_cell_angle_alpha   90.00000000
_cell_angle_beta   90.00000000
_cell_angle_gamma   90.00000000
_symmetry_Int_Tables_number   1
_chemical_formula_structural   Li5FeS4
_chemical_formula_sum   'Li40 Fe8 S32'
_cell_volume   1459.63707436
_cell_formula_units_Z   8
loop_
 _symmetry_equiv_pos_site_id
 _symmetry_equiv_pos_as_xyz
  1  'x, y, z'
loop_
 _atom_site_type_symbol
 _atom_site_label
 _atom_site_symmetry_multiplicity
 _atom_site_fract_x
 _atom_site_fract_y
 _atom_site_fract_z
 _atom_site_occupancy
  Li  Li0  1  0.113805  0.616839  0.142830  1
  Li  Li1  1  0.113805  0.883161  0.642830  1
  Li  Li2  1  0.115981  0.115327  0.848887  1
  Li  Li3  1  0.115981  0.384673  0.348887  1
  Li  Li4  1  0.118395  0.853855  0.372227  1
  Li  Li5  1  0.118395  0.646145  0.872227  1
  Li  Li6  1  0.141498  0.878693  0.104201  1
  Li  Li7  1  0.141498  0.621307  0.604201  1
  Li  Li8  1  0.150035  0.123538  0.389188  1
  Li  Li9  1  0.150035  0.376462  0.889188  1
  Li  Li10  1  0.349965  0.876462  0.889188  1
  Li  Li11  1  0.349965  0.623538  0.389188  1
  Li  Li12  1  0.358502  0.121307  0.604201  1
  Li  Li13  1  0.358502  0.378693  0.104201  1
  Li  Li14  1  0.381605  0.353855  0.372227  1
  Li  Li15  1  0.381605  0.146145  0.872227  1
  Li  Li16  1  0.384019  0.615327  0.848887  1
  Li  Li17  1  0.384019  0.884673  0.348887  1
  Li  Li18  1  0.386195  0.383162  0.642830  1
  Li  Li19  1  0.386195  0.116838  0.142830  1
  Li  Li20  1  0.613805  0.616839  0.357170  1
  Li  Li21  1  0.613805  0.883161  0.857170  1
  Li  Li22  1  0.615981  0.115327  0.651113  1
  Li  Li23  1  0.615981  0.384673  0.151113  1
  Li  Li24  1  0.618395  0.646145  0.627773  1
  Li  Li25  1  0.618395  0.853855  0.127773  1
  Li  Li26  1  0.641498  0.621307  0.895799  1
  Li  Li27  1  0.641498  0.878693  0.395799  1
  Li  Li28  1  0.650035  0.123538  0.110812  1
  Li  Li29  1  0.650035  0.376462  0.610812  1
  Li  Li30  1  0.849965  0.623538  0.110812  1
  Li  Li31  1  0.849965  0.876462  0.610812  1
  Li  Li32  1  0.858502  0.378693  0.395799  1
  Li  Li33  1  0.858502  0.121307  0.895799  1
  Li  Li34  1  0.881605  0.146145  0.627773  1
  Li  Li35  1  0.881605  0.353855  0.127773  1
  Li  Li36  1  0.884019  0.615327  0.651113  1
  Li  Li37  1  0.884019  0.884673  0.151113  1
  Li  Li38  1  0.886195  0.116838  0.357170  1
  Li  Li39  1  0.886195  0.383162  0.857170  1
  Fe  Fe40  1  0.125211  0.139359  0.117977  1
  Fe  Fe41  1  0.125211  0.360641  0.617977  1
  Fe  Fe42  1  0.374789  0.639359  0.117977  1
  Fe  Fe43  1  0.374789  0.860641  0.617977  1
  Fe  Fe44  1  0.625211  0.139359  0.382023  1
  Fe  Fe45  1  0.625211  0.360641  0.882023  1
  Fe  Fe46  1  0.874789  0.639359  0.382023  1
  Fe  Fe47  1  0.874789  0.860641  0.882023  1
  S  S48  1  0.008579  0.254230  0.492246  1
  S  S49  1  0.008579  0.245770  0.992246  1
  S  S50  1  0.030926  0.009865  0.242866  1
  S  S51  1  0.030926  0.490135  0.742866  1
  S  S52  1  0.247490  0.030092  0.999639  1
  S  S53  1  0.247490  0.469908  0.499639  1
  S  S54  1  0.244357  0.249564  0.237438  1
  S  S55  1  0.244357  0.250436  0.737438  1
  S  S56  1  0.255643  0.749564  0.237438  1
  S  S57  1  0.255643  0.750436  0.737438  1
  S  S58  1  0.252510  0.530093  0.999639  1
  S  S59  1  0.252510  0.969907  0.499639  1
  S  S60  1  0.469074  0.509865  0.242866  1
  S  S61  1  0.469074  0.990135  0.742866  1
  S  S62  1  0.491421  0.754230  0.492246  1
  S  S63  1  0.491421  0.745770  0.992246  1
  S  S64  1  0.508579  0.254230  0.007754  1
  S  S65  1  0.508579  0.245770  0.507754  1
  S  S66  1  0.530926  0.009865  0.257134  1
  S  S67  1  0.530926  0.490135  0.757134  1
  S  S68  1  0.747490  0.469908  0.000361  1
  S  S69  1  0.747490  0.030092  0.500361  1
  S  S70  1  0.744357  0.249564  0.262562  1
  S  S71  1  0.744357  0.250436  0.762562  1
  S  S72  1  0.755643  0.749564  0.262562  1
  S  S73  1  0.755643  0.750436  0.762562  1
  S  S74  1  0.752510  0.969907  0.000361  1
  S  S75  1  0.752510  0.530093  0.500361  1
  S  S76  1  0.969074  0.990135  0.757134  1
  S  S77  1  0.969074  0.509865  0.257134  1
  S  S78  1  0.991421  0.754230  0.007754  1
  S  S79  1  0.991421  0.745770  0.507754  1
