# generated using pymatgen
data_LiMnPO5
_symmetry_space_group_name_H-M   'P 1'
_cell_length_a   7.59338113
_cell_length_b   6.11954100
_cell_length_c   7.83013720
_cell_angle_alpha   90.00348127
_cell_angle_beta   90.02615831
_cell_angle_gamma   90.07968358
_symmetry_Int_Tables_number   1
_chemical_formula_structural   LiMnPO5
_chemical_formula_sum   'Li4 Mn4 P4 O20'
_cell_volume   363.85048103
_cell_formula_units_Z   4
loop_
 _symmetry_equiv_pos_site_id
 _symmetry_equiv_pos_as_xyz
  1  'x, y, z'
loop_
 _atom_site_type_symbol
 _atom_site_label
 _atom_site_symmetry_multiplicity
 _atom_site_fract_x
 _atom_site_fract_y
 _atom_site_fract_z
 _atom_site_occupancy
  Li  Li0  1  0.140281  0.250047  0.669957  1
  Li  Li1  1  0.359975  0.749910  0.169923  1
  Li  Li2  1  0.639981  0.250071  0.830028  1
  Li  Li3  1  0.859621  0.749930  0.330137  1
  Mn  Mn4  1  0.999988  -0.000106  -0.000136  1
  Mn  Mn5  1  0.999953  0.500086  -0.000021  1
  Mn  Mn6  1  0.499981  0.000166  0.499952  1
  Mn  Mn7  1  0.499826  0.500089  0.500047  1
  P  P8  1  0.132245  0.750107  0.665822  1
  P  P9  1  0.367622  0.249823  0.165770  1
  P  P10  1  0.632358  0.750173  0.834260  1
  P  P11  1  0.867735  0.249843  0.334096  1
  O  O12  1  0.010779  0.249962  0.466706  1
  O  O13  1  0.108820  0.750151  0.089674  1
  O  O14  1  0.126402  0.959258  0.779939  1
  O  O15  1  0.126492  0.540943  0.779711  1
  O  O16  1  0.179619  0.249383  0.076056  1
  O  O17  1  0.320168  0.750538  0.576330  1
  O  O18  1  0.373542  0.040733  0.279837  1
  O  O19  1  0.373408  0.458994  0.279602  1
  O  O20  1  0.391401  0.249867  0.589722  1
  O  O21  1  0.489645  0.750020  0.966793  1
  O  O22  1  0.510414  0.249956  0.033184  1
  O  O23  1  0.608564  0.750161  0.410309  1
  O  O24  1  0.626637  0.540987  0.720417  1
  O  O25  1  0.626515  0.959254  0.720180  1
  O  O26  1  0.679859  0.249472  0.423707  1
  O  O27  1  0.820413  0.750586  0.923930  1
  O  O28  1  0.873669  0.040712  0.220037  1
  O  O29  1  0.873559  0.459043  0.220303  1
  O  O30  1  0.891216  0.249822  0.910363  1
  O  O31  1  0.989310  0.750020  0.533367  1
