# generated using pymatgen
data_Li8Mn7Fe(BO3)8
_symmetry_space_group_name_H-M   'P 1'
_cell_length_a   11.35103932
_cell_length_b   5.24830852
_cell_length_c   9.06044535
_cell_angle_alpha   91.22068923
_cell_angle_beta   71.85149825
_cell_angle_gamma   90.29024784
_symmetry_Int_Tables_number   1
_chemical_formula_structural   Li8Mn7Fe(BO3)8
_chemical_formula_sum   'Li8 Mn7 Fe1 B8 O24'
_cell_volume   512.79565950
_cell_formula_units_Z   1
loop_
 _symmetry_equiv_pos_site_id
 _symmetry_equiv_pos_as_xyz
  1  'x, y, z'
loop_
 _atom_site_type_symbol
 _atom_site_label
 _atom_site_symmetry_multiplicity
 _atom_site_fract_x
 _atom_site_fract_y
 _atom_site_fract_z
 _atom_site_occupancy
  Li  Li0  1  0.163513  0.149749  0.617870  1
  Li  Li1  1  0.335460  0.849541  0.882260  1
  Li  Li2  1  0.164133  0.650246  0.117393  1
  Li  Li3  1  0.335615  0.350014  0.382528  1
  Li  Li4  1  0.664628  0.651111  0.618359  1
  Li  Li5  1  0.835773  0.350740  0.882523  1
  Li  Li6  1  0.664261  0.150302  0.117400  1
  Li  Li7  1  0.836277  0.848805  0.383195  1
  Mn  Mn8  1  0.115040  0.667680  0.802425  1
  Mn  Mn9  1  0.117402  0.167046  0.302630  1
  Mn  Mn10  1  0.382300  0.333267  0.697563  1
  Mn  Mn11  1  0.616799  0.165604  0.802997  1
  Mn  Mn12  1  0.382695  0.832966  0.197379  1
  Mn  Mn13  1  0.617325  0.666871  0.302276  1
  Mn  Mn14  1  0.882848  0.332946  0.196631  1
  Fe  Fe15  1  0.881857  0.835854  0.696012  1
  B  B16  1  0.131286  0.169371  0.964840  1
  B  B17  1  0.130224  0.669776  0.465192  1
  B  B18  1  0.368760  0.830724  0.534999  1
  B  B19  1  0.631895  0.669458  0.964314  1
  B  B20  1  0.368687  0.330732  0.035035  1
  B  B21  1  0.631706  0.169113  0.464906  1
  B  B22  1  0.870479  0.328605  0.536563  1
  B  B23  1  0.868178  0.831292  0.033776  1
  O  O24  1  0.148600  0.910319  0.974501  1
  O  O25  1  0.162403  0.286692  0.821296  1
  O  O26  1  0.084724  0.819527  0.601162  1
  O  O27  1  0.148468  0.410837  0.474989  1
  O  O28  1  0.413226  0.180381  0.898869  1
  O  O29  1  0.337591  0.714438  0.678700  1
  O  O30  1  0.162290  0.785835  0.321082  1
  O  O31  1  0.086689  0.319275  0.101278  1
  O  O32  1  0.351102  0.089635  0.525077  1
  O  O33  1  0.649083  0.410311  0.974156  1
  O  O34  1  0.413450  0.680584  0.398678  1
  O  O35  1  0.337421  0.214299  0.178885  1
  O  O36  1  0.663033  0.785928  0.820664  1
  O  O37  1  0.587414  0.319172  0.601199  1
  O  O38  1  0.351251  0.589608  0.025056  1
  O  O39  1  0.649330  0.909951  0.474565  1
  O  O40  1  0.911302  0.682930  0.896849  1
  O  O41  1  0.841018  0.207694  0.679333  1
  O  O42  1  0.662582  0.285667  0.321102  1
  O  O43  1  0.586974  0.819404  0.100695  1
  O  O44  1  0.853119  0.588557  0.531148  1
  O  O45  1  0.912509  0.182341  0.398870  1
  O  O46  1  0.838240  0.714247  0.177751  1
  O  O47  1  0.851038  0.090557  0.025034  1
