# generated using pymatgen
data_InFe29O40
_symmetry_space_group_name_H-M   'P 1'
_cell_length_a   10.55692640
_cell_length_b   8.63402101
_cell_length_c   10.55692640
_cell_angle_alpha   114.13744110
_cell_angle_beta   80.37370736
_cell_angle_gamma   114.13744110
_symmetry_Int_Tables_number   1
_chemical_formula_structural   InFe29O40
_chemical_formula_sum   'In1 Fe29 O40'
_cell_volume   801.34171559
_cell_formula_units_Z   1
loop_
 _symmetry_equiv_pos_site_id
 _symmetry_equiv_pos_as_xyz
  1  'x, y, z'
loop_
 _atom_site_type_symbol
 _atom_site_label
 _atom_site_symmetry_multiplicity
 _atom_site_fract_x
 _atom_site_fract_y
 _atom_site_fract_z
 _atom_site_occupancy
  In  In0  1  0.050000  0.075000  0.850000  1
  Fe  Fe1  1  0.098337  0.403848  0.699456  1
  Fe  Fe2  1  0.001276  0.004420  0.498357  1
  Fe  Fe3  1  0.200544  0.794490  0.898337  1
  Fe  Fe4  1  0.351774  0.526216  0.950142  1
  Fe  Fe5  1  0.150142  0.723926  0.548226  1
  Fe  Fe6  1  0.001663  0.506054  0.000544  1
  Fe  Fe7  1  0.302199  0.200538  0.599941  1
  Fe  Fe8  1  0.401643  0.096856  0.801276  1
  Fe  Fe9  1  0.197549  0.298586  0.399662  1
  Fe  Fe10  1  0.098724  0.404787  0.201643  1
  Fe  Fe11  1  0.251714  0.879535  0.250576  1
  Fe  Fe12  1  0.450576  0.671041  0.648286  1
  Fe  Fe13  1  0.698357  0.793937  0.898724  1
  Fe  Fe14  1  0.599662  0.401076  0.702451  1
  Fe  Fe15  1  0.499645  0.998978  0.499724  1
  Fe  Fe16  1  0.300059  0.201660  0.102199  1
  Fe  Fe17  1  0.400276  0.600667  0.299645  1
  Fe  Fe18  1  0.748226  0.124300  0.749858  1
  Fe  Fe19  1  0.550000  0.325000  0.350000  1
  Fe  Fe20  1  0.799941  0.699403  0.597801  1
  Fe  Fe21  1  0.500338  0.998963  0.997549  1
  Fe  Fe22  1  0.600355  0.899609  0.200276  1
  Fe  Fe23  1  0.899456  0.595609  0.801663  1
  Fe  Fe24  1  0.699724  0.800747  0.400355  1
  Fe  Fe25  1  0.848286  0.277245  0.449424  1
  Fe  Fe26  1  0.649424  0.472180  0.051714  1
  Fe  Fe27  1  0.902451  0.601375  0.300338  1
  Fe  Fe28  1  0.797801  0.198399  0.100059  1
  Fe  Fe29  1  0.949858  0.925557  0.151774  1
  O  O30  1  0.995301  0.749770  0.995965  1
  O  O31  1  0.195965  0.546195  0.904699  1
  O  O32  1  0.104699  0.658505  0.704035  1
  O  O33  1  0.112008  0.151453  0.680484  1
  O  O34  1  0.219516  0.060557  0.912008  1
  O  O35  1  0.007566  0.251572  0.488453  1
  O  O36  1  0.411547  0.855994  0.807566  1
  O  O37  1  0.092434  0.655553  0.211547  1
  O  O38  1  0.295946  0.432655  0.589557  1
  O  O39  1  0.494534  0.238528  0.009368  1
  O  O40  1  0.209368  0.070840  0.405466  1
  O  O41  1  0.306546  0.959328  0.592902  1
  O  O42  1  0.111911  0.156139  0.203174  1
  O  O43  1  0.403174  0.347034  0.788089  1
  O  O44  1  0.207450  0.542019  0.393118  1
  O  O45  1  0.495642  0.239478  0.515173  1
  O  O46  1  0.696826  0.055772  0.911911  1
  O  O47  1  0.593118  0.151099  0.692550  1
  O  O48  1  0.384827  0.356166  0.295642  1
  O  O49  1  0.307098  0.447219  0.106546  1
  O  O50  1  0.688453  0.536880  0.892434  1
  O  O51  1  0.502734  0.755101  0.491119  1
  O  O52  1  0.408881  0.847632  0.302734  1
  O  O53  1  0.605466  0.634625  0.690632  1
  O  O54  1  0.310443  0.963291  0.095946  1
  O  O55  1  0.880484  0.829031  0.787992  1
  O  O56  1  0.789557  0.456902  0.604054  1
  O  O57  1  0.597266  0.661249  0.208881  1
  O  O58  1  0.691119  0.036017  0.397266  1
  O  O59  1  0.792902  0.933574  0.593454  1
  O  O60  1  0.715173  0.575695  0.404358  1
  O  O61  1  0.904035  0.345530  0.795301  1
  O  O62  1  0.604358  0.128662  0.184827  1
  O  O63  1  0.506882  0.765432  0.007450  1
  O  O64  1  0.988089  0.741054  0.496826  1
  O  O65  1  0.892550  0.841451  0.306882  1
  O  O66  1  0.793454  0.959879  0.107098  1
  O  O67  1  0.890632  0.356006  0.294534  1
  O  O68  1  0.804055  0.447152  0.110443  1
  O  O69  1  0.987992  0.258960  0.019516  1
