# generated using pymatgen
data_Li3Mn4(BO3)4
_symmetry_space_group_name_H-M   'P 1'
_cell_length_a   9.08967275
_cell_length_b   9.15360425
_cell_length_c   10.38581858
_cell_angle_alpha   89.78278129
_cell_angle_beta   91.33648179
_cell_angle_gamma   59.99962436
_symmetry_Int_Tables_number   1
_chemical_formula_structural   Li3Mn4(BO3)4
_chemical_formula_sum   'Li9 Mn12 B12 O36'
_cell_volume   748.03643025
_cell_formula_units_Z   3
loop_
 _symmetry_equiv_pos_site_id
 _symmetry_equiv_pos_as_xyz
  1  'x, y, z'
loop_
 _atom_site_type_symbol
 _atom_site_label
 _atom_site_symmetry_multiplicity
 _atom_site_fract_x
 _atom_site_fract_y
 _atom_site_fract_z
 _atom_site_occupancy
  Li  Li0  1  0.224467  0.390598  0.906100  1
  Li  Li1  1  0.442306  0.270591  0.680408  1
  Li  Li2  1  0.438926  0.309138  0.149341  1
  Li  Li3  1  0.889113  0.052206  0.396677  1
  Li  Li4  1  0.113750  0.921887  0.645451  1
  Li  Li5  1  0.100161  0.957388  0.178394  1
  Li  Li6  1  0.566276  0.720598  0.414458  1
  Li  Li7  1  0.767714  0.598067  0.675167  1
  Li  Li8  1  0.783248  0.619698  0.158775  1
  Mn  Mn9  1  0.220089  0.036772  0.880561  1
  Mn  Mn10  1  0.121591  0.272840  0.134714  1
  Mn  Mn11  1  0.515818  0.094071  0.384712  1
  Mn  Mn12  1  0.090521  0.600742  0.624634  1
  Mn  Mn13  1  0.580309  0.400043  0.883638  1
  Mn  Mn14  1  0.240245  0.686835  0.378289  1
  Mn  Mn15  1  0.791185  0.259231  0.633331  1
  Mn  Mn16  1  0.442799  0.634907  0.120432  1
  Mn  Mn17  1  0.910289  0.389478  0.387836  1
  Mn  Mn18  1  0.443931  0.943088  0.638963  1
  Mn  Mn19  1  0.869738  0.734267  0.880324  1
  Mn  Mn20  1  0.751636  0.961364  0.132872  1
  B  B21  1  0.228036  0.039881  0.379208  1
  B  B22  1  0.113729  0.270064  0.631015  1
  B  B23  1  0.544619  0.070046  0.888473  1
  B  B24  1  0.108470  0.618376  0.130930  1
  B  B25  1  0.218476  0.699699  0.861273  1
  B  B26  1  0.565392  0.400584  0.367921  1
  B  B27  1  0.453965  0.595684  0.624575  1
  B  B28  1  0.783643  0.282929  0.130678  1
  B  B29  1  0.901317  0.377031  0.877682  1
  B  B30  1  0.441017  0.949762  0.125635  1
  B  B31  1  0.873486  0.745016  0.367077  1
  B  B32  1  0.770463  0.946310  0.618001  1
  O  O33  1  0.175460  0.099854  0.658994  1
  O  O34  1  0.268803  0.011918  0.093744  1
  O  O35  1  0.069414  0.291798  0.922176  1
  O  O36  1  0.154378  0.208064  0.339172  1
  O  O37  1  0.214092  0.341421  0.635145  1
  O  O38  1  0.495500  0.066081  0.157092  1
  O  O39  1  0.596339  0.051386  0.590588  1
  O  O40  1  0.199691  0.449895  0.107359  1
  O  O41  1  0.471075  0.241622  0.874597  1
  O  O42  1  0.036303  0.676670  0.422273  1
  O  O43  1  0.130919  0.615157  0.829434  1
  O  O44  1  0.472633  0.326397  0.336384  1
  O  O45  1  0.879685  0.006389  0.595384  1
  O  O46  1  0.188957  0.703521  0.185722  1
  O  O47  1  0.529471  0.437085  0.689021  1
  O  O48  1  0.615682  0.372934  0.076332  1
  O  O49  1  0.289029  0.657264  0.570483  1
  O  O50  1  0.859684  0.112411  0.151230  1
  O  O51  1  0.155499  0.863418  0.828635  1
  O  O52  1  0.727646  0.315256  0.423054  1
  O  O53  1  0.375128  0.609654  0.928013  1
  O  O54  1  0.487533  0.577205  0.340079  1
  O  O55  1  0.822927  0.280156  0.845879  1
  O  O56  1  0.139633  0.953761  0.370672  1
  O  O57  1  0.538606  0.682118  0.612102  1
  O  O58  1  0.858963  0.376994  0.166176  1
  O  O59  1  0.939322  0.373229  0.597298  1
  O  O60  1  0.552898  0.781782  0.128333  1
  O  O61  1  0.809698  0.547519  0.861205  1
  O  O62  1  0.397414  0.958027  0.422668  1
  O  O63  1  0.468516  0.982893  0.840579  1
  O  O64  1  0.797667  0.649203  0.357702  1
  O  O65  1  0.828647  0.782592  0.665464  1
  O  O66  1  0.935297  0.712154  0.098595  1
  O  O67  1  0.708767  0.974547  0.947439  1
  O  O68  1  0.787959  0.915526  0.324412  1
