# generated using pymatgen
data_Cu6OF11
_symmetry_space_group_name_H-M   'P 1'
_cell_length_a   7.00920962
_cell_length_b   5.63268795
_cell_length_c   6.05140707
_cell_angle_alpha   69.00160460
_cell_angle_beta   103.80644062
_cell_angle_gamma   106.78817111
_symmetry_Int_Tables_number   1
_chemical_formula_structural   Cu6OF11
_chemical_formula_sum   'Cu6 O1 F11'
_cell_volume   211.08610819
_cell_formula_units_Z   1
loop_
 _symmetry_equiv_pos_site_id
 _symmetry_equiv_pos_as_xyz
  1  'x, y, z'
loop_
 _atom_site_type_symbol
 _atom_site_label
 _atom_site_symmetry_multiplicity
 _atom_site_fract_x
 _atom_site_fract_y
 _atom_site_fract_z
 _atom_site_occupancy
  Cu  Cu0  1  0.999241  0.000173  0.997291  1
  Cu  Cu1  1  0.499366  0.018481  0.018719  1
  Cu  Cu2  1  0.342587  0.327802  0.329829  1
  Cu  Cu3  1  0.821172  0.331652  0.332057  1
  Cu  Cu4  1  0.168050  0.665069  0.664857  1
  Cu  Cu5  1  0.665468  0.667140  0.668991  1
  O  O6  1  0.541986  0.241191  0.242193  1
  F  F7  1  0.793392  0.088968  0.088814  1
  F  F8  1  0.121649  0.413452  0.410741  1
  F  F9  1  0.844881  0.642979  0.049916  1
  F  F10  1  0.486233  0.687010  0.282377  1
  F  F11  1  0.821390  0.023817  0.617175  1
  F  F12  1  0.183728  0.974244  0.385536  1
  F  F13  1  0.511870  0.310131  0.717675  1
  F  F14  1  0.154262  0.358532  0.945701  1
  F  F15  1  0.876951  0.578756  0.577199  1
  F  F16  1  0.457396  0.759322  0.757822  1
  F  F17  1  0.210376  0.911277  0.913109  1
