# generated using pymatgen
data_La2Si2O7
_symmetry_space_group_name_H-M   'P 1'
_cell_length_a   6.53473361
_cell_length_b   8.59356478
_cell_length_c   17.13961496
_cell_angle_alpha   89.97471943
_cell_angle_beta   66.71543579
_cell_angle_gamma   89.95253219
_symmetry_Int_Tables_number   1
_chemical_formula_structural   La2Si2O7
_chemical_formula_sum   'La8 Si8 O28'
_cell_volume   884.11005532
_cell_formula_units_Z   4
loop_
 _symmetry_equiv_pos_site_id
 _symmetry_equiv_pos_as_xyz
  1  'x, y, z'
loop_
 _atom_site_type_symbol
 _atom_site_label
 _atom_site_symmetry_multiplicity
 _atom_site_fract_x
 _atom_site_fract_y
 _atom_site_fract_z
 _atom_site_occupancy
  La  La0  1  0.236770  0.599238  0.584434  1
  La  La1  1  0.263008  0.099502  0.915576  1
  La  La2  1  0.150172  0.722936  0.275533  1
  La  La3  1  0.349434  0.222933  0.224766  1
  La  La4  1  0.849939  0.277071  0.724394  1
  La  La5  1  0.650689  0.777133  0.775274  1
  La  La6  1  0.736824  0.900485  0.084565  1
  La  La7  1  0.763004  0.400793  0.415633  1
  Si  Si8  1  0.219815  0.950194  0.121706  1
  Si  Si9  1  0.701235  0.511999  0.198870  1
  Si  Si10  1  0.720074  0.550042  0.621456  1
  Si  Si11  1  0.279701  0.449960  0.378600  1
  Si  Si12  1  0.201737  0.987947  0.698489  1
  Si  Si13  1  0.780088  0.050056  0.878411  1
  Si  Si14  1  0.798437  0.012077  0.301386  1
  Si  Si15  1  0.298991  0.487797  0.801019  1
  O  O16  1  0.935852  0.424086  0.598792  1
  O  O17  1  0.543838  0.456907  0.719058  1
  O  O18  1  0.639527  0.013902  0.237846  1
  O  O19  1  0.860002  0.513291  0.262284  1
  O  O20  1  0.756543  0.658417  0.136225  1
  O  O21  1  0.564352  0.924258  0.901012  1
  O  O22  1  0.911038  0.552667  0.767586  1
  O  O23  1  0.243799  0.341304  0.863738  1
  O  O24  1  0.688357  0.342068  0.161872  1
  O  O25  1  0.089272  0.447607  0.232255  1
  O  O26  1  0.589209  0.052469  0.732192  1
  O  O27  1  0.256922  0.841081  0.636192  1
  O  O28  1  0.593717  0.502421  0.557720  1
  O  O29  1  0.906318  0.002491  0.942258  1
  O  O30  1  0.093364  0.997819  0.057878  1
  O  O31  1  0.435690  0.075887  0.099005  1
  O  O32  1  0.410932  0.947447  0.267773  1
  O  O33  1  0.043686  0.043535  0.219327  1
  O  O34  1  0.139846  0.486213  0.737743  1
  O  O35  1  0.406201  0.497834  0.442245  1
  O  O36  1  0.064046  0.576005  0.401166  1
  O  O37  1  0.742463  0.159105  0.363994  1
  O  O38  1  0.311922  0.657623  0.837983  1
  O  O39  1  0.811663  0.843180  0.338142  1
  O  O40  1  0.360649  0.986116  0.762158  1
  O  O41  1  0.456088  0.542568  0.280812  1
  O  O42  1  0.188556  0.156758  0.661832  1
  O  O43  1  0.956229  0.956777  0.780802  1
