# generated using pymatgen
data_Li2Cr3SnO8
_symmetry_space_group_name_H-M   'P 1'
_cell_length_a   5.95616150
_cell_length_b   5.95528529
_cell_length_c   9.68989512
_cell_angle_alpha   90.00283781
_cell_angle_beta   89.99857822
_cell_angle_gamma   119.99512730
_symmetry_Int_Tables_number   1
_chemical_formula_structural   Li2Cr3SnO8
_chemical_formula_sum   'Li4 Cr6 Sn2 O16'
_cell_volume   297.67342615
_cell_formula_units_Z   2
loop_
 _symmetry_equiv_pos_site_id
 _symmetry_equiv_pos_as_xyz
  1  'x, y, z'
loop_
 _atom_site_type_symbol
 _atom_site_label
 _atom_site_symmetry_multiplicity
 _atom_site_fract_x
 _atom_site_fract_y
 _atom_site_fract_z
 _atom_site_occupancy
  Li  Li0  1  0.333386  0.666816  0.891668  1
  Li  Li1  1  0.000011  0.999922  0.993727  1
  Li  Li2  1  0.999989  0.999912  0.493727  1
  Li  Li3  1  0.666614  0.333430  0.391668  1
  Cr  Cr4  1  0.170842  0.829126  0.216353  1
  Cr  Cr5  1  0.170785  0.341670  0.216204  1
  Cr  Cr6  1  0.658358  0.829218  0.216149  1
  Cr  Cr7  1  0.341642  0.170860  0.716149  1
  Cr  Cr8  1  0.829159  0.658284  0.716353  1
  Cr  Cr9  1  0.829215  0.170885  0.716204  1
  Sn  Sn10  1  0.333364  0.666609  0.494159  1
  Sn  Sn11  1  0.666636  0.333244  0.994158  1
  O  O12  1  0.159659  0.840159  0.600752  1
  O  O13  1  0.033970  0.517107  0.337898  1
  O  O14  1  0.333117  0.666769  0.107272  1
  O  O15  1  0.000216  0.999933  0.302563  1
  O  O16  1  0.999784  0.999717  0.802563  1
  O  O17  1  0.159687  0.319427  0.600681  1
  O  O18  1  0.482823  0.966014  0.337894  1
  O  O19  1  0.482890  0.516996  0.337865  1
  O  O20  1  0.319417  0.159645  0.100737  1
  O  O21  1  0.680583  0.840227  0.600737  1
  O  O22  1  0.517177  0.483191  0.837894  1
  O  O23  1  0.517110  0.034107  0.837865  1
  O  O24  1  0.666883  0.333652  0.607272  1
  O  O25  1  0.840341  0.680500  0.100752  1
  O  O26  1  0.966030  0.483138  0.837898  1
  O  O27  1  0.840313  0.159740  0.100681  1
