# generated using pymatgen
data_AlB3H14N
_symmetry_space_group_name_H-M   'P 1'
_cell_length_a   11.27598707
_cell_length_b   11.40562172
_cell_length_c   12.09452862
_cell_angle_alpha   90.00000000
_cell_angle_beta   101.35211060
_cell_angle_gamma   90.00000000
_symmetry_Int_Tables_number   1
_chemical_formula_structural   AlB3H14N
_chemical_formula_sum   'Al8 B24 H112 N8'
_cell_volume   1525.04179596
_cell_formula_units_Z   8
loop_
 _symmetry_equiv_pos_site_id
 _symmetry_equiv_pos_as_xyz
  1  'x, y, z'
loop_
 _atom_site_type_symbol
 _atom_site_label
 _atom_site_symmetry_multiplicity
 _atom_site_fract_x
 _atom_site_fract_y
 _atom_site_fract_z
 _atom_site_occupancy
  Al  Al0  1  0.237299  0.936982  0.382293  1
  Al  Al1  1  0.737299  0.563018  0.882293  1
  Al  Al2  1  0.762701  0.063018  0.617707  1
  Al  Al3  1  0.262701  0.436982  0.117707  1
  Al  Al4  1  0.733376  0.667917  0.416893  1
  Al  Al5  1  0.233376  0.832083  0.916893  1
  Al  Al6  1  0.266624  0.332083  0.583107  1
  Al  Al7  1  0.766624  0.167917  0.083107  1
  B  B8  1  0.095613  0.063018  0.312273  1
  B  B9  1  0.595613  0.436982  0.812273  1
  B  B10  1  0.904387  0.936982  0.687727  1
  B  B11  1  0.404387  0.563018  0.187727  1
  B  B12  1  0.257596  0.922926  0.566198  1
  B  B13  1  0.757596  0.577074  0.066198  1
  B  B14  1  0.742404  0.077074  0.433802  1
  B  B15  1  0.242404  0.422926  0.933802  1
  B  B16  1  0.367978  0.944276  0.265745  1
  B  B17  1  0.867978  0.555724  0.765745  1
  B  B18  1  0.632022  0.055724  0.734255  1
  B  B19  1  0.132022  0.444276  0.234255  1
  B  B20  1  0.724510  0.474587  0.429824  1
  B  B21  1  0.224510  0.025413  0.929824  1
  B  B22  1  0.275490  0.525413  0.570176  1
  B  B23  1  0.775490  0.974587  0.070176  1
  B  B24  1  0.605223  0.740134  0.521866  1
  B  B25  1  0.105223  0.759866  0.021866  1
  B  B26  1  0.394777  0.259866  0.478134  1
  B  B27  1  0.894777  0.240134  0.978134  1
  B  B28  1  0.924481  0.709545  0.408583  1
  B  B29  1  0.424481  0.790455  0.908583  1
  B  B30  1  0.075519  0.290455  0.591417  1
  B  B31  1  0.575519  0.209545  0.091417  1
  H  H32  1  0.405615  0.858082  0.226019  1
  H  H33  1  0.905615  0.641918  0.726019  1
  H  H34  1  0.594385  0.141918  0.773981  1
  H  H35  1  0.094385  0.358082  0.273981  1
  H  H36  1  0.080693  0.953477  0.307966  1
  H  H37  1  0.580693  0.546523  0.807966  1
  H  H38  1  0.919307  0.046523  0.692034  1
  H  H39  1  0.419307  0.453477  0.192034  1
  H  H40  1  0.299830  0.590167  0.134869  1
  H  H41  1  0.799830  0.909833  0.634869  1
  H  H42  1  0.700170  0.409833  0.865131  1
  H  H43  1  0.200170  0.090167  0.365131  1
  H  H44  1  0.410242  0.594015  0.284357  1
  H  H45  1  0.910242  0.905985  0.784357  1
  H  H46  1  0.589758  0.405985  0.715643  1
  H  H47  1  0.089758  0.094015  0.215643  1
  H  H48  1  0.473678  0.602299  0.133245  1
  H  H49  1  0.973678  0.897701  0.633245  1
  H  H50  1  0.526322  0.397701  0.866755  1
  H  H51  1  0.026322  0.102299  0.366755  1
  H  H52  1  0.091780  0.538408  0.256574  1
  H  H53  1  0.591780  0.961592  0.756574  1
  H  H54  1  0.908220  0.461592  0.743426  1
  H  H55  1  0.408220  0.038408  0.243426  1
  H  H56  1  0.397142  0.936072  0.370724  1
  H  H57  1  0.897142  0.563928  0.870724  1
  H  H58  1  0.602858  0.063928  0.629276  1
  H  H59  1  0.102858  0.436072  0.129276  1
  H  H60  1  0.256798  0.947546  0.231412  1
  H  H61  1  0.756798  0.552454  0.731412  1
  H  H62  1  0.743202  0.052454  0.768588  1
  H  H63  1  0.243202  0.447546  0.268588  1
  H  H64  1  0.014712  0.671646  0.468316  1
  H  H65  1  0.514712  0.828354  0.968316  1
  H  H66  1  0.985288  0.328354  0.531684  1
  H  H67  1  0.485288  0.171646  0.031684  1
  H  H68  1  0.786272  0.673352  0.103012  1
  H  H69  1  0.286272  0.826648  0.603012  1
  H  H70  1  0.213728  0.326648  0.896988  1
  H  H71  1  0.713728  0.173352  0.396988  1
  H  H72  1  0.750318  0.501093  0.133905  1
  H  H73  1  0.250318  0.998907  0.633905  1
  H  H74  1  0.249682  0.498907  0.866095  1
  H  H75  1  0.749682  0.001093  0.366095  1
  H  H76  1  0.570344  0.666660  0.446538  1
  H  H77  1  0.070344  0.833340  0.946538  1
  H  H78  1  0.429656  0.333340  0.553462  1
  H  H79  1  0.929656  0.166660  0.053462  1
  H  H80  1  0.852405  0.921742  0.034241  1
  H  H81  1  0.352405  0.578258  0.534241  1
  H  H82  1  0.147595  0.078258  0.965759  1
  H  H83  1  0.647595  0.421742  0.465759  1
  H  H84  1  0.696947  0.919821  0.101634  1
  H  H85  1  0.196947  0.580179  0.601634  1
  H  H86  1  0.303053  0.080179  0.898366  1
  H  H87  1  0.803053  0.419821  0.398366  1
  H  H88  1  0.934010  0.786234  0.341951  1
  H  H89  1  0.434010  0.713766  0.841951  1
  H  H90  1  0.065990  0.213766  0.658049  1
  H  H91  1  0.565990  0.286234  0.158049  1
  H  H92  1  0.107725  0.804676  0.112676  1
  H  H93  1  0.607725  0.695324  0.612676  1
  H  H94  1  0.892275  0.195324  0.887324  1
  H  H95  1  0.392275  0.304676  0.387324  1
  H  H96  1  0.777150  0.541515  0.507564  1
  H  H97  1  0.277150  0.958485  0.007564  1
  H  H98  1  0.222850  0.458485  0.492436  1
  H  H99  1  0.722850  0.041515  0.992436  1
  H  H100  1  0.670031  0.533185  0.346315  1
  H  H101  1  0.170031  0.966815  0.846315  1
  H  H102  1  0.329969  0.466815  0.653685  1
  H  H103  1  0.829969  0.033185  0.153685  1
  H  H104  1  0.261286  0.690734  0.323531  1
  H  H105  1  0.761286  0.809266  0.823531  1
  H  H106  1  0.738714  0.309266  0.676469  1
  H  H107  1  0.238714  0.190734  0.176469  1
  H  H108  1  0.693417  0.752891  0.213836  1
  H  H109  1  0.193417  0.747109  0.713836  1
  H  H110  1  0.306583  0.247109  0.786164  1
  H  H111  1  0.806583  0.252891  0.286164  1
  H  H112  1  0.685307  0.855850  0.306369  1
  H  H113  1  0.185307  0.644150  0.806369  1
  H  H114  1  0.314693  0.144150  0.693631  1
  H  H115  1  0.814693  0.355850  0.193631  1
  H  H116  1  0.569862  0.765707  0.268162  1
  H  H117  1  0.069862  0.734293  0.768162  1
  H  H118  1  0.430138  0.234293  0.731838  1
  H  H119  1  0.930138  0.265707  0.231838  1
  H  H120  1  0.867220  0.752514  0.477851  1
  H  H121  1  0.367220  0.747486  0.977851  1
  H  H122  1  0.132780  0.247486  0.522149  1
  H  H123  1  0.632780  0.252514  0.022149  1
  H  H124  1  0.210983  0.726239  0.021947  1
  H  H125  1  0.710983  0.773761  0.521947  1
  H  H126  1  0.789017  0.273761  0.978053  1
  H  H127  1  0.289017  0.226239  0.478053  1
  H  H128  1  0.869022  0.624972  0.356912  1
  H  H129  1  0.369022  0.875028  0.856912  1
  H  H130  1  0.130978  0.375028  0.643088  1
  H  H131  1  0.630978  0.124972  0.143088  1
  H  H132  1  0.544429  0.827684  0.500856  1
  H  H133  1  0.044429  0.672316  0.000856  1
  H  H134  1  0.455571  0.172316  0.499144  1
  H  H135  1  0.955571  0.327684  0.999144  1
  H  H136  1  0.156628  0.918886  0.500920  1
  H  H137  1  0.656628  0.581114  0.000920  1
  H  H138  1  0.843372  0.081114  0.499080  1
  H  H139  1  0.343372  0.418886  0.999080  1
  H  H140  1  0.841071  0.544349  0.018960  1
  H  H141  1  0.341071  0.955651  0.518960  1
  H  H142  1  0.158929  0.455651  0.981040  1
  H  H143  1  0.658929  0.044349  0.481040  1
  N  N144  1  0.232885  0.769376  0.351105  1
  N  N145  1  0.732885  0.730624  0.851105  1
  N  N146  1  0.767115  0.230624  0.648895  1
  N  N147  1  0.267115  0.269376  0.148895  1
  N  N148  1  0.663087  0.769797  0.286939  1
  N  N149  1  0.163087  0.730203  0.786939  1
  N  N150  1  0.336913  0.230203  0.713061  1
  N  N151  1  0.836913  0.269797  0.213061  1
