# generated using pymatgen
data_CaY2O4
_symmetry_space_group_name_H-M   'P 1'
_cell_length_a   9.97618506
_cell_length_b   11.82911492
_cell_length_c   3.38335420
_cell_angle_alpha   90.00000000
_cell_angle_beta   90.00000000
_cell_angle_gamma   90.00000000
_symmetry_Int_Tables_number   1
_chemical_formula_structural   CaY2O4
_chemical_formula_sum   'Ca4 Y8 O16'
_cell_volume   399.26773290
_cell_formula_units_Z   4
loop_
 _symmetry_equiv_pos_site_id
 _symmetry_equiv_pos_as_xyz
  1  'x, y, z'
loop_
 _atom_site_type_symbol
 _atom_site_label
 _atom_site_symmetry_multiplicity
 _atom_site_fract_x
 _atom_site_fract_y
 _atom_site_fract_z
 _atom_site_occupancy
  Ca  Ca0  1  0.249154  0.351185  0.750000  1
  Ca  Ca1  1  0.250846  0.851185  0.250000  1
  Ca  Ca2  1  0.749154  0.148815  0.750000  1
  Ca  Ca3  1  0.750846  0.648815  0.250000  1
  Y  Y4  1  0.079005  0.611109  0.750000  1
  Y  Y5  1  0.077179  0.113921  0.750000  1
  Y  Y6  1  0.422821  0.613921  0.250000  1
  Y  Y7  1  0.420995  0.111109  0.250000  1
  Y  Y8  1  0.579005  0.888891  0.750000  1
  Y  Y9  1  0.577179  0.386079  0.750000  1
  Y  Y10  1  0.922821  0.886079  0.250000  1
  Y  Y11  1  0.920995  0.388891  0.250000  1
  O  O12  1  0.021146  0.717373  0.250000  1
  O  O13  1  0.079417  0.921348  0.750000  1
  O  O14  1  0.131930  0.476087  0.250000  1
  O  O15  1  0.210423  0.186268  0.250000  1
  O  O16  1  0.289577  0.686268  0.750000  1
  O  O17  1  0.368070  0.976087  0.750000  1
  O  O18  1  0.420583  0.421348  0.250000  1
  O  O19  1  0.478854  0.217373  0.750000  1
  O  O20  1  0.521146  0.782627  0.250000  1
  O  O21  1  0.579417  0.578652  0.750000  1
  O  O22  1  0.631930  0.023913  0.250000  1
  O  O23  1  0.710423  0.313732  0.250000  1
  O  O24  1  0.789577  0.813732  0.750000  1
  O  O25  1  0.868070  0.523913  0.750000  1
  O  O26  1  0.920583  0.078652  0.250000  1
  O  O27  1  0.978854  0.282627  0.750000  1
