# generated using pymatgen
data_Li3MnV(PO4)3
_symmetry_space_group_name_H-M   'P 1'
_cell_length_a   8.47626187
_cell_length_b   8.47626196
_cell_length_c   8.67556353
_cell_angle_alpha   61.73388597
_cell_angle_beta   61.73388834
_cell_angle_gamma   63.47522934
_symmetry_Int_Tables_number   1
_chemical_formula_structural   Li3MnV(PO4)3
_chemical_formula_sum   'Li6 Mn2 V2 P6 O24'
_cell_volume   463.24285139
_cell_formula_units_Z   2
loop_
 _symmetry_equiv_pos_site_id
 _symmetry_equiv_pos_as_xyz
  1  'x, y, z'
loop_
 _atom_site_type_symbol
 _atom_site_label
 _atom_site_symmetry_multiplicity
 _atom_site_fract_x
 _atom_site_fract_y
 _atom_site_fract_z
 _atom_site_occupancy
  Li  Li0  1  0.872156  0.746560  0.157141  1
  Li  Li1  1  0.498718  0.004460  0.001005  1
  Li  Li2  1  0.744153  0.872329  0.656786  1
  Li  Li3  1  0.253440  0.127844  0.342859  1
  Li  Li4  1  0.995541  0.501282  0.498995  1
  Li  Li5  1  0.127671  0.255847  0.843214  1
  Mn  Mn6  1  0.638037  0.143028  0.150388  1
  Mn  Mn7  1  0.856972  0.361963  0.349612  1
  V  V8  1  0.144455  0.637865  0.644148  1
  V  V9  1  0.362135  0.855545  0.855852  1
  P  P10  1  0.247047  0.449980  0.034989  1
  P  P11  1  0.951734  0.048266  0.750000  1
  P  P12  1  0.550020  0.752953  0.465011  1
  P  P13  1  0.450080  0.251665  0.536228  1
  P  P14  1  0.056614  0.943386  0.250000  1
  P  P15  1  0.748335  0.549920  0.963772  1
  O  O16  1  0.809526  0.541712  0.109992  1
  O  O17  1  0.892843  0.967950  0.200441  1
  O  O18  1  0.678962  0.383344  0.027795  1
  O  O19  1  0.944434  0.233693  0.581001  1
  O  O20  1  0.387152  0.253579  0.075017  1
  O  O21  1  0.746421  0.612848  0.424983  1
  O  O22  1  0.541633  0.919131  0.274573  1
  O  O23  1  0.980115  0.882973  0.698922  1
  O  O24  1  0.242847  0.931801  0.082214  1
  O  O25  1  0.616656  0.321038  0.472205  1
  O  O26  1  0.910969  0.546072  0.774576  1
  O  O27  1  0.458288  0.190474  0.390008  1
  O  O28  1  0.529530  0.819359  0.612600  1
  O  O29  1  0.080869  0.458367  0.225427  1
  O  O30  1  0.387881  0.682013  0.523899  1
  O  O31  1  0.766307  0.055566  0.918999  1
  O  O32  1  0.032050  0.107157  0.299559  1
  O  O33  1  0.453928  0.089031  0.725424  1
  O  O34  1  0.256134  0.397503  0.578916  1
  O  O35  1  0.602497  0.743866  0.921084  1
  O  O36  1  0.068199  0.757153  0.417786  1
  O  O37  1  0.317987  0.612120  0.976101  1
  O  O38  1  0.117027  0.019885  0.801078  1
  O  O39  1  0.180641  0.470470  0.887400  1
