# generated using pymatgen
data_ThSiO4
_symmetry_space_group_name_H-M   'P 1'
_cell_length_a   6.55619546
_cell_length_b   6.85216784
_cell_length_c   7.02545435
_cell_angle_alpha   90.00000000
_cell_angle_beta   90.00000000
_cell_angle_gamma   105.24734615
_symmetry_Int_Tables_number   1
_chemical_formula_structural   ThSiO4
_chemical_formula_sum   'Th4 Si4 O16'
_cell_volume   304.50285823
_cell_formula_units_Z   4
loop_
 _symmetry_equiv_pos_site_id
 _symmetry_equiv_pos_as_xyz
  1  'x, y, z'
loop_
 _atom_site_type_symbol
 _atom_site_label
 _atom_site_symmetry_multiplicity
 _atom_site_fract_x
 _atom_site_fract_y
 _atom_site_fract_z
 _atom_site_occupancy
  O  O0  1  0.573996  0.747613  0.002939  1
  O  O1  1  0.926004  0.752387  0.502939  1
  O  O2  1  0.426004  0.252387  0.997061  1
  O  O3  1  0.073996  0.247613  0.497061  1
  O  O4  1  0.220324  0.619214  0.287315  1
  O  O5  1  0.279676  0.880786  0.787315  1
  O  O6  1  0.779676  0.380786  0.712685  1
  O  O7  1  0.720324  0.119214  0.212685  1
  O  O8  1  0.496134  0.388506  0.339420  1
  O  O9  1  0.003866  0.111494  0.839420  1
  O  O10  1  0.503866  0.611494  0.660580  1
  O  O11  1  0.996134  0.888506  0.160580  1
  O  O12  1  0.825565  0.477454  0.103558  1
  O  O13  1  0.674435  0.022546  0.603558  1
  O  O14  1  0.174435  0.522546  0.896442  1
  O  O15  1  0.325565  0.977454  0.396442  1
  Si  Si16  1  0.110882  0.801786  0.338451  1
  Si  Si17  1  0.389118  0.698214  0.838451  1
  Si  Si18  1  0.889118  0.198214  0.661549  1
  Si  Si19  1  0.610882  0.301786  0.161549  1
  Th  Th20  1  0.596613  0.784124  0.347000  1
  Th  Th21  1  0.903387  0.715876  0.847000  1
  Th  Th22  1  0.403387  0.215876  0.653000  1
  Th  Th23  1  0.096613  0.284124  0.153000  1
