# generated using pymatgen
data_Li2AgF4
_symmetry_space_group_name_H-M   'P 1'
_cell_length_a   5.32194535
_cell_length_b   3.15889772
_cell_length_c   10.42095713
_cell_angle_alpha   89.61594325
_cell_angle_beta   83.50046307
_cell_angle_gamma   89.78546597
_symmetry_Int_Tables_number   1
_chemical_formula_structural   Li2AgF4
_chemical_formula_sum   'Li4 Ag2 F8'
_cell_volume   174.06102954
_cell_formula_units_Z   2
loop_
 _symmetry_equiv_pos_site_id
 _symmetry_equiv_pos_as_xyz
  1  'x, y, z'
loop_
 _atom_site_type_symbol
 _atom_site_label
 _atom_site_symmetry_multiplicity
 _atom_site_fract_x
 _atom_site_fract_y
 _atom_site_fract_z
 _atom_site_occupancy
  Li  Li0  1  0.261703  0.843717  0.057036  1
  Li  Li1  1  0.235773  0.845972  0.441407  1
  Li  Li2  1  0.761815  0.156082  0.557170  1
  Li  Li3  1  0.735870  0.154108  0.941547  1
  Ag  Ag4  1  0.247739  0.651340  0.749768  1
  Ag  Ag5  1  0.748161  0.348661  0.249595  1
  F  F6  1  0.084064  0.341039  0.124020  1
  F  F7  1  0.101505  0.148533  0.604166  1
  F  F8  1  0.411808  0.343044  0.373726  1
  F  F9  1  0.394999  0.154040  0.895677  1
  F  F10  1  0.601377  0.847550  0.104201  1
  F  F11  1  0.584232  0.658366  0.623871  1
  F  F12  1  0.894822  0.850037  0.395745  1
  F  F13  1  0.911926  0.657511  0.873589  1
