# generated using pymatgen
data_LiTeHO4
_symmetry_space_group_name_H-M   'P 1'
_cell_length_a   6.43428598
_cell_length_b   6.12976426
_cell_length_c   5.10785331
_cell_angle_alpha   90.00000000
_cell_angle_beta   130.30924708
_cell_angle_gamma   90.00000000
_symmetry_Int_Tables_number   1
_chemical_formula_structural   LiTeHO4
_chemical_formula_sum   'Li2 Te2 H2 O8'
_cell_volume   153.62390836
_cell_formula_units_Z   2
loop_
 _symmetry_equiv_pos_site_id
 _symmetry_equiv_pos_as_xyz
  1  'x, y, z'
loop_
 _atom_site_type_symbol
 _atom_site_label
 _atom_site_symmetry_multiplicity
 _atom_site_fract_x
 _atom_site_fract_y
 _atom_site_fract_z
 _atom_site_occupancy
  Li  Li0  1  0.610802  0.999705  0.224562  1
  Li  Li1  1  0.610802  0.500295  0.224562  1
  Te  Te2  1  0.993380  0.250000  0.999916  1
  Te  Te3  1  0.994807  0.750000  0.996259  1
  H  H4  1  0.061237  0.750000  0.512248  1
  H  H5  1  0.040562  0.250000  0.505846  1
  O  O6  1  0.203119  0.750000  0.483784  1
  O  O7  1  0.187717  0.250000  0.484117  1
  O  O8  1  0.228797  0.002221  0.064116  1
  O  O9  1  0.228797  0.497779  0.064116  1
  O  O10  1  0.766088  0.502011  0.949245  1
  O  O11  1  0.766088  0.997989  0.949245  1
  O  O12  1  0.812409  0.750000  0.523864  1
  O  O13  1  0.803798  0.250000  0.524719  1
