# generated using pymatgen
data_Li4Nb3V3(CoO8)2
_symmetry_space_group_name_H-M   'P 1'
_cell_length_a   6.10225501
_cell_length_b   6.02957070
_cell_length_c   9.78738764
_cell_angle_alpha   90.30370392
_cell_angle_beta   89.85924097
_cell_angle_gamma   120.41204862
_symmetry_Int_Tables_number   1
_chemical_formula_structural   Li4Nb3V3(CoO8)2
_chemical_formula_sum   'Li4 Nb3 V3 Co2 O16'
_cell_volume   310.56306915
_cell_formula_units_Z   1
loop_
 _symmetry_equiv_pos_site_id
 _symmetry_equiv_pos_as_xyz
  1  'x, y, z'
loop_
 _atom_site_type_symbol
 _atom_site_label
 _atom_site_symmetry_multiplicity
 _atom_site_fract_x
 _atom_site_fract_y
 _atom_site_fract_z
 _atom_site_occupancy
  Li  Li0  1  0.328233  0.664109  0.899716  1
  Li  Li1  1  0.014521  0.008218  0.000422  1
  Li  Li2  1  0.024110  0.011320  0.492267  1
  Li  Li3  1  0.665240  0.333142  0.384580  1
  Nb  Nb4  1  0.657196  0.829063  0.218187  1
  Nb  Nb5  1  0.823251  0.658557  0.715666  1
  Nb  Nb6  1  0.824551  0.165506  0.715416  1
  V  V7  1  0.166335  0.823774  0.214423  1
  V  V8  1  0.168295  0.341750  0.213131  1
  V  V9  1  0.337740  0.167956  0.711717  1
  Co  Co10  1  0.313948  0.656715  0.481121  1
  Co  Co11  1  0.659694  0.329738  0.018877  1
  O  O12  1  0.156503  0.840010  0.606562  1
  O  O13  1  0.032057  0.521151  0.330861  1
  O  O14  1  0.351407  0.677706  0.097146  1
  O  O15  1  0.990533  0.994487  0.312910  1
  O  O16  1  0.996641  0.998235  0.820688  1
  O  O17  1  0.156715  0.315048  0.606467  1
  O  O18  1  0.484325  0.965649  0.336173  1
  O  O19  1  0.483826  0.519542  0.336162  1
  O  O20  1  0.317519  0.155974  0.109677  1
  O  O21  1  0.684299  0.841809  0.598471  1
  O  O22  1  0.517448  0.487715  0.826980  1
  O  O23  1  0.518160  0.029768  0.827093  1
  O  O24  1  0.677116  0.338188  0.596151  1
  O  O25  1  0.839313  0.680817  0.102134  1
  O  O26  1  0.970801  0.485536  0.832543  1
  O  O27  1  0.840225  0.158813  0.102299  1
