# generated using pymatgen
data_LiCuPO4
_symmetry_space_group_name_H-M   'P 1'
_cell_length_a   5.62405223
_cell_length_b   10.24133246
_cell_length_c   5.86873565
_cell_angle_alpha   90.00000000
_cell_angle_beta   90.00000000
_cell_angle_gamma   102.29966020
_symmetry_Int_Tables_number   1
_chemical_formula_structural   LiCuPO4
_chemical_formula_sum   'Li4 Cu4 P4 O16'
_cell_volume   330.26742570
_cell_formula_units_Z   4
loop_
 _symmetry_equiv_pos_site_id
 _symmetry_equiv_pos_as_xyz
  1  'x, y, z'
loop_
 _atom_site_type_symbol
 _atom_site_label
 _atom_site_symmetry_multiplicity
 _atom_site_fract_x
 _atom_site_fract_y
 _atom_site_fract_z
 _atom_site_occupancy
  Li  Li0  1  0.229257  0.933904  0.662407  1
  Li  Li1  1  0.270743  0.566096  0.162407  1
  Li  Li2  1  0.729257  0.433904  0.837593  1
  Li  Li3  1  0.770743  0.066096  0.337593  1
  Cu  Cu4  1  0.387583  0.641960  0.596856  1
  Cu  Cu5  1  0.112417  0.858040  0.096856  1
  Cu  Cu6  1  0.887583  0.141960  0.903144  1
  Cu  Cu7  1  0.612417  0.358040  0.403144  1
  P  P8  1  0.217507  0.392249  0.683618  1
  P  P9  1  0.282493  0.107751  0.183618  1
  P  P10  1  0.717507  0.892249  0.816382  1
  P  P11  1  0.782493  0.607751  0.316382  1
  O  O12  1  0.918261  0.809218  0.807983  1
  O  O13  1  0.039400  0.693034  0.267012  1
  O  O14  1  0.231609  0.465398  0.448395  1
  O  O15  1  0.270993  0.513678  0.852534  1
  O  O16  1  0.229007  0.986322  0.352534  1
  O  O17  1  0.268391  0.034602  0.948395  1
  O  O18  1  0.418261  0.309218  0.692017  1
  O  O19  1  0.539400  0.193034  0.232988  1
  O  O20  1  0.460600  0.806966  0.767012  1
  O  O21  1  0.581739  0.690782  0.307983  1
  O  O22  1  0.731609  0.965398  0.051605  1
  O  O23  1  0.770993  0.013678  0.647466  1
  O  O24  1  0.729007  0.486322  0.147466  1
  O  O25  1  0.768391  0.534602  0.551605  1
  O  O26  1  0.960600  0.306966  0.732988  1
  O  O27  1  0.081739  0.190782  0.192017  1
