# generated using pymatgen
data_Li10Fe5Co3O16
_symmetry_space_group_name_H-M   'P 1'
_cell_length_a   5.99910742
_cell_length_b   5.97717248
_cell_length_c   9.83369376
_cell_angle_alpha   90.15199118
_cell_angle_beta   90.82494173
_cell_angle_gamma   59.99323643
_symmetry_Int_Tables_number   1
_chemical_formula_structural   Li10Fe5Co3O16
_chemical_formula_sum   'Li10 Fe5 Co3 O16'
_cell_volume   305.31569419
_cell_formula_units_Z   1
loop_
 _symmetry_equiv_pos_site_id
 _symmetry_equiv_pos_as_xyz
  1  'x, y, z'
loop_
 _atom_site_type_symbol
 _atom_site_label
 _atom_site_symmetry_multiplicity
 _atom_site_fract_x
 _atom_site_fract_y
 _atom_site_fract_z
 _atom_site_occupancy
  Li  Li0  1  0.185997  0.191586  0.053344  1
  Li  Li1  1  0.181478  0.608665  0.054768  1
  Li  Li2  1  0.600347  0.185602  0.054611  1
  Li  Li3  1  0.324198  0.326677  0.273385  1
  Li  Li4  1  0.986561  0.001419  0.984396  1
  Li  Li5  1  0.991711  0.998696  0.488282  1
  Li  Li6  1  0.382531  0.799306  0.553498  1
  Li  Li7  1  0.789085  0.799980  0.556196  1
  Li  Li8  1  0.651202  0.665648  0.773198  1
  Li  Li9  1  0.793567  0.383739  0.558445  1
  Fe  Fe10  1  0.307026  0.338765  0.530715  1
  Fe  Fe11  1  0.647652  0.674344  0.028129  1
  Fe  Fe12  1  0.643804  0.172917  0.785450  1
  Fe  Fe13  1  0.817097  0.336740  0.285606  1
  Fe  Fe14  1  0.817983  0.830126  0.287194  1
  Co  Co15  1  0.153321  0.172425  0.788390  1
  Co  Co16  1  0.325930  0.828354  0.286898  1
  Co  Co17  1  0.152394  0.666203  0.786724  1
  O  O18  1  0.146988  0.173245  0.411202  1
  O  O19  1  0.003217  0.484473  0.663438  1
  O  O20  1  0.316024  0.322629  0.901065  1
  O  O21  1  0.481928  0.016742  0.660635  1
  O  O22  1  0.144931  0.667385  0.413706  1
  O  O23  1  0.976155  0.003199  0.174436  1
  O  O24  1  0.986148  0.021041  0.680793  1
  O  O25  1  0.478964  0.486779  0.659489  1
  O  O26  1  0.317130  0.848211  0.909937  1
  O  O27  1  0.657597  0.162396  0.407974  1
  O  O28  1  0.502208  0.500330  0.156626  1
  O  O29  1  0.500263  0.980985  0.162088  1
  O  O30  1  0.663930  0.658372  0.406247  1
  O  O31  1  0.812938  0.338652  0.908205  1
  O  O32  1  0.969248  0.508265  0.162727  1
  O  O33  1  0.810210  0.844240  0.911866  1
