# generated using pymatgen
data_LiMn2(PO4)2
_symmetry_space_group_name_H-M   'P 1'
_cell_length_a   8.62656629
_cell_length_b   5.40213056
_cell_length_c   8.00503805
_cell_angle_alpha   90.00000000
_cell_angle_beta   103.78452628
_cell_angle_gamma   90.00000000
_symmetry_Int_Tables_number   1
_chemical_formula_structural   LiMn2(PO4)2
_chemical_formula_sum   'Li2 Mn4 P4 O16'
_cell_volume   362.30515801
_cell_formula_units_Z   2
loop_
 _symmetry_equiv_pos_site_id
 _symmetry_equiv_pos_as_xyz
  1  'x, y, z'
loop_
 _atom_site_type_symbol
 _atom_site_label
 _atom_site_symmetry_multiplicity
 _atom_site_fract_x
 _atom_site_fract_y
 _atom_site_fract_z
 _atom_site_occupancy
  Li  Li0  1  0.383150  0.825435  0.361265  1
  Li  Li1  1  0.883150  0.174565  0.361265  1
  Mn  Mn2  1  0.054609  0.824951  0.952059  1
  Mn  Mn3  1  0.264117  0.336634  0.493404  1
  Mn  Mn4  1  0.554609  0.175049  0.952059  1
  Mn  Mn5  1  0.764117  0.663366  0.493404  1
  P  P6  1  0.011832  0.676180  0.252030  1
  P  P7  1  0.335159  0.839988  0.743908  1
  P  P8  1  0.511832  0.323820  0.252030  1
  P  P9  1  0.835159  0.160012  0.743908  1
  O  O10  1  0.994797  0.169960  0.883774  1
  O  O11  1  0.044922  0.407428  0.318046  1
  O  O12  1  0.197147  0.734416  0.817494  1
  O  O13  1  0.167582  0.791326  0.215319  1
  O  O14  1  0.307269  0.117683  0.700803  1
  O  O15  1  0.342839  0.685886  0.583181  1
  O  O16  1  0.494797  0.830040  0.883774  1
  O  O17  1  0.440050  0.175925  0.380230  1
  O  O18  1  0.398156  0.302994  0.067314  1
  O  O19  1  0.544922  0.592572  0.318046  1
  O  O20  1  0.697147  0.265584  0.817494  1
  O  O21  1  0.667582  0.208674  0.215319  1
  O  O22  1  0.807269  0.882317  0.700803  1
  O  O23  1  0.842839  0.314114  0.583181  1
  O  O24  1  0.940050  0.824075  0.380230  1
  O  O25  1  0.898156  0.697006  0.067314  1
