# generated using pymatgen
data_Na5P5(H9O7)2
_symmetry_space_group_name_H-M   'P 1'
_cell_length_a   11.21269798
_cell_length_b   13.71575563
_cell_length_c   13.04292189
_cell_angle_alpha   90.00000000
_cell_angle_beta   104.00708936
_cell_angle_gamma   90.00000000
_symmetry_Int_Tables_number   1
_chemical_formula_structural   Na5P5(H9O7)2
_chemical_formula_sum   'Na20 P20 H72 O56'
_cell_volume   1946.23587555
_cell_formula_units_Z   4
loop_
 _symmetry_equiv_pos_site_id
 _symmetry_equiv_pos_as_xyz
  1  'x, y, z'
loop_
 _atom_site_type_symbol
 _atom_site_label
 _atom_site_symmetry_multiplicity
 _atom_site_fract_x
 _atom_site_fract_y
 _atom_site_fract_z
 _atom_site_occupancy
  Na  Na0  1  0.234772  0.239858  0.497318  1
  Na  Na1  1  0.734772  0.260142  0.997318  1
  Na  Na2  1  0.765228  0.760142  0.502682  1
  Na  Na3  1  0.265228  0.739858  0.002682  1
  Na  Na4  1  0.119828  0.430784  0.355492  1
  Na  Na5  1  0.619828  0.069216  0.855492  1
  Na  Na6  1  0.880172  0.569216  0.644508  1
  Na  Na7  1  0.380172  0.930784  0.144508  1
  Na  Na8  1  0.628695  0.936712  0.357235  1
  Na  Na9  1  0.128695  0.563288  0.857235  1
  Na  Na10  1  0.371305  0.063288  0.642765  1
  Na  Na11  1  0.871305  0.436712  0.142765  1
  Na  Na12  1  0.562172  0.174469  0.542771  1
  Na  Na13  1  0.062172  0.325531  0.042771  1
  Na  Na14  1  0.437828  0.825531  0.457229  1
  Na  Na15  1  0.937828  0.674469  0.957229  1
  Na  Na16  1  0.072857  0.676994  0.541415  1
  Na  Na17  1  0.572857  0.823006  0.041415  1
  Na  Na18  1  0.927143  0.323006  0.458585  1
  Na  Na19  1  0.427143  0.176994  0.958585  1
  P  P20  1  0.490178  0.297056  0.747122  1
  P  P21  1  0.990178  0.202944  0.247122  1
  P  P22  1  0.509822  0.702944  0.252878  1
  P  P23  1  0.009822  0.797056  0.752878  1
  P  P24  1  0.434633  0.390859  0.419595  1
  P  P25  1  0.934633  0.109141  0.919595  1
  P  P26  1  0.565367  0.609141  0.580405  1
  P  P27  1  0.065367  0.890859  0.080405  1
  P  P28  1  0.960665  0.898877  0.381311  1
  P  P29  1  0.460665  0.601123  0.881311  1
  P  P30  1  0.039335  0.101123  0.618689  1
  P  P31  1  0.539335  0.398877  0.118689  1
  P  P32  1  0.167694  0.444595  0.638644  1
  P  P33  1  0.667694  0.055405  0.138644  1
  P  P34  1  0.832306  0.555405  0.361356  1
  P  P35  1  0.332306  0.944595  0.861356  1
  P  P36  1  0.669286  0.950821  0.642158  1
  P  P37  1  0.169286  0.549179  0.142158  1
  P  P38  1  0.330714  0.049179  0.357842  1
  P  P39  1  0.830714  0.450821  0.857842  1
  H  H40  1  0.575910  0.362168  0.718822  1
  H  H41  1  0.075910  0.137832  0.218822  1
  H  H42  1  0.424090  0.637832  0.281178  1
  H  H43  1  0.924090  0.862168  0.781178  1
  H  H44  1  0.095271  0.863146  0.725769  1
  H  H45  1  0.595271  0.636854  0.225769  1
  H  H46  1  0.904729  0.136854  0.274231  1
  H  H47  1  0.404729  0.363146  0.774231  1
  H  H48  1  0.446549  0.472098  0.354699  1
  H  H49  1  0.946549  0.027902  0.854699  1
  H  H50  1  0.553451  0.527902  0.645301  1
  H  H51  1  0.053451  0.972098  0.145301  1
  H  H52  1  0.974085  0.911756  0.276359  1
  H  H53  1  0.474085  0.588244  0.776358  1
  H  H54  1  0.025915  0.088244  0.723642  1
  H  H55  1  0.525915  0.411756  0.223641  1
  H  H56  1  0.422521  0.435664  0.514890  1
  H  H57  1  0.922521  0.064336  0.014890  1
  H  H58  1  0.577479  0.564336  0.485110  1
  H  H59  1  0.077479  0.935664  0.985110  1
  H  H60  1  0.973056  0.996109  0.419972  1
  H  H61  1  0.473056  0.503891  0.919972  1
  H  H62  1  0.026944  0.003891  0.580028  1
  H  H63  1  0.526944  0.496109  0.080028  1
  H  H64  1  0.185937  0.376977  0.723903  1
  H  H65  1  0.685937  0.123023  0.223903  1
  H  H66  1  0.814063  0.623023  0.276097  1
  H  H67  1  0.314063  0.876977  0.776097  1
  H  H68  1  0.692796  0.881952  0.726122  1
  H  H69  1  0.192796  0.618048  0.226122  1
  H  H70  1  0.307204  0.118048  0.273878  1
  H  H71  1  0.807204  0.381952  0.773878  1
  H  H72  1  0.288703  0.480660  0.644396  1
  H  H73  1  0.788703  0.019340  0.144396  1
  H  H74  1  0.711297  0.519340  0.355604  1
  H  H75  1  0.211297  0.980660  0.855604  1
  H  H76  1  0.786439  0.995701  0.649377  1
  H  H77  1  0.286439  0.504299  0.149377  1
  H  H78  1  0.213561  0.004299  0.350623  1
  H  H79  1  0.713561  0.495701  0.850623  1
  H  H80  1  0.295180  0.601378  0.479960  1
  H  H81  1  0.795180  0.898622  0.979960  1
  H  H82  1  0.704820  0.398622  0.520040  1
  H  H83  1  0.204820  0.101378  0.020040  1
  H  H84  1  0.782766  0.103215  0.479898  1
  H  H85  1  0.282766  0.396785  0.979898  1
  H  H86  1  0.217234  0.896785  0.520102  1
  H  H87  1  0.717234  0.603215  0.020102  1
  H  H88  1  0.211316  0.646828  0.382300  1
  H  H89  1  0.711316  0.853172  0.882300  1
  H  H90  1  0.788684  0.353172  0.617700  1
  H  H91  1  0.288684  0.146828  0.117700  1
  H  H92  1  0.699577  0.147805  0.380652  1
  H  H93  1  0.199577  0.352195  0.880652  1
  H  H94  1  0.300423  0.852195  0.619348  1
  H  H95  1  0.800423  0.647805  0.119348  1
  H  H96  1  0.774224  0.205547  0.735300  1
  H  H97  1  0.274224  0.294453  0.235300  1
  H  H98  1  0.225776  0.794453  0.264700  1
  H  H99  1  0.725776  0.705547  0.764700  1
  H  H100  1  0.277083  0.691233  0.731180  1
  H  H101  1  0.777083  0.808767  0.231180  1
  H  H102  1  0.722917  0.308767  0.268820  1
  H  H103  1  0.222917  0.191233  0.768820  1
  H  H104  1  0.821842  0.196270  0.630988  1
  H  H105  1  0.321842  0.303730  0.130988  1
  H  H106  1  0.178158  0.803730  0.369012  1
  H  H107  1  0.678158  0.696270  0.869012  1
  H  H108  1  0.337089  0.692502  0.633116  1
  H  H109  1  0.837089  0.807498  0.133116  1
  H  H110  1  0.662911  0.307498  0.366884  1
  H  H111  1  0.162911  0.192502  0.866884  1
  O  O112  1  0.427037  0.239940  0.648894  1
  O  O113  1  0.927037  0.260060  0.148894  1
  O  O114  1  0.572963  0.760060  0.351106  1
  O  O115  1  0.072963  0.739940  0.851106  1
  O  O116  1  0.946691  0.741754  0.653481  1
  O  O117  1  0.446691  0.758246  0.153481  1
  O  O118  1  0.053309  0.258246  0.346519  1
  O  O119  1  0.553309  0.241754  0.846519  1
  O  O120  1  0.314200  0.339057  0.371589  1
  O  O121  1  0.814200  0.160943  0.871589  1
  O  O122  1  0.685800  0.660943  0.628411  1
  O  O123  1  0.185800  0.839057  0.128411  1
  O  O124  1  0.830440  0.863860  0.375761  1
  O  O125  1  0.330440  0.636140  0.875761  1
  O  O126  1  0.169560  0.136140  0.624239  1
  O  O127  1  0.669560  0.363860  0.124239  1
  O  O128  1  0.555290  0.333934  0.443152  1
  O  O129  1  0.055290  0.166066  0.943152  1
  O  O130  1  0.444710  0.666066  0.556848  1
  O  O131  1  0.944710  0.833934  0.056848  1
  O  O132  1  0.069588  0.838977  0.442205  1
  O  O133  1  0.569588  0.661023  0.942205  1
  O  O134  1  0.930412  0.161023  0.557795  1
  O  O135  1  0.430412  0.338977  0.057795  1
  O  O136  1  0.126941  0.386217  0.537002  1
  O  O137  1  0.626941  0.113783  0.037002  1
  O  O138  1  0.873059  0.613783  0.462998  1
  O  O139  1  0.373059  0.886217  0.962998  1
  O  O140  1  0.635287  0.893667  0.539446  1
  O  O141  1  0.135287  0.606333  0.039446  1
  O  O142  1  0.364713  0.106333  0.460554  1
  O  O143  1  0.864713  0.393667  0.960554  1
  O  O144  1  0.090713  0.529055  0.662045  1
  O  O145  1  0.590713  0.970945  0.162045  1
  O  O146  1  0.909287  0.470945  0.337955  1
  O  O147  1  0.409287  0.029055  0.837955  1
  O  O148  1  0.583460  0.028660  0.666299  1
  O  O149  1  0.083460  0.471340  0.166299  1
  O  O150  1  0.416540  0.971340  0.333701  1
  O  O151  1  0.916540  0.528660  0.833701  1
  O  O152  1  0.212856  0.592204  0.432267  1
  O  O153  1  0.712856  0.907796  0.932267  1
  O  O154  1  0.787144  0.407796  0.567733  1
  O  O155  1  0.287144  0.092204  0.067733  1
  O  O156  1  0.699748  0.095863  0.433179  1
  O  O157  1  0.199748  0.404137  0.933179  1
  O  O158  1  0.300252  0.904137  0.566821  1
  O  O159  1  0.800252  0.595863  0.066821  1
  O  O160  1  0.756520  0.226257  0.660140  1
  O  O161  1  0.256520  0.273743  0.160140  1
  O  O162  1  0.243480  0.773743  0.339860  1
  O  O163  1  0.743480  0.726257  0.839860  1
  O  O164  1  0.267599  0.718472  0.659467  1
  O  O165  1  0.767599  0.781528  0.159467  1
  O  O166  1  0.732401  0.281528  0.340533  1
  O  O167  1  0.232401  0.218472  0.840533  1
