# generated using pymatgen
data_Li3Cu3(PO4)2
_symmetry_space_group_name_H-M   'P 1'
_cell_length_a   6.27620056
_cell_length_b   5.38556304
_cell_length_c   5.10969049
_cell_angle_alpha   90.02668412
_cell_angle_beta   89.91727357
_cell_angle_gamma   89.82035477
_symmetry_Int_Tables_number   1
_chemical_formula_structural   Li3Cu3(PO4)2
_chemical_formula_sum   'Li3 Cu3 P2 O8'
_cell_volume   172.71095507
_cell_formula_units_Z   1
loop_
 _symmetry_equiv_pos_site_id
 _symmetry_equiv_pos_as_xyz
  1  'x, y, z'
loop_
 _atom_site_type_symbol
 _atom_site_label
 _atom_site_symmetry_multiplicity
 _atom_site_fract_x
 _atom_site_fract_y
 _atom_site_fract_z
 _atom_site_occupancy
  Li  Li0  1  0.247118  0.327315  0.994244  1
  Li  Li1  1  0.251506  0.673357  0.492031  1
  Li  Li2  1  0.748368  0.674707  0.491836  1
  Cu  Cu3  1  0.999344  0.173354  0.491364  1
  Cu  Cu4  1  0.500552  0.827160  0.998186  1
  Cu  Cu5  1  0.754906  0.331175  0.996421  1
  P  P6  1  0.004847  0.819914  -0.000800  1
  P  P7  1  0.494634  0.176640  0.499080  1
  O  O8  1  0.014753  0.096151  0.907953  1
  O  O9  1  0.000003  0.803500  0.302713  1
  O  O10  1  0.203158  0.678042  0.888421  1
  O  O11  1  0.296756  0.315790  0.384438  1
  O  O12  1  0.486128  0.187913  0.802632  1
  O  O13  1  0.498885  0.899673  0.408619  1
  O  O14  1  0.699648  0.316781  0.404877  1
  O  O15  1  0.799392  0.698526  0.880577  1
