# generated using pymatgen
data_LiFeSiO4
_symmetry_space_group_name_H-M   'P 1'
_cell_length_a   7.49976293
_cell_length_b   7.49909836
_cell_length_c   9.62240698
_cell_angle_alpha   89.99759952
_cell_angle_beta   90.00156425
_cell_angle_gamma   119.99769124
_symmetry_Int_Tables_number   1
_chemical_formula_structural   LiFeSiO4
_chemical_formula_sum   'Li6 Fe6 Si6 O24'
_cell_volume   468.68498598
_cell_formula_units_Z   6
loop_
 _symmetry_equiv_pos_site_id
 _symmetry_equiv_pos_as_xyz
  1  'x, y, z'
loop_
 _atom_site_type_symbol
 _atom_site_label
 _atom_site_symmetry_multiplicity
 _atom_site_fract_x
 _atom_site_fract_y
 _atom_site_fract_z
 _atom_site_occupancy
  Li  Li0  1  0.204798  0.947327  0.252136  1
  Li  Li1  1  0.052728  0.257527  0.252109  1
  Li  Li2  1  0.257491  0.052731  0.752114  1
  Li  Li3  1  0.742505  0.795239  0.252105  1
  Li  Li4  1  0.795203  0.742533  0.752136  1
  Li  Li5  1  0.947283  0.204809  0.752115  1
  Fe  Fe6  1  0.059463  0.601194  0.472254  1
  Fe  Fe7  1  0.541670  0.940414  0.472335  1
  Fe  Fe8  1  0.398777  0.458275  0.472255  1
  Fe  Fe9  1  0.458365  0.398788  0.972349  1
  Fe  Fe10  1  0.601226  0.059481  0.972258  1
  Fe  Fe11  1  0.940459  0.541664  0.972263  1
  Si  Si12  1  0.333294  0.666653  0.169358  1
  Si  Si13  1  0.000030  0.000012  0.006398  1
  Si  Si14  1  0.999979  -0.000004  0.506402  1
  Si  Si15  1  0.333393  0.666672  0.777021  1
  Si  Si16  1  0.666697  0.333332  0.669361  1
  Si  Si17  1  0.666600  0.333294  0.277015  1
  O  O18  1  0.109558  0.871621  0.442029  1
  O  O19  1  0.137934  0.688776  0.116974  1
  O  O20  1  0.405731  0.900681  0.829427  1
  O  O21  1  0.099386  0.505083  0.829455  1
  O  O22  1  0.311172  0.449144  0.116993  1
  O  O23  1  0.333287  0.666657  0.345459  1
  O  O24  1  0.000013  0.000021  0.173491  1
  O  O25  1  0.999990  0.000012  0.673491  1
  O  O26  1  0.333427  0.666718  0.599502  1
  O  O27  1  0.128373  0.237976  0.442040  1
  O  O28  1  0.550846  0.862034  0.116989  1
  O  O29  1  0.237972  0.128415  0.942030  1
  O  O30  1  0.495009  0.594319  0.829506  1
  O  O31  1  0.762037  0.890404  0.442028  1
  O  O32  1  0.449165  0.311178  0.616981  1
  O  O33  1  0.505005  0.099313  0.329510  1
  O  O34  1  0.594267  0.494955  0.329421  1
  O  O35  1  0.862045  0.550856  0.616998  1
  O  O36  1  0.666714  0.333332  0.845459  1
  O  O37  1  0.666569  0.333262  0.099501  1
  O  O38  1  0.890416  0.762040  0.942043  1
  O  O39  1  0.688869  0.137972  0.616993  1
  O  O40  1  0.900610  0.405679  0.329438  1
  O  O41  1  0.871645  0.109610  0.942042  1
