# generated using pymatgen
data_CoH14C10(N4O)2
_symmetry_space_group_name_H-M   'P 1'
_cell_length_a   7.82041845
_cell_length_b   7.82041845
_cell_length_c   8.27926832
_cell_angle_alpha   69.66590553
_cell_angle_beta   110.33409447
_cell_angle_gamma   123.30704980
_symmetry_Int_Tables_number   1
_chemical_formula_structural   CoH14C10(N4O)2
_chemical_formula_sum   'Co1 H14 C10 N8 O2'
_cell_volume   388.79511627
_cell_formula_units_Z   1
loop_
 _symmetry_equiv_pos_site_id
 _symmetry_equiv_pos_as_xyz
  1  'x, y, z'
loop_
 _atom_site_type_symbol
 _atom_site_label
 _atom_site_symmetry_multiplicity
 _atom_site_fract_x
 _atom_site_fract_y
 _atom_site_fract_z
 _atom_site_occupancy
  Co  Co0  1  0.000000  0.000000  0.500000  1
  H  H1  1  0.495093  0.264645  0.823351  1
  H  H2  1  0.735355  0.504907  0.823351  1
  H  H3  1  0.504907  0.735355  0.176649  1
  H  H4  1  0.264645  0.495093  0.176649  1
  H  H5  1  0.770223  0.229777  0.233135  1
  H  H6  1  0.229777  0.770223  0.766865  1
  H  H7  1  0.753265  0.246735  0.721686  1
  H  H8  1  0.246735  0.753265  0.278314  1
  H  H9  1  0.744190  0.016620  0.873660  1
  H  H10  1  0.983380  0.255810  0.873660  1
  H  H11  1  0.255810  0.983380  0.126340  1
  H  H12  1  0.016620  0.744190  0.126340  1
  H  H13  1  0.618445  0.381555  0.013654  1
  H  H14  1  0.381555  0.618445  0.986346  1
  C  C15  1  0.234161  0.460495  0.581027  1
  C  C16  1  0.539505  0.765839  0.581027  1
  C  C17  1  0.765839  0.539505  0.418973  1
  C  C18  1  0.460495  0.234161  0.418973  1
  C  C19  1  0.817113  0.182887  0.151628  1
  C  C20  1  0.182887  0.817113  0.848372  1
  C  C21  1  0.813739  0.186261  0.855622  1
  C  C22  1  0.186261  0.813739  0.144378  1
  C  C23  1  0.645562  0.354438  0.905484  1
  C  C24  1  0.354438  0.645562  0.094516  1
  N  N25  1  0.105945  0.302030  0.533709  1
  N  N26  1  0.697970  0.894055  0.533709  1
  N  N27  1  0.894055  0.697970  0.466291  1
  N  N28  1  0.302030  0.105945  0.466291  1
  N  N29  1  0.367783  0.632217  0.639977  1
  N  N30  1  0.632217  0.367783  0.360023  1
  N  N31  1  0.760967  0.239033  0.978114  1
  N  N32  1  0.239033  0.760967  0.021886  1
  O  O33  1  0.916637  0.083363  0.220051  1
  O  O34  1  0.083363  0.916637  0.779949  1
