# generated using pymatgen
data_MnCr2Ni3(PO4)6
_symmetry_space_group_name_H-M   'P 1'
_cell_length_a   8.35814587
_cell_length_b   8.35814513
_cell_length_c   8.35814516
_cell_angle_alpha   61.86948984
_cell_angle_beta   61.86948985
_cell_angle_gamma   61.86949048
_symmetry_Int_Tables_number   1
_chemical_formula_structural   MnCr2Ni3(PO4)6
_chemical_formula_sum   'Mn1 Cr2 Ni3 P6 O24'
_cell_volume   430.15224647
_cell_formula_units_Z   1
loop_
 _symmetry_equiv_pos_site_id
 _symmetry_equiv_pos_as_xyz
  1  'x, y, z'
loop_
 _atom_site_type_symbol
 _atom_site_label
 _atom_site_symmetry_multiplicity
 _atom_site_fract_x
 _atom_site_fract_y
 _atom_site_fract_z
 _atom_site_occupancy
  Mn  Mn0  1  0.857493  0.857493  0.857493  1
  Cr  Cr1  1  0.001660  0.001660  0.001660  1
  Cr  Cr2  1  0.500376  0.500376  0.500376  1
  Ni  Ni3  1  0.143137  0.143137  0.143137  1
  Ni  Ni4  1  0.358148  0.358148  0.358148  1
  Ni  Ni5  1  0.641910  0.641910  0.641910  1
  P  P6  1  0.250362  0.546491  0.950740  1
  P  P7  1  0.546491  0.950740  0.250362  1
  P  P8  1  0.950740  0.250362  0.546491  1
  P  P9  1  0.046085  0.748765  0.456205  1
  P  P10  1  0.456205  0.046085  0.748765  1
  P  P11  1  0.748765  0.456205  0.046085  1
  O  O12  1  0.104110  0.318922  0.515493  1
  O  O13  1  0.318922  0.515493  0.104110  1
  O  O14  1  0.053561  0.907488  0.255017  1
  O  O15  1  0.515493  0.104110  0.318922  1
  O  O16  1  0.002188  0.821210  0.616537  1
  O  O17  1  0.251930  0.601920  0.439053  1
  O  O18  1  0.255017  0.053561  0.907488  1
  O  O19  1  0.439053  0.251930  0.601920  1
  O  O20  1  0.178075  0.392994  0.987448  1
  O  O21  1  0.601920  0.439053  0.251930  1
  O  O22  1  0.088121  0.753432  0.938274  1
  O  O23  1  0.392994  0.987448  0.178075  1
  O  O24  1  0.616537  0.002188  0.821210  1
  O  O25  1  0.907488  0.255017  0.053561  1
  O  O26  1  0.398029  0.568333  0.745081  1
  O  O27  1  0.821210  0.616537  0.002188  1
  O  O28  1  0.568333  0.745081  0.398029  1
  O  O29  1  0.753432  0.938274  0.088121  1
  O  O30  1  0.745081  0.398029  0.568333  1
  O  O31  1  0.987448  0.178075  0.392994  1
  O  O32  1  0.493962  0.896917  0.670534  1
  O  O33  1  0.938274  0.088121  0.753432  1
  O  O34  1  0.670534  0.493962  0.896917  1
  O  O35  1  0.896917  0.670534  0.493962  1
