# generated using pymatgen
data_Li2Ni3SnO8
_symmetry_space_group_name_H-M   'P 1'
_cell_length_a   5.84613826
_cell_length_b   5.84117119
_cell_length_c   9.53811292
_cell_angle_alpha   89.68523029
_cell_angle_beta   90.15725536
_cell_angle_gamma   119.97189874
_symmetry_Int_Tables_number   1
_chemical_formula_structural   Li2Ni3SnO8
_chemical_formula_sum   'Li4 Ni6 Sn2 O16'
_cell_volume   282.14896562
_cell_formula_units_Z   2
loop_
 _symmetry_equiv_pos_site_id
 _symmetry_equiv_pos_as_xyz
  1  'x, y, z'
loop_
 _atom_site_type_symbol
 _atom_site_label
 _atom_site_symmetry_multiplicity
 _atom_site_fract_x
 _atom_site_fract_y
 _atom_site_fract_z
 _atom_site_occupancy
  Li  Li0  1  0.333413  0.666352  0.891029  1
  Li  Li1  1  0.999893  0.000506  0.995189  1
  Li  Li2  1  0.000107  0.000612  0.495189  1
  Li  Li3  1  0.666587  0.332939  0.391029  1
  Ni  Ni4  1  0.169719  0.830296  0.215049  1
  Ni  Ni5  1  0.169914  0.339764  0.214851  1
  Ni  Ni6  1  0.660555  0.830265  0.214871  1
  Ni  Ni7  1  0.339445  0.169710  0.714871  1
  Ni  Ni8  1  0.830281  0.660577  0.715049  1
  Ni  Ni9  1  0.830086  0.169851  0.714851  1
  Sn  Sn10  1  0.333612  0.667356  0.493087  1
  Sn  Sn11  1  0.666388  0.333744  0.993087  1
  O  O12  1  0.158548  0.841497  0.601406  1
  O  O13  1  0.033654  0.515989  0.335231  1
  O  O14  1  0.333859  0.667530  0.111651  1
  O  O15  1  0.999512  0.999519  0.305175  1
  O  O16  1  0.000488  0.000006  0.805175  1
  O  O17  1  0.158132  0.316466  0.602302  1
  O  O18  1  0.483792  0.966499  0.336238  1
  O  O19  1  0.483167  0.516685  0.335399  1
  O  O20  1  0.316138  0.158382  0.102444  1
  O  O21  1  0.683862  0.842244  0.602444  1
  O  O22  1  0.516208  0.482706  0.836238  1
  O  O23  1  0.516833  0.033518  0.835399  1
  O  O24  1  0.666141  0.333670  0.611651  1
  O  O25  1  0.841452  0.682948  0.101406  1
  O  O26  1  0.966346  0.482335  0.835231  1
  O  O27  1  0.841868  0.158334  0.102302  1
