# generated using pymatgen
data_Li2V3TeO8
_symmetry_space_group_name_H-M   'P 1'
_cell_length_a   8.67819318
_cell_length_b   8.61660386
_cell_length_c   8.84848192
_cell_angle_alpha   90.28996788
_cell_angle_beta   89.90587161
_cell_angle_gamma   90.22880581
_symmetry_Int_Tables_number   1
_chemical_formula_structural   Li2V3TeO8
_chemical_formula_sum   'Li8 V12 Te4 O32'
_cell_volume   661.64435553
_cell_formula_units_Z   4
loop_
 _symmetry_equiv_pos_site_id
 _symmetry_equiv_pos_as_xyz
  1  'x, y, z'
loop_
 _atom_site_type_symbol
 _atom_site_label
 _atom_site_symmetry_multiplicity
 _atom_site_fract_x
 _atom_site_fract_y
 _atom_site_fract_z
 _atom_site_occupancy
  Li  Li0  1  0.117611  0.881186  0.377393  1
  Li  Li1  1  0.252275  0.745694  0.753605  1
  Li  Li2  1  0.253231  0.249108  0.254075  1
  Li  Li3  1  0.381353  0.118936  0.878761  1
  Li  Li4  1  0.618440  0.618395  0.622370  1
  Li  Li5  1  0.751674  0.751428  0.245876  1
  Li  Li6  1  0.750915  0.247096  0.748809  1
  Li  Li7  1  0.875365  0.384678  0.120981  1
  V  V8  1  0.113788  0.629840  0.120627  1
  V  V9  1  0.122631  0.380950  0.891970  1
  V  V10  1  0.117113  0.110307  0.624024  1
  V  V11  1  0.383551  0.889034  0.122000  1
  V  V12  1  0.372268  0.621721  0.389882  1
  V  V13  1  0.385886  0.371420  0.624755  1
  V  V14  1  0.612714  0.874641  0.875157  1
  V  V15  1  0.629020  0.121326  0.109824  1
  V  V16  1  0.615296  0.388909  0.377829  1
  V  V17  1  0.878641  0.612421  0.873557  1
  V  V18  1  0.867506  0.881962  0.611356  1
  V  V19  1  0.886211  0.127142  0.376718  1
  Te  Te20  1  0.002435  0.498223  0.498758  1
  Te  Te21  1  0.498040  0.502220  0.997913  1
  Te  Te22  1  0.500996  0.004107  0.501730  1
  Te  Te23  1  0.996710  0.996932  0.001878  1
  O  O24  1  0.109833  0.144145  0.413669  1
  O  O25  1  0.101676  0.901118  0.641647  1
  O  O26  1  0.120365  0.606182  0.881072  1
  O  O27  1  0.144621  0.402431  0.100161  1
  O  O28  1  0.136030  0.136122  0.900138  1
  O  O29  1  0.164579  0.322642  0.681782  1
  O  O30  1  0.111370  0.637486  0.364480  1
  O  O31  1  0.137108  0.893487  0.139198  1
  O  O32  1  0.360664  0.106062  0.640744  1
  O  O33  1  0.390996  0.360127  0.865479  1
  O  O34  1  0.334380  0.680529  0.174510  1
  O  O35  1  0.361927  0.867579  0.398415  1
  O  O36  1  0.360151  0.592569  0.607521  1
  O  O37  1  0.391443  0.378647  0.384407  1
  O  O38  1  0.398885  0.100776  0.141897  1
  O  O39  1  0.388690  0.859176  0.911242  1
  O  O40  1  0.609135  0.359703  0.588962  1
  O  O41  1  0.599697  0.601415  0.359877  1
  O  O42  1  0.608851  0.881580  0.115848  1
  O  O43  1  0.635785  0.096541  0.890598  1
  O  O44  1  0.638448  0.366889  0.100648  1
  O  O45  1  0.665829  0.181154  0.325982  1
  O  O46  1  0.608256  0.862075  0.632703  1
  O  O47  1  0.633598  0.605209  0.857260  1
  O  O48  1  0.863060  0.396530  0.359960  1
  O  O49  1  0.889218  0.138951  0.135336  1
  O  O50  1  0.831598  0.829931  0.824908  1
  O  O51  1  0.862405  0.634103  0.603414  1
  O  O52  1  0.862887  0.906056  0.389322  1
  O  O53  1  0.891026  0.118935  0.616710  1
  O  O54  1  0.910473  0.386014  0.861581  1
  O  O55  1  0.893343  0.638239  0.090765  1
