# generated using pymatgen
data_Cr3Sn2Sb3O16
_symmetry_space_group_name_H-M   'P 1'
_cell_length_a   6.12977395
_cell_length_b   6.15508561
_cell_length_c   9.47758798
_cell_angle_alpha   90.00054620
_cell_angle_beta   90.05062351
_cell_angle_gamma   120.13685603
_symmetry_Int_Tables_number   1
_chemical_formula_structural   Cr3Sn2Sb3O16
_chemical_formula_sum   'Cr3 Sn2 Sb3 O16'
_cell_volume   309.24751335
_cell_formula_units_Z   1
loop_
 _symmetry_equiv_pos_site_id
 _symmetry_equiv_pos_as_xyz
  1  'x, y, z'
loop_
 _atom_site_type_symbol
 _atom_site_label
 _atom_site_symmetry_multiplicity
 _atom_site_fract_x
 _atom_site_fract_y
 _atom_site_fract_z
 _atom_site_occupancy
  Cr  Cr0  1  0.169983  0.832091  0.210379  1
  Cr  Cr1  1  0.170003  0.337902  0.210376  1
  Cr  Cr2  1  0.341838  0.170934  0.711416  1
  Sn  Sn3  1  0.312737  0.656385  0.479445  1
  Sn  Sn4  1  0.650738  0.325376  0.006157  1
  Sb  Sb5  1  0.667842  0.833939  0.212292  1
  Sb  Sb6  1  0.835627  0.170096  0.714004  1
  Sb  Sb7  1  0.835621  0.665544  0.714005  1
  O  O8  1  0.159615  0.832023  0.606371  1
  O  O9  1  0.037116  0.518557  0.329643  1
  O  O10  1  0.342879  0.671446  0.105548  1
  O  O11  1  0.997820  0.998922  0.309189  1
  O  O12  1  0.002249  0.001133  0.814671  1
  O  O13  1  0.159621  0.327618  0.606372  1
  O  O14  1  0.483388  0.961971  0.338519  1
  O  O15  1  0.483395  0.521450  0.338516  1
  O  O16  1  0.319312  0.159653  0.102152  1
  O  O17  1  0.669839  0.834926  0.605084  1
  O  O18  1  0.526814  0.480683  0.832673  1
  O  O19  1  0.526817  0.046148  0.832671  1
  O  O20  1  0.673359  0.336685  0.600548  1
  O  O21  1  0.833662  0.673207  0.098661  1
  O  O22  1  0.966052  0.483038  0.838374  1
  O  O23  1  0.833672  0.160473  0.098656  1
