# generated using pymatgen
data_InCoO3
_symmetry_space_group_name_H-M   'P 1'
_cell_length_a   5.12414189
_cell_length_b   5.31383334
_cell_length_c   7.43516932
_cell_angle_alpha   90.00020597
_cell_angle_beta   89.99936291
_cell_angle_gamma   90.01058513
_symmetry_Int_Tables_number   1
_chemical_formula_structural   InCoO3
_chemical_formula_sum   'In4 Co4 O12'
_cell_volume   202.45100286
_cell_formula_units_Z   4
loop_
 _symmetry_equiv_pos_site_id
 _symmetry_equiv_pos_as_xyz
  1  'x, y, z'
loop_
 _atom_site_type_symbol
 _atom_site_label
 _atom_site_symmetry_multiplicity
 _atom_site_fract_x
 _atom_site_fract_y
 _atom_site_fract_z
 _atom_site_occupancy
  In  In0  1  0.021684  0.936301  0.750001  1
  In  In1  1  0.478345  0.436263  0.749999  1
  In  In2  1  0.521645  0.563736  0.249996  1
  In  In3  1  0.978319  0.063702  0.250005  1
  Co  Co4  1  0.000001  0.499998  -0.000012  1
  Co  Co5  1  0.000001  0.500004  0.500018  1
  Co  Co6  1  0.499988  -0.000004  -0.000008  1
  Co  Co7  1  0.500004  -0.000007  0.500019  1
  O  O8  1  0.118890  0.451162  0.249992  1
  O  O9  1  0.197124  0.200312  0.563810  1
  O  O10  1  0.197115  0.200309  0.936166  1
  O  O11  1  0.303006  0.700492  0.936175  1
  O  O12  1  0.303014  0.700460  0.563820  1
  O  O13  1  0.381165  0.951172  0.250028  1
  O  O14  1  0.618822  0.048830  0.749968  1
  O  O15  1  0.697012  0.299518  0.436167  1
  O  O16  1  0.696979  0.299524  0.063836  1
  O  O17  1  0.802858  0.799707  0.063835  1
  O  O18  1  0.802873  0.799702  0.436180  1
  O  O19  1  0.881154  0.548821  0.750006  1
