# generated using pymatgen
data_LiMn2(PO4)2
_symmetry_space_group_name_H-M   'P 1'
_cell_length_a   12.55738054
_cell_length_b   9.09124652
_cell_length_c   8.67033237
_cell_angle_alpha   104.40854493
_cell_angle_beta   80.41349211
_cell_angle_gamma   74.61934340
_symmetry_Int_Tables_number   1
_chemical_formula_structural   LiMn2(PO4)2
_chemical_formula_sum   'Li6 Mn12 P12 O48'
_cell_volume   895.24008329
_cell_formula_units_Z   6
loop_
 _symmetry_equiv_pos_site_id
 _symmetry_equiv_pos_as_xyz
  1  'x, y, z'
loop_
 _atom_site_type_symbol
 _atom_site_label
 _atom_site_symmetry_multiplicity
 _atom_site_fract_x
 _atom_site_fract_y
 _atom_site_fract_z
 _atom_site_occupancy
  Li  Li0  1  0.004222  0.495558  0.495767  1
  Li  Li1  1  0.250000  0.250000  0.500000  1
  Li  Li2  1  0.602632  0.379462  0.006952  1
  Li  Li3  1  0.495778  0.004442  0.504233  1
  Li  Li4  1  0.750000  0.750000  0.500000  1
  Li  Li5  1  0.897368  0.120538  0.993048  1
  Mn  Mn6  1  0.039507  0.895081  0.614135  1
  Mn  Mn7  1  0.241641  0.495480  0.262646  1
  Mn  Mn8  1  0.132869  0.486687  0.932147  1
  Mn  Mn9  1  0.367131  0.013313  0.067853  1
  Mn  Mn10  1  0.460493  0.604919  0.385865  1
  Mn  Mn11  1  0.258359  0.004520  0.737354  1
  Mn  Mn12  1  0.740183  0.989592  0.273719  1
  Mn  Mn13  1  0.536291  0.398259  0.624222  1
  Mn  Mn14  1  0.628581  0.986579  0.936661  1
  Mn  Mn15  1  0.871419  0.513421  0.063339  1
  Mn  Mn16  1  0.759817  0.510408  0.726281  1
  Mn  Mn17  1  0.963709  0.101741  0.375778  1
  P  P18  1  0.106711  0.241037  0.126767  1
  P  P19  1  0.250744  0.883030  0.349049  1
  P  P20  1  0.020626  0.270501  0.708889  1
  P  P21  1  0.249256  0.616970  0.650951  1
  P  P22  1  0.608469  0.734283  0.129546  1
  P  P23  1  0.479374  0.229499  0.291111  1
  P  P24  1  0.520519  0.771114  0.710270  1
  P  P25  1  0.393289  0.258963  0.873233  1
  P  P26  1  0.749203  0.376607  0.340533  1
  P  P27  1  0.979481  0.728886  0.289730  1
  P  P28  1  0.750797  0.123393  0.659467  1
  P  P29  1  0.891531  0.765717  0.870454  1
  O  O30  1  0.050481  0.363648  0.037806  1
  O  O31  1  0.116131  0.927707  0.408072  1
  O  O32  1  0.098420  0.633239  0.170486  1
  O  O33  1  0.017873  0.159831  0.168926  1
  O  O34  1  0.278787  0.909527  0.180642  1
  O  O35  1  0.004493  0.271454  0.536670  1
  O  O36  1  0.136809  0.334162  0.278693  1
  O  O37  1  0.291554  0.989522  0.478960  1
  O  O38  1  0.285544  0.384092  0.000791  1
  O  O39  1  0.198434  0.797736  0.670547  1
  O  O40  1  0.301566  0.702264  0.329453  1
  O  O41  1  0.208446  0.510478  0.521040  1
  O  O42  1  0.115989  0.349978  0.725166  1
  O  O43  1  0.544227  0.854477  0.046976  1
  O  O44  1  0.064710  0.103617  0.736938  1
  O  O45  1  0.221213  0.590473  0.819358  1
  O  O46  1  0.535502  0.629749  0.177823  1
  O  O47  1  0.435290  0.396383  0.263062  1
  O  O48  1  0.401580  0.866761  0.829514  1
  O  O49  1  0.383869  0.572293  0.591928  1
  O  O50  1  0.384011  0.150022  0.274834  1
  O  O51  1  0.505104  0.770266  0.534103  1
  O  O52  1  0.638690  0.830128  0.279778  1
  O  O53  1  0.785417  0.888243  0.004437  1
  O  O54  1  0.214456  0.115908  0.999209  1
  O  O55  1  0.363191  0.165838  0.721307  1
  O  O56  1  0.495507  0.228546  0.463330  1
  O  O57  1  0.615712  0.852095  0.725846  1
  O  O58  1  0.617340  0.427100  0.397305  1
  O  O59  1  0.598513  0.135019  0.167939  1
  O  O60  1  0.569300  0.605274  0.731557  1
  O  O61  1  0.482127  0.340169  0.831074  1
  O  O62  1  0.784723  0.386010  0.161065  1
  O  O63  1  0.930700  0.894726  0.268443  1
  O  O64  1  0.449519  0.136351  0.962194  1
  O  O65  1  0.884288  0.647905  0.274154  1
  O  O66  1  0.793773  0.484178  0.463897  1
  O  O67  1  0.701461  0.304394  0.675562  1
  O  O68  1  0.798539  0.195606  0.324438  1
  O  O69  1  0.714583  0.611757  0.995563  1
  O  O70  1  0.706227  0.015822  0.536103  1
  O  O71  1  0.861310  0.669872  0.720222  1
  O  O72  1  0.994896  0.729734  0.465897  1
  O  O73  1  0.715277  0.113990  0.838935  1
  O  O74  1  0.964498  0.870251  0.822177  1
  O  O75  1  0.901487  0.364981  0.832061  1
  O  O76  1  0.882660  0.072900  0.602695  1
  O  O77  1  0.955773  0.645523  0.953024  1
