# generated using pymatgen
data_EuTlO2
_symmetry_space_group_name_H-M   'P 1'
_cell_length_a   3.59297791
_cell_length_b   6.81985336
_cell_length_c   3.58719689
_cell_angle_alpha   105.43988936
_cell_angle_beta   59.85158904
_cell_angle_gamma   105.40780243
_symmetry_Int_Tables_number   1
_chemical_formula_structural   EuTlO2
_chemical_formula_sum   'Eu1 Tl1 O2'
_cell_volume   72.34144850
_cell_formula_units_Z   1
loop_
 _symmetry_equiv_pos_site_id
 _symmetry_equiv_pos_as_xyz
  1  'x, y, z'
loop_
 _atom_site_type_symbol
 _atom_site_label
 _atom_site_symmetry_multiplicity
 _atom_site_fract_x
 _atom_site_fract_y
 _atom_site_fract_z
 _atom_site_occupancy
  Eu  Eu0  1  0.500002  0.499991  0.499995  1
  Tl  Tl1  1  -0.000003  -0.000002  0.000000  1
  O  O2  1  0.225090  0.674945  0.224764  1
  O  O3  1  0.774911  0.325066  0.775241  1
