# generated using pymatgen
data_Co3C9SO9
_symmetry_space_group_name_H-M   'P 1'
_cell_length_a   9.77164930
_cell_length_b   13.32485878
_cell_length_c   13.49868035
_cell_angle_alpha   110.35655999
_cell_angle_beta   108.45800878
_cell_angle_gamma   97.10985741
_symmetry_Int_Tables_number   1
_chemical_formula_structural   Co3C9SO9
_chemical_formula_sum   'Co12 C36 S4 O36'
_cell_volume   1508.03071140
_cell_formula_units_Z   4
loop_
 _symmetry_equiv_pos_site_id
 _symmetry_equiv_pos_as_xyz
  1  'x, y, z'
loop_
 _atom_site_type_symbol
 _atom_site_label
 _atom_site_symmetry_multiplicity
 _atom_site_fract_x
 _atom_site_fract_y
 _atom_site_fract_z
 _atom_site_occupancy
  Co  Co0  1  0.791551  0.760303  0.298343  1
  Co  Co1  1  0.324097  0.096884  0.225018  1
  Co  Co2  1  0.533888  0.689548  0.652243  1
  Co  Co3  1  0.067323  0.385928  0.776249  1
  Co  Co4  1  0.279274  0.341518  0.924356  1
  Co  Co5  1  0.613581  0.168108  0.266655  1
  Co  Co6  1  0.208449  0.239697  0.701657  1
  Co  Co7  1  0.466112  0.310452  0.347757  1
  Co  Co8  1  0.675903  0.903116  0.774982  1
  Co  Co9  1  0.386419  0.831892  0.733345  1
  Co  Co10  1  0.932677  0.614072  0.223751  1
  Co  Co11  1  0.720726  0.658482  0.075644  1
  C  C12  1  0.376667  0.958545  0.831929  1
  C  C13  1  0.693499  0.152147  0.396173  1
  C  C14  1  0.915840  0.291739  0.771033  1
  C  C15  1  0.013927  0.599065  0.356073  1
  C  C16  1  0.610171  0.427170  0.380208  1
  C  C17  1  0.153991  0.234121  0.559562  1
  C  C18  1  0.644372  0.935931  0.654693  1
  C  C19  1  0.717210  0.038433  0.886437  1
  C  C20  1  0.693841  0.634887  0.673582  1
  C  C21  1  0.236793  0.735217  0.728770  1
  C  C22  1  0.920314  0.881749  0.323289  1
  C  C23  1  0.061166  0.512325  0.878518  1
  C  C24  1  0.084160  0.708261  0.228967  1
  C  C25  1  0.835430  0.766938  0.066961  1
  C  C26  1  0.306501  0.847853  0.603827  1
  C  C27  1  0.627124  0.809424  0.283880  1
  C  C28  1  0.164570  0.233062  0.933039  1
  C  C29  1  0.079686  0.118251  0.676711  1
  C  C30  1  0.846009  0.765879  0.440438  1
  C  C31  1  0.704253  0.543993  0.948860  1
  C  C32  1  0.295747  0.456007  0.051140  1
  C  C33  1  0.355628  0.064069  0.345307  1
  C  C34  1  0.623333  0.041455  0.168071  1
  C  C35  1  0.763207  0.264783  0.271230  1
  C  C36  1  0.389829  0.572830  0.619792  1
  C  C37  1  0.372876  0.190576  0.716120  1
  C  C38  1  0.139210  0.115584  0.199820  1
  C  C39  1  0.986073  0.400935  0.643927  1
  C  C40  1  0.458678  0.313626  0.968611  1
  C  C41  1  0.490677  0.690719  0.514022  1
  C  C42  1  0.541322  0.686374  0.031389  1
  C  C43  1  0.860790  0.884416  0.800180  1
  C  C44  1  0.306159  0.365113  0.326418  1
  C  C45  1  0.509323  0.309281  0.485978  1
  C  C46  1  0.282790  0.961567  0.113563  1
  C  C47  1  0.938834  0.487675  0.121482  1
  S  S48  1  0.698495  0.585155  0.191185  1
  S  S49  1  0.576214  0.790556  0.829745  1
  S  S50  1  0.301505  0.414845  0.808815  1
  S  S51  1  0.423786  0.209444  0.170255  1
  O  O52  1  0.702254  0.504509  0.402847  1
  O  O53  1  0.927101  0.410690  0.560000  1
  O  O54  1  0.857920  0.324870  0.269783  1
  O  O55  1  0.792529  0.594864  0.691051  1
  O  O56  1  0.054428  0.594593  0.942068  1
  O  O57  1  0.945572  0.405407  0.057932  1
  O  O58  1  0.459488  0.689002  0.422935  1
  O  O59  1  0.308845  0.527341  0.135661  1
  O  O60  1  0.691155  0.472659  0.864339  1
  O  O61  1  0.017986  0.123543  0.181513  1
  O  O62  1  0.747167  0.136533  0.477635  1
  O  O63  1  0.000304  0.962007  0.337581  1
  O  O64  1  0.578205  0.303566  0.003944  1
  O  O65  1  0.912694  0.837617  0.063110  1
  O  O66  1  0.421795  0.696434  0.996056  1
  O  O67  1  0.119691  0.227053  0.466533  1
  O  O68  1  0.750581  0.125646  0.959746  1
  O  O69  1  0.207471  0.405136  0.308949  1
  O  O70  1  0.362723  0.038315  0.894418  1
  O  O71  1  0.818055  0.233256  0.771323  1
  O  O72  1  0.524980  0.845539  0.281517  1
  O  O73  1  0.475020  0.154461  0.718483  1
  O  O74  1  0.181945  0.766744  0.228677  1
  O  O75  1  0.087306  0.162383  0.936890  1
  O  O76  1  0.072899  0.589310  0.440000  1
  O  O77  1  0.982014  0.876457  0.818487  1
  O  O78  1  0.252833  0.863467  0.522365  1
  O  O79  1  0.637277  0.961685  0.105582  1
  O  O80  1  0.297746  0.495491  0.597153  1
  O  O81  1  0.628302  0.957571  0.576417  1
  O  O82  1  0.249419  0.874354  0.040254  1
  O  O83  1  0.142080  0.675130  0.730217  1
  O  O84  1  0.999696  0.037993  0.662419  1
  O  O85  1  0.880309  0.772947  0.533467  1
  O  O86  1  0.371698  0.042429  0.423583  1
  O  O87  1  0.540512  0.310998  0.577065  1
