# generated using pymatgen
data_Na(BiO2)2
_symmetry_space_group_name_H-M   'P 1'
_cell_length_a   10.48591692
_cell_length_b   12.33622759
_cell_length_c   3.47124415
_cell_angle_alpha   89.99970006
_cell_angle_beta   89.99989061
_cell_angle_gamma   89.99807751
_symmetry_Int_Tables_number   1
_chemical_formula_structural   Na(BiO2)2
_chemical_formula_sum   'Na4 Bi8 O16'
_cell_volume   449.02854088
_cell_formula_units_Z   4
loop_
 _symmetry_equiv_pos_site_id
 _symmetry_equiv_pos_as_xyz
  1  'x, y, z'
loop_
 _atom_site_type_symbol
 _atom_site_label
 _atom_site_symmetry_multiplicity
 _atom_site_fract_x
 _atom_site_fract_y
 _atom_site_fract_z
 _atom_site_occupancy
  Na  Na0  1  0.242440  0.352949  0.749971  1
  Na  Na1  1  0.257546  0.852934  0.249994  1
  Na  Na2  1  0.742453  0.147057  0.750017  1
  Na  Na3  1  0.757556  0.647060  0.250000  1
  Bi  Bi4  1  0.065960  0.115635  0.750005  1
  Bi  Bi5  1  0.084073  0.606311  0.750001  1
  Bi  Bi6  1  0.415933  0.106307  0.249999  1
  Bi  Bi7  1  0.434035  0.615635  0.249997  1
  Bi  Bi8  1  0.565965  0.384367  0.750006  1
  Bi  Bi9  1  0.584070  0.893693  0.750004  1
  Bi  Bi10  1  0.915934  0.393699  0.249997  1
  Bi  Bi11  1  0.934043  0.884358  0.250001  1
  O  O12  1  0.015537  0.711959  0.250001  1
  O  O13  1  0.080216  0.923334  0.750000  1
  O  O14  1  0.114499  0.478671  0.250005  1
  O  O15  1  0.213523  0.169222  0.250000  1
  O  O16  1  0.286543  0.669242  0.750002  1
  O  O17  1  0.385500  0.978725  0.750000  1
  O  O18  1  0.419793  0.423322  0.250001  1
  O  O19  1  0.484430  0.211912  0.750002  1
  O  O20  1  0.515566  0.788079  0.249999  1
  O  O21  1  0.580213  0.576669  0.750002  1
  O  O22  1  0.614489  0.021294  0.249998  1
  O  O23  1  0.713503  0.330777  0.250002  1
  O  O24  1  0.786488  0.830774  0.749999  1
  O  O25  1  0.885467  0.521261  0.750001  1
  O  O26  1  0.919790  0.076679  0.249998  1
  O  O27  1  0.984435  0.288074  0.749998  1
