# generated using pymatgen
data_LiBi(PO3)4
_symmetry_space_group_name_H-M   'P 1'
_cell_length_a   13.50592840
_cell_length_b   8.11394193
_cell_length_c   9.94378206
_cell_angle_alpha   90.00000000
_cell_angle_beta   90.00000000
_cell_angle_gamma   90.00000000
_symmetry_Int_Tables_number   1
_chemical_formula_structural   LiBi(PO3)4
_chemical_formula_sum   'Li4 Bi4 P16 O48'
_cell_volume   1089.70247039
_cell_formula_units_Z   4
loop_
 _symmetry_equiv_pos_site_id
 _symmetry_equiv_pos_as_xyz
  1  'x, y, z'
loop_
 _atom_site_type_symbol
 _atom_site_label
 _atom_site_symmetry_multiplicity
 _atom_site_fract_x
 _atom_site_fract_y
 _atom_site_fract_z
 _atom_site_occupancy
  Li  Li0  1  0.000000  0.558307  0.250000  1
  Li  Li1  1  0.000000  0.441693  0.750000  1
  Li  Li2  1  0.500000  0.058307  0.250000  1
  Li  Li3  1  0.500000  0.941693  0.750000  1
  Bi  Bi4  1  0.000000  0.986916  0.750000  1
  Bi  Bi5  1  0.000000  0.013084  0.250000  1
  Bi  Bi6  1  0.500000  0.513084  0.250000  1
  Bi  Bi7  1  0.500000  0.486916  0.750000  1
  P  P8  1  0.150835  0.185036  0.515960  1
  P  P9  1  0.150835  0.814964  0.015960  1
  P  P10  1  0.142627  0.561869  0.510549  1
  P  P11  1  0.142627  0.438131  0.010549  1
  P  P12  1  0.357373  0.061869  0.510549  1
  P  P13  1  0.357373  0.938131  0.010549  1
  P  P14  1  0.349165  0.314964  0.015960  1
  P  P15  1  0.349165  0.685036  0.515960  1
  P  P16  1  0.650835  0.314964  0.484040  1
  P  P17  1  0.650835  0.685036  0.984040  1
  P  P18  1  0.642627  0.061869  0.989451  1
  P  P19  1  0.642627  0.938131  0.489451  1
  P  P20  1  0.857373  0.438131  0.489451  1
  P  P21  1  0.857373  0.561869  0.989451  1
  P  P22  1  0.849165  0.185036  0.984040  1
  P  P23  1  0.849165  0.814964  0.484040  1
  O  O24  1  0.071781  0.178115  0.627301  1
  O  O25  1  0.071781  0.821885  0.127301  1
  O  O26  1  0.070472  0.575261  0.623548  1
  O  O27  1  0.070472  0.424739  0.123548  1
  O  O28  1  0.124585  0.089632  0.390204  1
  O  O29  1  0.124585  0.910368  0.890204  1
  O  O30  1  0.126658  0.357678  0.878690  1
  O  O31  1  0.126658  0.642322  0.378690  1
  O  O32  1  0.171963  0.368515  0.478935  1
  O  O33  1  0.171963  0.631485  0.978935  1
  O  O34  1  0.249721  0.115509  0.578751  1
  O  O35  1  0.249721  0.884491  0.078751  1
  O  O36  1  0.250279  0.384491  0.078751  1
  O  O37  1  0.250279  0.615509  0.578751  1
  O  O38  1  0.328037  0.131485  0.978935  1
  O  O39  1  0.328037  0.868515  0.478935  1
  O  O40  1  0.373342  0.142322  0.378690  1
  O  O41  1  0.373342  0.857678  0.878690  1
  O  O42  1  0.375415  0.589632  0.390204  1
  O  O43  1  0.375415  0.410368  0.890204  1
  O  O44  1  0.429528  0.075261  0.623548  1
  O  O45  1  0.429528  0.924739  0.123548  1
  O  O46  1  0.428219  0.678115  0.627301  1
  O  O47  1  0.428219  0.321885  0.127301  1
  O  O48  1  0.571781  0.321885  0.372699  1
  O  O49  1  0.571781  0.678115  0.872699  1
  O  O50  1  0.570472  0.075261  0.876452  1
  O  O51  1  0.570472  0.924739  0.376452  1
  O  O52  1  0.624585  0.410368  0.609796  1
  O  O53  1  0.624585  0.589632  0.109796  1
  O  O54  1  0.626658  0.142322  0.121310  1
  O  O55  1  0.626658  0.857678  0.621310  1
  O  O56  1  0.671963  0.131485  0.521065  1
  O  O57  1  0.671963  0.868515  0.021065  1
  O  O58  1  0.749721  0.384491  0.421249  1
  O  O59  1  0.749721  0.615509  0.921249  1
  O  O60  1  0.750279  0.115509  0.921249  1
  O  O61  1  0.750279  0.884491  0.421249  1
  O  O62  1  0.828037  0.368515  0.021065  1
  O  O63  1  0.828037  0.631485  0.521065  1
  O  O64  1  0.873342  0.357678  0.621310  1
  O  O65  1  0.873342  0.642322  0.121310  1
  O  O66  1  0.875415  0.089632  0.109796  1
  O  O67  1  0.875415  0.910368  0.609796  1
  O  O68  1  0.929528  0.424739  0.376452  1
  O  O69  1  0.929528  0.575261  0.876452  1
  O  O70  1  0.928219  0.178115  0.872699  1
  O  O71  1  0.928219  0.821885  0.372699  1
