# generated using pymatgen
data_Li2Mn(SiO3)2
_symmetry_space_group_name_H-M   'P 1'
_cell_length_a   5.41005080
_cell_length_b   7.17997184
_cell_length_c   7.17997162
_cell_angle_alpha   95.32774811
_cell_angle_beta   108.30689310
_cell_angle_gamma   71.69310978
_symmetry_Int_Tables_number   1
_chemical_formula_structural   Li2Mn(SiO3)2
_chemical_formula_sum   'Li4 Mn2 Si4 O12'
_cell_volume   251.37668418
_cell_formula_units_Z   2
loop_
 _symmetry_equiv_pos_site_id
 _symmetry_equiv_pos_as_xyz
  1  'x, y, z'
loop_
 _atom_site_type_symbol
 _atom_site_label
 _atom_site_symmetry_multiplicity
 _atom_site_fract_x
 _atom_site_fract_y
 _atom_site_fract_z
 _atom_site_occupancy
  Li  Li0  1  0.359854  0.845488  0.514515  1
  Li  Li1  1  0.250000  0.804250  0.804250  1
  Li  Li2  1  0.140148  0.514516  0.845489  1
  Li  Li3  1  0.750000  0.212223  0.212223  1
  Mn  Mn4  1  0.750000  0.896220  0.896220  1
  Mn  Mn5  1  0.250000  0.130300  0.130300  1
  Si  Si6  1  0.801872  0.792094  0.381928  1
  Si  Si7  1  0.301344  0.611651  0.208297  1
  Si  Si8  1  0.698128  0.381928  0.792094  1
  Si  Si9  1  0.198656  0.208297  0.611651  1
  O  O10  1  0.660818  0.962147  0.210527  1
  O  O11  1  0.866102  0.850307  0.611688  1
  O  O12  1  0.159303  0.760636  0.021279  1
  O  O13  1  0.581492  0.661581  0.348370  1
  O  O14  1  0.633898  0.611688  0.850307  1
  O  O15  1  0.105111  0.664480  0.355258  1
  O  O16  1  0.918508  0.348370  0.661581  1
  O  O17  1  0.358113  0.389384  0.128027  1
  O  O18  1  0.394889  0.355258  0.664480  1
  O  O19  1  0.839182  0.210527  0.962147  1
  O  O20  1  0.141887  0.128027  0.389384  1
  O  O21  1  0.340697  0.021279  0.760636  1
