# generated using pymatgen
data_Na2NiPCO7
_symmetry_space_group_name_H-M   'P 1'
_cell_length_a   8.91174515
_cell_length_b   8.41318726
_cell_length_c   8.45412448
_cell_angle_alpha   75.78652503
_cell_angle_beta   89.03493975
_cell_angle_gamma   91.65483058
_symmetry_Int_Tables_number   1
_chemical_formula_structural   Na2NiPCO7
_chemical_formula_sum   'Na8 Ni4 P4 C4 O28'
_cell_volume   614.01042767
_cell_formula_units_Z   4
loop_
 _symmetry_equiv_pos_site_id
 _symmetry_equiv_pos_as_xyz
  1  'x, y, z'
loop_
 _atom_site_type_symbol
 _atom_site_label
 _atom_site_symmetry_multiplicity
 _atom_site_fract_x
 _atom_site_fract_y
 _atom_site_fract_z
 _atom_site_occupancy
  Na  Na0  1  0.735446  0.113873  0.865734  1
  Na  Na1  1  0.750228  0.616912  0.375610  1
  Na  Na2  1  0.733976  0.384011  0.136794  1
  Na  Na3  1  0.752639  0.876737  0.633237  1
  Na  Na4  1  0.261879  0.107199  0.381208  1
  Na  Na5  1  0.262556  0.405825  0.630388  1
  Na  Na6  1  0.255846  0.870631  0.131112  1
  Na  Na7  1  0.089321  0.247262  0.018510  1
  Ni  Ni8  1  0.651142  0.014596  0.232841  1
  Ni  Ni9  1  0.647512  0.514679  0.737137  1
  Ni  Ni10  1  0.347294  0.978127  0.766340  1
  Ni  Ni11  1  0.349037  0.481732  0.262667  1
  P  P12  1  0.576095  0.233897  0.516842  1
  P  P13  1  0.575046  0.734873  0.013680  1
  P  P14  1  0.422533  0.264069  0.984061  1
  P  P15  1  0.422979  0.768925  0.479423  1
  C  C16  1  0.920922  0.478341  0.767734  1
  C  C17  1  0.927350  0.988751  0.261893  1
  C  C18  1  0.074759  0.019201  0.736403  1
  C  C19  1  0.074473  0.512519  0.235000  1
  O  O20  1  0.935542  0.038294  0.721812  1
  O  O21  1  0.934529  0.524373  0.222824  1
  O  O22  1  0.860045  0.593182  0.657829  1
  O  O23  1  0.862452  0.101664  0.150926  1
  O  O24  1  0.823395  0.383995  0.869504  1
  O  O25  1  0.835550  0.888329  0.362398  1
  O  O26  1  0.670282  0.677071  0.884928  1
  O  O27  1  0.670049  0.176915  0.386816  1
  O  O28  1  0.672387  0.363591  0.575532  1
  O  O29  1  0.675631  0.861012  0.073971  1
  O  O30  1  0.573069  0.193247  0.051396  1
  O  O31  1  0.572962  0.700773  0.553085  1
  O  O32  1  0.540987  0.083422  0.666737  1
  O  O33  1  0.539920  0.584405  0.163294  1
  O  O34  1  0.459485  0.410072  0.832865  1
  O  O35  1  0.459525  0.916437  0.326657  1
  O  O36  1  0.425904  0.808241  0.946980  1
  O  O37  1  0.424220  0.303764  0.448934  1
  O  O38  1  0.319071  0.137616  0.927255  1
  O  O39  1  0.325411  0.839628  0.596300  1
  O  O40  1  0.326733  0.317806  0.115854  1
  O  O41  1  0.327724  0.638634  0.421148  1
  O  O42  1  0.175575  0.114466  0.641431  1
  O  O43  1  0.171831  0.608962  0.138792  1
  O  O44  1  0.136226  0.397129  0.344557  1
  O  O45  1  0.132038  0.904959  0.848334  1
  O  O46  1  0.059766  0.456970  0.777220  1
  O  O47  1  0.068984  0.984839  0.263898  1
