# generated using pymatgen
data_H13S2N3O8
_symmetry_space_group_name_H-M   'P 1'
_cell_length_a   10.35338870
_cell_length_b   8.37928476
_cell_length_c   8.37928476
_cell_angle_alpha   41.16995539
_cell_angle_beta   99.65378230
_cell_angle_gamma   99.65378230
_symmetry_Int_Tables_number   1
_chemical_formula_structural   H13S2N3O8
_chemical_formula_sum   'H26 S4 N6 O16'
_cell_volume   470.79818195
_cell_formula_units_Z   2
loop_
 _symmetry_equiv_pos_site_id
 _symmetry_equiv_pos_as_xyz
  1  'x, y, z'
loop_
 _atom_site_type_symbol
 _atom_site_label
 _atom_site_symmetry_multiplicity
 _atom_site_fract_x
 _atom_site_fract_y
 _atom_site_fract_z
 _atom_site_occupancy
  H  H0  1  0.175220  0.589312  0.346341  1
  H  H1  1  0.675220  0.346341  0.589312  1
  H  H2  1  0.824780  0.410688  0.653659  1
  H  H3  1  0.324780  0.653659  0.410688  1
  H  H4  1  0.282138  0.775944  0.131484  1
  H  H5  1  0.782138  0.131484  0.775944  1
  H  H6  1  0.717862  0.224056  0.868516  1
  H  H7  1  0.217862  0.868516  0.224056  1
  H  H8  1  0.756973  0.519976  0.130299  1
  H  H9  1  0.256973  0.130299  0.519976  1
  H  H10  1  0.243027  0.480024  0.869701  1
  H  H11  1  0.743027  0.869701  0.480024  1
  H  H12  1  0.844141  0.441718  0.045582  1
  H  H13  1  0.344141  0.045582  0.441718  1
  H  H14  1  0.155859  0.558282  0.954418  1
  H  H15  1  0.655859  0.954418  0.558282  1
  H  H16  1  0.916184  0.452811  0.230096  1
  H  H17  1  0.416184  0.230096  0.452811  1
  H  H18  1  0.083816  0.547189  0.769904  1
  H  H19  1  0.583816  0.769904  0.547189  1
  H  H20  1  0.875652  0.716739  0.935036  1
  H  H21  1  0.375652  0.935036  0.716739  1
  H  H22  1  0.124348  0.283261  0.064964  1
  H  H23  1  0.624348  0.064964  0.283261  1
  H  H24  1  0.500000  0.000000  0.000000  1
  H  H25  1  0.000000  0.000000  0.000000  1
  S  S26  1  0.038785  0.094664  0.680115  1
  S  S27  1  0.538785  0.680115  0.094664  1
  S  S28  1  0.961215  0.905336  0.319885  1
  S  S29  1  0.461215  0.319885  0.905336  1
  N  N30  1  0.750000  0.276719  0.723281  1
  N  N31  1  0.250000  0.723281  0.276719  1
  N  N32  1  0.848091  0.532693  0.085475  1
  N  N33  1  0.348091  0.085475  0.532693  1
  N  N34  1  0.151909  0.467307  0.914525  1
  N  N35  1  0.651909  0.914525  0.467307  1
  O  O36  1  0.107708  0.873071  0.828013  1
  O  O37  1  0.607708  0.828013  0.873071  1
  O  O38  1  0.892292  0.126929  0.171987  1
  O  O39  1  0.392292  0.171987  0.126929  1
  O  O40  1  0.055563  0.159504  0.813190  1
  O  O41  1  0.555563  0.813190  0.159504  1
  O  O42  1  0.944437  0.840496  0.186810  1
  O  O43  1  0.444437  0.186810  0.840496  1
  O  O44  1  0.895734  0.054268  0.649729  1
  O  O45  1  0.395734  0.649729  0.054268  1
  O  O46  1  0.104266  0.945732  0.350271  1
  O  O47  1  0.604266  0.350271  0.945732  1
  O  O48  1  0.096956  0.307714  0.442340  1
  O  O49  1  0.596956  0.442340  0.307714  1
  O  O50  1  0.903044  0.692286  0.557660  1
  O  O51  1  0.403044  0.557660  0.692286  1
