# generated using pymatgen
data_Co(IO3)2
_symmetry_space_group_name_H-M   'P 1'
_cell_length_a   11.09103977
_cell_length_b   11.09564586
_cell_length_c   5.13910843
_cell_angle_alpha   89.98864740
_cell_angle_beta   89.99631364
_cell_angle_gamma   120.01195002
_symmetry_Int_Tables_number   1
_chemical_formula_structural   Co(IO3)2
_chemical_formula_sum   'Co4 I8 O24'
_cell_volume   547.63467238
_cell_formula_units_Z   4
loop_
 _symmetry_equiv_pos_site_id
 _symmetry_equiv_pos_as_xyz
  1  'x, y, z'
loop_
 _atom_site_type_symbol
 _atom_site_label
 _atom_site_symmetry_multiplicity
 _atom_site_fract_x
 _atom_site_fract_y
 _atom_site_fract_z
 _atom_site_occupancy
  Co  Co0  1  0.003187  0.508669  0.066421  1
  Co  Co1  1  0.999791  0.000018  0.573248  1
  Co  Co2  1  0.505520  0.996767  0.066435  1
  Co  Co3  1  0.491326  0.494536  0.066815  1
  I  I4  1  0.165281  0.847372  0.997088  1
  I  I5  1  0.152247  0.317694  0.997035  1
  I  I6  1  0.333467  0.666657  0.459250  1
  I  I7  1  0.682376  0.834803  0.997263  1
  I  I8  1  0.345792  0.166701  0.485842  1
  I  I9  1  0.821184  0.654088  0.485517  1
  I  I10  1  0.666576  0.333249  0.011258  1
  I  I11  1  0.833113  0.179114  0.485427  1
  O  O12  1  0.147156  0.971627  0.782735  1
  O  O13  1  0.041793  0.681828  0.837424  1
  O  O14  1  0.178570  0.652438  0.296646  1
  O  O15  1  0.327581  0.869379  0.854170  1
  O  O16  1  0.130727  0.458246  0.854343  1
  O  O17  1  0.027583  0.175583  0.782507  1
  O  O18  1  0.474157  0.821482  0.296357  1
  O  O19  1  0.347601  0.526042  0.296470  1
  O  O20  1  0.177104  0.130046  0.348027  1
  O  O21  1  0.317849  0.359641  0.837602  1
  O  O22  1  0.640263  0.958180  0.837364  1
  O  O23  1  0.542188  0.672577  0.854295  1
  O  O24  1  0.461928  0.321321  0.289292  1
  O  O25  1  0.366492  0.036854  0.296831  1
  O  O26  1  0.670293  0.633302  0.297411  1
  O  O27  1  0.824916  0.852885  0.783121  1
  O  O28  1  0.618978  0.448438  0.834049  1
  O  O29  1  0.551537  0.170600  0.833488  1
  O  O30  1  0.952776  0.822688  0.346774  1
  O  O31  1  0.859421  0.537789  0.289120  1
  O  O32  1  0.678428  0.140502  0.288882  1
  O  O33  1  0.829324  0.381019  0.833489  1
  O  O34  1  0.963096  0.330084  0.297218  1
  O  O35  1  0.870378  0.047782  0.346416  1
