# generated using pymatgen
data_Li6MnFe5(BO3)6
_symmetry_space_group_name_H-M   'P 1'
_cell_length_a   8.25559531
_cell_length_b   8.26014705
_cell_length_c   12.54398251
_cell_angle_alpha   90.00000000
_cell_angle_beta   90.00000000
_cell_angle_gamma   120.02012466
_symmetry_Int_Tables_number   1
_chemical_formula_structural   Li6MnFe5(BO3)6
_chemical_formula_sum   'Li12 Mn2 Fe10 B12 O36'
_cell_volume   740.65189813
_cell_formula_units_Z   2
loop_
 _symmetry_equiv_pos_site_id
 _symmetry_equiv_pos_as_xyz
  1  'x, y, z'
loop_
 _atom_site_type_symbol
 _atom_site_label
 _atom_site_symmetry_multiplicity
 _atom_site_fract_x
 _atom_site_fract_y
 _atom_site_fract_z
 _atom_site_occupancy
  Li  Li0  1  0.285066  0.983595  0.125966  1
  Li  Li1  1  0.285066  0.983595  0.874034  1
  Li  Li2  1  0.285457  0.983410  0.624863  1
  Li  Li3  1  0.285457  0.983410  0.375137  1
  Li  Li4  1  0.016730  0.301318  0.125432  1
  Li  Li5  1  0.016474  0.302162  0.375152  1
  Li  Li6  1  0.016474  0.302162  0.624848  1
  Li  Li7  1  0.016730  0.301318  0.874568  1
  Li  Li8  1  0.698414  0.714567  0.375006  1
  Li  Li9  1  0.698414  0.714567  0.624994  1
  Li  Li10  1  0.698407  0.714148  0.125576  1
  Li  Li11  1  0.698407  0.714148  0.874424  1
  Mn  Mn12  1  0.371597  0.359447  0.000000  1
  Mn  Mn13  1  0.640827  0.011972  0.000000  1
  Fe  Fe14  1  0.367955  0.360249  0.500000  1
  Fe  Fe15  1  0.368392  0.360798  0.251433  1
  Fe  Fe16  1  0.368392  0.360798  0.748567  1
  Fe  Fe17  1  0.640210  0.007710  0.500000  1
  Fe  Fe18  1  0.639440  0.007792  0.251363  1
  Fe  Fe19  1  0.639440  0.007792  0.748637  1
  Fe  Fe20  1  0.992200  0.632581  0.500000  1
  Fe  Fe21  1  0.992656  0.634486  0.000000  1
  Fe  Fe22  1  0.992111  0.632328  0.249758  1
  Fe  Fe23  1  0.992111  0.632328  0.750242  1
  B  B24  1  0.998396  0.997807  0.000000  1
  B  B25  1  0.000056  -0.000070  0.250504  1
  B  B26  1  0.000125  0.000155  0.500000  1
  B  B27  1  0.000056  -0.000070  0.749496  1
  B  B28  1  0.332087  0.666631  0.872255  1
  B  B29  1  0.332087  0.666631  0.127745  1
  B  B30  1  0.333058  0.666585  0.375829  1
  B  B31  1  0.333058  0.666585  0.624171  1
  B  B32  1  0.668009  0.334030  0.126771  1
  B  B33  1  0.666668  0.333467  0.375195  1
  B  B34  1  0.666668  0.333467  0.624805  1
  B  B35  1  0.668009  0.334030  0.873229  1
  O  O36  1  0.109229  0.914821  0.250598  1
  O  O37  1  0.112961  0.917669  0.000000  1
  O  O38  1  0.109519  0.915070  0.500000  1
  O  O39  1  0.109229  0.914821  0.749402  1
  O  O40  1  0.137895  0.580249  0.874860  1
  O  O41  1  0.137895  0.580249  0.125140  1
  O  O42  1  0.138775  0.580810  0.375086  1
  O  O43  1  0.138775  0.580810  0.624914  1
  O  O44  1  0.078094  0.191457  0.000000  1
  O  O45  1  0.085159  0.194349  0.500000  1
  O  O46  1  0.085230  0.194310  0.749118  1
  O  O47  1  0.085230  0.194310  0.250882  1
  O  O48  1  0.440122  0.860642  0.871683  1
  O  O49  1  0.441590  0.860820  0.623884  1
  O  O50  1  0.440122  0.860642  0.128317  1
  O  O51  1  0.441590  0.860820  0.376115  1
  O  O52  1  0.418509  0.558907  0.871919  1
  O  O53  1  0.418509  0.558907  0.128081  1
  O  O54  1  0.419292  0.558480  0.623975  1
  O  O55  1  0.419292  0.558480  0.376025  1
  O  O56  1  0.473767  0.253393  0.127215  1
  O  O57  1  0.472558  0.254606  0.624589  1
  O  O58  1  0.472558  0.254606  0.375411  1
  O  O59  1  0.473767  0.253393  0.872785  1
  O  O60  1  0.804956  0.882854  0.000000  1
  O  O61  1  0.805590  0.890674  0.250715  1
  O  O62  1  0.805865  0.890760  0.500000  1
  O  O63  1  0.805590  0.890674  0.749285  1
  O  O64  1  0.781736  0.527705  0.124931  1
  O  O65  1  0.781885  0.527203  0.374746  1
  O  O66  1  0.781885  0.527203  0.625254  1
  O  O67  1  0.781736  0.527705  0.875069  1
  O  O68  1  0.745310  0.218192  0.375521  1
  O  O69  1  0.747886  0.220145  0.127107  1
  O  O70  1  0.745310  0.218192  0.624479  1
  O  O71  1  0.747886  0.220145  0.872893  1
