# generated using pymatgen
data_Li2Si2WO7
_symmetry_space_group_name_H-M   'P 1'
_cell_length_a   6.17162807
_cell_length_b   8.88065293
_cell_length_c   5.44063831
_cell_angle_alpha   90.64924780
_cell_angle_beta   95.19862434
_cell_angle_gamma   68.62344545
_symmetry_Int_Tables_number   1
_chemical_formula_structural   Li2Si2WO7
_chemical_formula_sum   'Li4 Si4 W2 O14'
_cell_volume   276.45905618
_cell_formula_units_Z   2
loop_
 _symmetry_equiv_pos_site_id
 _symmetry_equiv_pos_as_xyz
  1  'x, y, z'
loop_
 _atom_site_type_symbol
 _atom_site_label
 _atom_site_symmetry_multiplicity
 _atom_site_fract_x
 _atom_site_fract_y
 _atom_site_fract_z
 _atom_site_occupancy
  Li  Li0  1  0.087372  0.854257  0.708531  1
  Li  Li1  1  0.341276  0.468558  0.747475  1
  Li  Li2  1  0.658724  0.531442  0.252525  1
  Li  Li3  1  0.912628  0.145743  0.291469  1
  Si  Si4  1  0.069295  0.659331  0.308348  1
  Si  Si5  1  0.669360  0.130545  0.790130  1
  Si  Si6  1  0.330640  0.869455  0.209870  1
  Si  Si7  1  0.930705  0.340669  0.691652  1
  W  W8  1  0.300097  0.279658  0.234667  1
  W  W9  1  0.699903  0.720342  0.765333  1
  O  O10  1  0.970711  0.353327  0.398988  1
  O  O11  1  0.138788  0.345923  0.890595  1
  O  O12  1  0.254844  0.064393  0.218652  1
  O  O13  1  0.090270  0.841616  0.286247  1
  O  O14  1  0.318731  0.511534  0.258590  1
  O  O15  1  0.468025  0.229750  0.577893  1
  O  O16  1  0.621323  0.202402  0.066031  1
  O  O17  1  0.378677  0.797598  0.933969  1
  O  O18  1  0.531975  0.770250  0.422107  1
  O  O19  1  0.681269  0.488466  0.741410  1
  O  O20  1  0.909730  0.158384  0.713753  1
  O  O21  1  0.745156  0.935607  0.781348  1
  O  O22  1  0.861212  0.654077  0.109405  1
  O  O23  1  0.029289  0.646673  0.601012  1
