# generated using pymatgen
data_K2Li2NiO4
_symmetry_space_group_name_H-M   'P 1'
_cell_length_a   5.46513884
_cell_length_b   9.04552430
_cell_length_c   10.34223548
_cell_angle_alpha   90.00000000
_cell_angle_beta   82.78031937
_cell_angle_gamma   90.00000000
_symmetry_Int_Tables_number   1
_chemical_formula_structural   K2Li2NiO4
_chemical_formula_sum   'K8 Li8 Ni4 O16'
_cell_volume   507.21534045
_cell_formula_units_Z   4
loop_
 _symmetry_equiv_pos_site_id
 _symmetry_equiv_pos_as_xyz
  1  'x, y, z'
loop_
 _atom_site_type_symbol
 _atom_site_label
 _atom_site_symmetry_multiplicity
 _atom_site_fract_x
 _atom_site_fract_y
 _atom_site_fract_z
 _atom_site_occupancy
  K  K0  1  0.158068  0.999667  0.143693  1
  K  K1  1  0.142479  0.251942  0.637442  1
  K  K2  1  0.341932  0.499667  0.356307  1
  K  K3  1  0.357521  0.751942  0.862558  1
  K  K4  1  0.642479  0.248058  0.137442  1
  K  K5  1  0.658068  0.500333  0.643693  1
  K  K6  1  0.857521  0.748058  0.362558  1
  K  K7  1  0.841932  0.000333  0.856307  1
  Li  Li8  1  0.074255  0.253381  0.311067  1
  Li  Li9  1  0.278302  0.513017  0.067314  1
  Li  Li10  1  0.221698  0.013017  0.432686  1
  Li  Li11  1  0.425745  0.753381  0.188933  1
  Li  Li12  1  0.574255  0.246619  0.811067  1
  Li  Li13  1  0.778302  0.986983  0.567314  1
  Li  Li14  1  0.721698  0.486983  0.932686  1
  Li  Li15  1  0.925745  0.746619  0.688933  1
  Ni  Ni16  1  0.170137  0.285300  0.949790  1
  Ni  Ni17  1  0.329863  0.785300  0.550210  1
  Ni  Ni18  1  0.670137  0.214700  0.449790  1
  Ni  Ni19  1  0.829863  0.714700  0.050210  1
  O  O20  1  0.147236  0.311561  0.126560  1
  O  O21  1  0.121564  0.703638  0.113274  1
  O  O22  1  0.110568  0.927890  0.615813  1
  O  O23  1  0.174832  0.614236  0.592648  1
  O  O24  1  0.378436  0.203638  0.386726  1
  O  O25  1  0.352764  0.811561  0.373440  1
  O  O26  1  0.325168  0.114236  0.907352  1
  O  O27  1  0.389432  0.427890  0.884187  1
  O  O28  1  0.610568  0.572110  0.115813  1
  O  O29  1  0.674832  0.885764  0.092648  1
  O  O30  1  0.647236  0.188439  0.626560  1
  O  O31  1  0.621564  0.796362  0.613274  1
  O  O32  1  0.825168  0.385764  0.407352  1
  O  O33  1  0.889432  0.072110  0.384187  1
  O  O34  1  0.878436  0.296362  0.886726  1
  O  O35  1  0.852764  0.688439  0.873440  1
