# generated using pymatgen
data_SmTlO2
_symmetry_space_group_name_H-M   'P 1'
_cell_length_a   3.60784307
_cell_length_b   3.60805334
_cell_length_c   12.99740267
_cell_angle_alpha   89.99734506
_cell_angle_beta   90.00128746
_cell_angle_gamma   119.99918787
_symmetry_Int_Tables_number   1
_chemical_formula_structural   SmTlO2
_chemical_formula_sum   'Sm2 Tl2 O4'
_cell_volume   146.52487089
_cell_formula_units_Z   2
loop_
 _symmetry_equiv_pos_site_id
 _symmetry_equiv_pos_as_xyz
  1  'x, y, z'
loop_
 _atom_site_type_symbol
 _atom_site_label
 _atom_site_symmetry_multiplicity
 _atom_site_fract_x
 _atom_site_fract_y
 _atom_site_fract_z
 _atom_site_occupancy
  Sm  Sm0  1  0.000003  0.000007  0.999991  1
  Sm  Sm1  1  0.000001  0.000023  0.500006  1
  Tl  Tl2  1  0.333315  0.666570  0.749998  1
  Tl  Tl3  1  0.666688  0.333333  0.249998  1
  O  O4  1  0.333316  0.666729  0.411741  1
  O  O5  1  0.333315  0.666632  0.088261  1
  O  O6  1  0.666679  0.333367  0.588270  1
  O  O7  1  0.666683  0.333337  0.911736  1
