# generated using pymatgen
data_AgClO3
_symmetry_space_group_name_H-M   'P 1'
_cell_length_a   8.84305570
_cell_length_b   5.41686018
_cell_length_c   6.96727525
_cell_angle_alpha   90.00000000
_cell_angle_beta   112.18064990
_cell_angle_gamma   90.00000000
_symmetry_Int_Tables_number   1
_chemical_formula_structural   AgClO3
_chemical_formula_sum   'Ag4 Cl4 O12'
_cell_volume   309.04595773
_cell_formula_units_Z   4
loop_
 _symmetry_equiv_pos_site_id
 _symmetry_equiv_pos_as_xyz
  1  'x, y, z'
loop_
 _atom_site_type_symbol
 _atom_site_label
 _atom_site_symmetry_multiplicity
 _atom_site_fract_x
 _atom_site_fract_y
 _atom_site_fract_z
 _atom_site_occupancy
  Ag  Ag0  1  0.176257  0.262880  0.692142  1
  Ag  Ag1  1  0.323743  0.762880  0.307858  1
  Ag  Ag2  1  0.676257  0.237120  0.692142  1
  Ag  Ag3  1  0.823743  0.737120  0.307858  1
  Cl  Cl4  1  0.024946  0.222608  0.176941  1
  Cl  Cl5  1  0.475054  0.722608  0.823059  1
  Cl  Cl6  1  0.524946  0.277392  0.176941  1
  Cl  Cl7  1  0.975054  0.777392  0.823059  1
  O  O8  1  0.153637  0.843092  0.908215  1
  O  O9  1  0.043341  0.477698  0.272244  1
  O  O10  1  0.106874  0.043966  0.356998  1
  O  O11  1  0.393126  0.543966  0.643002  1
  O  O12  1  0.456659  0.977698  0.727756  1
  O  O13  1  0.346363  0.343092  0.091785  1
  O  O14  1  0.653637  0.656908  0.908215  1
  O  O15  1  0.543341  0.022302  0.272244  1
  O  O16  1  0.606874  0.456034  0.356998  1
  O  O17  1  0.893126  0.956034  0.643002  1
  O  O18  1  0.956659  0.522302  0.727756  1
  O  O19  1  0.846363  0.156908  0.091785  1
