# generated using pymatgen
data_Li2Mn2F7
_symmetry_space_group_name_H-M   'P 1'
_cell_length_a   7.78882300
_cell_length_b   13.14981408
_cell_length_c   5.22248638
_cell_angle_alpha   90.00000000
_cell_angle_beta   90.00000000
_cell_angle_gamma   97.82089078
_symmetry_Int_Tables_number   1
_chemical_formula_structural   Li2Mn2F7
_chemical_formula_sum   'Li8 Mn8 F28'
_cell_volume   529.91983694
_cell_formula_units_Z   4
loop_
 _symmetry_equiv_pos_site_id
 _symmetry_equiv_pos_as_xyz
  1  'x, y, z'
loop_
 _atom_site_type_symbol
 _atom_site_label
 _atom_site_symmetry_multiplicity
 _atom_site_fract_x
 _atom_site_fract_y
 _atom_site_fract_z
 _atom_site_occupancy
  Li  Li0  1  0.146303  0.569005  0.274137  1
  Li  Li1  1  0.226624  0.903745  0.764177  1
  Li  Li2  1  0.278535  0.109741  0.258586  1
  Li  Li3  1  0.396804  0.424480  0.779725  1
  Li  Li4  1  0.603196  0.575520  0.279725  1
  Li  Li5  1  0.721465  0.890259  0.758586  1
  Li  Li6  1  0.773376  0.096255  0.264176  1
  Li  Li7  1  0.853697  0.430995  0.774137  1
  Mn  Mn8  1  0.079496  0.320942  0.260533  1
  Mn  Mn9  1  0.026325  0.111847  0.764517  1
  Mn  Mn10  1  0.417738  0.679791  0.758378  1
  Mn  Mn11  1  0.471177  0.887154  0.261605  1
  Mn  Mn12  1  0.528823  0.112846  0.761605  1
  Mn  Mn13  1  0.582262  0.320209  0.258378  1
  Mn  Mn14  1  0.973675  0.888153  0.264517  1
  Mn  Mn15  1  0.920504  0.679058  0.760533  1
  F  F16  1  0.045106  0.400917  0.548144  1
  F  F17  1  0.979315  0.190812  0.421608  1
  F  F18  1  0.168643  0.657429  0.599611  1
  F  F19  1  0.219573  0.876441  0.412441  1
  F  F20  1  0.176862  0.437129  0.079699  1
  F  F21  1  0.083383  0.026215  0.090707  1
  F  F22  1  0.132088  0.237504  0.979147  1
  F  F23  1  0.350988  0.621045  0.069266  1
  F  F24  1  0.386263  0.820292  0.909772  1
  F  F25  1  0.269228  0.080604  0.618915  1
  F  F26  1  0.332384  0.296151  0.408094  1
  F  F27  1  0.443818  0.548692  0.579771  1
  F  F28  1  0.567468  0.971360  0.587974  1
  F  F29  1  0.507009  0.753475  0.465684  1
  F  F30  1  0.492991  0.246525  0.965684  1
  F  F31  1  0.432532  0.028640  0.087974  1
  F  F32  1  0.556182  0.451308  0.079771  1
  F  F33  1  0.667616  0.703849  0.908094  1
  F  F34  1  0.730772  0.919396  0.118915  1
  F  F35  1  0.613737  0.179708  0.409772  1
  F  F36  1  0.649012  0.378955  0.569266  1
  F  F37  1  0.867912  0.762496  0.479147  1
  F  F38  1  0.916617  0.973785  0.590707  1
  F  F39  1  0.823138  0.562871  0.579699  1
  F  F40  1  0.780427  0.123559  0.912441  1
  F  F41  1  0.831357  0.342571  0.099611  1
  F  F42  1  0.020685  0.809188  0.921608  1
  F  F43  1  0.954894  0.599083  0.048144  1
