# generated using pymatgen
data_Li2Fe(Si2O5)3
_symmetry_space_group_name_H-M   'P 1'
_cell_length_a   6.99776202
_cell_length_b   12.70088218
_cell_length_c   7.53827435
_cell_angle_alpha   90.00000000
_cell_angle_beta   111.90856215
_cell_angle_gamma   90.00000000
_symmetry_Int_Tables_number   1
_chemical_formula_structural   Li2Fe(Si2O5)3
_chemical_formula_sum   'Li4 Fe2 Si12 O30'
_cell_volume   621.59890169
_cell_formula_units_Z   2
loop_
 _symmetry_equiv_pos_site_id
 _symmetry_equiv_pos_as_xyz
  1  'x, y, z'
loop_
 _atom_site_type_symbol
 _atom_site_label
 _atom_site_symmetry_multiplicity
 _atom_site_fract_x
 _atom_site_fract_y
 _atom_site_fract_z
 _atom_site_occupancy
  Li  Li0  1  0.146887  0.338640  0.458102  1
  Li  Li1  1  0.172657  0.170064  0.162658  1
  Li  Li2  1  0.827343  0.670064  0.837342  1
  Li  Li3  1  0.853113  0.838640  0.541898  1
  Fe  Fe4  1  0.262926  0.749922  0.751871  1
  Fe  Fe5  1  0.737074  0.249922  0.248129  1
  Si  Si6  1  0.034809  0.667048  0.312768  1
  Si  Si7  1  0.001644  0.845816  0.024909  1
  Si  Si8  1  0.303901  0.511902  0.910556  1
  Si  Si9  1  0.307332  0.010097  0.705912  1
  Si  Si10  1  0.537505  0.341475  0.807765  1
  Si  Si11  1  0.493725  0.663129  0.475976  1
  Si  Si12  1  0.506275  0.163129  0.524024  1
  Si  Si13  1  0.462495  0.841475  0.192235  1
  Si  Si14  1  0.692668  0.510097  0.294088  1
  Si  Si15  1  0.696099  0.011902  0.089444  1
  Si  Si16  1  0.998356  0.345816  0.975091  1
  Si  Si17  1  0.965191  0.167048  0.687232  1
  O  O18  1  0.982378  0.808013  0.814044  1
  O  O19  1  0.068683  0.238562  0.884291  1
  O  O20  1  0.147812  0.444601  0.981723  1
  O  O21  1  0.041664  0.736347  0.495108  1
  O  O22  1  0.092331  0.056909  0.712464  1
  O  O23  1  0.174815  0.615900  0.809569  1
  O  O24  1  0.291533  0.885607  0.662012  1
  O  O25  1  0.263989  0.632242  0.327189  1
  O  O26  1  0.447866  0.775888  0.003780  1
  O  O27  1  0.366341  0.437630  0.759064  1
  O  O28  1  0.233167  0.883561  0.167918  1
  O  O29  1  0.486024  0.040216  0.910468  1
  O  O30  1  0.350045  0.068108  0.529088  1
  O  O31  1  0.512555  0.684408  0.692387  1
  O  O32  1  0.432664  0.270348  0.610937  1
  O  O33  1  0.567336  0.770348  0.389063  1
  O  O34  1  0.487445  0.184408  0.307613  1
  O  O35  1  0.649955  0.568108  0.470912  1
  O  O36  1  0.513976  0.540216  0.089532  1
  O  O37  1  0.766833  0.383561  0.832082  1
  O  O38  1  0.633659  0.937630  0.240936  1
  O  O39  1  0.552134  0.275888  0.996220  1
  O  O40  1  0.736011  0.132242  0.672811  1
  O  O41  1  0.708467  0.385607  0.337988  1
  O  O42  1  0.825185  0.115900  0.190431  1
  O  O43  1  0.907669  0.556909  0.287536  1
  O  O44  1  0.958336  0.236347  0.504892  1
  O  O45  1  0.852188  0.944601  0.018277  1
  O  O46  1  0.931317  0.738562  0.115709  1
  O  O47  1  0.017622  0.308013  0.185956  1
