# generated using pymatgen
data_Ga2P3H11O13
_symmetry_space_group_name_H-M   'P 1'
_cell_length_a   8.18735307
_cell_length_b   10.14515000
_cell_length_c   7.77610854
_cell_angle_alpha   90.00000000
_cell_angle_beta   111.41339323
_cell_angle_gamma   90.00000000
_symmetry_Int_Tables_number   1
_chemical_formula_structural   Ga2P3H11O13
_chemical_formula_sum   'Ga4 P6 H22 O26'
_cell_volume   601.31248938
_cell_formula_units_Z   2
loop_
 _symmetry_equiv_pos_site_id
 _symmetry_equiv_pos_as_xyz
  1  'x, y, z'
loop_
 _atom_site_type_symbol
 _atom_site_label
 _atom_site_symmetry_multiplicity
 _atom_site_fract_x
 _atom_site_fract_y
 _atom_site_fract_z
 _atom_site_occupancy
  Ga  Ga0  1  0.974903  0.849501  0.934808  1
  Ga  Ga1  1  0.025097  0.349501  0.065192  1
  Ga  Ga2  1  0.624007  0.577728  0.410846  1
  Ga  Ga3  1  0.375993  0.077728  0.589154  1
  P  P4  1  0.655462  0.877001  0.542805  1
  P  P5  1  0.344538  0.377001  0.457195  1
  P  P6  1  0.006779  0.575269  0.749381  1
  P  P7  1  0.993221  0.075269  0.250619  1
  P  P8  1  0.078832  0.130006  0.777189  1
  P  P9  1  0.921168  0.630006  0.222811  1
  H  H10  1  0.790014  0.891832  0.473318  1
  H  H11  1  0.209986  0.391832  0.526682  1
  H  H12  1  0.084496  0.543674  0.620263  1
  H  H13  1  0.915504  0.043674  0.379737  1
  H  H14  1  0.917115  0.178731  0.654305  1
  H  H15  1  0.082885  0.678731  0.345695  1
  H  H16  1  0.246163  0.907416  0.236663  1
  H  H17  1  0.753837  0.407416  0.763337  1
  H  H18  1  0.696762  0.268394  0.835246  1
  H  H19  1  0.303238  0.768394  0.164754  1
  H  H20  1  0.331897  0.529332  0.112433  1
  H  H21  1  0.668103  0.029332  0.887567  1
  H  H22  1  0.461153  0.613455  0.042096  1
  H  H23  1  0.538847  0.113455  0.957904  1
  H  H24  1  0.601425  0.319964  0.267651  1
  H  H25  1  0.398575  0.819964  0.732349  1
  H  H26  1  0.776504  0.397084  0.280301  1
  H  H27  1  0.223496  0.897084  0.719699  1
  H  H28  1  0.632943  0.688631  0.889164  1
  H  H29  1  0.367057  0.188631  0.110836  1
  H  H30  1  0.485994  0.610878  0.737494  1
  H  H31  1  0.514006  0.110878  0.262506  1
  O  O32  1  0.735132  0.869055  0.754830  1
  O  O33  1  0.264868  0.369055  0.245170  1
  O  O34  1  0.063039  0.980200  0.798498  1
  O  O35  1  0.936961  0.480200  0.201502  1
  O  O36  1  0.053977  0.720825  0.793892  1
  O  O37  1  0.946023  0.220825  0.206108  1
  O  O38  1  0.877659  0.705499  0.040527  1
  O  O39  1  0.122341  0.205499  0.959473  1
  O  O40  1  0.909403  0.983398  0.083673  1
  O  O41  1  0.090597  0.483398  0.916327  1
  O  O42  1  0.221749  0.843352  0.133303  1
  O  O43  1  0.778251  0.343352  0.866697  1
  O  O44  1  0.550575  0.752752  0.455981  1
  O  O45  1  0.449425  0.252752  0.544019  1
  O  O46  1  0.807697  0.547641  0.657581  1
  O  O47  1  0.192303  0.047641  0.342419  1
  O  O48  1  0.215392  0.158371  0.689467  1
  O  O49  1  0.784608  0.658371  0.310533  1
  O  O50  1  0.459982  0.502241  0.516941  1
  O  O51  1  0.540018  0.002241  0.483059  1
  O  O52  1  0.422752  0.599292  0.149261  1
  O  O53  1  0.577248  0.099292  0.850739  1
  O  O54  1  0.681799  0.393458  0.331432  1
  O  O55  1  0.318201  0.893458  0.668568  1
  O  O56  1  0.505386  0.669320  0.844488  1
  O  O57  1  0.494614  0.169320  0.155512  1
