# generated using pymatgen
data_K2LiNbO4
_symmetry_space_group_name_H-M   'P 1'
_cell_length_a   5.92929319
_cell_length_b   8.27500525
_cell_length_c   12.36535172
_cell_angle_alpha   90.00000000
_cell_angle_beta   77.14413028
_cell_angle_gamma   90.00000000
_symmetry_Int_Tables_number   1
_chemical_formula_structural   K2LiNbO4
_chemical_formula_sum   'K8 Li4 Nb4 O16'
_cell_volume   591.49677962
_cell_formula_units_Z   4
loop_
 _symmetry_equiv_pos_site_id
 _symmetry_equiv_pos_as_xyz
  1  'x, y, z'
loop_
 _atom_site_type_symbol
 _atom_site_label
 _atom_site_symmetry_multiplicity
 _atom_site_fract_x
 _atom_site_fract_y
 _atom_site_fract_z
 _atom_site_occupancy
  K  K0  1  0.212101  0.990618  0.158764  1
  K  K1  1  0.186788  0.256823  0.638042  1
  K  K2  1  0.287899  0.490618  0.341236  1
  K  K3  1  0.686788  0.243177  0.138042  1
  K  K4  1  0.313212  0.756823  0.861958  1
  K  K5  1  0.712101  0.509382  0.658764  1
  K  K6  1  0.813212  0.743177  0.361958  1
  K  K7  1  0.787899  0.009382  0.841236  1
  Li  Li8  1  0.227491  0.025260  0.409945  1
  Li  Li9  1  0.272509  0.525260  0.090055  1
  Li  Li10  1  0.727491  0.474740  0.909945  1
  Li  Li11  1  0.772509  0.974740  0.590055  1
  Nb  Nb12  1  0.218184  0.279507  0.932491  1
  Nb  Nb13  1  0.281816  0.779507  0.567509  1
  Nb  Nb14  1  0.718184  0.220493  0.432491  1
  Nb  Nb15  1  0.781816  0.720493  0.067509  1
  O  O16  1  0.058632  0.700753  0.117839  1
  O  O17  1  0.154975  0.302621  0.088140  1
  O  O18  1  0.071663  0.947704  0.621409  1
  O  O19  1  0.165378  0.573082  0.600284  1
  O  O20  1  0.345025  0.802621  0.411860  1
  O  O21  1  0.441368  0.200753  0.382161  1
  O  O22  1  0.334622  0.073082  0.899716  1
  O  O23  1  0.428337  0.447704  0.878591  1
  O  O24  1  0.571663  0.552296  0.121409  1
  O  O25  1  0.665378  0.926918  0.100284  1
  O  O26  1  0.558632  0.799247  0.617839  1
  O  O27  1  0.654975  0.197379  0.588140  1
  O  O28  1  0.834622  0.426918  0.399716  1
  O  O29  1  0.928337  0.052296  0.378591  1
  O  O30  1  0.845025  0.697379  0.911860  1
  O  O31  1  0.941368  0.299247  0.882161  1
