# generated using pymatgen
data_Li3Co3(Ge3O8)2
_symmetry_space_group_name_H-M   'P 1'
_cell_length_a   8.40941316
_cell_length_b   8.42074996
_cell_length_c   8.42091493
_cell_angle_alpha   90.00000000
_cell_angle_beta   90.06049440
_cell_angle_gamma   90.00000000
_symmetry_Int_Tables_number   1
_chemical_formula_structural   Li3Co3(Ge3O8)2
_chemical_formula_sum   'Li6 Co6 Ge12 O32'
_cell_volume   596.31467922
_cell_formula_units_Z   2
loop_
 _symmetry_equiv_pos_site_id
 _symmetry_equiv_pos_as_xyz
  1  'x, y, z'
loop_
 _atom_site_type_symbol
 _atom_site_label
 _atom_site_symmetry_multiplicity
 _atom_site_fract_x
 _atom_site_fract_y
 _atom_site_fract_z
 _atom_site_occupancy
  Li  Li0  1  0.999404  0.999693  0.000092  1
  Li  Li1  1  0.000596  0.499693  0.499908  1
  Li  Li2  1  0.123172  0.874209  0.373375  1
  Li  Li3  1  0.372618  0.124648  0.876161  1
  Li  Li4  1  0.627382  0.624648  0.623839  1
  Li  Li5  1  0.876828  0.374209  0.126625  1
  Co  Co6  1  0.247232  0.248879  0.248721  1
  Co  Co7  1  0.251161  0.752373  0.747892  1
  Co  Co8  1  0.503170  0.497513  0.997964  1
  Co  Co9  1  0.496830  0.997513  0.502036  1
  Co  Co10  1  0.748839  0.252373  0.752108  1
  Co  Co11  1  0.752768  0.748879  0.251279  1
  Ge  Ge12  1  0.126455  0.124725  0.629478  1
  Ge  Ge13  1  0.120995  0.628303  0.130560  1
  Ge  Ge14  1  0.123908  0.368597  0.876550  1
  Ge  Ge15  1  0.374947  0.375063  0.627938  1
  Ge  Ge16  1  0.370817  0.627370  0.377119  1
  Ge  Ge17  1  0.367589  0.878716  0.123787  1
  Ge  Ge18  1  0.629183  0.127370  0.122881  1
  Ge  Ge19  1  0.632411  0.378716  0.376213  1
  Ge  Ge20  1  0.625053  0.875063  0.872062  1
  Ge  Ge21  1  0.879005  0.128303  0.369440  1
  Ge  Ge22  1  0.873545  0.624725  0.870522  1
  Ge  Ge23  1  0.876092  0.868597  0.623450  1
  O  O24  1  0.129329  0.394620  0.101707  1
  O  O25  1  0.140058  0.361226  0.639022  1
  O  O26  1  0.147844  0.854758  0.120668  1
  O  O27  1  0.107052  0.898804  0.628017  1
  O  O28  1  0.103566  0.127841  0.395734  1
  O  O29  1  0.120716  0.148074  0.855495  1
  O  O30  1  0.145257  0.620871  0.351206  1
  O  O31  1  0.112480  0.611631  0.888309  1
  O  O32  1  0.394995  0.103255  0.127842  1
  O  O33  1  0.388697  0.387987  0.388392  1
  O  O34  1  0.352750  0.143874  0.622250  1
  O  O35  1  0.356996  0.378532  0.852706  1
  O  O36  1  0.363958  0.637671  0.137370  1
  O  O37  1  0.378349  0.852282  0.355633  1
  O  O38  1  0.372237  0.606266  0.602357  1
  O  O39  1  0.398674  0.872221  0.893288  1
  O  O40  1  0.636042  0.137671  0.362630  1
  O  O41  1  0.627763  0.106266  0.897643  1
  O  O42  1  0.621651  0.352282  0.144367  1
  O  O43  1  0.601326  0.372221  0.606712  1
  O  O44  1  0.605005  0.603255  0.372158  1
  O  O45  1  0.647250  0.643874  0.877750  1
  O  O46  1  0.611303  0.887987  0.111608  1
  O  O47  1  0.643004  0.878532  0.647294  1
  O  O48  1  0.854743  0.120871  0.148794  1
  O  O49  1  0.887520  0.111631  0.611691  1
  O  O50  1  0.852156  0.354758  0.379332  1
  O  O51  1  0.892948  0.398804  0.871983  1
  O  O52  1  0.896434  0.627841  0.104266  1
  O  O53  1  0.879284  0.648074  0.644505  1
  O  O54  1  0.870671  0.894620  0.398293  1
  O  O55  1  0.859942  0.861226  0.860978  1
