# generated using pymatgen
data_SnCl8O25
_symmetry_space_group_name_H-M   'P 1'
_cell_length_a   16.43380995
_cell_length_b   16.42874281
_cell_length_c   7.56881289
_cell_angle_alpha   90.01467322
_cell_angle_beta   89.97698698
_cell_angle_gamma   120.00118956
_symmetry_Int_Tables_number   1
_chemical_formula_structural   SnCl8O25
_chemical_formula_sum   'Sn3 Cl24 O75'
_cell_volume   1769.68410422
_cell_formula_units_Z   3
loop_
 _symmetry_equiv_pos_site_id
 _symmetry_equiv_pos_as_xyz
  1  'x, y, z'
loop_
 _atom_site_type_symbol
 _atom_site_label
 _atom_site_symmetry_multiplicity
 _atom_site_fract_x
 _atom_site_fract_y
 _atom_site_fract_z
 _atom_site_occupancy
  Sn  Sn0  1  0.000065  0.999913  0.155211  1
  Sn  Sn1  1  0.333261  0.666794  0.631798  1
  Sn  Sn2  1  0.666625  0.333322  0.066080  1
  Cl  Cl3  1  0.010592  0.671697  0.885223  1
  Cl  Cl4  1  0.661382  0.989522  0.885293  1
  Cl  Cl5  1  0.328264  0.338748  0.885440  1
  Cl  Cl6  1  0.993392  0.289905  0.456355  1
  Cl  Cl7  1  0.296698  0.006204  0.456262  1
  Cl  Cl8  1  0.709768  0.703277  0.456087  1
  Cl  Cl9  1  0.002497  0.821723  0.375006  1
  Cl  Cl10  1  0.819260  0.997573  0.374744  1
  Cl  Cl11  1  0.178386  0.180771  0.374855  1
  Cl  Cl12  1  0.837468  0.812379  0.934414  1
  Cl  Cl13  1  0.974814  0.162387  0.934429  1
  Cl  Cl14  1  0.187736  0.025173  0.934334  1
  Cl  Cl15  1  0.167759  0.694168  0.411809  1
  Cl  Cl16  1  0.526455  0.832310  0.411596  1
  Cl  Cl17  1  0.305844  0.473586  0.411683  1
  Cl  Cl18  1  0.356533  0.858553  0.846162  1
  Cl  Cl19  1  0.501966  0.643817  0.846409  1
  Cl  Cl20  1  0.141755  0.497954  0.846545  1
  Cl  Cl21  1  0.481686  0.307653  0.311439  1
  Cl  Cl22  1  0.825998  0.518381  0.311400  1
  Cl  Cl23  1  0.692303  0.173965  0.311491  1
  Cl  Cl24  1  0.637029  0.500318  0.859461  1
  Cl  Cl25  1  0.863331  0.362980  0.859481  1
  Cl  Cl26  1  0.499605  0.136715  0.859418  1
  O  O27  1  0.953135  0.879977  0.314228  1
  O  O28  1  0.926807  0.046834  0.314118  1
  O  O29  1  0.120043  0.073212  0.314264  1
  O  O30  1  0.021717  0.784717  0.218944  1
  O  O31  1  0.762997  0.978250  0.218995  1
  O  O32  1  0.215293  0.237020  0.219022  1
  O  O33  1  0.932495  0.751548  0.487815  1
  O  O34  1  0.819007  0.067458  0.487881  1
  O  O35  1  0.248443  0.181035  0.487889  1
  O  O36  1  0.086381  0.885134  0.469261  1
  O  O37  1  0.798659  0.913498  0.469279  1
  O  O38  1  0.114822  0.201339  0.469402  1
  O  O39  1  0.895046  0.920587  0.965563  1
  O  O40  1  0.025440  0.104866  0.965638  1
  O  O41  1  0.079364  0.974499  0.965560  1
  O  O42  1  0.775711  0.770840  0.082586  1
  O  O43  1  0.995029  0.224263  0.082718  1
  O  O44  1  0.229076  0.004957  0.082523  1
  O  O45  1  0.787363  0.805687  0.774602  1
  O  O46  1  0.018404  0.212646  0.774633  1
  O  O47  1  0.194150  0.981548  0.774762  1
  O  O48  1  0.902699  0.778996  0.916358  1
  O  O49  1  0.876206  0.097179  0.916243  1
  O  O50  1  0.220956  0.123696  0.916038  1
  O  O51  1  0.219575  0.638809  0.463519  1
  O  O52  1  0.419315  0.780430  0.463451  1
  O  O53  1  0.361111  0.580754  0.463646  1
  O  O54  1  0.089428  0.665158  0.531897  1
  O  O55  1  0.575801  0.910467  0.531816  1
  O  O56  1  0.334670  0.424266  0.531960  1
  O  O57  1  0.233438  0.792933  0.425263  1
  O  O58  1  0.559555  0.766638  0.425139  1
  O  O59  1  0.207023  0.440420  0.425238  1
  O  O60  1  0.136031  0.663963  0.235082  1
  O  O61  1  0.527981  0.863908  0.235001  1
  O  O62  1  0.335979  0.472111  0.235094  1
  O  O63  1  0.299984  0.750611  0.791650  1
  O  O64  1  0.450721  0.700269  0.791823  1
  O  O65  1  0.249515  0.549256  0.791871  1
  O  O66  1  0.357613  0.912307  0.695363  1
  O  O67  1  0.554751  0.642562  0.695597  1
  O  O68  1  0.087785  0.445200  0.695727  1
  O  O69  1  0.302574  0.863000  0.990215  1
  O  O70  1  0.560307  0.697677  0.990337  1
  O  O71  1  0.137317  0.439716  0.990365  1
  O  O72  1  0.449686  0.880409  0.895497  1
  O  O73  1  0.430836  0.550599  0.895739  1
  O  O74  1  0.119779  0.569166  0.895762  1
  O  O75  1  0.583548  0.363677  0.233789  1
  O  O76  1  0.780124  0.416455  0.233713  1
  O  O77  1  0.636365  0.219902  0.233857  1
  O  O78  1  0.417874  0.303681  0.176805  1
  O  O79  1  0.885832  0.582126  0.176838  1
  O  O80  1  0.696178  0.114122  0.176913  1
  O  O81  1  0.484292  0.361853  0.461545  1
  O  O82  1  0.877561  0.515759  0.461700  1
  O  O83  1  0.638165  0.122479  0.461683  1
  O  O84  1  0.464049  0.215296  0.357390  1
  O  O85  1  0.751197  0.535953  0.357374  1
  O  O86  1  0.784690  0.248781  0.357374  1
  O  O87  1  0.693443  0.448001  0.906345  1
  O  O88  1  0.754502  0.306516  0.906342  1
  O  O89  1  0.552019  0.245511  0.906421  1
  O  O90  1  0.636168  0.550807  0.013409  1
  O  O91  1  0.914541  0.363807  0.013325  1
  O  O92  1  0.449192  0.085390  0.013432  1
  O  O93  1  0.543651  0.430813  0.805793  1
  O  O94  1  0.887146  0.456285  0.805946  1
  O  O95  1  0.569130  0.112790  0.805719  1
  O  O96  1  0.692507  0.561099  0.718000  1
  O  O97  1  0.868517  0.307496  0.718020  1
  O  O98  1  0.438897  0.131457  0.718090  1
  O  O99  1  0.015548  0.371655  0.337716  1
  O  O100  1  0.356399  0.984379  0.337091  1
  O  O101  1  0.627983  0.643708  0.337265  1
