# generated using pymatgen
data_Nb3P6WO24
_symmetry_space_group_name_H-M   'P 1'
_cell_length_a   9.07141916
_cell_length_b   9.07141915
_cell_length_c   9.07142023
_cell_angle_alpha   58.51358399
_cell_angle_beta   58.51358554
_cell_angle_gamma   58.51358146
_symmetry_Int_Tables_number   1
_chemical_formula_structural   Nb3P6WO24
_chemical_formula_sum   'Nb3 P6 W1 O24'
_cell_volume   509.90313048
_cell_formula_units_Z   1
loop_
 _symmetry_equiv_pos_site_id
 _symmetry_equiv_pos_as_xyz
  1  'x, y, z'
loop_
 _atom_site_type_symbol
 _atom_site_label
 _atom_site_symmetry_multiplicity
 _atom_site_fract_x
 _atom_site_fract_y
 _atom_site_fract_z
 _atom_site_occupancy
  Nb  Nb0  1  0.140334  0.140334  0.140334  1
  Nb  Nb1  1  0.358356  0.358356  0.358356  1
  Nb  Nb2  1  0.640131  0.640131  0.640131  1
  P  P3  1  0.033957  0.749409  0.465889  1
  P  P4  1  0.465889  0.033957  0.749409  1
  P  P5  1  0.749409  0.465889  0.033957  1
  P  P6  1  0.250473  0.532144  0.968022  1
  P  P7  1  0.532144  0.968022  0.250473  1
  P  P8  1  0.968022  0.250473  0.532144  1
  W  W9  1  0.858367  0.858367  0.858367  1
  O  O10  1  0.133948  0.290220  0.492162  1
  O  O11  1  0.290220  0.492162  0.133948  1
  O  O12  1  0.063232  0.920028  0.287798  1
  O  O13  1  0.492162  0.133948  0.290220  1
  O  O14  1  0.208521  0.580671  0.427267  1
  O  O15  1  0.019724  0.771106  0.626655  1
  O  O16  1  0.287798  0.063232  0.920028  1
  O  O17  1  0.427267  0.208521  0.580671  1
  O  O18  1  0.580671  0.427267  0.208521  1
  O  O19  1  0.224154  0.360824  0.998295  1
  O  O20  1  0.089322  0.706579  0.944921  1
  O  O21  1  0.360824  0.998295  0.224154  1
  O  O22  1  0.626655  0.019724  0.771106  1
  O  O23  1  0.920028  0.287798  0.063232  1
  O  O24  1  0.771106  0.626655  0.019724  1
  O  O25  1  0.426813  0.555196  0.794065  1
  O  O26  1  0.555196  0.794065  0.426813  1
  O  O27  1  0.706579  0.944921  0.089322  1
  O  O28  1  0.998295  0.224154  0.360824  1
  O  O29  1  0.794065  0.426813  0.555196  1
  O  O30  1  0.496534  0.865185  0.719700  1
  O  O31  1  0.944921  0.089322  0.706579  1
  O  O32  1  0.719700  0.496534  0.865185  1
  O  O33  1  0.865185  0.719700  0.496534  1
