# generated using pymatgen
data_MnCrO4
_symmetry_space_group_name_H-M   'P 1'
_cell_length_a   5.13253990
_cell_length_b   5.13253990
_cell_length_c   6.61640795
_cell_angle_alpha   90.00000000
_cell_angle_beta   90.00000000
_cell_angle_gamma   67.01392205
_symmetry_Int_Tables_number   1
_chemical_formula_structural   MnCrO4
_chemical_formula_sum   'Mn2 Cr2 O8'
_cell_volume   160.45668073
_cell_formula_units_Z   2
loop_
 _symmetry_equiv_pos_site_id
 _symmetry_equiv_pos_as_xyz
  1  'x, y, z'
loop_
 _atom_site_type_symbol
 _atom_site_label
 _atom_site_symmetry_multiplicity
 _atom_site_fract_x
 _atom_site_fract_y
 _atom_site_fract_z
 _atom_site_occupancy
  Mn  Mn0  1  0.000000  0.000000  0.000000  1
  Mn  Mn1  1  0.000000  0.000000  0.500000  1
  Cr  Cr2  1  0.356742  0.356742  0.250000  1
  Cr  Cr3  1  0.643258  0.643258  0.750000  1
  O  O4  1  0.220735  0.717558  0.250000  1
  O  O5  1  0.282442  0.779265  0.750000  1
  O  O6  1  0.245139  0.245139  0.047264  1
  O  O7  1  0.245139  0.245139  0.452736  1
  O  O8  1  0.754861  0.754861  0.547264  1
  O  O9  1  0.754861  0.754861  0.952736  1
  O  O10  1  0.717558  0.220735  0.250000  1
  O  O11  1  0.779265  0.282442  0.750000  1
