# generated using pymatgen
data_Li2Mn2OF6
_symmetry_space_group_name_H-M   'P 1'
_cell_length_a   8.82344143
_cell_length_b   6.44725384
_cell_length_c   5.48119873
_cell_angle_alpha   95.17585606
_cell_angle_beta   76.04151441
_cell_angle_gamma   108.16036087
_symmetry_Int_Tables_number   1
_chemical_formula_structural   Li2Mn2OF6
_chemical_formula_sum   'Li4 Mn4 O2 F12'
_cell_volume   287.48989163
_cell_formula_units_Z   2
loop_
 _symmetry_equiv_pos_site_id
 _symmetry_equiv_pos_as_xyz
  1  'x, y, z'
loop_
 _atom_site_type_symbol
 _atom_site_label
 _atom_site_symmetry_multiplicity
 _atom_site_fract_x
 _atom_site_fract_y
 _atom_site_fract_z
 _atom_site_occupancy
  Li  Li0  1  0.265003  0.601348  0.087824  1
  Li  Li1  1  0.359494  0.758629  0.552104  1
  Li  Li2  1  0.640506  0.241371  0.447896  1
  Li  Li3  1  0.734997  0.398652  0.912176  1
  Mn  Mn4  1  0.177837  0.002012  0.329813  1
  Mn  Mn5  1  0.304724  0.204242  0.788429  1
  Mn  Mn6  1  0.695276  0.795758  0.211571  1
  Mn  Mn7  1  0.822163  0.997988  0.670187  1
  O  O8  1  0.363026  0.106045  0.461653  1
  O  O9  1  0.636974  0.893955  0.538347  1
  F  F10  1  0.154245  0.712813  0.405799  1
  F  F11  1  0.262654  0.910655  0.928973  1
  F  F12  1  0.049620  0.084952  0.710542  1
  F  F13  1  0.221407  0.273868  0.147110  1
  F  F14  1  0.296718  0.494565  0.738441  1
  F  F15  1  0.458938  0.703432  0.199445  1
  F  F16  1  0.541062  0.296568  0.800555  1
  F  F17  1  0.703282  0.505435  0.261559  1
  F  F18  1  0.778593  0.726132  0.852890  1
  F  F19  1  0.950380  0.915048  0.289458  1
  F  F20  1  0.737346  0.089345  0.071027  1
  F  F21  1  0.845755  0.287187  0.594201  1
