# generated using pymatgen
data_V6O7F5
_symmetry_space_group_name_H-M   'P 1'
_cell_length_a   4.75274023
_cell_length_b   7.77784612
_cell_length_c   5.59910358
_cell_angle_alpha   95.01863148
_cell_angle_beta   92.85585187
_cell_angle_gamma   89.13494830
_symmetry_Int_Tables_number   1
_chemical_formula_structural   V6O7F5
_chemical_formula_sum   'V6 O7 F5'
_cell_volume   205.91537028
_cell_formula_units_Z   1
loop_
 _symmetry_equiv_pos_site_id
 _symmetry_equiv_pos_as_xyz
  1  'x, y, z'
loop_
 _atom_site_type_symbol
 _atom_site_label
 _atom_site_symmetry_multiplicity
 _atom_site_fract_x
 _atom_site_fract_y
 _atom_site_fract_z
 _atom_site_occupancy
  V  V0  1  0.505487  0.672790  0.178917  1
  V  V1  1  0.468735  0.991679  0.521131  1
  V  V2  1  0.545975  0.325054  0.808071  1
  V  V3  1  0.983400  0.673797  0.656610  1
  V  V4  1  0.985296  0.334972  0.341665  1
  V  V5  1  0.018913  0.998462  0.994652  1
  O  O6  1  0.807003  0.434815  0.621220  1
  O  O7  1  0.706598  0.103017  0.804565  1
  O  O8  1  0.690958  0.765594  0.468340  1
  O  O9  1  0.687571  0.428860  0.109061  1
  O  O10  1  0.307373  0.246796  0.547447  1
  O  O11  1  0.300059  0.895051  0.203109  1
  O  O12  1  0.193957  0.893078  0.709522  1
  F  F13  1  0.801116  0.097469  0.300645  1
  F  F14  1  0.803500  0.766752  0.969672  1
  F  F15  1  0.300782  0.566431  0.863063  1
  F  F16  1  0.201482  0.237360  0.038772  1
  F  F17  1  0.191798  0.568025  0.363538  1
