# generated using pymatgen
data_Li9Mn4(BO3)8
_symmetry_space_group_name_H-M   'P 1'
_cell_length_a   5.28091285
_cell_length_b   8.72878493
_cell_length_c   9.81036830
_cell_angle_alpha   90.28307285
_cell_angle_beta   93.22414488
_cell_angle_gamma   90.07314825
_symmetry_Int_Tables_number   1
_chemical_formula_structural   Li9Mn4(BO3)8
_chemical_formula_sum   'Li9 Mn4 B8 O24'
_cell_volume   451.49642128
_cell_formula_units_Z   1
loop_
 _symmetry_equiv_pos_site_id
 _symmetry_equiv_pos_as_xyz
  1  'x, y, z'
loop_
 _atom_site_type_symbol
 _atom_site_label
 _atom_site_symmetry_multiplicity
 _atom_site_fract_x
 _atom_site_fract_y
 _atom_site_fract_z
 _atom_site_occupancy
  Li  Li0  1  0.186873  0.655000  0.630543  1
  Li  Li1  1  0.174496  0.981558  0.109224  1
  Li  Li2  1  0.315096  0.157252  0.868255  1
  Li  Li3  1  0.324908  0.484063  0.388318  1
  Li  Li4  1  0.677385  0.519886  0.612459  1
  Li  Li5  1  0.670775  0.833258  0.122348  1
  Li  Li6  1  0.822216  0.017092  0.876891  1
  Li  Li7  1  0.812036  0.357224  0.368930  1
  Li  Li8  1  0.859692  0.026044  0.343950  1
  Mn  Mn9  1  0.132445  0.308921  0.129259  1
  Mn  Mn10  1  0.368708  0.800788  0.374277  1
  Mn  Mn11  1  0.627563  0.196783  0.623836  1
  Mn  Mn12  1  0.872678  0.695022  0.872064  1
  B  B13  1  0.174783  0.315213  0.615375  1
  B  B14  1  0.158418  0.653891  0.129103  1
  B  B15  1  0.324647  0.819047  0.881491  1
  B  B16  1  0.338107  0.152916  0.368451  1
  B  B17  1  0.659625  0.846969  0.630917  1
  B  B18  1  0.673300  0.183167  0.125378  1
  B  B19  1  0.839956  0.347392  0.869361  1
  B  B20  1  0.827563  0.681274  0.382227  1
  O  O21  1  0.066864  0.309396  0.937230  1
  O  O22  1  0.086536  0.664368  0.405491  1
  O  O23  1  0.164044  0.937918  0.904123  1
  O  O24  1  0.225083  0.676353  0.842539  1
  O  O25  1  0.196497  0.281772  0.325879  1
  O  O26  1  0.227444  0.014126  0.349672  1
  O  O27  1  0.274978  0.172790  0.652967  1
  O  O28  1  0.338178  0.433049  0.595679  1
  O  O29  1  0.253217  0.511888  0.156754  1
  O  O30  1  0.306878  0.777613  0.175956  1
  O  O31  1  0.428404  0.811520  0.568504  1
  O  O32  1  0.414333  0.171974  0.096954  1
  O  O33  1  0.585206  0.833106  0.903551  1
  O  O34  1  0.586364  0.174683  0.425160  1
  O  O35  1  0.687401  0.224802  0.821022  1
  O  O36  1  0.754458  0.491106  0.839210  1
  O  O37  1  0.667429  0.562780  0.402624  1
  O  O38  1  0.729980  0.824515  0.343212  1
  O  O39  1  0.753910  0.991464  0.654565  1
  O  O40  1  0.814617  0.725713  0.677243  1
  O  O41  1  0.778520  0.325973  0.158546  1
  O  O42  1  0.824812  0.056269  0.122574  1
  O  O43  1  0.915198  0.330194  0.592572  1
  O  O44  1  0.926073  0.684374  0.063620  1
