# generated using pymatgen
data_KCa4B22H18ClO46
_symmetry_space_group_name_H-M   'P 1'
_cell_length_a   6.63191799
_cell_length_b   24.25099326
_cell_length_c   6.64193136
_cell_angle_alpha   95.45227249
_cell_angle_beta   119.39559085
_cell_angle_gamma   90.70687919
_symmetry_Int_Tables_number   1
_chemical_formula_structural   KCa4B22H18ClO46
_chemical_formula_sum   'K1 Ca4 B22 H18 Cl1 O46'
_cell_volume   924.33833957
_cell_formula_units_Z   1
loop_
 _symmetry_equiv_pos_site_id
 _symmetry_equiv_pos_as_xyz
  1  'x, y, z'
loop_
 _atom_site_type_symbol
 _atom_site_label
 _atom_site_symmetry_multiplicity
 _atom_site_fract_x
 _atom_site_fract_y
 _atom_site_fract_z
 _atom_site_occupancy
  K  K0  1  0.022539  0.024023  0.039839  1
  Ca  Ca1  1  0.808987  0.164327  0.652122  1
  Ca  Ca2  1  0.721203  0.580158  0.390882  1
  Ca  Ca3  1  0.497241  0.906265  0.022310  1
  Ca  Ca4  1  0.193630  0.489420  0.343427  1
  B  B5  1  0.039944  0.611887  0.080943  1
  B  B6  1  0.988932  0.889722  0.105800  1
  B  B7  1  0.302681  0.599735  0.902636  1
  B  B8  1  0.392697  0.916694  0.428251  1
  B  B9  1  0.766484  0.471386  0.839814  1
  B  B10  1  0.400499  0.160774  0.157314  1
  B  B11  1  0.238772  0.265390  0.558461  1
  B  B12  1  0.709219  0.154251  0.059736  1
  B  B13  1  0.224371  0.612775  0.507064  1
  B  B14  1  0.160518  0.700904  0.333706  1
  B  B15  1  0.571780  0.369420  0.172180  1
  B  B16  1  0.079941  0.479863  0.750607  1
  B  B17  1  0.875520  0.804287  0.819885  1
  B  B18  1  0.497316  0.458229  0.005685  1
  B  B19  1  0.137187  0.171279  0.334371  1
  B  B20  1  0.610459  0.590648  0.804569  1
  B  B21  1  0.835441  0.286229  0.747650  1
  B  B22  1  0.319468  0.180301  0.764404  1
  B  B23  1  0.811060  0.897599  0.684341  1
  B  B24  1  0.455036  0.782909  0.983995  1
  B  B25  1  0.680169  0.457504  0.431178  1
  B  B26  1  0.079893  0.910905  0.519716  1
  H  H27  1  0.002008  0.256523  0.086583  1
  H  H28  1  0.624748  0.811942  0.351208  1
  H  H29  1  0.302263  0.791219  0.635281  1
  H  H30  1  0.478965  0.288680  0.005585  1
  H  H31  1  0.930093  0.724085  0.898797  1
  H  H32  1  0.319001  0.345584  0.715914  1
  H  H33  1  0.676399  0.280252  0.390555  1
  H  H34  1  0.802261  0.362481  0.654961  1
  H  H35  1  0.097468  0.781402  0.245508  1
  H  H36  1  0.399028  0.707612  0.811185  1
  H  H37  1  0.770015  0.704912  0.522440  1
  H  H38  1  0.639584  0.691568  0.244424  1
  H  H39  1  0.568015  0.059896  0.577928  1
  H  H40  1  0.695593  0.049286  0.436525  1
  H  H41  1  0.225828  0.078251  0.576248  1
  H  H42  1  0.335354  0.023754  0.682863  1
  H  H43  1  0.184034  0.365163  0.361187  1
  H  H44  1  0.048063  0.376551  0.093048  1
  Cl  Cl45  1  0.530797  0.020711  0.067102  1
  O  O46  1  0.140826  0.153582  0.540713  1
  O  O47  1  0.822137  0.914930  0.906204  1
  O  O48  1  0.034088  0.915809  0.698169  1
  O  O49  1  0.044392  0.587257  0.279431  1
  O  O50  1  0.917653  0.487331  0.524026  1
  O  O51  1  0.605948  0.468140  0.608707  1
  O  O52  1  0.143877  0.602675  0.674446  1
  O  O53  1  0.909835  0.250321  0.912586  1
  O  O54  1  0.834995  0.590163  0.857586  1
  O  O55  1  0.540970  0.598331  0.971412  1
  O  O56  1  0.318629  0.916718  0.592042  1
  O  O57  1  0.244290  0.168001  0.933117  1
  O  O58  1  0.039056  0.673408  0.112802  1
  O  O59  1  0.781258  0.835078  0.635942  1
  O  O60  1  0.530867  0.818078  0.184020  1
  O  O61  1  0.231887  0.913008  0.194866  1
  O  O62  1  0.720588  0.474068  0.017123  1
  O  O63  1  0.351440  0.155384  0.330367  1
  O  O64  1  0.275267  0.672393  0.525543  1
  O  O65  1  0.443970  0.582797  0.570777  1
  O  O66  1  0.619849  0.921009  0.489071  1
  O  O67  1  0.515075  0.482790  0.227738  1
  O  O68  1  0.005706  0.472748  0.910242  1
  O  O69  1  0.637298  0.157643  0.225419  1
  O  O70  1  0.921432  0.901090  0.288032  1
  O  O71  1  0.369642  0.812602  0.794136  1
  O  O72  1  0.254112  0.596276  0.076292  1
  O  O73  1  0.978516  0.827779  0.048287  1
  O  O74  1  0.564715  0.312253  0.159186  1
  O  O75  1  0.553002  0.159597  0.832236  1
  O  O76  1  0.933558  0.145782  0.117459  1
  O  O77  1  0.134183  0.233913  0.345727  1
  O  O78  1  0.335302  0.242141  0.764618  1
  O  O79  1  0.695866  0.397853  0.392031  1
  O  O80  1  0.864832  0.747238  0.768087  1
  O  O81  1  0.245980  0.322623  0.562585  1
  O  O82  1  0.304407  0.479684  0.803547  1
  O  O83  1  0.735373  0.257932  0.526799  1
  O  O84  1  0.725033  0.675110  0.390981  1
  O  O85  1  0.859595  0.342832  0.796011  1
  O  O86  1  0.176377  0.757934  0.376359  1
  O  O87  1  0.463613  0.396608  0.977109  1
  O  O88  1  0.722373  0.066375  0.590143  1
  O  O89  1  0.274726  0.042149  0.538985  1
  O  O90  1  0.463671  0.726285  0.973125  1
  O  O91  1  0.148788  0.394128  0.253787  1
