# generated using pymatgen
data_As4H24C8S7N2
_symmetry_space_group_name_H-M   'P 1'
_cell_length_a   10.02894979
_cell_length_b   17.16033503
_cell_length_c   14.33428828
_cell_angle_alpha   90.00000000
_cell_angle_beta   97.15566571
_cell_angle_gamma   90.00000000
_symmetry_Int_Tables_number   1
_chemical_formula_structural   As4H24C8S7N2
_chemical_formula_sum   'As16 H96 C32 S28 N8'
_cell_volume   2447.71900266
_cell_formula_units_Z   4
loop_
 _symmetry_equiv_pos_site_id
 _symmetry_equiv_pos_as_xyz
  1  'x, y, z'
loop_
 _atom_site_type_symbol
 _atom_site_label
 _atom_site_symmetry_multiplicity
 _atom_site_fract_x
 _atom_site_fract_y
 _atom_site_fract_z
 _atom_site_occupancy
  As  As0  1  0.051319  0.235859  0.786305  1
  As  As1  1  0.103783  0.751260  0.665349  1
  As  As2  1  0.206312  0.308133  0.261296  1
  As  As3  1  0.282162  0.768501  0.474281  1
  As  As4  1  0.217838  0.268501  0.025719  1
  As  As5  1  0.396217  0.251260  0.834651  1
  As  As6  1  0.293688  0.808133  0.238704  1
  As  As7  1  0.448681  0.735859  0.713695  1
  As  As8  1  0.551319  0.264141  0.286305  1
  As  As9  1  0.706312  0.191867  0.761296  1
  As  As10  1  0.603783  0.748740  0.165349  1
  As  As11  1  0.782162  0.731499  0.974281  1
  As  As12  1  0.717838  0.231499  0.525719  1
  As  As13  1  0.793688  0.691867  0.738704  1
  As  As14  1  0.896217  0.248740  0.334651  1
  As  As15  1  0.948681  0.764141  0.213695  1
  H  H16  1  0.028608  0.943043  0.893242  1
  H  H17  1  0.107560  0.036413  0.878658  1
  H  H18  1  0.047575  0.452032  0.579644  1
  H  H19  1  0.117480  0.959623  0.793992  1
  H  H20  1  0.150021  0.834952  0.950212  1
  H  H21  1  0.056949  0.069414  0.377937  1
  H  H22  1  0.169114  0.531503  0.921465  1
  H  H23  1  0.147241  0.449128  0.692492  1
  H  H24  1  0.143483  0.536741  0.623364  1
  H  H25  1  0.032707  0.603766  0.020040  1
  H  H26  1  0.116308  0.156844  0.504873  1
  H  H27  1  0.212400  0.666769  0.942746  1
  H  H28  1  0.080366  0.533882  0.113677  1
  H  H29  1  0.156985  0.012491  0.540087  1
  H  H30  1  0.168500  0.334146  0.536176  1
  H  H31  1  0.106022  0.636421  0.134210  1
  H  H32  1  0.238497  0.836642  0.848289  1
  H  H33  1  0.163473  0.444999  0.434731  1
  H  H34  1  0.182179  0.006021  0.337793  1
  H  H35  1  0.176944  0.107299  0.306740  1
  H  H36  1  0.261503  0.336642  0.651711  1
  H  H37  1  0.331500  0.834146  0.963824  1
  H  H38  1  0.235699  0.205927  0.441867  1
  H  H39  1  0.343015  0.512491  0.959913  1
  H  H40  1  0.243287  0.535019  0.475305  1
  H  H41  1  0.157621  0.952412  0.052167  1
  H  H42  1  0.287600  0.166769  0.557254  1
  H  H43  1  0.383692  0.656844  0.995127  1
  H  H44  1  0.283382  0.963595  0.484063  1
  H  H45  1  0.356517  0.036741  0.876636  1
  H  H46  1  0.352759  0.949128  0.807508  1
  H  H47  1  0.216618  0.463595  0.015937  1
  H  H48  1  0.330886  0.031503  0.578535  1
  H  H49  1  0.349979  0.334952  0.549788  1
  H  H50  1  0.342379  0.452412  0.447833  1
  H  H51  1  0.256713  0.035019  0.024695  1
  H  H52  1  0.382520  0.459623  0.706008  1
  H  H53  1  0.264301  0.705927  0.058133  1
  H  H54  1  0.452425  0.952032  0.920356  1
  H  H55  1  0.392440  0.536413  0.621342  1
  H  H56  1  0.323056  0.607299  0.193260  1
  H  H57  1  0.317821  0.506021  0.162207  1
  H  H58  1  0.336527  0.944999  0.065269  1
  H  H59  1  0.393978  0.136421  0.365790  1
  H  H60  1  0.419634  0.033882  0.386323  1
  H  H61  1  0.471392  0.443043  0.606758  1
  H  H62  1  0.467293  0.103766  0.479960  1
  H  H63  1  0.556949  0.430586  0.877937  1
  H  H64  1  0.443051  0.569414  0.122063  1
  H  H65  1  0.532707  0.896234  0.520040  1
  H  H66  1  0.528608  0.556957  0.393242  1
  H  H67  1  0.580366  0.966118  0.613677  1
  H  H68  1  0.606022  0.863579  0.634210  1
  H  H69  1  0.663473  0.055001  0.934731  1
  H  H70  1  0.682179  0.493979  0.837793  1
  H  H71  1  0.676944  0.392701  0.806740  1
  H  H72  1  0.607560  0.463587  0.378658  1
  H  H73  1  0.547575  0.047968  0.079644  1
  H  H74  1  0.735699  0.294073  0.941867  1
  H  H75  1  0.617480  0.540377  0.293992  1
  H  H76  1  0.743287  0.964981  0.975305  1
  H  H77  1  0.657621  0.547588  0.552167  1
  H  H78  1  0.650021  0.665048  0.450212  1
  H  H79  1  0.669114  0.968497  0.421465  1
  H  H80  1  0.783382  0.536405  0.984063  1
  H  H81  1  0.647241  0.050872  0.192492  1
  H  H82  1  0.643483  0.963259  0.123364  1
  H  H83  1  0.716618  0.036405  0.515937  1
  H  H84  1  0.616308  0.343156  0.004873  1
  H  H85  1  0.712400  0.833231  0.442746  1
  H  H86  1  0.842379  0.047588  0.947833  1
  H  H87  1  0.756713  0.464981  0.524695  1
  H  H88  1  0.656985  0.487509  0.040087  1
  H  H89  1  0.764301  0.794073  0.558133  1
  H  H90  1  0.668500  0.165854  0.036176  1
  H  H91  1  0.738497  0.663358  0.348289  1
  H  H92  1  0.823056  0.892701  0.693260  1
  H  H93  1  0.817821  0.993979  0.662207  1
  H  H94  1  0.836527  0.555001  0.565269  1
  H  H95  1  0.761503  0.163358  0.151711  1
  H  H96  1  0.893978  0.363579  0.865790  1
  H  H97  1  0.831500  0.665854  0.463824  1
  H  H98  1  0.843015  0.987509  0.459913  1
  H  H99  1  0.919634  0.466118  0.886323  1
  H  H100  1  0.787600  0.333231  0.057254  1
  H  H101  1  0.883692  0.843156  0.495127  1
  H  H102  1  0.967293  0.396234  0.979960  1
  H  H103  1  0.856517  0.463259  0.376636  1
  H  H104  1  0.852759  0.550872  0.307508  1
  H  H105  1  0.830886  0.468497  0.078535  1
  H  H106  1  0.943051  0.930586  0.622063  1
  H  H107  1  0.849979  0.165048  0.049788  1
  H  H108  1  0.882520  0.040377  0.206008  1
  H  H109  1  0.952425  0.547968  0.420356  1
  H  H110  1  0.892440  0.963587  0.121342  1
  H  H111  1  0.971392  0.056957  0.106758  1
  C  C112  1  0.113958  0.973263  0.868302  1
  C  C113  1  0.140077  0.472885  0.621034  1
  C  C114  1  0.242952  0.517849  0.982342  1
  C  C115  1  0.240147  0.855572  0.921442  1
  C  C116  1  0.104138  0.589620  0.081905  1
  C  C117  1  0.160603  0.064948  0.361609  1
  C  C118  1  0.221353  0.158613  0.491052  1
  C  C119  1  0.259853  0.355572  0.578558  1
  C  C120  1  0.257048  0.017849  0.517658  1
  C  C121  1  0.251138  0.471255  0.476465  1
  C  C122  1  0.359923  0.972885  0.878966  1
  C  C123  1  0.248862  0.971255  0.023535  1
  C  C124  1  0.386042  0.473263  0.631698  1
  C  C125  1  0.278647  0.658613  0.008948  1
  C  C126  1  0.339397  0.564948  0.138391  1
  C  C127  1  0.395862  0.089620  0.418095  1
  C  C128  1  0.604138  0.910380  0.581905  1
  C  C129  1  0.660603  0.435052  0.861609  1
  C  C130  1  0.721353  0.341387  0.991052  1
  C  C131  1  0.613958  0.526737  0.368302  1
  C  C132  1  0.751138  0.028745  0.976465  1
  C  C133  1  0.640077  0.027115  0.121034  1
  C  C134  1  0.748862  0.528745  0.523535  1
  C  C135  1  0.742952  0.982151  0.482342  1
  C  C136  1  0.740147  0.644428  0.421442  1
  C  C137  1  0.778647  0.841387  0.508948  1
  C  C138  1  0.839397  0.935052  0.638391  1
  C  C139  1  0.895862  0.410380  0.918095  1
  C  C140  1  0.759853  0.144428  0.078558  1
  C  C141  1  0.757048  0.482151  0.017658  1
  C  C142  1  0.859923  0.527115  0.378966  1
  C  C143  1  0.886042  0.026737  0.131698  1
  S  S144  1  0.045442  0.198610  0.941913  1
  S  S145  1  0.103699  0.697667  0.514260  1
  S  S146  1  0.067998  0.393039  0.193744  1
  S  S147  1  0.089594  0.862290  0.274333  1
  S  S148  1  0.234992  0.170849  0.749563  1
  S  S149  1  0.219376  0.857926  0.651395  1
  S  S150  1  0.280624  0.357926  0.848605  1
  S  S151  1  0.265008  0.670849  0.750437  1
  S  S152  1  0.200112  0.198718  0.159983  1
  S  S153  1  0.396301  0.197667  0.985740  1
  S  S154  1  0.299888  0.698718  0.340017  1
  S  S155  1  0.454558  0.698610  0.558087  1
  S  S156  1  0.410407  0.362290  0.225667  1
  S  S157  1  0.432002  0.893039  0.306256  1
  S  S158  1  0.567998  0.106961  0.693744  1
  S  S159  1  0.589594  0.637710  0.774333  1
  S  S160  1  0.545442  0.301390  0.441913  1
  S  S161  1  0.700112  0.301282  0.659983  1
  S  S162  1  0.603699  0.802333  0.014260  1
  S  S163  1  0.799888  0.801282  0.840017  1
  S  S164  1  0.734992  0.329151  0.249563  1
  S  S165  1  0.719376  0.642074  0.151395  1
  S  S166  1  0.780624  0.142074  0.348605  1
  S  S167  1  0.765008  0.829151  0.250437  1
  S  S168  1  0.910406  0.137710  0.725667  1
  S  S169  1  0.932002  0.606961  0.806256  1
  S  S170  1  0.896301  0.302333  0.485740  1
  S  S171  1  0.954558  0.801390  0.058087  1
  N  N172  1  0.241254  0.943275  0.923596  1
  N  N173  1  0.258746  0.443275  0.576404  1
  N  N174  1  0.257512  0.083037  0.447511  1
  N  N175  1  0.242488  0.583037  0.052489  1
  N  N176  1  0.757512  0.416963  0.947511  1
  N  N177  1  0.742488  0.916963  0.552489  1
  N  N178  1  0.741254  0.556725  0.423596  1
  N  N179  1  0.758746  0.056725  0.076404  1
