# generated using pymatgen
data_Gd3As5O12
_symmetry_space_group_name_H-M   'P 1'
_cell_length_a   9.30408272
_cell_length_b   9.30408282
_cell_length_c   9.30408246
_cell_angle_alpha   109.46612583
_cell_angle_beta   109.46612949
_cell_angle_gamma   109.46613084
_symmetry_Int_Tables_number   1
_chemical_formula_structural   Gd3As5O12
_chemical_formula_sum   'Gd6 As10 O24'
_cell_volume   620.12699671
_cell_formula_units_Z   2
loop_
 _symmetry_equiv_pos_site_id
 _symmetry_equiv_pos_as_xyz
  1  'x, y, z'
loop_
 _atom_site_type_symbol
 _atom_site_label
 _atom_site_symmetry_multiplicity
 _atom_site_fract_x
 _atom_site_fract_y
 _atom_site_fract_z
 _atom_site_occupancy
  Gd  Gd0  1  0.247956  0.746331  0.498250  1
  Gd  Gd1  1  0.247956  0.498250  0.746331  1
  Gd  Gd2  1  0.498250  0.746331  0.247956  1
  Gd  Gd3  1  0.498250  0.247956  0.746331  1
  Gd  Gd4  1  0.746331  0.247956  0.498250  1
  Gd  Gd5  1  0.746331  0.498250  0.247956  1
  As  As6  1  0.996272  0.709564  0.709564  1
  As  As7  1  0.501865  0.997788  0.997788  1
  As  As8  1  0.285453  0.993804  0.285453  1
  As  As9  1  0.285453  0.285453  0.993804  1
  As  As10  1  0.493469  0.493469  0.493469  1
  As  As11  1  0.709564  0.709564  0.996272  1
  As  As12  1  0.709564  0.996272  0.709564  1
  As  As13  1  0.997788  0.997788  0.501865  1
  As  As14  1  0.997788  0.501865  0.997788  1
  As  As15  1  0.993804  0.285453  0.285453  1
  O  O16  1  0.182685  0.700350  0.700350  1
  O  O17  1  0.996199  0.296522  0.482216  1
  O  O18  1  0.996199  0.482216  0.296522  1
  O  O19  1  0.189351  0.714377  0.189351  1
  O  O20  1  0.189351  0.189351  0.714377  1
  O  O21  1  0.525952  0.998219  0.808426  1
  O  O22  1  0.525952  0.808426  0.998219  1
  O  O23  1  0.280003  0.470970  0.470970  1
  O  O24  1  0.514680  0.514680  0.809875  1
  O  O25  1  0.514680  0.809875  0.514680  1
  O  O26  1  0.296522  0.996199  0.482216  1
  O  O27  1  0.296522  0.482216  0.996199  1
  O  O28  1  0.470970  0.280003  0.470970  1
  O  O29  1  0.470970  0.470970  0.280003  1
  O  O30  1  0.808426  0.998219  0.525952  1
  O  O31  1  0.808426  0.525952  0.998219  1
  O  O32  1  0.700350  0.700350  0.182685  1
  O  O33  1  0.700350  0.182685  0.700350  1
  O  O34  1  0.482216  0.996199  0.296522  1
  O  O35  1  0.482216  0.296522  0.996199  1
  O  O36  1  0.809875  0.514680  0.514680  1
  O  O37  1  0.998219  0.525952  0.808426  1
  O  O38  1  0.998219  0.808426  0.525952  1
  O  O39  1  0.714377  0.189351  0.189351  1
