# generated using pymatgen
data_Li3Co3NiO8
_symmetry_space_group_name_H-M   'P 1'
_cell_length_a   5.90067613
_cell_length_b   5.76802005
_cell_length_c   5.76801990
_cell_angle_alpha   60.00000090
_cell_angle_beta   60.74093093
_cell_angle_gamma   89.99999262
_symmetry_Int_Tables_number   1
_chemical_formula_structural   Li3Co3NiO8
_chemical_formula_sum   'Li3 Co3 Ni1 O8'
_cell_volume   140.35062202
_cell_formula_units_Z   1
loop_
 _symmetry_equiv_pos_site_id
 _symmetry_equiv_pos_as_xyz
  1  'x, y, z'
loop_
 _atom_site_type_symbol
 _atom_site_label
 _atom_site_symmetry_multiplicity
 _atom_site_fract_x
 _atom_site_fract_y
 _atom_site_fract_z
 _atom_site_occupancy
  Li  Li0  1  0.500000  0.000000  0.000000  1
  Li  Li1  1  0.500000  0.000000  0.500000  1
  Li  Li2  1  0.500000  0.500000  0.500000  1
  Co  Co3  1  0.000000  0.000000  0.500000  1
  Co  Co4  1  0.000000  0.500000  0.000000  1
  Co  Co5  1  0.000000  0.500000  0.500000  1
  Ni  Ni6  1  0.000000  0.000000  0.000000  1
  O  O7  1  0.216928  0.231643  0.014715  1
  O  O8  1  0.216928  0.231643  0.536714  1
  O  O9  1  0.216928  0.753642  0.014715  1
  O  O10  1  0.230731  0.743577  0.512846  1
  O  O11  1  0.769269  0.256423  0.487153  1
  O  O12  1  0.783072  0.246358  0.985285  1
  O  O13  1  0.783072  0.768357  0.463286  1
  O  O14  1  0.783072  0.768357  0.985285  1
