# generated using pymatgen
data_Li3Mn4(BO3)4
_symmetry_space_group_name_H-M   'P 1'
_cell_length_a   9.09877930
_cell_length_b   9.12448551
_cell_length_c   11.60714147
_cell_angle_alpha   66.95304519
_cell_angle_beta   68.42101856
_cell_angle_gamma   60.29080302
_symmetry_Int_Tables_number   1
_chemical_formula_structural   Li3Mn4(BO3)4
_chemical_formula_sum   'Li9 Mn12 B12 O36'
_cell_volume   751.74844116
_cell_formula_units_Z   3
loop_
 _symmetry_equiv_pos_site_id
 _symmetry_equiv_pos_as_xyz
  1  'x, y, z'
loop_
 _atom_site_type_symbol
 _atom_site_label
 _atom_site_symmetry_multiplicity
 _atom_site_fract_x
 _atom_site_fract_y
 _atom_site_fract_z
 _atom_site_occupancy
  Li  Li0  1  0.227351  0.030091  0.661526  1
  Li  Li1  1  0.388920  0.253224  0.156366  1
  Li  Li2  1  0.036509  0.903327  0.171101  1
  Li  Li3  1  0.260831  0.415719  0.914193  1
  Li  Li4  1  0.432578  0.576230  0.408662  1
  Li  Li5  1  0.552339  0.388327  0.677501  1
  Li  Li6  1  0.724032  0.565758  0.160390  1
  Li  Li7  1  0.744853  0.922650  0.407324  1
  Li  Li8  1  0.869013  0.711374  0.671838  1
  Mn  Mn9  1  0.074550  0.233851  0.132167  1
  Mn  Mn10  1  0.260878  0.070684  0.885611  1
  Mn  Mn11  1  0.099630  0.588616  0.383723  1
  Mn  Mn12  1  0.557540  0.094747  0.628979  1
  Mn  Mn13  1  0.394721  0.587025  0.126953  1
  Mn  Mn14  1  0.790573  0.262469  0.383653  1
  Mn  Mn15  1  0.221922  0.720645  0.630265  1
  Mn  Mn16  1  0.621474  0.445702  0.881422  1
  Mn  Mn17  1  0.398440  0.948269  0.382806  1
  Mn  Mn18  1  0.908866  0.382903  0.627983  1
  Mn  Mn19  1  0.708230  0.912362  0.130557  1
  Mn  Mn20  1  0.915556  0.763399  0.882080  1
  B  B21  1  0.065609  0.579581  0.126068  1
  B  B22  1  0.446795  0.272228  0.373027  1
  B  B23  1  0.244220  0.390205  0.621279  1
  B  B24  1  0.739183  0.238549  0.126863  1
  B  B25  1  0.586654  0.107358  0.876681  1
  B  B26  1  0.096826  0.924971  0.374724  1
  B  B27  1  0.905409  0.058318  0.630935  1
  B  B28  1  0.396849  0.906308  0.127354  1
  B  B29  1  0.263669  0.741695  0.867949  1
  B  B30  1  0.751262  0.620374  0.371067  1
  B  B31  1  0.565653  0.739730  0.629967  1
  B  B32  1  0.944116  0.414987  0.872845  1
  O  O33  1  0.051493  0.103637  0.337623  1
  O  O34  1  0.010909  0.130009  0.619158  1
  O  O35  1  0.167475  0.414717  0.106711  1
  O  O36  1  0.391033  0.187819  0.337424  1
  O  O37  1  0.122962  0.655734  0.173692  1
  O  O38  1  0.299343  0.207911  0.653601  1
  O  O39  1  0.590479  0.349632  0.073016  1
  O  O40  1  0.080443  0.497537  0.594387  1
  O  O41  1  0.809050  0.063406  0.140697  1
  O  O42  1  0.587571  0.176682  0.437439  1
  O  O43  1  0.098836  0.319104  0.915372  1
  O  O44  1  0.375849  0.454341  0.340467  1
  O  O45  1  0.527056  0.043914  0.816856  1
  O  O46  1  0.997950  0.856993  0.364857  1
  O  O47  1  0.353439  0.460240  0.612264  1
  O  O48  1  0.803030  0.315814  0.168718  1
  O  O49  1  0.236936  0.986215  0.091940  1
  O  O50  1  0.741377  0.173068  0.598756  1
  O  O51  1  0.502125  0.736349  0.130793  1
  O  O52  1  0.519790  0.281686  0.866128  1
  O  O53  1  0.250134  0.813185  0.419865  1
  O  O54  1  0.715877  0.981493  0.944549  1
  O  O55  1  0.192006  0.662532  0.835191  1
  O  O56  1  0.678587  0.530268  0.355495  1
  O  O57  1  0.444501  0.008725  0.159536  1
  O  O58  1  0.629531  0.556038  0.690080  1
  O  O59  1  0.901465  0.674879  0.094389  1
  O  O60  1  0.412594  0.818985  0.586738  1
  O  O61  1  0.199507  0.917057  0.843882  1
  O  O62  1  0.881307  0.539136  0.436290  1
  O  O63  1  0.404048  0.634589  0.927779  1
  O  O64  1  0.685916  0.805783  0.321025  1
  O  O65  1  0.875015  0.327806  0.843351  1
  O  O66  1  0.655617  0.834181  0.610748  1
  O  O67  1  0.854838  0.590768  0.857489  1
  O  O68  1  0.949165  0.879533  0.670813  1
