# generated using pymatgen
data_Li6Fe(O2F)2
_symmetry_space_group_name_H-M   'P 1'
_cell_length_a   5.74083922
_cell_length_b   5.48568587
_cell_length_c   5.74023407
_cell_angle_alpha   89.93994200
_cell_angle_beta   61.41629912
_cell_angle_gamma   58.89963362
_symmetry_Int_Tables_number   1
_chemical_formula_structural   Li6Fe(O2F)2
_chemical_formula_sum   'Li6 Fe1 O4 F2'
_cell_volume   128.43833447
_cell_formula_units_Z   1
loop_
 _symmetry_equiv_pos_site_id
 _symmetry_equiv_pos_as_xyz
  1  'x, y, z'
loop_
 _atom_site_type_symbol
 _atom_site_label
 _atom_site_symmetry_multiplicity
 _atom_site_fract_x
 _atom_site_fract_y
 _atom_site_fract_z
 _atom_site_occupancy
  Li  Li0  1  0.437157  0.283919  0.066976  1
  Li  Li1  1  0.163426  0.332797  0.748391  1
  Li  Li2  1  0.178736  0.737671  0.517778  1
  Li  Li3  1  0.821264  0.262329  0.482222  1
  Li  Li4  1  0.836574  0.667203  0.251609  1
  Li  Li5  1  0.562843  0.716081  0.933024  1
  Fe  Fe6  1  0.000000  0.000000  0.000000  1
  O  O7  1  0.123448  0.222786  0.086555  1
  O  O8  1  0.137083  0.762158  0.204610  1
  O  O9  1  0.862917  0.237842  0.795390  1
  O  O10  1  0.876552  0.777214  0.913445  1
  F  F11  1  0.494578  0.283999  0.392834  1
  F  F12  1  0.505422  0.716001  0.607166  1
