# generated using pymatgen
data_Sr2La2Mg(RuO4)3
_symmetry_space_group_name_H-M   'P 1'
_cell_length_a   5.64934518
_cell_length_b   5.64262589
_cell_length_c   15.90228747
_cell_angle_alpha   90.29260689
_cell_angle_beta   90.00000000
_cell_angle_gamma   90.00000000
_symmetry_Int_Tables_number   1
_chemical_formula_structural   Sr2La2Mg(RuO4)3
_chemical_formula_sum   'Sr4 La4 Mg2 Ru6 O24'
_cell_volume   506.91285555
_cell_formula_units_Z   2
loop_
 _symmetry_equiv_pos_site_id
 _symmetry_equiv_pos_as_xyz
  1  'x, y, z'
loop_
 _atom_site_type_symbol
 _atom_site_label
 _atom_site_symmetry_multiplicity
 _atom_site_fract_x
 _atom_site_fract_y
 _atom_site_fract_z
 _atom_site_occupancy
  Sr  Sr0  1  0.007162  0.026156  0.123223  1
  Sr  Sr1  1  0.492838  0.526156  0.123223  1
  Sr  Sr2  1  0.507162  0.473844  0.876777  1
  Sr  Sr3  1  0.992838  0.973844  0.876777  1
  La  La4  1  0.016092  0.030426  0.616657  1
  La  La5  1  0.483908  0.530426  0.616657  1
  La  La6  1  0.516092  0.469574  0.383343  1
  La  La7  1  0.983908  0.969574  0.383343  1
  Mg  Mg8  1  0.000000  0.500000  0.500000  1
  Mg  Mg9  1  0.500000  0.000000  0.500000  1
  Ru  Ru10  1  0.000000  0.500000  0.000000  1
  Ru  Ru11  1  0.006700  0.501586  0.248664  1
  Ru  Ru12  1  0.993300  0.498414  0.751336  1
  Ru  Ru13  1  0.493300  0.001586  0.248664  1
  Ru  Ru14  1  0.506700  -0.001586  0.751336  1
  Ru  Ru15  1  0.500000  0.000000  0.000000  1
  O  O16  1  0.086144  0.519663  0.369238  1
  O  O17  1  0.069549  0.511437  0.876391  1
  O  O18  1  0.221388  0.778780  0.523441  1
  O  O19  1  0.228120  0.771629  0.019337  1
  O  O20  1  0.222996  0.776861  0.227459  1
  O  O21  1  0.224590  0.773386  0.723851  1
  O  O22  1  0.271880  0.271629  0.019337  1
  O  O23  1  0.278612  0.278780  0.523441  1
  O  O24  1  0.277004  0.276861  0.227459  1
  O  O25  1  0.275410  0.273386  0.723851  1
  O  O26  1  0.430451  0.011437  0.876391  1
  O  O27  1  0.413856  0.019663  0.369238  1
  O  O28  1  0.586144  0.980337  0.630762  1
  O  O29  1  0.569549  0.988563  0.123609  1
  O  O30  1  0.724590  0.726614  0.276149  1
  O  O31  1  0.722996  0.723139  0.772541  1
  O  O32  1  0.721388  0.721220  0.476559  1
  O  O33  1  0.728120  0.728371  0.980663  1
  O  O34  1  0.778612  0.221220  0.476559  1
  O  O35  1  0.775410  0.226614  0.276149  1
  O  O36  1  0.777004  0.223139  0.772541  1
  O  O37  1  0.771880  0.228371  0.980663  1
  O  O38  1  0.930451  0.488563  0.123609  1
  O  O39  1  0.913856  0.480337  0.630762  1
