# generated using pymatgen
data_Li8Mn3Fe5(BO3)8
_symmetry_space_group_name_H-M   'P 1'
_cell_length_a   5.23097616
_cell_length_b   5.23976983
_cell_length_c   20.86160290
_cell_angle_alpha   89.44495487
_cell_angle_beta   90.84304186
_cell_angle_gamma   60.18291699
_symmetry_Int_Tables_number   1
_chemical_formula_structural   Li8Mn3Fe5(BO3)8
_chemical_formula_sum   'Li8 Mn3 Fe5 B8 O24'
_cell_volume   495.95280619
_cell_formula_units_Z   1
loop_
 _symmetry_equiv_pos_site_id
 _symmetry_equiv_pos_as_xyz
  1  'x, y, z'
loop_
 _atom_site_type_symbol
 _atom_site_label
 _atom_site_symmetry_multiplicity
 _atom_site_fract_x
 _atom_site_fract_y
 _atom_site_fract_z
 _atom_site_occupancy
  Li  Li0  1  0.322186  0.652780  0.666674  1
  Li  Li1  1  0.347944  0.675753  0.915247  1
  Li  Li2  1  0.321315  0.651713  0.166697  1
  Li  Li3  1  0.348833  0.675764  0.415928  1
  Li  Li4  1  0.649307  0.340064  0.791944  1
  Li  Li5  1  0.663144  0.346344  0.541846  1
  Li  Li6  1  0.647778  0.339680  0.291840  1
  Li  Li7  1  0.662911  0.345874  0.041486  1
  Mn  Mn8  1  0.328404  0.006273  0.558192  1
  Mn  Mn9  1  0.331596  0.003537  0.057356  1
  Mn  Mn10  1  0.997866  0.325750  0.183662  1
  Fe  Fe11  1  0.684664  0.000828  0.932926  1
  Fe  Fe12  1  0.685100  0.998106  0.433206  1
  Fe  Fe13  1  0.996337  0.320670  0.683978  1
  Fe  Fe14  1  0.988045  0.667164  0.808672  1
  Fe  Fe15  1  0.995586  0.666838  0.309385  1
  B  B16  1  0.004847  0.336991  0.935996  1
  B  B17  1  0.003871  0.337308  0.436366  1
  B  B18  1  0.332295  0.005331  0.812012  1
  B  B19  1  0.331742  0.008278  0.312955  1
  B  B20  1  0.662733  0.997271  0.687649  1
  B  B21  1  0.659824  0.997499  0.187984  1
  B  B22  1  0.995000  0.666575  0.562356  1
  B  B23  1  0.996420  0.665874  0.061298  1
  O  O24  1  0.070228  0.255750  0.792094  1
  O  O25  1  0.067345  0.257856  0.293021  1
  O  O26  1  0.259595  0.069186  0.950206  1
  O  O27  1  0.024757  0.582019  0.917282  1
  O  O28  1  0.258851  0.070558  0.450686  1
  O  O29  1  0.024245  0.582686  0.417510  1
  O  O30  1  0.582442  0.030793  0.826494  1
  O  O31  1  0.269893  0.642318  0.569475  1
  O  O32  1  0.580894  0.033132  0.327307  1
  O  O33  1  0.271096  0.641143  0.068880  1
  O  O34  1  0.345342  0.737368  0.818678  1
  O  O35  1  0.344675  0.739835  0.319248  1
  O  O36  1  0.641037  0.271843  0.694150  1
  O  O37  1  0.630021  0.273427  0.194724  1
  O  O38  1  0.729905  0.358608  0.942436  1
  O  O39  1  0.415907  0.978968  0.668288  1
  O  O40  1  0.729189  0.359152  0.442899  1
  O  O41  1  0.421995  0.966666  0.166759  1
  O  O42  1  0.961559  0.423977  0.578006  1
  O  O43  1  0.962127  0.423480  0.076788  1
  O  O44  1  0.753355  0.929564  0.540678  1
  O  O45  1  0.755128  0.929425  0.039926  1
  O  O46  1  0.930343  0.743238  0.701714  1
  O  O47  1  0.931120  0.747946  0.203291  1
