# generated using pymatgen
data_CuH12C3SN6O7
_symmetry_space_group_name_H-M   'P 1'
_cell_length_a   13.11044928
_cell_length_b   9.38601307
_cell_length_c   9.07202069
_cell_angle_alpha   90.00000000
_cell_angle_beta   90.00000000
_cell_angle_gamma   90.00000000
_symmetry_Int_Tables_number   1
_chemical_formula_structural   CuH12C3SN6O7
_chemical_formula_sum   'Cu4 H48 C12 S4 N24 O28'
_cell_volume   1116.35612974
_cell_formula_units_Z   4
loop_
 _symmetry_equiv_pos_site_id
 _symmetry_equiv_pos_as_xyz
  1  'x, y, z'
loop_
 _atom_site_type_symbol
 _atom_site_label
 _atom_site_symmetry_multiplicity
 _atom_site_fract_x
 _atom_site_fract_y
 _atom_site_fract_z
 _atom_site_occupancy
  Cu  Cu0  1  0.000000  0.500000  0.000000  1
  Cu  Cu1  1  0.000000  0.500000  0.500000  1
  Cu  Cu2  1  0.500000  0.000000  0.000000  1
  Cu  Cu3  1  0.500000  0.000000  0.500000  1
  H  H4  1  0.031060  0.037675  0.859919  1
  H  H5  1  0.031060  0.962325  0.359919  1
  H  H6  1  0.059706  0.811527  0.459221  1
  H  H7  1  0.059706  0.188473  0.959221  1
  H  H8  1  0.149578  0.209978  0.482026  1
  H  H9  1  0.149578  0.790022  0.982026  1
  H  H10  1  0.163914  0.518456  0.273176  1
  H  H11  1  0.163914  0.481544  0.773176  1
  H  H12  1  0.209200  0.173618  0.649125  1
  H  H13  1  0.209200  0.826382  0.149125  1
  H  H14  1  0.215721  0.100935  0.268032  1
  H  H15  1  0.215721  0.899065  0.768032  1
  H  H16  1  0.284279  0.600935  0.268032  1
  H  H17  1  0.284279  0.399065  0.768032  1
  H  H18  1  0.290800  0.326382  0.149125  1
  H  H19  1  0.290800  0.673618  0.649125  1
  H  H20  1  0.336086  0.018456  0.273176  1
  H  H21  1  0.336086  0.981544  0.773176  1
  H  H22  1  0.350422  0.709978  0.482026  1
  H  H23  1  0.350422  0.290022  0.982026  1
  H  H24  1  0.440294  0.311527  0.459221  1
  H  H25  1  0.440294  0.688473  0.959221  1
  H  H26  1  0.468940  0.462325  0.359919  1
  H  H27  1  0.468940  0.537675  0.859919  1
  H  H28  1  0.531060  0.462325  0.140081  1
  H  H29  1  0.531060  0.537675  0.640081  1
  H  H30  1  0.559706  0.311527  0.040779  1
  H  H31  1  0.559706  0.688473  0.540779  1
  H  H32  1  0.649578  0.290022  0.517974  1
  H  H33  1  0.649578  0.709978  0.017974  1
  H  H34  1  0.663914  0.018456  0.226824  1
  H  H35  1  0.663914  0.981544  0.726824  1
  H  H36  1  0.709200  0.326382  0.350875  1
  H  H37  1  0.709200  0.673618  0.850875  1
  H  H38  1  0.715721  0.399065  0.731968  1
  H  H39  1  0.715721  0.600935  0.231968  1
  H  H40  1  0.784279  0.100935  0.231968  1
  H  H41  1  0.784279  0.899065  0.731968  1
  H  H42  1  0.790800  0.173618  0.850875  1
  H  H43  1  0.790800  0.826382  0.350875  1
  H  H44  1  0.836086  0.481544  0.726824  1
  H  H45  1  0.836086  0.518456  0.226824  1
  H  H46  1  0.850422  0.209978  0.017974  1
  H  H47  1  0.850422  0.790022  0.517974  1
  H  H48  1  0.940294  0.188473  0.540779  1
  H  H49  1  0.940294  0.811527  0.040779  1
  H  H50  1  0.968940  0.037675  0.640081  1
  H  H51  1  0.968940  0.962325  0.140081  1
  C  C52  1  0.000000  0.222169  0.750000  1
  C  C53  1  0.000000  0.777831  0.250000  1
  C  C54  1  0.215690  0.407807  0.971456  1
  C  C55  1  0.215690  0.592193  0.471456  1
  C  C56  1  0.284310  0.092193  0.471456  1
  C  C57  1  0.284310  0.907807  0.971456  1
  C  C58  1  0.500000  0.722169  0.750000  1
  C  C59  1  0.500000  0.277831  0.250000  1
  C  C60  1  0.715690  0.092193  0.028544  1
  C  C61  1  0.715690  0.907807  0.528544  1
  C  C62  1  0.784310  0.407807  0.528544  1
  C  C63  1  0.784310  0.592193  0.028544  1
  S  S64  1  0.000000  0.250834  0.250000  1
  S  S65  1  0.000000  0.749166  0.750000  1
  S  S66  1  0.500000  0.249166  0.750000  1
  S  S67  1  0.500000  0.750834  0.250000  1
  N  N68  1  0.044607  0.144297  0.859084  1
  N  N69  1  0.044607  0.855703  0.359085  1
  N  N70  1  0.206876  0.160719  0.538549  1
  N  N71  1  0.206876  0.839281  0.038549  1
  N  N72  1  0.220948  0.571245  0.325750  1
  N  N73  1  0.220948  0.428755  0.825750  1
  N  N74  1  0.279052  0.071245  0.325750  1
  N  N75  1  0.279052  0.928755  0.825750  1
  N  N76  1  0.293124  0.339281  0.038549  1
  N  N77  1  0.293124  0.660719  0.538549  1
  N  N78  1  0.455393  0.355703  0.359085  1
  N  N79  1  0.455393  0.644297  0.859084  1
  N  N80  1  0.544607  0.355703  0.140915  1
  N  N81  1  0.544607  0.644297  0.640916  1
  N  N82  1  0.706876  0.339281  0.461451  1
  N  N83  1  0.706876  0.660719  0.961451  1
  N  N84  1  0.720948  0.071245  0.174250  1
  N  N85  1  0.720948  0.928755  0.674250  1
  N  N86  1  0.779052  0.428755  0.674250  1
  N  N87  1  0.779052  0.571245  0.174250  1
  N  N88  1  0.793124  0.160719  0.961451  1
  N  N89  1  0.793124  0.839281  0.461451  1
  N  N90  1  0.955393  0.144297  0.640916  1
  N  N91  1  0.955393  0.855703  0.140915  1
  O  O92  1  0.000000  0.643188  0.250000  1
  O  O93  1  0.000000  0.356812  0.750000  1
  O  O94  1  0.050711  0.342428  0.366372  1
  O  O95  1  0.050711  0.657572  0.866372  1
  O  O96  1  0.080484  0.161335  0.183372  1
  O  O97  1  0.080484  0.838665  0.683372  1
  O  O98  1  0.140604  0.548534  0.550507  1
  O  O99  1  0.140604  0.451466  0.050507  1
  O  O100  1  0.359396  0.048534  0.550507  1
  O  O101  1  0.359396  0.951466  0.050507  1
  O  O102  1  0.419516  0.338665  0.683372  1
  O  O103  1  0.419516  0.661335  0.183372  1
  O  O104  1  0.449289  0.157572  0.866372  1
  O  O105  1  0.449289  0.842428  0.366372  1
  O  O106  1  0.500000  0.856812  0.750000  1
  O  O107  1  0.500000  0.143188  0.250000  1
  O  O108  1  0.550711  0.157572  0.633628  1
  O  O109  1  0.550711  0.842428  0.133628  1
  O  O110  1  0.580484  0.338665  0.816628  1
  O  O111  1  0.580484  0.661335  0.316628  1
  O  O112  1  0.640604  0.048534  0.949493  1
  O  O113  1  0.640604  0.951466  0.449493  1
  O  O114  1  0.859396  0.451466  0.449493  1
  O  O115  1  0.859396  0.548534  0.949493  1
  O  O116  1  0.919516  0.161335  0.316628  1
  O  O117  1  0.919516  0.838665  0.816628  1
  O  O118  1  0.949289  0.342428  0.133628  1
  O  O119  1  0.949289  0.657572  0.633628  1
