# generated using pymatgen
data_GdAsO3
_symmetry_space_group_name_H-M   'P 1'
_cell_length_a   4.44230959
_cell_length_b   12.06043164
_cell_length_c   5.74715569
_cell_angle_alpha   90.00000000
_cell_angle_beta   101.88034002
_cell_angle_gamma   90.00000000
_symmetry_Int_Tables_number   1
_chemical_formula_structural   GdAsO3
_chemical_formula_sum   'Gd4 As4 O12'
_cell_volume   301.31505409
_cell_formula_units_Z   4
loop_
 _symmetry_equiv_pos_site_id
 _symmetry_equiv_pos_as_xyz
  1  'x, y, z'
loop_
 _atom_site_type_symbol
 _atom_site_label
 _atom_site_symmetry_multiplicity
 _atom_site_fract_x
 _atom_site_fract_y
 _atom_site_fract_z
 _atom_site_occupancy
  Gd  Gd0  1  0.995150  0.354941  0.349335  1
  Gd  Gd1  1  0.495150  0.145059  0.849335  1
  Gd  Gd2  1  0.504850  0.854941  0.150665  1
  Gd  Gd3  1  0.004850  0.645059  0.650665  1
  As  As4  1  0.065879  0.067634  0.277266  1
  As  As5  1  0.434121  0.567634  0.222734  1
  As  As6  1  0.565879  0.432366  0.777266  1
  As  As7  1  0.934121  0.932366  0.722734  1
  O  O8  1  0.112016  0.176522  0.498306  1
  O  O9  1  0.059804  0.152216  0.012383  1
  O  O10  1  0.151165  0.449937  0.709771  1
  O  O11  1  0.348836  0.949937  0.790229  1
  O  O12  1  0.440196  0.652216  0.487617  1
  O  O13  1  0.387984  0.676522  0.001694  1
  O  O14  1  0.612016  0.323478  0.998306  1
  O  O15  1  0.559804  0.347784  0.512383  1
  O  O16  1  0.651165  0.050063  0.209771  1
  O  O17  1  0.848835  0.550063  0.290229  1
  O  O18  1  0.940196  0.847784  0.987617  1
  O  O19  1  0.887984  0.823478  0.501694  1
