# generated using pymatgen
data_Ba2YI7
_symmetry_space_group_name_H-M   'P 1'
_cell_length_a   15.23833748
_cell_length_b   15.26648350
_cell_length_c   17.73307286
_cell_angle_alpha   90.00000000
_cell_angle_beta   147.79367392
_cell_angle_gamma   90.00000000
_symmetry_Int_Tables_number   1
_chemical_formula_structural   Ba2YI7
_chemical_formula_sum   'Ba8 Y4 I28'
_cell_volume   2198.68553700
_cell_formula_units_Z   4
loop_
 _symmetry_equiv_pos_site_id
 _symmetry_equiv_pos_as_xyz
  1  'x, y, z'
loop_
 _atom_site_type_symbol
 _atom_site_label
 _atom_site_symmetry_multiplicity
 _atom_site_fract_x
 _atom_site_fract_y
 _atom_site_fract_z
 _atom_site_occupancy
  Ba  Ba0  1  0.150889  0.269064  0.695167  1
  Ba  Ba1  1  0.561341  0.293453  0.813255  1
  Ba  Ba2  1  0.438659  0.793453  0.686745  1
  Ba  Ba3  1  0.150889  0.230936  0.195167  1
  Ba  Ba4  1  0.849111  0.769064  0.804833  1
  Ba  Ba5  1  0.561341  0.206547  0.313255  1
  Ba  Ba6  1  0.438659  0.706547  0.186745  1
  Ba  Ba7  1  0.849111  0.730936  0.304833  1
  Y  Y8  1  0.064440  0.695433  0.729340  1
  Y  Y9  1  0.064440  0.804567  0.229340  1
  Y  Y10  1  0.935560  0.195433  0.770660  1
  Y  Y11  1  0.935560  0.304567  0.270660  1
  I  I12  1  0.057040  0.587795  0.867827  1
  I  I13  1  0.155700  0.849646  0.895707  1
  I  I14  1  0.279412  0.262910  0.972560  1
  I  I15  1  0.158060  0.413304  0.539418  1
  I  I16  1  0.057040  0.912205  0.367827  1
  I  I17  1  0.346606  0.121885  0.734658  1
  I  I18  1  0.182068  0.782144  0.667620  1
  I  I19  1  0.571397  0.372237  0.003735  1
  I  I20  1  0.155700  0.650354  0.395707  1
  I  I21  1  0.279412  0.237090  0.472560  1
  I  I22  1  0.428603  0.872237  0.496265  1
  I  I23  1  0.817932  0.282144  0.832380  1
  I  I24  1  0.653394  0.621885  0.765342  1
  I  I25  1  0.158060  0.086696  0.039418  1
  I  I26  1  0.841940  0.913304  0.960582  1
  I  I27  1  0.346606  0.378115  0.234658  1
  I  I28  1  0.182068  0.717856  0.167620  1
  I  I29  1  0.571397  0.127763  0.503735  1
  I  I30  1  0.720588  0.762910  0.527440  1
  I  I31  1  0.844300  0.349646  0.604293  1
  I  I32  1  0.428603  0.627763  0.996265  1
  I  I33  1  0.817932  0.217856  0.332380  1
  I  I34  1  0.653394  0.878115  0.265342  1
  I  I35  1  0.942960  0.087795  0.632173  1
  I  I36  1  0.841940  0.586696  0.460582  1
  I  I37  1  0.720588  0.737090  0.027440  1
  I  I38  1  0.844300  0.150354  0.104293  1
  I  I39  1  0.942960  0.412205  0.132173  1
