# generated using pymatgen
data_MoH4O5
_symmetry_space_group_name_H-M   'P 1'
_cell_length_a   10.64384096
_cell_length_b   14.18474000
_cell_length_c   11.22715883
_cell_angle_alpha   90.00000000
_cell_angle_beta   89.32839682
_cell_angle_gamma   90.00000000
_symmetry_Int_Tables_number   1
_chemical_formula_structural   MoH4O5
_chemical_formula_sum   'Mo16 H64 O80'
_cell_volume   1694.96130035
_cell_formula_units_Z   16
loop_
 _symmetry_equiv_pos_site_id
 _symmetry_equiv_pos_as_xyz
  1  'x, y, z'
loop_
 _atom_site_type_symbol
 _atom_site_label
 _atom_site_symmetry_multiplicity
 _atom_site_fract_x
 _atom_site_fract_y
 _atom_site_fract_z
 _atom_site_occupancy
  Mo  Mo0  1  0.361124  0.739664  0.397413  1
  Mo  Mo1  1  0.861124  0.760336  0.897413  1
  Mo  Mo2  1  0.638876  0.260336  0.602587  1
  Mo  Mo3  1  0.138876  0.239664  0.102587  1
  Mo  Mo4  1  0.120415  0.745912  0.135856  1
  Mo  Mo5  1  0.620415  0.754088  0.635856  1
  Mo  Mo6  1  0.879585  0.254088  0.864144  1
  Mo  Mo7  1  0.379585  0.245912  0.364144  1
  Mo  Mo8  1  0.408366  0.775790  0.129515  1
  Mo  Mo9  1  0.908366  0.724210  0.629515  1
  Mo  Mo10  1  0.591634  0.224210  0.870485  1
  Mo  Mo11  1  0.091634  0.275790  0.370485  1
  Mo  Mo12  1  0.350071  0.730935  0.860364  1
  Mo  Mo13  1  0.850071  0.769065  0.360364  1
  Mo  Mo14  1  0.649929  0.269065  0.139636  1
  Mo  Mo15  1  0.149929  0.230935  0.639636  1
  H  H16  1  0.507067  0.558900  0.386945  1
  H  H17  1  0.007067  0.941100  0.886945  1
  H  H18  1  0.492933  0.441100  0.613055  1
  H  H19  1  0.992933  0.058900  0.113055  1
  H  H20  1  0.393549  0.555535  0.483710  1
  H  H21  1  0.893549  0.944465  0.983710  1
  H  H22  1  0.606451  0.444465  0.516290  1
  H  H23  1  0.106451  0.055535  0.016290  1
  H  H24  1  0.135654  0.583524  0.222776  1
  H  H25  1  0.635654  0.916476  0.722776  1
  H  H26  1  0.864346  0.416476  0.777224  1
  H  H27  1  0.364346  0.083524  0.277224  1
  H  H28  1  0.967435  0.532300  0.132354  1
  H  H29  1  0.467435  0.967700  0.632354  1
  H  H30  1  0.032565  0.467700  0.867646  1
  H  H31  1  0.532565  0.032300  0.367646  1
  H  H32  1  0.467088  0.961000  0.136296  1
  H  H33  1  0.967088  0.539000  0.636296  1
  H  H34  1  0.532912  0.039000  0.863704  1
  H  H35  1  0.032912  0.461000  0.363704  1
  H  H36  1  0.570865  0.909018  0.221464  1
  H  H37  1  0.070865  0.590982  0.721464  1
  H  H38  1  0.429135  0.090982  0.778536  1
  H  H39  1  0.929135  0.409018  0.278536  1
  H  H40  1  0.384058  0.552559  0.969139  1
  H  H41  1  0.884058  0.947441  0.469139  1
  H  H42  1  0.615942  0.447441  0.030861  1
  H  H43  1  0.115942  0.052559  0.530861  1
  H  H44  1  0.502672  0.553765  0.882008  1
  H  H45  1  0.002672  0.946235  0.382008  1
  H  H46  1  0.497328  0.446235  0.117992  1
  H  H47  1  0.997328  0.053765  0.617992  1
  H  H48  1  0.209736  0.950937  0.386638  1
  H  H49  1  0.709736  0.549063  0.886638  1
  H  H50  1  0.790264  0.049063  0.613362  1
  H  H51  1  0.290264  0.450937  0.113362  1
  H  H52  1  0.153306  0.037847  0.313454  1
  H  H53  1  0.653306  0.462153  0.813454  1
  H  H54  1  0.846694  0.962153  0.686546  1
  H  H55  1  0.346694  0.537847  0.186546  1
  H  H56  1  0.147152  0.034650  0.801782  1
  H  H57  1  0.647152  0.465350  0.301782  1
  H  H58  1  0.852848  0.965350  0.198218  1
  H  H59  1  0.352848  0.534650  0.698218  1
  H  H60  1  0.208047  0.945995  0.860106  1
  H  H61  1  0.708047  0.554005  0.360106  1
  H  H62  1  0.791953  0.054005  0.139894  1
  H  H63  1  0.291953  0.445995  0.639894  1
  H  H64  1  0.282972  0.978061  0.113454  1
  H  H65  1  0.782972  0.521939  0.613454  1
  H  H66  1  0.717028  0.021939  0.886546  1
  H  H67  1  0.217028  0.478061  0.386546  1
  H  H68  1  0.338276  0.072206  0.055981  1
  H  H69  1  0.838276  0.427794  0.555981  1
  H  H70  1  0.661724  0.927794  0.944019  1
  H  H71  1  0.161724  0.572206  0.444019  1
  H  H72  1  0.605002  0.954423  0.440249  1
  H  H73  1  0.105002  0.545577  0.940249  1
  H  H74  1  0.394998  0.045577  0.559751  1
  H  H75  1  0.894998  0.454423  0.059751  1
  H  H76  1  0.742530  0.066647  0.374902  1
  H  H77  1  0.242530  0.433353  0.874902  1
  H  H78  1  0.257470  0.933353  0.625098  1
  H  H79  1  0.757470  0.566647  0.125098  1
  O  O80  1  0.514264  0.744181  0.511450  1
  O  O81  1  0.014264  0.755819  0.011450  1
  O  O82  1  0.485736  0.255819  0.488550  1
  O  O83  1  0.985736  0.244181  0.988550  1
  O  O84  1  0.275161  0.703480  0.245705  1
  O  O85  1  0.775161  0.796520  0.745705  1
  O  O86  1  0.724839  0.296520  0.754295  1
  O  O87  1  0.224839  0.203480  0.254295  1
  O  O88  1  0.246896  0.694793  0.492572  1
  O  O89  1  0.746896  0.805207  0.992572  1
  O  O90  1  0.753104  0.305207  0.507428  1
  O  O91  1  0.253104  0.194793  0.007428  1
  O  O92  1  0.498460  0.738979  0.261809  1
  O  O93  1  0.998460  0.761021  0.761809  1
  O  O94  1  0.501540  0.261021  0.738191  1
  O  O95  1  0.001540  0.238979  0.238191  1
  O  O96  1  0.013169  0.780252  0.254422  1
  O  O97  1  0.513169  0.719748  0.754422  1
  O  O98  1  0.986831  0.219748  0.745578  1
  O  O99  1  0.486831  0.280252  0.245578  1
  O  O100  1  0.270472  0.701840  0.012502  1
  O  O101  1  0.770472  0.798160  0.512502  1
  O  O102  1  0.729528  0.298160  0.987498  1
  O  O103  1  0.229528  0.201840  0.487498  1
  O  O104  1  0.750144  0.818107  0.257731  1
  O  O105  1  0.250144  0.681893  0.757731  1
  O  O106  1  0.249856  0.181893  0.742269  1
  O  O107  1  0.749856  0.318107  0.242269  1
  O  O108  1  0.494671  0.753443  0.995080  1
  O  O109  1  0.994671  0.746557  0.495080  1
  O  O110  1  0.505329  0.246557  0.004920  1
  O  O111  1  0.005329  0.253443  0.504920  1
  O  O112  1  0.333881  0.861557  0.393249  1
  O  O113  1  0.833881  0.638443  0.893249  1
  O  O114  1  0.666119  0.138443  0.606751  1
  O  O115  1  0.166119  0.361557  0.106751  1
  O  O116  1  0.233632  0.849834  0.130232  1
  O  O117  1  0.733632  0.650166  0.630232  1
  O  O118  1  0.766368  0.150166  0.869768  1
  O  O119  1  0.266368  0.349834  0.369768  1
  O  O120  1  0.670435  0.591824  0.117764  1
  O  O121  1  0.170435  0.908176  0.617764  1
  O  O122  1  0.329565  0.408176  0.882236  1
  O  O123  1  0.829565  0.091824  0.382236  1
  O  O124  1  0.323579  0.852623  0.850009  1
  O  O125  1  0.823579  0.647377  0.350009  1
  O  O126  1  0.676421  0.147377  0.149991  1
  O  O127  1  0.176421  0.352623  0.649991  1
  O  O128  1  0.419806  0.582359  0.405649  1
  O  O129  1  0.919806  0.917641  0.905649  1
  O  O130  1  0.580194  0.417641  0.594351  1
  O  O131  1  0.080194  0.082359  0.094351  1
  O  O132  1  0.093116  0.609703  0.152062  1
  O  O133  1  0.593116  0.890297  0.652062  1
  O  O134  1  0.906884  0.390296  0.847938  1
  O  O135  1  0.406884  0.109703  0.347938  1
  O  O136  1  0.519481  0.902371  0.148274  1
  O  O137  1  0.019481  0.597629  0.648274  1
  O  O138  1  0.480519  0.097629  0.851726  1
  O  O139  1  0.980519  0.402371  0.351726  1
  O  O140  1  0.413122  0.575824  0.889869  1
  O  O141  1  0.913122  0.924176  0.389869  1
  O  O142  1  0.586878  0.424176  0.110131  1
  O  O143  1  0.086878  0.075824  0.610131  1
  O  O144  1  0.139843  0.997155  0.382466  1
  O  O145  1  0.639843  0.502845  0.882466  1
  O  O146  1  0.860157  0.002845  0.617534  1
  O  O147  1  0.360157  0.497155  0.117534  1
  O  O148  1  0.143784  0.995618  0.874093  1
  O  O149  1  0.643784  0.504382  0.374093  1
  O  O150  1  0.856216  0.004382  0.125907  1
  O  O151  1  0.356216  0.495618  0.625907  1
  O  O152  1  0.349588  0.026369  0.120461  1
  O  O153  1  0.849588  0.473631  0.620461  1
  O  O154  1  0.650412  0.973631  0.879539  1
  O  O155  1  0.150412  0.526369  0.379539  1
  O  O156  1  0.605842  0.989326  0.364971  1
  O  O157  1  0.105842  0.510674  0.864971  1
  O  O158  1  0.394158  0.010674  0.635029  1
  O  O159  1  0.894158  0.489326  0.135029  1
