# generated using pymatgen
data_Li4Ti3Nb3V2O16
_symmetry_space_group_name_H-M   'P 1'
_cell_length_a   6.07220784
_cell_length_b   6.01323746
_cell_length_c   10.02019720
_cell_angle_alpha   90.01477278
_cell_angle_beta   89.69943229
_cell_angle_gamma   119.68547328
_symmetry_Int_Tables_number   1
_chemical_formula_structural   Li4Ti3Nb3V2O16
_chemical_formula_sum   'Li4 Ti3 Nb3 V2 O16'
_cell_volume   317.84989274
_cell_formula_units_Z   1
loop_
 _symmetry_equiv_pos_site_id
 _symmetry_equiv_pos_as_xyz
  1  'x, y, z'
loop_
 _atom_site_type_symbol
 _atom_site_label
 _atom_site_symmetry_multiplicity
 _atom_site_fract_x
 _atom_site_fract_y
 _atom_site_fract_z
 _atom_site_occupancy
  Li  Li0  1  0.336127  0.668098  0.898890  1
  Li  Li1  1  0.014237  0.006957  0.996322  1
  Li  Li2  1  0.008288  0.004047  0.497658  1
  Li  Li3  1  0.663244  0.331776  0.388678  1
  Ti  Ti4  1  0.168046  0.832038  0.216165  1
  Ti  Ti5  1  0.167496  0.336240  0.216400  1
  Ti  Ti6  1  0.325628  0.162946  0.718241  1
  Nb  Nb7  1  0.662579  0.831213  0.213817  1
  Nb  Nb8  1  0.832314  0.644157  0.711474  1
  Nb  Nb9  1  0.832189  0.188045  0.711504  1
  V  V10  1  0.338280  0.669158  0.483938  1
  V  V11  1  0.664754  0.332347  0.990450  1
  O  O12  1  0.160920  0.841757  0.606271  1
  O  O13  1  0.037257  0.518634  0.328167  1
  O  O14  1  0.329114  0.664521  0.106033  1
  O  O15  1  0.004202  0.002146  0.316625  1
  O  O16  1  0.008301  0.004217  0.814737  1
  O  O17  1  0.160958  0.319164  0.606298  1
  O  O18  1  0.478141  0.966242  0.331420  1
  O  O19  1  0.478113  0.511980  0.331440  1
  O  O20  1  0.312466  0.156105  0.109434  1
  O  O21  1  0.686389  0.843111  0.599982  1
  O  O22  1  0.517488  0.479118  0.830385  1
  O  O23  1  0.517403  0.038368  0.830339  1
  O  O24  1  0.629761  0.314794  0.595037  1
  O  O25  1  0.844748  0.685112  0.104591  1
  O  O26  1  0.976828  0.488488  0.848975  1
  O  O27  1  0.844731  0.159521  0.104568  1
