# generated using pymatgen
data_Ag2TeO4
_symmetry_space_group_name_H-M   'P 1'
_cell_length_a   8.37137767
_cell_length_b   6.20979316
_cell_length_c   7.31580774
_cell_angle_alpha   76.65586998
_cell_angle_beta   46.27555327
_cell_angle_gamma   57.95852642
_symmetry_Int_Tables_number   1
_chemical_formula_structural   Ag2TeO4
_chemical_formula_sum   'Ag4 Te2 O8'
_cell_volume   227.16555462
_cell_formula_units_Z   2
loop_
 _symmetry_equiv_pos_site_id
 _symmetry_equiv_pos_as_xyz
  1  'x, y, z'
loop_
 _atom_site_type_symbol
 _atom_site_label
 _atom_site_symmetry_multiplicity
 _atom_site_fract_x
 _atom_site_fract_y
 _atom_site_fract_z
 _atom_site_occupancy
  Ag  Ag0  1  0.222335  0.228735  0.528698  1
  Ag  Ag1  1  0.528112  0.533718  0.221112  1
  Ag  Ag2  1  0.776706  0.781284  0.471366  1
  Ag  Ag3  1  0.475745  0.472972  0.772373  1
  Te  Te4  1  0.127734  0.127061  0.123054  1
  Te  Te5  1  0.871681  0.878495  0.877186  1
  O  O6  1  0.153703  0.319805  0.254314  1
  O  O7  1  0.779764  0.259294  0.310661  1
  O  O8  1  0.255983  0.780199  0.151663  1
  O  O9  1  0.319634  0.150107  0.775537  1
  O  O10  1  0.680085  0.855630  0.225156  1
  O  O11  1  0.742737  0.226634  0.850435  1
  O  O12  1  0.222194  0.739675  0.683600  1
  O  O13  1  0.842110  0.688204  0.748912  1
