# generated using pymatgen
data_Na5Mn2P2(CO7)2
_symmetry_space_group_name_H-M   'P 1'
_cell_length_a   11.22441360
_cell_length_b   11.24397921
_cell_length_c   5.22799610
_cell_angle_alpha   89.48387482
_cell_angle_beta   89.33462547
_cell_angle_gamma   73.55801942
_symmetry_Int_Tables_number   1
_chemical_formula_structural   Na5Mn2P2(CO7)2
_chemical_formula_sum   'Na10 Mn4 P4 C4 O28'
_cell_volume   632.77444027
_cell_formula_units_Z   2
loop_
 _symmetry_equiv_pos_site_id
 _symmetry_equiv_pos_as_xyz
  1  'x, y, z'
loop_
 _atom_site_type_symbol
 _atom_site_label
 _atom_site_symmetry_multiplicity
 _atom_site_fract_x
 _atom_site_fract_y
 _atom_site_fract_z
 _atom_site_occupancy
  Na  Na0  1  0.114198  0.125254  0.241491  1
  Na  Na1  1  0.370630  0.371678  0.750273  1
  Na  Na2  1  0.627897  0.123819  0.753877  1
  Na  Na3  1  0.117810  0.629971  0.756015  1
  Na  Na4  1  0.585786  0.333701  0.242727  1
  Na  Na5  1  0.414214  0.666299  0.757273  1
  Na  Na6  1  0.882190  0.370029  0.243985  1
  Na  Na7  1  0.629370  0.628322  0.249727  1
  Na  Na8  1  0.372103  0.876181  0.246123  1
  Na  Na9  1  0.885802  0.874746  0.758509  1
  Mn  Mn10  1  0.299581  0.054963  0.777194  1
  Mn  Mn11  1  0.191366  0.447180  0.219194  1
  Mn  Mn12  1  0.808634  0.552820  0.780806  1
  Mn  Mn13  1  0.700419  0.945037  0.222806  1
  P  P14  1  0.084076  0.331574  0.705217  1
  P  P15  1  0.416225  0.163882  0.298873  1
  P  P16  1  0.583775  0.836118  0.701127  1
  P  P17  1  0.915924  0.668426  0.294783  1
  C  C18  1  0.837431  0.088405  0.276097  1
  C  C19  1  0.346244  0.593946  0.266168  1
  C  C20  1  0.653756  0.406054  0.733832  1
  C  C21  1  0.162569  0.911595  0.723903  1
  O  O22  1  0.136156  0.194025  0.794640  1
  O  O23  1  0.092318  0.336565  0.406451  1
  O  O24  1  0.340813  0.087731  0.165128  1
  O  O25  1  0.162897  0.411903  0.819291  1
  O  O26  1  0.401564  0.148862  0.598616  1
  O  O27  1  0.052590  0.620484  0.207027  1
  O  O28  1  0.557507  0.118049  0.230157  1
  O  O29  1  0.373863  0.303462  0.229994  1
  O  O30  1  0.303801  0.553167  0.471554  1
  O  O31  1  0.797235  0.045339  0.480782  1
  O  O32  1  0.798701  0.049711  0.059874  1
  O  O33  1  0.317431  0.560278  0.043125  1
  O  O34  1  0.096284  0.838449  0.729385  1
  O  O35  1  0.581620  0.334235  0.716824  1
  O  O36  1  0.418380  0.665765  0.283176  1
  O  O37  1  0.903716  0.161551  0.270615  1
  O  O38  1  0.682569  0.439722  0.956875  1
  O  O39  1  0.201299  0.950289  0.940126  1
  O  O40  1  0.696199  0.446833  0.528446  1
  O  O41  1  0.202765  0.954661  0.519218  1
  O  O42  1  0.442493  0.881951  0.769843  1
  O  O43  1  0.947410  0.379516  0.792973  1
  O  O44  1  0.626137  0.696538  0.770006  1
  O  O45  1  0.598436  0.851138  0.401384  1
  O  O46  1  0.837103  0.588097  0.180709  1
  O  O47  1  0.659187  0.912269  0.834872  1
  O  O48  1  0.907682  0.663435  0.593549  1
  O  O49  1  0.863844  0.805975  0.205360  1
