# generated using pymatgen
data_Li4Ti4Mn4CrO18
_symmetry_space_group_name_H-M   'P 1'
_cell_length_a   9.15131018
_cell_length_b   25.22172734
_cell_length_c   2.95595706
_cell_angle_alpha   90.00034010
_cell_angle_beta   89.99979468
_cell_angle_gamma   90.00839518
_symmetry_Int_Tables_number   1
_chemical_formula_structural   Li4Ti4Mn4CrO18
_chemical_formula_sum   'Li8 Ti8 Mn8 Cr2 O36'
_cell_volume   682.26991022
_cell_formula_units_Z   2
loop_
 _symmetry_equiv_pos_site_id
 _symmetry_equiv_pos_as_xyz
  1  'x, y, z'
loop_
 _atom_site_type_symbol
 _atom_site_label
 _atom_site_symmetry_multiplicity
 _atom_site_fract_x
 _atom_site_fract_y
 _atom_site_fract_z
 _atom_site_occupancy
  Li  Li0  1  0.191068  0.997140  0.000002  1
  Li  Li1  1  0.205313  0.194794  0.000003  1
  Li  Li2  1  0.294570  0.694846  0.000001  1
  Li  Li3  1  0.308926  0.497211  0.999998  1
  Li  Li4  1  0.691193  0.502726  0.999998  1
  Li  Li5  1  0.705631  0.305328  0.000003  1
  Li  Li6  1  0.794319  0.805428  0.000003  1
  Li  Li7  1  0.808642  0.002561  0.000003  1
  Ti  Ti8  1  0.003507  0.103090  0.999998  1
  Ti  Ti9  1  0.145786  0.805174  0.500003  1
  Ti  Ti10  1  0.354430  0.304882  0.500002  1
  Ti  Ti11  1  0.496456  0.603260  0.000002  1
  Ti  Ti12  1  0.503524  0.396814  0.000003  1
  Ti  Ti13  1  0.645668  0.695108  0.500000  1
  Ti  Ti14  1  0.854418  0.194809  0.500005  1
  Ti  Ti15  1  0.996578  0.896794  0.000002  1
  Mn  Mn16  1  0.018590  0.313783  -0.000003  1
  Mn  Mn17  1  0.143860  0.586410  0.499991  1
  Mn  Mn18  1  0.356248  0.086239  0.499990  1
  Mn  Mn19  1  0.481184  0.813873  0.000004  1
  Mn  Mn20  1  0.518795  0.185976  0.000004  1
  Mn  Mn21  1  0.643934  0.913709  0.500002  1
  Mn  Mn22  1  0.856147  0.413640  0.499994  1
  Mn  Mn23  1  0.981469  0.686273  -0.000002  1
  Cr  Cr24  1  0.000033  0.500113  0.999991  1
  Cr  Cr25  1  0.500028  0.999958  -0.000003  1
  O  O26  1  0.995420  0.420884  0.999987  1
  O  O27  1  0.004639  0.579250  0.999986  1
  O  O28  1  0.042024  0.941748  0.499999  1
  O  O29  1  0.052755  0.160211  0.499993  1
  O  O30  1  0.114821  0.662078  0.499992  1
  O  O31  1  0.108812  0.757785  -0.000004  1
  O  O32  1  0.150328  0.507843  0.499989  1
  O  O33  1  0.146340  0.289830  0.500000  1
  O  O34  1  0.177608  0.857752  -0.000000  1
  O  O35  1  0.212886  0.086134  0.999994  1
  O  O36  1  0.287080  0.586238  0.999998  1
  O  O37  1  0.322461  0.357764  0.000003  1
  O  O38  1  0.353778  0.789913  0.499998  1
  O  O39  1  0.349790  0.007822  0.500012  1
  O  O40  1  0.391309  0.257781  -0.000000  1
  O  O41  1  0.385243  0.161910  0.500019  1
  O  O42  1  0.447309  0.660281  0.500008  1
  O  O43  1  0.457965  0.441749  0.500000  1
  O  O44  1  0.495524  0.079116  0.000024  1
  O  O45  1  0.504491  0.920804  0.999986  1
  O  O46  1  0.541894  0.558325  0.499996  1
  O  O47  1  0.552689  0.339782  0.499994  1
  O  O48  1  0.614718  0.838094  0.500001  1
  O  O49  1  0.608792  0.742241  0.000009  1
  O  O50  1  0.650248  0.992075  0.499991  1
  O  O51  1  0.646055  0.209919  0.500005  1
  O  O52  1  0.677526  0.642261  0.000006  1
  O  O53  1  0.712743  0.413907  0.999997  1
  O  O54  1  0.787072  0.913817  0.000023  1
  O  O55  1  0.822465  0.142160  -0.000004  1
  O  O56  1  0.853731  0.710112  0.500002  1
  O  O57  1  0.849702  0.492307  0.499982  1
  O  O58  1  0.891056  0.242145  0.000006  1
  O  O59  1  0.885032  0.338012  0.500009  1
  O  O60  1  0.947221  0.839787  0.500005  1
  O  O61  1  0.958158  0.058224  0.499998  1
