# generated using pymatgen
data_LiFe4(BO3)4
_symmetry_space_group_name_H-M   'P 1'
_cell_length_a   5.33475856
_cell_length_b   9.02247455
_cell_length_c   10.10864926
_cell_angle_alpha   90.66640938
_cell_angle_beta   90.57737661
_cell_angle_gamma   89.63779936
_symmetry_Int_Tables_number   1
_chemical_formula_structural   LiFe4(BO3)4
_chemical_formula_sum   'Li2 Fe8 B8 O24'
_cell_volume   486.48983889
_cell_formula_units_Z   2
loop_
 _symmetry_equiv_pos_site_id
 _symmetry_equiv_pos_as_xyz
  1  'x, y, z'
loop_
 _atom_site_type_symbol
 _atom_site_label
 _atom_site_symmetry_multiplicity
 _atom_site_fract_x
 _atom_site_fract_y
 _atom_site_fract_z
 _atom_site_occupancy
  Li  Li0  1  0.646662  0.006480  0.101941  1
  Li  Li1  1  0.850803  0.510174  0.840737  1
  Fe  Fe2  1  0.155325  0.168497  0.123477  1
  Fe  Fe3  1  0.842218  0.165532  0.371437  1
  Fe  Fe4  1  0.340013  0.329616  0.875742  1
  Fe  Fe5  1  0.647355  0.330178  0.619105  1
  Fe  Fe6  1  0.339138  0.668430  0.367570  1
  Fe  Fe7  1  0.161031  0.831109  0.625955  1
  Fe  Fe8  1  0.663565  0.662176  0.120264  1
  Fe  Fe9  1  0.840721  0.848687  0.869681  1
  B  B10  1  0.161793  0.167323  0.623384  1
  B  B11  1  0.329637  0.332000  0.373974  1
  B  B12  1  0.826284  0.177692  0.877774  1
  B  B13  1  0.663251  0.332425  0.122369  1
  B  B14  1  0.339649  0.662048  0.871092  1
  B  B15  1  0.663541  0.671259  0.623041  1
  B  B16  1  0.170789  0.833091  0.122793  1
  B  B17  1  0.833586  0.827489  0.367011  1
  O  O18  1  0.257534  0.029493  0.625630  1
  O  O19  1  0.072488  0.197740  0.915646  1
  O  O20  1  0.705809  0.049469  0.899211  1
  O  O21  1  0.189579  0.210623  0.332966  1
  O  O22  1  0.300458  0.288714  0.672122  1
  O  O23  1  0.777457  0.203590  0.174340  1
  O  O24  1  0.921143  0.195725  0.572072  1
  O  O25  1  0.428536  0.312935  0.065446  1
  O  O26  1  0.243109  0.471325  0.364837  1
  O  O27  1  0.571629  0.303929  0.426539  1
  O  O28  1  0.702422  0.304386  0.824198  1
  O  O29  1  0.215687  0.528346  0.870733  1
  O  O30  1  0.779420  0.464930  0.122650  1
  O  O31  1  0.302883  0.704777  0.164446  1
  O  O32  1  0.429130  0.696293  0.564721  1
  O  O33  1  0.743633  0.529937  0.648570  1
  O  O34  1  0.589018  0.671269  0.918636  1
  O  O35  1  0.069316  0.801380  0.423626  1
  O  O36  1  0.216045  0.785882  0.822421  1
  O  O37  1  0.695014  0.704500  0.322456  1
  O  O38  1  0.807695  0.791370  0.662200  1
  O  O39  1  0.290087  0.962564  0.116350  1
  O  O40  1  0.913923  0.818482  0.087086  1
  O  O41  1  0.742504  0.966916  0.351826  1
