# generated using pymatgen
data_Li3V3(BO5)2
_symmetry_space_group_name_H-M   'P 1'
_cell_length_a   9.34503634
_cell_length_b   12.14904187
_cell_length_c   3.01422590
_cell_angle_alpha   90.05813693
_cell_angle_beta   90.49491163
_cell_angle_gamma   88.63468790
_symmetry_Int_Tables_number   1
_chemical_formula_structural   Li3V3(BO5)2
_chemical_formula_sum   'Li6 V6 B4 O20'
_cell_volume   342.10479532
_cell_formula_units_Z   2
loop_
 _symmetry_equiv_pos_site_id
 _symmetry_equiv_pos_as_xyz
  1  'x, y, z'
loop_
 _atom_site_type_symbol
 _atom_site_label
 _atom_site_symmetry_multiplicity
 _atom_site_fract_x
 _atom_site_fract_y
 _atom_site_fract_z
 _atom_site_occupancy
  Li  Li0  1  0.997886  0.000050  0.998429  1
  Li  Li1  1  0.981308  0.277227  0.002953  1
  Li  Li2  1  0.515025  0.502547  0.999097  1
  Li  Li3  1  0.500031  0.999151  0.500879  1
  Li  Li4  1  0.729157  0.383891  0.503327  1
  Li  Li5  1  0.002610  0.719213  0.998419  1
  V  V6  1  0.994246  0.496938  0.488372  1
  V  V7  1  0.233665  0.108854  0.481091  1
  V  V8  1  0.262620  0.612770  0.498051  1
  V  V9  1  0.504441  0.782128  0.004349  1
  V  V10  1  0.503265  0.220905  0.998857  1
  V  V11  1  0.766655  0.890529  0.519875  1
  B  B12  1  0.230632  0.857314  0.502219  1
  B  B13  1  0.271716  0.368468  0.500345  1
  B  B14  1  0.729222  0.629651  0.500572  1
  B  B15  1  0.774039  0.144254  0.497908  1
  O  O16  1  0.120400  0.144478  0.017461  1
  O  O17  1  0.116358  0.568237  0.995063  1
  O  O18  1  0.126158  0.363224  0.506020  1
  O  O19  1  0.157283  0.762938  0.498260  1
  O  O20  1  0.158793  0.959767  0.511276  1
  O  O21  1  0.350179  0.459663  0.500146  1
  O  O22  1  0.349808  0.261136  0.497058  1
  O  O23  1  0.383182  0.855680  0.502460  1
  O  O24  1  0.378575  0.081155  0.988219  1
  O  O25  1  0.387223  0.654622  0.002603  1
  O  O26  1  0.586928  0.340580  0.000608  1
  O  O27  1  0.623489  0.921149  0.011594  1
  O  O28  1  0.615421  0.146825  0.501445  1
  O  O29  1  0.655339  0.739127  0.503730  1
  O  O30  1  0.650201  0.540631  0.501030  1
  O  O31  1  0.839402  0.039507  0.482185  1
  O  O32  1  0.844730  0.237004  0.502982  1
  O  O33  1  0.877255  0.635337  0.496215  1
  O  O34  1  0.901489  0.440130  0.005580  1
  O  O35  1  0.881270  0.854920  0.981322  1
