# generated using pymatgen
data_Li3Fe4(BO3)4
_symmetry_space_group_name_H-M   'P 1'
_cell_length_a   5.25285014
_cell_length_b   9.06327819
_cell_length_c   10.22536932
_cell_angle_alpha   90.00000008
_cell_angle_beta   91.23913724
_cell_angle_gamma   90.00000512
_symmetry_Int_Tables_number   1
_chemical_formula_structural   Li3Fe4(BO3)4
_chemical_formula_sum   'Li6 Fe8 B8 O24'
_cell_volume   486.69597025
_cell_formula_units_Z   2
loop_
 _symmetry_equiv_pos_site_id
 _symmetry_equiv_pos_as_xyz
  1  'x, y, z'
loop_
 _atom_site_type_symbol
 _atom_site_label
 _atom_site_symmetry_multiplicity
 _atom_site_fract_x
 _atom_site_fract_y
 _atom_site_fract_z
 _atom_site_occupancy
  Li  Li0  1  0.342035  0.016807  0.834294  1
  Li  Li1  1  0.656605  0.007906  0.094568  1
  Li  Li2  1  0.156605  0.492094  0.594568  1
  Li  Li3  1  0.842035  0.483193  0.334294  1
  Li  Li4  1  0.836740  0.504952  0.836277  1
  Li  Li5  1  0.336740  0.995048  0.336277  1
  Fe  Fe6  1  0.150504  0.177424  0.121242  1
  Fe  Fe7  1  0.833640  0.156983  0.374594  1
  Fe  Fe8  1  0.333640  0.343017  0.874594  1
  Fe  Fe9  1  0.650504  0.322576  0.621242  1
  Fe  Fe10  1  0.341166  0.655225  0.366239  1
  Fe  Fe11  1  0.159871  0.837866  0.616842  1
  Fe  Fe12  1  0.659871  0.662134  0.116842  1
  Fe  Fe13  1  0.841166  0.844775  0.866239  1
  B  B14  1  0.153365  0.168512  0.623406  1
  B  B15  1  0.334420  0.331264  0.374728  1
  B  B16  1  0.834420  0.168736  0.874728  1
  B  B17  1  0.653365  0.331488  0.123406  1
  B  B18  1  0.333896  0.671091  0.867982  1
  B  B19  1  0.669389  0.667176  0.623702  1
  B  B20  1  0.169389  0.832824  0.123702  1
  B  B21  1  0.833896  0.828909  0.367982  1
  O  O22  1  0.277284  0.032874  0.641133  1
  O  O23  1  0.093962  0.160819  0.901781  1
  O  O24  1  0.686540  0.041706  0.892190  1
  O  O25  1  0.220433  0.199858  0.335502  1
  O  O26  1  0.280552  0.297901  0.658548  1
  O  O27  1  0.780552  0.202099  0.158548  1
  O  O28  1  0.911841  0.173121  0.573925  1
  O  O29  1  0.411841  0.326879  0.073925  1
  O  O30  1  0.186540  0.458294  0.392190  1
  O  O31  1  0.593962  0.339181  0.401781  1
  O  O32  1  0.720433  0.300142  0.835502  1
  O  O33  1  0.192382  0.547126  0.859127  1
  O  O34  1  0.777284  0.467126  0.141133  1
  O  O35  1  0.304885  0.703968  0.155445  1
  O  O36  1  0.409732  0.677615  0.586013  1
  O  O37  1  0.789887  0.534246  0.633498  1
  O  O38  1  0.591046  0.667394  0.915523  1
  O  O39  1  0.091046  0.832606  0.415523  1
  O  O40  1  0.230968  0.807582  0.826725  1
  O  O41  1  0.730968  0.692418  0.326725  1
  O  O42  1  0.804885  0.796032  0.655445  1
  O  O43  1  0.289887  0.965754  0.133498  1
  O  O44  1  0.909732  0.822385  0.086013  1
  O  O45  1  0.692382  0.952874  0.359127  1
