# generated using pymatgen
data_Fe3PH6PbSO14
_symmetry_space_group_name_H-M   'P 1'
_cell_length_a   7.10989931
_cell_length_b   7.10989931
_cell_length_c   7.10989933
_cell_angle_alpha   62.58320269
_cell_angle_beta   62.58320269
_cell_angle_gamma   62.58320230
_symmetry_Int_Tables_number   1
_chemical_formula_structural   Fe3PH6PbSO14
_chemical_formula_sum   'Fe3 P1 H6 Pb1 S1 O14'
_cell_volume   268.76246306
_cell_formula_units_Z   1
loop_
 _symmetry_equiv_pos_site_id
 _symmetry_equiv_pos_as_xyz
  1  'x, y, z'
loop_
 _atom_site_type_symbol
 _atom_site_label
 _atom_site_symmetry_multiplicity
 _atom_site_fract_x
 _atom_site_fract_y
 _atom_site_fract_z
 _atom_site_occupancy
  Fe  Fe0  1  0.007659  0.007659  0.498490  1
  Fe  Fe1  1  0.007659  0.498490  0.007659  1
  Fe  Fe2  1  0.498490  0.007659  0.007659  1
  P  P3  1  0.314398  0.314398  0.314398  1
  H  H4  1  0.289532  0.693944  0.693944  1
  H  H5  1  0.693944  0.693944  0.289532  1
  H  H6  1  0.693944  0.289532  0.693944  1
  H  H7  1  0.707183  0.313817  0.313817  1
  H  H8  1  0.313817  0.313817  0.707183  1
  H  H9  1  0.313817  0.707183  0.313817  1
  Pb  Pb10  1  0.998363  0.998363  0.998363  1
  S  S11  1  0.692758  0.692758  0.692758  1
  O  O12  1  0.606127  0.606127  0.606127  1
  O  O13  1  0.404631  0.404631  0.404631  1
  O  O14  1  0.501569  0.832425  0.832425  1
  O  O15  1  0.832425  0.832425  0.501569  1
  O  O16  1  0.832425  0.501569  0.832425  1
  O  O17  1  0.510964  0.167426  0.167426  1
  O  O18  1  0.167426  0.167426  0.510964  1
  O  O19  1  0.167426  0.510964  0.167426  1
  O  O20  1  0.124119  0.745247  0.745247  1
  O  O21  1  0.745247  0.745247  0.124119  1
  O  O22  1  0.745247  0.124119  0.745247  1
  O  O23  1  0.874862  0.260135  0.260135  1
  O  O24  1  0.260135  0.260135  0.874862  1
  O  O25  1  0.260135  0.874862  0.260135  1
