# generated using pymatgen
data_Sr2U4O11
_symmetry_space_group_name_H-M   'P 1'
_cell_length_a   3.84898809
_cell_length_b   6.82425175
_cell_length_c   10.24959147
_cell_angle_alpha   70.26656925
_cell_angle_beta   79.16415494
_cell_angle_gamma   89.89213572
_symmetry_Int_Tables_number   1
_chemical_formula_structural   Sr2U4O11
_chemical_formula_sum   'Sr2 U4 O11'
_cell_volume   248.33885195
_cell_formula_units_Z   1
loop_
 _symmetry_equiv_pos_site_id
 _symmetry_equiv_pos_as_xyz
  1  'x, y, z'
loop_
 _atom_site_type_symbol
 _atom_site_label
 _atom_site_symmetry_multiplicity
 _atom_site_fract_x
 _atom_site_fract_y
 _atom_site_fract_z
 _atom_site_occupancy
  Sr  Sr0  1  0.836615  0.175351  0.328404  1
  Sr  Sr1  1  0.162610  0.832468  0.679391  1
  U  U2  1  -0.001403  0.000393  0.003593  1
  U  U3  1  0.502012  0.493243  0.997970  1
  U  U4  1  0.671714  0.330489  0.664813  1
  U  U5  1  0.336570  0.644119  0.326883  1
  O  O6  1  0.120921  0.152722  0.763353  1
  O  O7  1  0.706985  0.077344  0.588376  1
  O  O8  1  0.386844  0.389516  0.233163  1
  O  O9  1  0.972471  0.292591  0.062538  1
  O  O10  1  0.538567  0.183995  0.928875  1
  O  O11  1  0.221152  0.549898  0.560303  1
  O  O12  1  0.797363  0.473456  0.408625  1
  O  O13  1  0.453912  0.795224  0.087830  1
  O  O14  1  0.030515  0.704471  0.937213  1
  O  O15  1  0.617767  0.577509  0.767192  1
  O  O16  1  0.868326  0.863745  0.256253  1
