# generated using pymatgen
data_LiV4(PO4)3
_symmetry_space_group_name_H-M   'P 1'
_cell_length_a   6.52351164
_cell_length_b   14.41937371
_cell_length_c   10.03811418
_cell_angle_alpha   90.00000000
_cell_angle_beta   90.00000000
_cell_angle_gamma   90.00000000
_symmetry_Int_Tables_number   1
_chemical_formula_structural   LiV4(PO4)3
_chemical_formula_sum   'Li4 V16 P12 O48'
_cell_volume   944.23473091
_cell_formula_units_Z   4
loop_
 _symmetry_equiv_pos_site_id
 _symmetry_equiv_pos_as_xyz
  1  'x, y, z'
loop_
 _atom_site_type_symbol
 _atom_site_label
 _atom_site_symmetry_multiplicity
 _atom_site_fract_x
 _atom_site_fract_y
 _atom_site_fract_z
 _atom_site_occupancy
  Li  Li0  1  0.055410  0.250000  0.739957  1
  Li  Li1  1  0.444590  0.750000  0.239957  1
  Li  Li2  1  0.555410  0.250000  0.760043  1
  Li  Li3  1  0.944590  0.750000  0.260043  1
  V  V4  1  0.149865  0.598094  0.451835  1
  V  V5  1  0.149865  0.901906  0.451835  1
  V  V6  1  0.153400  0.609346  0.846883  1
  V  V7  1  0.153400  0.890654  0.846883  1
  V  V8  1  0.346600  0.109346  0.346883  1
  V  V9  1  0.346600  0.390654  0.346883  1
  V  V10  1  0.350135  0.098094  0.951835  1
  V  V11  1  0.350135  0.401906  0.951835  1
  V  V12  1  0.649865  0.598094  0.048165  1
  V  V13  1  0.649865  0.901906  0.048165  1
  V  V14  1  0.653400  0.609346  0.653117  1
  V  V15  1  0.653400  0.890654  0.653117  1
  V  V16  1  0.846600  0.109346  0.153117  1
  V  V17  1  0.846600  0.390654  0.153117  1
  V  V18  1  0.850135  0.401906  0.548165  1
  V  V19  1  0.850135  0.098094  0.548165  1
  P  P20  1  0.993951  0.250000  0.403929  1
  P  P21  1  0.146542  0.574696  0.130854  1
  P  P22  1  0.146542  0.925304  0.130854  1
  P  P23  1  0.353458  0.074697  0.630854  1
  P  P24  1  0.353458  0.425303  0.630854  1
  P  P25  1  0.506049  0.750000  0.903929  1
  P  P26  1  0.493951  0.250000  0.096071  1
  P  P27  1  0.646542  0.574696  0.369146  1
  P  P28  1  0.646542  0.925304  0.369146  1
  P  P29  1  0.853458  0.425303  0.869146  1
  P  P30  1  0.853458  0.074697  0.869146  1
  P  P31  1  0.006049  0.750000  0.596071  1
  O  O32  1  0.023840  0.114529  0.962897  1
  O  O33  1  0.023840  0.385471  0.962897  1
  O  O34  1  0.063388  0.750000  0.445025  1
  O  O35  1  0.098263  0.658867  0.651896  1
  O  O36  1  0.098263  0.841133  0.651896  1
  O  O37  1  0.083120  0.013741  0.207532  1
  O  O38  1  0.083120  0.486258  0.207532  1
  O  O39  1  0.177733  0.051565  0.524935  1
  O  O40  1  0.177733  0.448435  0.524935  1
  O  O41  1  0.217469  0.646142  0.234643  1
  O  O42  1  0.217469  0.853858  0.234643  1
  O  O43  1  0.227234  0.250000  0.381769  1
  O  O44  1  0.272766  0.750000  0.881769  1
  O  O45  1  0.282531  0.353858  0.734643  1
  O  O46  1  0.282531  0.146142  0.734643  1
  O  O47  1  0.322267  0.551565  0.024935  1
  O  O48  1  0.322267  0.948435  0.024935  1
  O  O49  1  0.416880  0.513742  0.707532  1
  O  O50  1  0.416880  0.986258  0.707532  1
  O  O51  1  0.401737  0.158867  0.151896  1
  O  O52  1  0.401737  0.341133  0.151896  1
  O  O53  1  0.436612  0.250000  0.945025  1
  O  O54  1  0.476160  0.614529  0.462897  1
  O  O55  1  0.476160  0.885471  0.462897  1
  O  O56  1  0.523840  0.114529  0.537103  1
  O  O57  1  0.523840  0.385471  0.537103  1
  O  O58  1  0.563388  0.750000  0.054975  1
  O  O59  1  0.598263  0.658867  0.848104  1
  O  O60  1  0.598263  0.841133  0.848104  1
  O  O61  1  0.583120  0.013741  0.292468  1
  O  O62  1  0.583120  0.486258  0.292468  1
  O  O63  1  0.677733  0.448435  0.975065  1
  O  O64  1  0.677733  0.051565  0.975065  1
  O  O65  1  0.717469  0.646142  0.265357  1
  O  O66  1  0.717469  0.853858  0.265357  1
  O  O67  1  0.727234  0.250000  0.118231  1
  O  O68  1  0.772766  0.750000  0.618231  1
  O  O69  1  0.782531  0.146142  0.765357  1
  O  O70  1  0.782531  0.353858  0.765357  1
  O  O71  1  0.822267  0.551565  0.475065  1
  O  O72  1  0.822267  0.948435  0.475065  1
  O  O73  1  0.916880  0.513742  0.792468  1
  O  O74  1  0.916880  0.986258  0.792468  1
  O  O75  1  0.901737  0.158867  0.348104  1
  O  O76  1  0.901737  0.341133  0.348104  1
  O  O77  1  0.936612  0.250000  0.554975  1
  O  O78  1  0.976160  0.614529  0.037103  1
  O  O79  1  0.976160  0.885471  0.037103  1
