# generated using pymatgen
data_LiMnF3
_symmetry_space_group_name_H-M   'P 1'
_cell_length_a   5.32011742
_cell_length_b   5.32700008
_cell_length_c   15.38592212
_cell_angle_alpha   90.29524212
_cell_angle_beta   89.98564151
_cell_angle_gamma   119.92296397
_symmetry_Int_Tables_number   1
_chemical_formula_structural   LiMnF3
_chemical_formula_sum   'Li6 Mn6 F18'
_cell_volume   377.90911356
_cell_formula_units_Z   6
loop_
 _symmetry_equiv_pos_site_id
 _symmetry_equiv_pos_as_xyz
  1  'x, y, z'
loop_
 _atom_site_type_symbol
 _atom_site_label
 _atom_site_symmetry_multiplicity
 _atom_site_fract_x
 _atom_site_fract_y
 _atom_site_fract_z
 _atom_site_occupancy
  Li  Li0  1  0.999100  0.000879  0.329982  1
  Li  Li1  1  0.665303  0.331174  0.054753  1
  Li  Li2  1  0.995301  0.998638  0.176123  1
  Li  Li3  1  0.004704  0.001368  0.823872  1
  Li  Li4  1  0.334699  0.668837  0.945255  1
  Li  Li5  1  0.000895  0.999138  0.670011  1
  Mn  Mn6  1  0.670328  0.334368  0.817324  1
  Mn  Mn7  1  0.664987  0.333787  0.340729  1
  Mn  Mn8  1  0.335023  0.666233  0.659262  1
  Mn  Mn9  1  0.000035  0.000021  0.000003  1
  Mn  Mn10  1  -0.000004  0.999978  0.500012  1
  Mn  Mn11  1  0.329654  0.665610  0.182680  1
  F  F12  1  0.979915  0.313910  0.919594  1
  F  F13  1  0.983823  0.304292  0.238981  1
  F  F14  1  0.719461  0.026839  0.402201  1
  F  F15  1  0.686740  0.987392  0.760784  1
  F  F16  1  0.976391  0.696497  0.401239  1
  F  F17  1  0.688244  0.667147  0.918404  1
  F  F18  1  0.313268  0.012618  0.239208  1
  F  F19  1  0.695160  0.718412  0.597197  1
  F  F20  1  0.336582  0.023935  0.919541  1
  F  F21  1  0.693090  0.684344  0.239251  1
  F  F22  1  0.306919  0.315654  0.760747  1
  F  F23  1  0.663403  0.976048  0.080459  1
  F  F24  1  0.304845  0.281588  0.402800  1
  F  F25  1  0.311741  0.332843  0.081604  1
  F  F26  1  0.023622  0.303499  0.598754  1
  F  F27  1  0.280525  0.973152  0.597799  1
  F  F28  1  0.016176  0.695703  0.761017  1
  F  F29  1  0.020091  0.686101  0.080413  1
