# generated using pymatgen
data_Mo15Se19
_symmetry_space_group_name_H-M   'P 1'
_cell_length_a   42.25066426
_cell_length_b   12.13877174
_cell_length_c   21.73036150
_cell_angle_alpha   142.42655730
_cell_angle_beta   166.44794547
_cell_angle_gamma   35.38577244
_symmetry_Int_Tables_number   1
_chemical_formula_structural   Mo15Se19
_chemical_formula_sum   'Mo30 Se38'
_cell_volume   1512.30128545
_cell_formula_units_Z   2
loop_
 _symmetry_equiv_pos_site_id
 _symmetry_equiv_pos_as_xyz
  1  'x, y, z'
loop_
 _atom_site_type_symbol
 _atom_site_label
 _atom_site_symmetry_multiplicity
 _atom_site_fract_x
 _atom_site_fract_y
 _atom_site_fract_z
 _atom_site_occupancy
  Mo  Mo0  1  0.803768  0.101315  0.502591  1
  Mo  Mo1  1  0.819366  0.774895  0.590148  1
  Mo  Mo2  1  0.583220  0.366485  0.881957  1
  Mo  Mo3  1  0.196232  0.898685  0.497409  1
  Mo  Mo4  1  0.180634  0.225105  0.409852  1
  Mo  Mo5  1  0.416780  0.633515  0.118043  1
  Mo  Mo6  1  0.229218  0.274895  0.409853  1
  Mo  Mo7  1  0.701263  0.866485  0.118043  1
  Mo  Mo8  1  0.301177  0.601315  0.497409  1
  Mo  Mo9  1  0.770782  0.725105  0.590147  1
  Mo  Mo10  1  0.298737  0.133515  0.881957  1
  Mo  Mo11  1  0.698823  0.398685  0.502591  1
  Mo  Mo12  1  0.596957  0.519817  0.252537  1
  Mo  Mo13  1  0.262746  0.822319  0.330300  1
  Mo  Mo14  1  0.875499  0.411582  0.730130  1
  Mo  Mo15  1  0.403043  0.480183  0.747463  1
  Mo  Mo16  1  0.737254  0.177681  0.669700  1
  Mo  Mo17  1  0.124501  0.588418  0.269870  1
  Mo  Mo18  1  0.932446  0.322319  0.669700  1
  Mo  Mo19  1  0.145370  0.911582  0.269870  1
  Mo  Mo20  1  0.344420  0.019817  0.747463  1
  Mo  Mo21  1  0.067554  0.677681  0.330300  1
  Mo  Mo22  1  0.854630  0.088418  0.730130  1
  Mo  Mo23  1  0.655580  0.980183  0.252537  1
  Mo  Mo24  1  0.322948  0.935430  0.364409  1
  Mo  Mo25  1  0.492338  0.250000  -0.015323  1
  Mo  Mo26  1  0.041461  0.564571  0.364409  1
  Mo  Mo27  1  0.677052  0.064571  0.635591  1
  Mo  Mo28  1  0.507662  0.750000  0.015323  1
  Mo  Mo29  1  0.958539  0.435429  0.635591  1
  Se  Se30  1  0.159292  0.804207  0.657309  1
  Se  Se31  1  0.323445  0.357204  0.810473  1
  Se  Se32  1  0.943978  0.729466  0.342049  1
  Se  Se33  1  0.840708  0.195793  0.342691  1
  Se  Se34  1  0.676555  0.642796  0.189527  1
  Se  Se35  1  0.056022  0.270534  0.657951  1
  Se  Se36  1  0.512973  0.857204  0.189527  1
  Se  Se37  1  0.601930  0.229466  0.657951  1
  Se  Se38  1  0.501983  0.304207  0.342691  1
  Se  Se39  1  0.487027  0.142796  0.810473  1
  Se  Se40  1  0.398070  0.770534  0.342049  1
  Se  Se41  1  0.498017  0.695793  0.657309  1
  Se  Se42  1  0.149734  0.309511  0.014303  1
  Se  Se43  1  0.418030  0.963091  0.748299  1
  Se  Se44  1  0.832183  0.620593  0.194667  1
  Se  Se45  1  0.850266  0.690489  -0.014303  1
  Se  Se46  1  0.581970  0.036909  0.251701  1
  Se  Se47  1  0.167817  0.379407  0.805333  1
  Se  Se48  1  0.669731  0.463091  0.251701  1
  Se  Se49  1  0.637516  0.120593  0.805333  1
  Se  Se50  1  0.135430  0.809511  -0.014303  1
  Se  Se51  1  0.330269  0.536909  0.748299  1
  Se  Se52  1  0.362484  0.879407  0.194667  1
  Se  Se53  1  0.864570  0.190489  0.014303  1
  Se  Se54  1  0.971366  0.245624  0.103755  1
  Se  Se55  1  0.027387  0.750000  0.054774  1
  Se  Se56  1  0.132389  0.254376  0.103756  1
  Se  Se57  1  0.028634  0.754376  0.896245  1
  Se  Se58  1  -0.027387  0.250000  -0.054774  1
  Se  Se59  1  0.867611  0.745624  0.896244  1
  Se  Se60  1  0.820071  0.744872  0.385100  1
  Se  Se61  1  0.179929  0.255128  0.614900  1
  Se  Se62  1  0.434971  0.244872  0.614900  1
  Se  Se63  1  0.565029  0.755128  0.385100  1
  Se  Se64  1  0.628280  0.445233  0.503775  1
  Se  Se65  1  0.371720  0.554767  0.496225  1
  Se  Se66  1  0.124505  0.945233  0.496225  1
  Se  Se67  1  0.875495  0.054767  0.503775  1
