# generated using pymatgen
data_SrLa4TiCr4O15
_symmetry_space_group_name_H-M   'P 1'
_cell_length_a   5.55539321
_cell_length_b   5.60044495
_cell_length_c   39.25345005
_cell_angle_alpha   89.96022226
_cell_angle_beta   89.90920291
_cell_angle_gamma   90.06846864
_symmetry_Int_Tables_number   1
_chemical_formula_structural   SrLa4TiCr4O15
_chemical_formula_sum   'Sr4 La16 Ti4 Cr16 O60'
_cell_volume   1221.27708725
_cell_formula_units_Z   4
loop_
 _symmetry_equiv_pos_site_id
 _symmetry_equiv_pos_as_xyz
  1  'x, y, z'
loop_
 _atom_site_type_symbol
 _atom_site_label
 _atom_site_symmetry_multiplicity
 _atom_site_fract_x
 _atom_site_fract_y
 _atom_site_fract_z
 _atom_site_occupancy
  Sr  Sr0  1  0.011170  0.994378  0.049096  1
  Sr  Sr1  1  0.010922  0.991817  0.248934  1
  Sr  Sr2  1  0.012065  0.993449  0.449186  1
  Sr  Sr3  1  0.012285  0.993644  0.649043  1
  La  La4  1  0.017637  0.993052  0.851078  1
  La  La5  1  0.485178  0.499262  0.350592  1
  La  La6  1  0.487120  0.498984  0.150626  1
  La  La7  1  0.487278  0.499404  0.550715  1
  La  La8  1  0.485981  0.495339  0.750831  1
  La  La9  1  0.484823  0.495534  0.950868  1
  La  La10  1  0.511648  0.506748  0.048086  1
  La  La11  1  0.519871  0.507348  0.248363  1
  La  La12  1  0.513244  0.506776  0.648414  1
  La  La13  1  0.512997  0.505878  0.448281  1
  La  La14  1  0.517751  0.507866  0.851013  1
  La  La15  1  0.983839  0.007414  0.150840  1
  La  La16  1  0.983711  0.006979  0.550901  1
  La  La17  1  0.983106  0.006533  0.750870  1
  La  La18  1  0.986088  0.007506  0.351002  1
  La  La19  1  0.983688  0.006923  0.951209  1
  Ti  Ti20  1  0.999907  0.502266  0.098989  1
  Ti  Ti21  1  0.000262  0.501748  0.499074  1
  Ti  Ti22  1  0.000030  0.502420  0.699120  1
  Ti  Ti23  1  0.499351  0.998150  0.299387  1
  Cr  Cr24  1  0.999410  0.500768  0.999694  1
  Cr  Cr25  1  0.999781  0.500639  0.399813  1
  Cr  Cr26  1  0.000144  0.500085  0.599947  1
  Cr  Cr27  1  0.000603  0.500029  0.800282  1
  Cr  Cr28  1  0.000472  0.499336  0.900079  1
  Cr  Cr29  1  0.499112  0.000453  0.099757  1
  Cr  Cr30  1  0.498987  0.999207  0.000040  1
  Cr  Cr31  1  0.498601  0.000034  0.199843  1
  Cr  Cr32  1  0.499384  0.000326  0.499978  1
  Cr  Cr33  1  0.498923  0.000064  0.600241  1
  Cr  Cr34  1  0.500240  0.000908  0.900105  1
  Cr  Cr35  1  0.499297  0.999596  0.400304  1
  Cr  Cr36  1  0.499428  0.999725  0.699971  1
  Cr  Cr37  1  0.500008  0.000799  0.800216  1
  Cr  Cr38  1  0.000908  0.500697  0.200310  1
  Cr  Cr39  1  0.000261  0.499832  0.299861  1
  O  O40  1  0.993071  0.440755  0.050806  1
  O  O41  1  0.992903  0.439834  0.450822  1
  O  O42  1  0.993021  0.438834  0.651122  1
  O  O43  1  0.009530  0.580598  0.949805  1
  O  O44  1  0.990272  0.417980  0.850107  1
  O  O45  1  0.234549  0.234599  0.190903  1
  O  O46  1  0.233620  0.234602  0.590951  1
  O  O47  1  0.234500  0.235696  0.390977  1
  O  O48  1  0.233970  0.240428  0.108384  1
  O  O49  1  0.241051  0.235231  0.308585  1
  O  O50  1  0.231196  0.231625  0.790910  1
  O  O51  1  0.234337  0.241035  0.508421  1
  O  O52  1  0.236321  0.237518  0.991050  1
  O  O53  1  0.234852  0.241030  0.708888  1
  O  O54  1  0.229861  0.230315  0.908724  1
  O  O55  1  0.270271  0.728402  0.007151  1
  O  O56  1  0.265882  0.727857  0.093207  1
  O  O57  1  0.274917  0.725138  0.207371  1
  O  O58  1  0.271101  0.735804  0.293220  1
  O  O59  1  0.273733  0.725499  0.407104  1
  O  O60  1  0.265113  0.728240  0.693373  1
  O  O61  1  0.265682  0.728036  0.493350  1
  O  O62  1  0.273346  0.725002  0.607264  1
  O  O63  1  0.270003  0.730599  0.808856  1
  O  O64  1  0.268388  0.732294  0.890895  1
  O  O65  1  0.496165  0.082442  0.050055  1
  O  O66  1  0.496741  0.071755  0.250864  1
  O  O67  1  0.495527  0.083259  0.650335  1
  O  O68  1  0.490881  0.082802  0.850106  1
  O  O69  1  0.506341  0.924773  0.149841  1
  O  O70  1  0.504120  0.931804  0.349445  1
  O  O71  1  0.496246  0.081830  0.450086  1
  O  O72  1  0.506816  0.924923  0.549932  1
  O  O73  1  0.509273  0.920140  0.750249  1
  O  O74  1  0.508939  0.921043  0.949818  1
  O  O75  1  0.732146  0.266617  0.191119  1
  O  O76  1  0.740881  0.263737  0.108475  1
  O  O77  1  0.733633  0.266096  0.591178  1
  O  O78  1  0.732798  0.267064  0.391058  1
  O  O79  1  0.740335  0.264322  0.708856  1
  O  O80  1  0.732757  0.267675  0.790864  1
  O  O81  1  0.734276  0.259040  0.308638  1
  O  O82  1  0.740675  0.264419  0.508485  1
  O  O83  1  0.734378  0.265178  0.991209  1
  O  O84  1  0.731325  0.268607  0.908813  1
  O  O85  1  0.757883  0.757297  0.007022  1
  O  O86  1  0.760063  0.752820  0.093796  1
  O  O87  1  0.759632  0.759885  0.206818  1
  O  O88  1  0.760742  0.752870  0.693724  1
  O  O89  1  0.754392  0.761185  0.293725  1
  O  O90  1  0.759576  0.759079  0.406898  1
  O  O91  1  0.760517  0.752936  0.493877  1
  O  O92  1  0.760163  0.758703  0.607016  1
  O  O93  1  0.767937  0.767271  0.891000  1
  O  O94  1  0.770304  0.769443  0.808718  1
  O  O95  1  0.983997  0.430379  0.250153  1
  O  O96  1  0.007973  0.573357  0.149439  1
  O  O97  1  0.010420  0.580918  0.349833  1
  O  O98  1  0.007605  0.573094  0.549568  1
  O  O99  1  0.007549  0.574372  0.749788  1
