# generated using pymatgen
data_LiLaNb4O12
_symmetry_space_group_name_H-M   'P 1'
_cell_length_a   7.96483947
_cell_length_b   9.79695545
_cell_length_c   11.30451185
_cell_angle_alpha   107.10212797
_cell_angle_beta   90.00000000
_cell_angle_gamma   66.01511079
_symmetry_Int_Tables_number   1
_chemical_formula_structural   LiLaNb4O12
_chemical_formula_sum   'Li3 La3 Nb12 O36'
_cell_volume   763.04865916
_cell_formula_units_Z   3
loop_
 _symmetry_equiv_pos_site_id
 _symmetry_equiv_pos_as_xyz
  1  'x, y, z'
loop_
 _atom_site_type_symbol
 _atom_site_label
 _atom_site_symmetry_multiplicity
 _atom_site_fract_x
 _atom_site_fract_y
 _atom_site_fract_z
 _atom_site_occupancy
  Li  Li0  1  0.833591  0.332817  0.332744  1
  Li  Li1  1  0.333126  0.333748  0.833675  1
  Li  Li2  1  0.167005  0.665989  0.666458  1
  La  La3  1  0.666067  0.667867  0.666888  1
  La  La4  1  0.333743  0.332514  0.332195  1
  La  La5  1  0.000176  0.999648  0.001034  1
  Nb  Nb6  1  0.913750  0.672776  0.413768  1
  Nb  Nb7  1  0.751164  0.994654  0.250760  1
  Nb  Nb8  1  0.915279  0.664708  0.920628  1
  Nb  Nb9  1  0.420013  0.664708  0.920628  1
  Nb  Nb10  1  0.748366  0.003090  0.748811  1
  Nb  Nb11  1  0.581819  0.335886  0.081699  1
  Nb  Nb12  1  0.586625  0.328611  0.584231  1
  Nb  Nb13  1  0.254182  0.994654  0.250760  1
  Nb  Nb14  1  0.413474  0.672776  0.413768  1
  Nb  Nb15  1  0.084764  0.328611  0.584231  1
  Nb  Nb16  1  0.082296  0.335886  0.081699  1
  Nb  Nb17  1  0.248544  0.003090  0.748811  1
  O  O18  1  0.837666  0.846139  0.076923  1
  O  O19  1  0.837120  0.831386  0.831446  1
  O  O20  1  0.833218  0.833590  0.333185  1
  O  O21  1  0.991934  0.513007  0.743333  1
  O  O22  1  0.835027  0.817977  0.590353  1
  O  O23  1  0.824290  0.351420  0.580864  1
  O  O24  1  0.842046  0.315906  0.086247  1
  O  O25  1  0.664428  0.671145  0.903365  1
  O  O26  1  0.672909  0.654183  0.428849  1
  O  O27  1  0.508022  0.983957  0.750828  1
  O  O28  1  0.993669  0.012663  0.238470  1
  O  O29  1  0.346996  0.817977  0.590353  1
  O  O30  1  0.495059  0.513007  0.743333  1
  O  O31  1  0.678336  0.155868  0.922076  1
  O  O32  1  0.333191  0.833590  0.333185  1
  O  O33  1  0.331492  0.831386  0.831446  1
  O  O34  1  0.667961  0.168534  0.167718  1
  O  O35  1  0.499382  0.499971  0.500989  1
  O  O36  1  0.501797  0.485447  0.258176  1
  O  O37  1  0.653772  0.181708  0.409134  1
  O  O38  1  0.316195  0.846139  0.076923  1
  O  O39  1  0.651811  0.173653  0.673926  1
  O  O40  1  0.492228  0.493012  0.992759  1
  O  O41  1  0.489886  0.020227  0.250352  1
  O  O42  1  0.336124  0.327752  0.093530  1
  O  O43  1  0.176375  0.647251  0.420757  1
  O  O44  1  0.159334  0.681331  0.911051  1
  O  O45  1  0.327882  0.344237  0.575066  1
  O  O46  1  0.004957  0.990088  0.760546  1
  O  O47  1  0.014760  0.493012  0.992759  1
  O  O48  1  0.174536  0.173653  0.673926  1
  O  O49  1  0.164519  0.181708  0.409134  1
  O  O50  1  0.012755  0.485447  0.258176  1
  O  O51  1  0.000646  0.499971  0.500989  1
  O  O52  1  0.163505  0.168534  0.167718  1
  O  O53  1  0.165796  0.155868  0.922076  1
