# generated using pymatgen
data_K2P2H2O7
_symmetry_space_group_name_H-M   'P 1'
_cell_length_a   11.18348338
_cell_length_b   8.44362832
_cell_length_c   8.39625225
_cell_angle_alpha   87.04975820
_cell_angle_beta   85.44737677
_cell_angle_gamma   81.15470838
_symmetry_Int_Tables_number   1
_chemical_formula_structural   K2P2H2O7
_chemical_formula_sum   'K8 P8 H8 O28'
_cell_volume   780.32941154
_cell_formula_units_Z   4
loop_
 _symmetry_equiv_pos_site_id
 _symmetry_equiv_pos_as_xyz
  1  'x, y, z'
loop_
 _atom_site_type_symbol
 _atom_site_label
 _atom_site_symmetry_multiplicity
 _atom_site_fract_x
 _atom_site_fract_y
 _atom_site_fract_z
 _atom_site_occupancy
  K  K0  1  0.915346  0.373265  0.718574  1
  K  K1  1  0.084654  0.626735  0.281426  1
  K  K2  1  0.055593  0.789476  0.755755  1
  K  K3  1  0.944407  0.210524  0.244245  1
  K  K4  1  0.579680  0.192048  0.586594  1
  K  K5  1  0.420320  0.807952  0.413406  1
  K  K6  1  0.558004  0.705918  0.796313  1
  K  K7  1  0.441996  0.294082  0.203687  1
  P  P8  1  0.216100  0.216465  0.485385  1
  P  P9  1  0.783900  0.783535  0.514615  1
  P  P10  1  0.195860  0.353136  0.940838  1
  P  P11  1  0.804140  0.646864  0.059162  1
  P  P12  1  0.296770  0.497354  0.632223  1
  P  P13  1  0.703230  0.502646  0.367777  1
  P  P14  1  0.289245  0.045240  0.787058  1
  P  P15  1  0.710755  0.954760  0.212942  1
  H  H16  1  0.819380  0.006722  0.741670  1
  H  H17  1  0.180620  0.993278  0.258330  1
  H  H18  1  0.857687  0.055042  0.904608  1
  H  H19  1  0.142313  0.944958  0.095392  1
  H  H20  1  0.541686  0.290891  0.902500  1
  H  H21  1  0.458314  0.709109  0.097500  1
  H  H22  1  0.665143  0.202246  0.974049  1
  H  H23  1  0.334857  0.797754  0.025951  1
  O  O24  1  0.312775  0.331838  0.530081  1
  O  O25  1  0.687225  0.668162  0.469919  1
  O  O26  1  0.194225  0.467267  0.774658  1
  O  O27  1  0.805774  0.532733  0.225342  1
  O  O28  1  0.301431  0.203530  0.883293  1
  O  O29  1  0.698569  0.796470  0.116707  1
  O  O30  1  0.194048  0.114735  0.653963  1
  O  O31  1  0.805952  0.885265  0.346037  1
  O  O32  1  0.283898  0.106001  0.363056  1
  O  O33  1  0.716102  0.893999  0.636944  1
  O  O34  1  0.096342  0.312661  0.451584  1
  O  O35  1  0.903658  0.687339  0.548416  1
  O  O36  1  0.248130  0.431065  0.069020  1
  O  O37  1  0.751870  0.568935  0.930980  1
  O  O38  1  0.072758  0.304344  0.963804  1
  O  O39  1  0.927242  0.695656  0.036196  1
  O  O40  1  0.238357  0.636036  0.532116  1
  O  O41  1  0.761643  0.363964  0.467884  1
  O  O42  1  0.419163  0.501109  0.690924  1
  O  O43  1  0.580837  0.498891  0.309076  1
  O  O44  1  0.412472  0.986944  0.708566  1
  O  O45  1  0.587528  0.013056  0.291434  1
  O  O46  1  0.227899  0.928987  0.895093  1
  O  O47  1  0.772101  0.071013  0.104907  1
  O  O48  1  0.883675  0.052288  0.789680  1
  O  O49  1  0.116325  0.947712  0.210320  1
  O  O50  1  0.629943  0.279831  0.892101  1
  O  O51  1  0.370057  0.720169  0.107899  1
