# generated using pymatgen
data_Li4Cr3GaO8
_symmetry_space_group_name_H-M   'P 1'
_cell_length_a   5.13331732
_cell_length_b   5.93130758
_cell_length_c   5.92809153
_cell_angle_alpha   60.01605390
_cell_angle_beta   89.99961110
_cell_angle_gamma   73.25113221
_symmetry_Int_Tables_number   1
_chemical_formula_structural   Li4Cr3GaO8
_chemical_formula_sum   'Li4 Cr3 Ga1 O8'
_cell_volume   147.43172687
_cell_formula_units_Z   1
loop_
 _symmetry_equiv_pos_site_id
 _symmetry_equiv_pos_as_xyz
  1  'x, y, z'
loop_
 _atom_site_type_symbol
 _atom_site_label
 _atom_site_symmetry_multiplicity
 _atom_site_fract_x
 _atom_site_fract_y
 _atom_site_fract_z
 _atom_site_occupancy
  Li  Li0  1  0.999355  0.000334  0.999835  1
  Li  Li1  1  0.000644  0.999666  0.500165  1
  Li  Li2  1  0.500000  0.000000  0.250000  1
  Li  Li3  1  0.500000  0.000000  0.750000  1
  Cr  Cr4  1  0.999995  0.499999  0.000274  1
  Cr  Cr5  1  0.000005  0.500001  0.499726  1
  Cr  Cr6  1  0.500000  0.500000  0.750000  1
  Ga  Ga7  1  0.500000  0.500000  0.250000  1
  O  O8  1  0.242299  0.273995  0.363016  1
  O  O9  1  0.241474  0.275618  0.862200  1
  O  O10  1  0.741549  0.274240  0.113205  1
  O  O11  1  0.258450  0.725761  0.386795  1
  O  O12  1  0.258461  0.725749  0.887469  1
  O  O13  1  0.757702  0.726005  0.136984  1
  O  O14  1  0.741539  0.274251  0.612530  1
  O  O15  1  0.758526  0.724381  0.637801  1
