# generated using pymatgen
data_Na5Ni2As(CO4)4
_symmetry_space_group_name_H-M   'P 1'
_cell_length_a   9.95923271
_cell_length_b   9.95225827
_cell_length_c   9.95923271
_cell_angle_alpha   59.86473020
_cell_angle_beta   90.19384651
_cell_angle_gamma   120.13526980
_symmetry_Int_Tables_number   1
_chemical_formula_structural   Na5Ni2As(CO4)4
_chemical_formula_sum   'Na10 Ni4 As2 C8 O32'
_cell_volume   696.32705002
_cell_formula_units_Z   2
loop_
 _symmetry_equiv_pos_site_id
 _symmetry_equiv_pos_as_xyz
  1  'x, y, z'
loop_
 _atom_site_type_symbol
 _atom_site_label
 _atom_site_symmetry_multiplicity
 _atom_site_fract_x
 _atom_site_fract_y
 _atom_site_fract_z
 _atom_site_occupancy
  Na  Na0  1  0.667611  0.319456  0.094406  1
  Na  Na1  1  0.347027  0.261435  0.332899  1
  Na  Na2  1  0.905594  0.819456  0.332389  1
  Na  Na3  1  0.905667  0.238565  0.914408  1
  Na  Na4  1  0.085592  0.738565  0.094333  1
  Na  Na5  1  0.086138  0.180544  0.651845  1
  Na  Na6  1  0.667101  0.761435  0.652973  1
  Na  Na7  1  0.339694  0.250000  0.910306  1
  Na  Na8  1  0.348155  0.680544  0.913862  1
  Na  Na9  1  0.089694  0.750000  0.660306  1
  Ni  Ni10  1  0.499844  0.997329  0.002188  1
  Ni  Ni11  1  0.502514  0.002671  0.499517  1
  Ni  Ni12  1  0.500483  0.502671  0.497486  1
  Ni  Ni13  1  0.997812  0.497329  0.500156  1
  As  As14  1  0.123497  0.250000  0.126503  1
  As  As15  1  0.873497  0.750000  0.876503  1
  C  C16  1  0.713357  0.071916  0.715086  1
  C  C17  1  0.712999  0.428084  0.358558  1
  C  C18  1  0.354889  0.069987  0.714936  1
  C  C19  1  0.715077  0.430013  0.715098  1
  C  C20  1  0.284914  0.571916  0.286643  1
  C  C21  1  0.641442  0.928084  0.287001  1
  C  C22  1  0.284902  0.930013  0.284923  1
  C  C23  1  0.285064  0.569987  0.645111  1
  O  O24  1  0.647808  0.047690  0.143822  1
  O  O25  1  0.689675  0.291895  0.351840  1
  O  O26  1  0.856265  0.208105  0.602220  1
  O  O27  1  0.399512  0.048638  0.308852  1
  O  O28  1  0.856178  0.547690  0.352192  1
  O  O29  1  0.335475  0.389907  0.054734  1
  O  O30  1  0.055358  0.110093  0.054432  1
  O  O31  1  0.595497  0.447571  0.363925  1
  O  O32  1  0.688504  0.052429  0.852075  1
  O  O33  1  0.353554  0.043308  0.599722  1
  O  O34  1  0.856969  0.456692  0.689754  1
  O  O35  1  0.060060  0.398050  0.043625  1
  O  O36  1  0.058325  0.101950  0.337991  1
  O  O37  1  0.397780  0.708105  0.143735  1
  O  O38  1  0.648160  0.791895  0.310325  1
  O  O39  1  0.691148  0.548638  0.600488  1
  O  O40  1  0.308487  0.452310  0.399884  1
  O  O41  1  0.351291  0.208978  0.689819  1
  O  O42  1  0.601203  0.291022  0.857687  1
  O  O43  1  0.945568  0.610093  0.944642  1
  O  O44  1  0.945266  0.889907  0.664525  1
  O  O45  1  0.147925  0.552429  0.311496  1
  O  O46  1  0.636075  0.947571  0.404503  1
  O  O47  1  0.310246  0.956692  0.143031  1
  O  O48  1  0.400278  0.543308  0.646446  1
  O  O49  1  0.956375  0.898050  0.939940  1
  O  O50  1  0.662009  0.601950  0.941675  1
  O  O51  1  0.142510  0.451362  0.649126  1
  O  O52  1  0.600116  0.952310  0.691513  1
  O  O53  1  0.310181  0.708978  0.648709  1
  O  O54  1  0.142313  0.791022  0.398797  1
  O  O55  1  0.350874  0.951362  0.857490  1
