# generated using pymatgen
data_Zr2N2O
_symmetry_space_group_name_H-M   'P 1'
_cell_length_a   8.87085945
_cell_length_b   8.87714681
_cell_length_c   8.86589434
_cell_angle_alpha   109.27898485
_cell_angle_beta   109.40271658
_cell_angle_gamma   109.59068889
_symmetry_Int_Tables_number   1
_chemical_formula_structural   Zr2N2O
_chemical_formula_sum   'Zr16 N16 O8'
_cell_volume   538.38406273
_cell_formula_units_Z   8
loop_
 _symmetry_equiv_pos_site_id
 _symmetry_equiv_pos_as_xyz
  1  'x, y, z'
loop_
 _atom_site_type_symbol
 _atom_site_label
 _atom_site_symmetry_multiplicity
 _atom_site_fract_x
 _atom_site_fract_y
 _atom_site_fract_z
 _atom_site_occupancy
  Zr  Zr0  1  0.752006  0.967508  0.206866  1
  Zr  Zr1  1  0.030479  0.775943  0.244055  1
  Zr  Zr2  1  0.996158  0.988921  0.990212  1
  Zr  Zr3  1  0.529278  0.279749  0.253544  1
  Zr  Zr4  1  0.502358  0.502953  0.003336  1
  Zr  Zr5  1  0.489095  0.991306  0.488824  1
  Zr  Zr6  1  0.259252  0.542088  0.290093  1
  Zr  Zr7  1  0.297562  0.266477  0.547630  1
  Zr  Zr8  1  0.712316  0.746611  0.460878  1
  Zr  Zr9  1  0.785640  0.251056  0.044376  1
  Zr  Zr10  1  0.205479  0.747017  0.959583  1
  Zr  Zr11  1  0.749578  0.461038  0.714971  1
  Zr  Zr12  1  0.010307  0.499525  0.501036  1
  Zr  Zr13  1  0.972959  0.216311  0.750137  1
  Zr  Zr14  1  0.465255  0.715536  0.743889  1
  Zr  Zr15  1  0.240752  0.028224  0.787397  1
  N  N16  1  0.732029  0.969281  0.961529  1
  N  N17  1  0.757539  0.226351  0.273864  1
  N  N18  1  0.452897  0.482726  0.225199  1
  N  N19  1  0.771143  0.733813  0.240949  1
  N  N20  1  0.493215  0.229428  0.460329  1
  N  N21  1  0.228606  0.271072  0.763729  1
  N  N22  1  0.987093  0.531827  0.257447  1
  N  N23  1  0.512265  0.776301  0.544885  1
  N  N24  1  0.953650  0.729464  0.967859  1
  N  N25  1  0.547920  0.514713  0.778013  1
  N  N26  1  0.225311  0.450585  0.485414  1
  N  N27  1  0.278930  0.767567  0.228895  1
  N  N28  1  0.962528  0.951041  0.726714  1
  N  N29  1  0.239755  0.772654  0.724941  1
  N  N30  1  0.006294  0.463747  0.737492  1
  N  N31  1  0.271933  0.037374  0.042919  1
  O  O32  1  0.538906  0.264442  0.984742  1
  O  O33  1  0.739072  0.015920  0.469851  1
  O  O34  1  0.040900  0.272993  0.027320  1
  O  O35  1  0.724808  0.235074  0.774302  1
  O  O36  1  0.772478  0.548756  0.515470  1
  O  O37  1  0.036584  0.047246  0.275945  1
  O  O38  1  0.465927  0.738830  0.013762  1
  O  O39  1  0.261745  0.988533  0.531604  1
