# generated using pymatgen
data_Li2MnCr3O8
_symmetry_space_group_name_H-M   'P 1'
_cell_length_a   5.89190516
_cell_length_b   5.96184785
_cell_length_c   6.00326491
_cell_angle_alpha   121.03522847
_cell_angle_beta   60.52929105
_cell_angle_gamma   90.12295283
_symmetry_Int_Tables_number   1
_chemical_formula_structural   Li2MnCr3O8
_chemical_formula_sum   'Li2 Mn1 Cr3 O8'
_cell_volume   148.09847183
_cell_formula_units_Z   1
loop_
 _symmetry_equiv_pos_site_id
 _symmetry_equiv_pos_as_xyz
  1  'x, y, z'
loop_
 _atom_site_type_symbol
 _atom_site_label
 _atom_site_symmetry_multiplicity
 _atom_site_fract_x
 _atom_site_fract_y
 _atom_site_fract_z
 _atom_site_occupancy
  Li  Li0  1  0.500038  0.500017  -0.000018  1
  Li  Li1  1  0.999983  0.500050  0.000063  1
  Mn  Mn2  1  0.000026  0.000090  0.000091  1
  Cr  Cr3  1  0.499937  0.499969  0.500015  1
  Cr  Cr4  1  0.500063  -0.000078  -0.000112  1
  Cr  Cr5  1  -0.000092  0.500070  0.499998  1
  O  O6  1  0.727058  0.725870  0.527270  1
  O  O7  1  0.239429  0.737750  0.534853  1
  O  O8  1  0.742523  0.242898  0.029717  1
  O  O9  1  0.771074  0.760854  0.971720  1
  O  O10  1  0.229009  0.239174  0.028285  1
  O  O11  1  0.257464  0.757073  0.970261  1
  O  O12  1  0.760622  0.262269  0.465106  1
  O  O13  1  0.272864  0.273991  0.472748  1
