# generated using pymatgen
data_Li5V3P8O29
_symmetry_space_group_name_H-M   'P 1'
_cell_length_a   9.77937912
_cell_length_b   9.79763286
_cell_length_c   13.98574200
_cell_angle_alpha   90.22806917
_cell_angle_beta   90.21346163
_cell_angle_gamma   60.06453458
_symmetry_Int_Tables_number   1
_chemical_formula_structural   Li5V3P8O29
_chemical_formula_sum   'Li10 V6 P16 O58'
_cell_volume   1161.25159836
_cell_formula_units_Z   2
loop_
 _symmetry_equiv_pos_site_id
 _symmetry_equiv_pos_as_xyz
  1  'x, y, z'
loop_
 _atom_site_type_symbol
 _atom_site_label
 _atom_site_symmetry_multiplicity
 _atom_site_fract_x
 _atom_site_fract_y
 _atom_site_fract_z
 _atom_site_occupancy
  Li  Li0  1  0.773866  0.904655  0.555270  1
  Li  Li1  1  0.906031  0.324605  0.559833  1
  Li  Li2  1  0.765125  0.338467  0.060970  1
  Li  Li3  1  0.332970  0.904101  0.061241  1
  Li  Li4  1  0.679136  0.225895  0.438174  1
  Li  Li5  1  0.312946  0.773650  0.559294  1
  Li  Li6  1  0.669239  0.093728  0.940637  1
  Li  Li7  1  0.234376  0.663296  0.942447  1
  Li  Li8  1  0.228690  0.093334  0.439063  1
  Li  Li9  1  0.999777  0.001378  0.004464  1
  V  V10  1  0.567062  0.434072  0.252437  1
  V  V11  1  0.431195  0.567568  0.747277  1
  V  V12  1  0.566533  0.996755  0.750269  1
  V  V13  1  0.432984  0.000468  0.248444  1
  V  V14  1  0.997623  0.570615  0.247432  1
  V  V15  1  0.004657  0.433732  0.756129  1
  P  P16  1  0.917482  0.775736  0.843541  1
  P  P17  1  0.771007  0.910849  0.338298  1
  P  P18  1  0.915175  0.319026  0.343933  1
  P  P19  1  0.667613  0.664253  0.127143  1
  P  P20  1  0.669345  0.663989  0.629474  1
  P  P21  1  0.771825  0.316312  0.840830  1
  P  P22  1  0.680529  0.229912  0.657704  1
  P  P23  1  0.314614  0.911255  0.843532  1
  P  P24  1  0.685070  0.089955  0.156179  1
  P  P25  1  0.318995  0.770279  0.343205  1
  P  P26  1  0.226895  0.685527  0.159961  1
  P  P27  1  0.330346  0.333197  0.370322  1
  P  P28  1  0.335591  0.334668  0.872617  1
  P  P29  1  0.082940  0.684860  0.655365  1
  P  P30  1  0.229571  0.089126  0.660536  1
  P  P31  1  0.083123  0.226041  0.158242  1
  O  O32  1  0.990341  0.764883  0.568602  1
  O  O33  1  0.915873  0.743940  0.334878  1
  O  O34  1  0.773031  0.017011  0.065531  1
  O  O35  1  0.747956  0.915468  0.841909  1
  O  O36  1  0.915695  0.617303  0.829834  1
  O  O37  1  0.813070  0.668833  0.175550  1
  O  O38  1  0.905010  0.477776  0.323479  1
  O  O39  1  0.991243  0.212915  0.075876  1
  O  O40  1  0.916561  0.341370  0.834466  1
  O  O41  1  0.673018  0.814269  0.670055  1
  O  O42  1  0.619138  0.902954  0.321390  1
  O  O43  1  0.816402  0.514367  0.674151  1
  O  O44  1  0.673974  0.661247  0.020550  1
  O  O45  1  0.674190  0.659057  0.522793  1
  O  O46  1  0.677631  0.510200  0.167302  1
  O  O47  1  0.472046  0.908742  0.830740  1
  O  O48  1  0.512736  0.810576  0.165516  1
  O  O49  1  0.749686  0.335018  0.343792  1
  O  O50  1  0.792015  0.206890  0.748852  1
  O  O51  1  0.756058  0.245263  0.567945  1
  O  O52  1  0.779533  0.225836  0.929822  1
  O  O53  1  0.618873  0.471715  0.828987  1
  O  O54  1  0.513710  0.673424  0.667875  1
  O  O55  1  0.659637  0.259884  0.164216  1
  O  O56  1  0.479725  0.620042  0.321816  1
  O  O57  1  0.338141  0.918049  0.339414  1
  O  O58  1  0.793313  0.001210  0.248775  1
  O  O59  1  0.759929  0.998959  0.429107  1
  O  O60  1  0.239597  0.001810  0.569897  1
  O  O61  1  0.662859  0.082740  0.657124  1
  O  O62  1  0.520158  0.380082  0.677052  1
  O  O63  1  0.339722  0.741622  0.835943  1
  O  O64  1  0.485449  0.327873  0.333522  1
  O  O65  1  0.380163  0.529604  0.169982  1
  O  O66  1  0.219064  0.777175  0.070783  1
  O  O67  1  0.247562  0.759325  0.434085  1
  O  O68  1  0.207414  0.793621  0.251843  1
  O  O69  1  0.250908  0.662966  0.656624  1
  O  O70  1  0.488865  0.186808  0.833075  1
  O  O71  1  0.528953  0.091936  0.169028  1
  O  O72  1  0.323282  0.489173  0.832726  1
  O  O73  1  0.328152  0.336881  0.978998  1
  O  O74  1  0.324694  0.334822  0.476910  1
  O  O75  1  0.184576  0.477021  0.320151  1
  O  O76  1  0.377961  0.101849  0.678177  1
  O  O77  1  0.326657  0.183881  0.330453  1
  O  O78  1  0.082549  0.660697  0.164495  1
  O  O79  1  0.999076  0.793353  0.748311  1
  O  O80  1  0.008311  0.780867  0.928117  1
  O  O81  1  0.091439  0.524663  0.677728  1
  O  O82  1  0.188324  0.329554  0.824917  1
  O  O83  1  0.081857  0.383040  0.168686  1
  O  O84  1  0.254477  0.084420  0.158354  1
  O  O85  1  0.229361  0.984673  0.934708  1
  O  O86  1  0.206017  0.000968  0.751176  1
  O  O87  1  0.080923  0.256151  0.661811  1
  O  O88  1  0.002923  0.244425  0.435267  1
  O  O89  1  0.008479  0.203302  0.256472  1
