# generated using pymatgen
data_HoInO3
_symmetry_space_group_name_H-M   'P 1'
_cell_length_a   6.33981129
_cell_length_b   6.33971645
_cell_length_c   12.33347328
_cell_angle_alpha   89.99950447
_cell_angle_beta   90.00077802
_cell_angle_gamma   120.00013131
_symmetry_Int_Tables_number   1
_chemical_formula_structural   HoInO3
_chemical_formula_sum   'Ho6 In6 O18'
_cell_volume   429.30072250
_cell_formula_units_Z   6
loop_
 _symmetry_equiv_pos_site_id
 _symmetry_equiv_pos_as_xyz
  1  'x, y, z'
loop_
 _atom_site_type_symbol
 _atom_site_label
 _atom_site_symmetry_multiplicity
 _atom_site_fract_x
 _atom_site_fract_y
 _atom_site_fract_z
 _atom_site_occupancy
  Ho  Ho0  1  0.333333  0.666665  0.230223  1
  Ho  Ho1  1  0.999995  -0.000004  0.265596  1
  Ho  Ho2  1  -0.000002  0.000016  0.765600  1
  Ho  Ho3  1  0.333334  0.666680  0.730228  1
  Ho  Ho4  1  0.666675  0.333344  0.730219  1
  Ho  Ho5  1  0.666649  0.333320  0.230221  1
  In  In6  1  0.999944  0.666723  0.495925  1
  In  In7  1  0.000036  0.333273  0.995931  1
  In  In8  1  0.333242  0.333363  0.495891  1
  In  In9  1  0.666740  0.666632  0.995890  1
  In  In10  1  0.333298  0.000079  0.995896  1
  In  In11  1  0.666680  0.999915  0.495897  1
  O  O12  1  0.999990  0.694789  0.668755  1
  O  O13  1  0.000003  0.636337  0.325346  1
  O  O14  1  0.000002  0.363661  0.825349  1
  O  O15  1  0.999991  0.305214  0.168758  1
  O  O16  1  0.333355  0.666670  0.027687  1
  O  O17  1  0.999974  0.999998  0.459878  1
  O  O18  1  0.000003  0.000004  0.959878  1
  O  O19  1  0.333312  0.666674  0.527683  1
  O  O20  1  0.305190  0.305211  0.668752  1
  O  O21  1  0.363652  0.363646  0.325338  1
  O  O22  1  0.305194  0.999996  0.168752  1
  O  O23  1  0.636354  0.636346  0.825340  1
  O  O24  1  0.694795  0.694798  0.168752  1
  O  O25  1  0.363652  0.000005  0.825342  1
  O  O26  1  0.666624  0.333326  0.527686  1
  O  O27  1  0.666665  0.333316  0.027691  1
  O  O28  1  0.636340  0.000002  0.325339  1
  O  O29  1  0.694780  -0.000002  0.668752  1
