# generated using pymatgen
data_LiNbTe2WO12
_symmetry_space_group_name_H-M   'P 1'
_cell_length_a   5.38150942
_cell_length_b   10.77151873
_cell_length_c   9.45113759
_cell_angle_alpha   28.84872450
_cell_angle_beta   52.36784172
_cell_angle_gamma   57.59285739
_symmetry_Int_Tables_number   1
_chemical_formula_structural   LiNbTe2WO12
_chemical_formula_sum   'Li1 Nb1 Te2 W1 O12'
_cell_volume   209.34162124
_cell_formula_units_Z   1
loop_
 _symmetry_equiv_pos_site_id
 _symmetry_equiv_pos_as_xyz
  1  'x, y, z'
loop_
 _atom_site_type_symbol
 _atom_site_label
 _atom_site_symmetry_multiplicity
 _atom_site_fract_x
 _atom_site_fract_y
 _atom_site_fract_z
 _atom_site_occupancy
  Li  Li0  1  0.764467  0.000960  0.757605  1
  Nb  Nb1  1  0.008632  0.496185  0.989917  1
  Te  Te2  1  0.495243  0.502193  0.492515  1
  Te  Te3  1  0.498398  0.996146  0.500696  1
  W  W4  1  0.987768  0.004761  0.996804  1
  O  O5  1  0.358400  0.297735  0.148664  1
  O  O6  1  0.242160  0.097795  0.653264  1
  O  O7  1  0.139734  0.300928  0.750225  1
  O  O8  1  0.846270  0.187194  0.263483  1
  O  O9  1  0.364000  0.806795  0.128440  1
  O  O10  1  0.737728  0.380015  0.375343  1
  O  O11  1  0.254588  0.607346  0.630872  1
  O  O12  1  0.642339  0.201204  0.846668  1
  O  O13  1  0.133781  0.816398  0.739333  1
  O  O14  1  0.845452  0.707601  0.234487  1
  O  O15  1  0.747191  0.893161  0.351370  1
  O  O16  1  0.641049  0.703582  0.847512  1
