# generated using pymatgen
data_FeCoPO4F
_symmetry_space_group_name_H-M   'P 1'
_cell_length_a   6.50632890
_cell_length_b   7.32744524
_cell_length_c   9.50863790
_cell_angle_alpha   71.00905427
_cell_angle_beta   69.99346284
_cell_angle_gamma   63.64255029
_symmetry_Int_Tables_number   1
_chemical_formula_structural   FeCoPO4F
_chemical_formula_sum   'Fe4 Co4 P4 O16 F4'
_cell_volume   373.48920851
_cell_formula_units_Z   4
loop_
 _symmetry_equiv_pos_site_id
 _symmetry_equiv_pos_as_xyz
  1  'x, y, z'
loop_
 _atom_site_type_symbol
 _atom_site_label
 _atom_site_symmetry_multiplicity
 _atom_site_fract_x
 _atom_site_fract_y
 _atom_site_fract_z
 _atom_site_occupancy
  Fe  Fe0  1  0.917575  0.227186  0.354030  1
  Fe  Fe1  1  0.419677  0.876330  0.497889  1
  Fe  Fe2  1  0.501208  0.727186  0.854030  1
  Fe  Fe3  1  0.206104  0.376330  0.997889  1
  Co  Co4  1  0.348606  0.452623  0.372291  1
  Co  Co5  1  0.892290  0.785409  0.219956  1
  Co  Co6  1  0.102345  0.285409  0.719956  1
  Co  Co7  1  0.826480  0.952623  0.872291  1
  P  P8  1  0.725111  0.298654  0.054891  1
  P  P9  1  0.921345  0.798654  0.554891  1
  P  P10  1  0.571685  0.382184  0.667541  1
  P  P11  1  0.378591  0.882184  0.167541  1
  O  O12  1  0.211386  0.114559  0.171947  1
  O  O13  1  0.783147  0.067981  0.062831  1
  O  O14  1  0.547364  0.806204  0.275390  1
  O  O15  1  0.230132  0.744865  0.224691  1
  O  O16  1  0.766852  0.829699  0.718039  1
  O  O17  1  0.494694  0.444283  0.996909  1
  O  O18  1  0.800312  0.244865  0.724691  1
  O  O19  1  0.521690  0.867210  0.000854  1
  O  O20  1  0.766687  0.870433  0.438991  1
  O  O21  1  0.610246  0.367210  0.500854  1
  O  O22  1  0.371041  0.306204  0.775390  1
  O  O23  1  0.086041  0.567981  0.562831  1
  O  O24  1  0.923889  0.370433  0.938991  1
  O  O25  1  0.502108  0.614559  0.671947  1
  O  O26  1  0.064114  0.944283  0.496909  1
  O  O27  1  0.685411  0.329699  0.218039  1
  F  F28  1  0.015709  0.678024  0.009942  1
  F  F29  1  0.038869  0.457658  0.300510  1
  F  F30  1  0.296325  0.178024  0.509942  1
  F  F31  1  0.202964  0.957658  0.800510  1
