# generated using pymatgen
data_LiFeNiO4
_symmetry_space_group_name_H-M   'P 1'
_cell_length_a   5.92778453
_cell_length_b   5.92778396
_cell_length_c   5.86058551
_cell_angle_alpha   119.75027450
_cell_angle_beta   119.75027980
_cell_angle_gamma   91.18045575
_symmetry_Int_Tables_number   1
_chemical_formula_structural   LiFeNiO4
_chemical_formula_sum   'Li2 Fe2 Ni2 O8'
_cell_volume   145.17322414
_cell_formula_units_Z   2
loop_
 _symmetry_equiv_pos_site_id
 _symmetry_equiv_pos_as_xyz
  1  'x, y, z'
loop_
 _atom_site_type_symbol
 _atom_site_label
 _atom_site_symmetry_multiplicity
 _atom_site_fract_x
 _atom_site_fract_y
 _atom_site_fract_z
 _atom_site_occupancy
  Li  Li0  1  0.000000  0.500000  0.500000  1
  Li  Li1  1  0.500000  0.000000  0.000000  1
  Fe  Fe2  1  0.000000  0.000000  0.500000  1
  Fe  Fe3  1  0.000000  0.000000  0.000000  1
  Ni  Ni4  1  0.000000  0.500000  0.000000  1
  Ni  Ni5  1  0.500000  0.000000  0.500000  1
  O  O6  1  0.223473  0.777143  0.489881  1
  O  O7  1  0.218209  0.219049  0.469686  1
  O  O8  1  0.222857  0.776527  0.010119  1
  O  O9  1  0.219049  0.218209  0.969686  1
  O  O10  1  0.780951  0.781791  0.030314  1
  O  O11  1  0.777143  0.223473  0.989881  1
  O  O12  1  0.781791  0.780951  0.530314  1
  O  O13  1  0.776527  0.222857  0.510119  1
