# generated using pymatgen
data_NaFeP3H7O13
_symmetry_space_group_name_H-M   'P 1'
_cell_length_a   8.91854684
_cell_length_b   12.71062632
_cell_length_c   19.10278176
_cell_angle_alpha   90.00000000
_cell_angle_beta   90.00000000
_cell_angle_gamma   90.00000000
_symmetry_Int_Tables_number   1
_chemical_formula_structural   NaFeP3H7O13
_chemical_formula_sum   'Na8 Fe8 P24 H56 O104'
_cell_volume   2165.49738063
_cell_formula_units_Z   8
loop_
 _symmetry_equiv_pos_site_id
 _symmetry_equiv_pos_as_xyz
  1  'x, y, z'
loop_
 _atom_site_type_symbol
 _atom_site_label
 _atom_site_symmetry_multiplicity
 _atom_site_fract_x
 _atom_site_fract_y
 _atom_site_fract_z
 _atom_site_occupancy
  Na  Na0  1  0.191346  0.984925  0.268352  1
  Na  Na1  1  0.308654  0.515075  0.768352  1
  Na  Na2  1  0.691346  0.515075  0.731648  1
  Na  Na3  1  0.808654  0.984925  0.231648  1
  Na  Na4  1  0.808654  0.015075  0.731648  1
  Na  Na5  1  0.691346  0.484925  0.231648  1
  Na  Na6  1  0.308654  0.484925  0.268352  1
  Na  Na7  1  0.191346  0.015075  0.768352  1
  Fe  Fe8  1  0.251497  0.753761  0.875057  1
  Fe  Fe9  1  0.248503  0.746239  0.375057  1
  Fe  Fe10  1  0.751497  0.746239  0.124943  1
  Fe  Fe11  1  0.748503  0.753761  0.624943  1
  Fe  Fe12  1  0.748503  0.246239  0.124943  1
  Fe  Fe13  1  0.751497  0.253761  0.624943  1
  Fe  Fe14  1  0.248503  0.253761  0.875057  1
  Fe  Fe15  1  0.251497  0.246239  0.375057  1
  P  P16  1  0.051085  0.791520  0.021320  1
  P  P17  1  0.448915  0.708480  0.521320  1
  P  P18  1  0.551085  0.708480  0.978680  1
  P  P19  1  0.948915  0.791520  0.478680  1
  P  P20  1  0.948915  0.208480  0.978680  1
  P  P21  1  0.551085  0.291520  0.478680  1
  P  P22  1  0.448915  0.291520  0.021320  1
  P  P23  1  0.051085  0.208480  0.521320  1
  P  P24  1  0.500000  0.788447  0.750000  1
  P  P25  1  0.000000  0.711553  0.250000  1
  P  P26  1  0.500000  0.211553  0.250000  1
  P  P27  1  0.000000  0.288447  0.750000  1
  P  P28  1  0.000000  0.707464  0.750000  1
  P  P29  1  0.500000  0.792536  0.250000  1
  P  P30  1  0.000000  0.292536  0.250000  1
  P  P31  1  0.500000  0.207464  0.750000  1
  P  P32  1  0.152254  0.504699  0.910980  1
  P  P33  1  0.347746  0.995301  0.410980  1
  P  P34  1  0.652254  0.995301  0.089020  1
  P  P35  1  0.847746  0.504699  0.589020  1
  P  P36  1  0.847746  0.495300  0.089020  1
  P  P37  1  0.652254  0.004699  0.589020  1
  P  P38  1  0.347746  0.004699  0.910980  1
  P  P39  1  0.152254  0.495300  0.410980  1
  H  H40  1  0.173119  0.944579  0.018390  1
  H  H41  1  0.326881  0.555421  0.518390  1
  H  H42  1  0.673118  0.555421  0.981610  1
  H  H43  1  0.826882  0.944579  0.481610  1
  H  H44  1  0.826882  0.055421  0.981610  1
  H  H45  1  0.673118  0.444579  0.481610  1
  H  H46  1  0.326881  0.444579  0.018390  1
  H  H47  1  0.173119  0.055421  0.518390  1
  H  H48  1  0.254135  0.704973  0.041447  1
  H  H49  1  0.245865  0.795027  0.541447  1
  H  H50  1  0.754135  0.795027  0.958553  1
  H  H51  1  0.745865  0.704973  0.458553  1
  H  H52  1  0.745865  0.295027  0.958553  1
  H  H53  1  0.754135  0.204973  0.458553  1
  H  H54  1  0.245865  0.204973  0.041447  1
  H  H55  1  0.254135  0.295027  0.541447  1
  H  H56  1  0.624155  0.849087  0.839445  1
  H  H57  1  0.875845  0.650913  0.339445  1
  H  H58  1  0.124155  0.650913  0.160555  1
  H  H59  1  0.375845  0.849087  0.660555  1
  H  H60  1  0.375845  0.150913  0.160555  1
  H  H61  1  0.124155  0.349087  0.660555  1
  H  H62  1  0.875845  0.349087  0.839445  1
  H  H63  1  0.624155  0.150913  0.339445  1
  H  H64  1  0.077162  0.595895  0.666230  1
  H  H65  1  0.422838  0.904105  0.166230  1
  H  H66  1  0.577162  0.904105  0.333770  1
  H  H67  1  0.922838  0.595895  0.833770  1
  H  H68  1  0.922838  0.404105  0.333770  1
  H  H69  1  0.577162  0.095895  0.833770  1
  H  H70  1  0.422838  0.095895  0.666230  1
  H  H71  1  0.077162  0.404105  0.166230  1
  H  H72  1  0.910848  0.505756  0.948586  1
  H  H73  1  0.589152  0.994244  0.448586  1
  H  H74  1  0.410848  0.994244  0.051414  1
  H  H75  1  0.089152  0.505756  0.551414  1
  H  H76  1  0.089152  0.494244  0.051414  1
  H  H77  1  0.410848  0.005756  0.551414  1
  H  H78  1  0.589152  0.005756  0.948586  1
  H  H79  1  0.910848  0.494244  0.448586  1
  H  H80  1  0.059820  0.991827  0.125087  1
  H  H81  1  0.440180  0.508173  0.625087  1
  H  H82  1  0.559820  0.508173  0.874913  1
  H  H83  1  0.940180  0.991827  0.374913  1
  H  H84  1  0.940180  0.008173  0.874913  1
  H  H85  1  0.559820  0.491827  0.374913  1
  H  H86  1  0.440180  0.491827  0.125087  1
  H  H87  1  0.059820  0.008173  0.625087  1
  H  H88  1  0.026555  0.100474  0.163201  1
  H  H89  1  0.473445  0.399526  0.663201  1
  H  H90  1  0.526555  0.399526  0.836799  1
  H  H91  1  0.973445  0.100474  0.336799  1
  H  H92  1  0.973445  0.899526  0.836799  1
  H  H93  1  0.526555  0.600474  0.336799  1
  H  H94  1  0.473445  0.600474  0.163201  1
  H  H95  1  0.026555  0.899526  0.663201  1
  O  O96  1  0.082328  0.777293  0.943795  1
  O  O97  1  0.417672  0.722707  0.443795  1
  O  O98  1  0.582328  0.722707  0.056205  1
  O  O99  1  0.917672  0.777293  0.556205  1
  O  O100  1  0.917672  0.222707  0.056205  1
  O  O101  1  0.582328  0.277293  0.556205  1
  O  O102  1  0.417672  0.277293  0.943795  1
  O  O103  1  0.082328  0.222707  0.443795  1
  O  O104  1  0.890008  0.765351  0.040601  1
  O  O105  1  0.609992  0.734649  0.540601  1
  O  O106  1  0.390008  0.734649  0.959399  1
  O  O107  1  0.109992  0.765351  0.459399  1
  O  O108  1  0.109992  0.234649  0.959399  1
  O  O109  1  0.390008  0.265351  0.459399  1
  O  O110  1  0.609992  0.265351  0.040601  1
  O  O111  1  0.890008  0.234649  0.540601  1
  O  O112  1  0.085921  0.907891  0.045163  1
  O  O113  1  0.414079  0.592109  0.545163  1
  O  O114  1  0.585921  0.592109  0.954837  1
  O  O115  1  0.914079  0.907891  0.454837  1
  O  O116  1  0.914079  0.092109  0.954837  1
  O  O117  1  0.585921  0.407891  0.454837  1
  O  O118  1  0.414079  0.407891  0.045163  1
  O  O119  1  0.085921  0.092109  0.545163  1
  O  O120  1  0.158376  0.715539  0.066514  1
  O  O121  1  0.341624  0.784461  0.566514  1
  O  O122  1  0.658376  0.784461  0.933486  1
  O  O123  1  0.841624  0.715539  0.433486  1
  O  O124  1  0.841624  0.284461  0.933486  1
  O  O125  1  0.658376  0.215539  0.433486  1
  O  O126  1  0.341624  0.215539  0.066514  1
  O  O127  1  0.158376  0.284461  0.566514  1
  O  O128  1  0.415806  0.721927  0.803553  1
  O  O129  1  0.084194  0.778073  0.303553  1
  O  O130  1  0.915806  0.778073  0.196447  1
  O  O131  1  0.584194  0.721927  0.696447  1
  O  O132  1  0.584194  0.278073  0.196447  1
  O  O133  1  0.915806  0.221927  0.696447  1
  O  O134  1  0.084194  0.221927  0.803553  1
  O  O135  1  0.415806  0.278073  0.303553  1
  O  O136  1  0.610954  0.866639  0.789594  1
  O  O137  1  0.889046  0.633361  0.289594  1
  O  O138  1  0.110954  0.633361  0.210406  1
  O  O139  1  0.389046  0.866639  0.710406  1
  O  O140  1  0.389046  0.133361  0.210406  1
  O  O141  1  0.110954  0.366639  0.710406  1
  O  O142  1  0.889046  0.366639  0.789594  1
  O  O143  1  0.610954  0.133361  0.289594  1
  O  O144  1  0.092636  0.775177  0.799455  1
  O  O145  1  0.407364  0.724823  0.299455  1
  O  O146  1  0.592636  0.724823  0.200545  1
  O  O147  1  0.907364  0.775177  0.700545  1
  O  O148  1  0.907364  0.224823  0.200545  1
  O  O149  1  0.592636  0.275177  0.700545  1
  O  O150  1  0.407364  0.275177  0.799455  1
  O  O151  1  0.092636  0.224823  0.299455  1
  O  O152  1  0.114601  0.633610  0.708951  1
  O  O153  1  0.385399  0.866390  0.208951  1
  O  O154  1  0.614601  0.866390  0.291049  1
  O  O155  1  0.885399  0.633610  0.791049  1
  O  O156  1  0.885399  0.366390  0.291049  1
  O  O157  1  0.614601  0.133610  0.791049  1
  O  O158  1  0.385399  0.133610  0.708951  1
  O  O159  1  0.114601  0.366390  0.208951  1
  O  O160  1  0.974197  0.516828  0.904013  1
  O  O161  1  0.525803  0.983172  0.404013  1
  O  O162  1  0.474197  0.983172  0.095987  1
  O  O163  1  0.025803  0.516828  0.595987  1
  O  O164  1  0.025803  0.483172  0.095987  1
  O  O165  1  0.474197  0.016828  0.595987  1
  O  O166  1  0.525803  0.016828  0.904013  1
  O  O167  1  0.974197  0.483172  0.404013  1
  O  O168  1  0.193768  0.500778  0.988843  1
  O  O169  1  0.306232  0.999222  0.488843  1
  O  O170  1  0.693768  0.999222  0.011157  1
  O  O171  1  0.806232  0.500778  0.511157  1
  O  O172  1  0.806232  0.499222  0.011157  1
  O  O173  1  0.693768  0.000778  0.511157  1
  O  O174  1  0.306232  0.000778  0.988843  1
  O  O175  1  0.193768  0.499222  0.488843  1
  O  O176  1  0.216652  0.599079  0.870767  1
  O  O177  1  0.283348  0.900921  0.370767  1
  O  O178  1  0.716652  0.900921  0.129233  1
  O  O179  1  0.783348  0.599079  0.629233  1
  O  O180  1  0.783348  0.400921  0.129233  1
  O  O181  1  0.716652  0.099079  0.629233  1
  O  O182  1  0.283348  0.099079  0.870767  1
  O  O183  1  0.216652  0.400921  0.370767  1
  O  O184  1  0.202082  0.406749  0.869694  1
  O  O185  1  0.297918  0.093251  0.369694  1
  O  O186  1  0.702082  0.093251  0.130306  1
  O  O187  1  0.797918  0.406749  0.630306  1
  O  O188  1  0.797918  0.593251  0.130306  1
  O  O189  1  0.702082  0.906749  0.630306  1
  O  O190  1  0.297918  0.906749  0.869694  1
  O  O191  1  0.202082  0.593251  0.369694  1
  O  O192  1  0.056406  0.027276  0.170812  1
  O  O193  1  0.443594  0.472724  0.670812  1
  O  O194  1  0.556406  0.472724  0.829188  1
  O  O195  1  0.943594  0.027276  0.329188  1
  O  O196  1  0.943594  0.972724  0.829188  1
  O  O197  1  0.556406  0.527276  0.329188  1
  O  O198  1  0.443594  0.527276  0.170812  1
  O  O199  1  0.056406  0.972724  0.670812  1
