# generated using pymatgen
data_RbAl(SO10)2
_symmetry_space_group_name_H-M   'P 1'
_cell_length_a   11.35827091
_cell_length_b   11.35827091
_cell_length_c   11.35827091
_cell_angle_alpha   90.00000000
_cell_angle_beta   90.00000000
_cell_angle_gamma   90.00000000
_symmetry_Int_Tables_number   1
_chemical_formula_structural   RbAl(SO10)2
_chemical_formula_sum   'Rb4 Al4 S8 O80'
_cell_volume   1465.33414277
_cell_formula_units_Z   4
loop_
 _symmetry_equiv_pos_site_id
 _symmetry_equiv_pos_as_xyz
  1  'x, y, z'
loop_
 _atom_site_type_symbol
 _atom_site_label
 _atom_site_symmetry_multiplicity
 _atom_site_fract_x
 _atom_site_fract_y
 _atom_site_fract_z
 _atom_site_occupancy
  Rb  Rb0  1  0.000000  0.000000  0.500000  1
  Rb  Rb1  1  0.000000  0.500000  0.000000  1
  Rb  Rb2  1  0.500000  0.000000  0.000000  1
  Rb  Rb3  1  0.500000  0.500000  0.500000  1
  Al  Al4  1  0.500000  0.500000  0.000000  1
  Al  Al5  1  0.500000  0.000000  0.500000  1
  Al  Al6  1  0.000000  0.500000  0.500000  1
  Al  Al7  1  0.000000  0.000000  0.000000  1
  S  S8  1  0.196065  0.803935  0.303935  1
  S  S9  1  0.803935  0.303935  0.196065  1
  S  S10  1  0.303935  0.196065  0.803935  1
  S  S11  1  0.696065  0.696065  0.696065  1
  S  S12  1  0.803935  0.196065  0.696065  1
  S  S13  1  0.196065  0.696065  0.803935  1
  S  S14  1  0.696065  0.803935  0.196065  1
  S  S15  1  0.303935  0.303935  0.303935  1
  O  O16  1  0.274511  0.725489  0.225489  1
  O  O17  1  0.725489  0.225489  0.274511  1
  O  O18  1  0.225489  0.274511  0.725489  1
  O  O19  1  0.774511  0.774511  0.774511  1
  O  O20  1  0.725489  0.274511  0.774511  1
  O  O21  1  0.274511  0.774511  0.725489  1
  O  O22  1  0.774511  0.725489  0.274511  1
  O  O23  1  0.225489  0.225489  0.225489  1
  O  O24  1  0.075441  0.804747  0.255376  1
  O  O25  1  0.924559  0.304747  0.244624  1
  O  O26  1  0.424559  0.195253  0.755376  1
  O  O27  1  0.575441  0.695253  0.744624  1
  O  O28  1  0.255376  0.075441  0.804747  1
  O  O29  1  0.244624  0.924559  0.304747  1
  O  O30  1  0.755376  0.424559  0.195253  1
  O  O31  1  0.744624  0.575441  0.695253  1
  O  O32  1  0.804747  0.255376  0.075441  1
  O  O33  1  0.304747  0.244624  0.924559  1
  O  O34  1  0.195253  0.755376  0.424559  1
  O  O35  1  0.695253  0.744624  0.575441  1
  O  O36  1  0.924559  0.195253  0.744624  1
  O  O37  1  0.075441  0.695253  0.755376  1
  O  O38  1  0.575441  0.804747  0.244624  1
  O  O39  1  0.424559  0.304747  0.255376  1
  O  O40  1  0.744624  0.924559  0.195253  1
  O  O41  1  0.755376  0.075441  0.695253  1
  O  O42  1  0.244624  0.575441  0.804747  1
  O  O43  1  0.255376  0.424559  0.304747  1
  O  O44  1  0.195253  0.744624  0.924559  1
  O  O45  1  0.695253  0.755376  0.075441  1
  O  O46  1  0.804747  0.244624  0.575441  1
  O  O47  1  0.304747  0.255376  0.424559  1
  O  O48  1  0.218562  0.550093  0.156664  1
  O  O49  1  0.781438  0.050093  0.343336  1
  O  O50  1  0.281438  0.449907  0.656664  1
  O  O51  1  0.718562  0.949907  0.843336  1
  O  O52  1  0.156664  0.218562  0.550093  1
  O  O53  1  0.343336  0.781438  0.050093  1
  O  O54  1  0.656664  0.281438  0.449907  1
  O  O55  1  0.843336  0.718562  0.949907  1
  O  O56  1  0.550093  0.156664  0.218562  1
  O  O57  1  0.050093  0.343336  0.781438  1
  O  O58  1  0.449907  0.656664  0.281438  1
  O  O59  1  0.949907  0.843336  0.718562  1
  O  O60  1  0.781438  0.449907  0.843336  1
  O  O61  1  0.218562  0.949907  0.656664  1
  O  O62  1  0.718562  0.550093  0.343336  1
  O  O63  1  0.281438  0.050093  0.156664  1
  O  O64  1  0.843336  0.781438  0.449907  1
  O  O65  1  0.656664  0.218562  0.949907  1
  O  O66  1  0.343336  0.718562  0.550093  1
  O  O67  1  0.156664  0.281438  0.050093  1
  O  O68  1  0.449907  0.843336  0.781438  1
  O  O69  1  0.949907  0.656664  0.218562  1
  O  O70  1  0.550093  0.343336  0.718562  1
  O  O71  1  0.050093  0.156664  0.281438  1
  O  O72  1  0.337952  0.511038  0.025131  1
  O  O73  1  0.662048  0.011038  0.474869  1
  O  O74  1  0.162048  0.488962  0.525131  1
  O  O75  1  0.837952  0.988962  0.974869  1
  O  O76  1  0.025131  0.337952  0.511038  1
  O  O77  1  0.474869  0.662048  0.011038  1
  O  O78  1  0.525131  0.162048  0.488962  1
  O  O79  1  0.974869  0.837952  0.988962  1
  O  O80  1  0.511038  0.025131  0.337952  1
  O  O81  1  0.011038  0.474869  0.662048  1
  O  O82  1  0.488962  0.525131  0.162048  1
  O  O83  1  0.988962  0.974869  0.837952  1
  O  O84  1  0.662048  0.488962  0.974869  1
  O  O85  1  0.337952  0.988962  0.525131  1
  O  O86  1  0.837952  0.511038  0.474869  1
  O  O87  1  0.162048  0.011038  0.025131  1
  O  O88  1  0.974869  0.662048  0.488962  1
  O  O89  1  0.525131  0.337952  0.988962  1
  O  O90  1  0.474869  0.837952  0.511038  1
  O  O91  1  0.025131  0.162048  0.011038  1
  O  O92  1  0.488962  0.974869  0.662048  1
  O  O93  1  0.988962  0.525131  0.337952  1
  O  O94  1  0.511038  0.474869  0.837952  1
  O  O95  1  0.011038  0.025131  0.162048  1
