# generated using pymatgen
data_Li2FeCo9O20
_symmetry_space_group_name_H-M   'P 1'
_cell_length_a   7.52397689
_cell_length_b   4.93487546
_cell_length_c   10.02071535
_cell_angle_alpha   85.33867486
_cell_angle_beta   81.29474161
_cell_angle_gamma   70.66377589
_symmetry_Int_Tables_number   1
_chemical_formula_structural   Li2FeCo9O20
_chemical_formula_sum   'Li2 Fe1 Co9 O20'
_cell_volume   346.84230644
_cell_formula_units_Z   1
loop_
 _symmetry_equiv_pos_site_id
 _symmetry_equiv_pos_as_xyz
  1  'x, y, z'
loop_
 _atom_site_type_symbol
 _atom_site_label
 _atom_site_symmetry_multiplicity
 _atom_site_fract_x
 _atom_site_fract_y
 _atom_site_fract_z
 _atom_site_occupancy
  Li  Li0  1  0.497847  0.502512  0.503689  1
  Li  Li1  1  0.802153  0.597488  0.996311  1
  Fe  Fe2  1  0.150000  0.050000  0.250000  1
  Co  Co3  1  0.050921  0.350001  0.744721  1
  Co  Co4  1  0.353105  0.449802  0.245353  1
  Co  Co5  1  0.249079  0.749999  0.755279  1
  Co  Co6  1  0.450016  0.149659  0.754781  1
  Co  Co7  1  0.552443  0.848832  0.250284  1
  Co  Co8  1  0.747557  0.251168  0.249716  1
  Co  Co9  1  0.650000  0.550000  0.750000  1
  Co  Co10  1  0.946895  0.650198  0.254647  1
  Co  Co11  1  0.849984  0.950341  0.745219  1
  O  O12  1  0.069500  0.021004  0.653748  1
  O  O13  1  0.132946  0.397705  0.347700  1
  O  O14  1  0.167054  0.702295  0.152300  1
  O  O15  1  0.024848  0.674729  0.845942  1
  O  O16  1  0.230500  0.078996  0.846252  1
  O  O17  1  0.383774  0.120842  0.151903  1
  O  O18  1  0.275152  0.425271  0.654058  1
  O  O19  1  0.347800  0.755518  0.350755  1
  O  O20  1  0.533327  0.181444  0.346573  1
  O  O21  1  0.431311  0.475873  0.847495  1
  O  O22  1  0.575052  0.526819  0.149927  1
  O  O23  1  0.463458  0.820521  0.655988  1
  O  O24  1  0.661922  0.225656  0.652662  1
  O  O25  1  0.724948  0.573181  0.350073  1
  O  O26  1  0.766673  0.918556  0.153427  1
  O  O27  1  0.638078  0.874344  0.847338  1
  O  O28  1  0.952200  0.344482  0.149245  1
  O  O29  1  0.836542  0.279479  0.844012  1
  O  O30  1  0.868689  0.624127  0.652505  1
  O  O31  1  0.916226  0.979158  0.348097  1
