# generated using pymatgen
data_LiTiFeO4
_symmetry_space_group_name_H-M   'P 1'
_cell_length_a   5.99132209
_cell_length_b   5.99139519
_cell_length_c   5.98741200
_cell_angle_alpha   60.28354391
_cell_angle_beta   60.28357005
_cell_angle_gamma   90.44126634
_symmetry_Int_Tables_number   1
_chemical_formula_structural   LiTiFeO4
_chemical_formula_sum   'Li2 Ti2 Fe2 O8'
_cell_volume   152.68899974
_cell_formula_units_Z   2
loop_
 _symmetry_equiv_pos_site_id
 _symmetry_equiv_pos_as_xyz
  1  'x, y, z'
loop_
 _atom_site_type_symbol
 _atom_site_label
 _atom_site_symmetry_multiplicity
 _atom_site_fract_x
 _atom_site_fract_y
 _atom_site_fract_z
 _atom_site_occupancy
  Li  Li0  1  0.000000  0.500000  0.000000  1
  Li  Li1  1  0.500000  0.000000  0.500000  1
  Ti  Ti2  1  0.000000  0.000000  0.500000  1
  Ti  Ti3  1  0.000000  0.000000  0.000000  1
  Fe  Fe4  1  0.000000  0.500000  0.500000  1
  Fe  Fe5  1  0.500000  0.000000  0.000000  1
  O  O6  1  0.233468  0.769134  0.483129  1
  O  O7  1  0.777745  0.787745  0.965514  1
  O  O8  1  0.230865  0.766532  0.016874  1
  O  O9  1  0.212254  0.222245  0.534490  1
  O  O10  1  0.787746  0.777755  0.465510  1
  O  O11  1  0.769135  0.233468  0.983126  1
  O  O12  1  0.222255  0.212255  0.034486  1
  O  O13  1  0.766532  0.230866  0.516871  1
