# generated using pymatgen
data_VF5
_symmetry_space_group_name_H-M   'P 1'
_cell_length_a   6.63432973
_cell_length_b   8.71972341
_cell_length_c   6.33907715
_cell_angle_alpha   90.00000000
_cell_angle_beta   85.06349190
_cell_angle_gamma   90.00000000
_symmetry_Int_Tables_number   1
_chemical_formula_structural   VF5
_chemical_formula_sum   'V4 F20'
_cell_volume   365.35231305
_cell_formula_units_Z   4
loop_
 _symmetry_equiv_pos_site_id
 _symmetry_equiv_pos_as_xyz
  1  'x, y, z'
loop_
 _atom_site_type_symbol
 _atom_site_label
 _atom_site_symmetry_multiplicity
 _atom_site_fract_x
 _atom_site_fract_y
 _atom_site_fract_z
 _atom_site_occupancy
  V  V0  1  0.061863  0.629348  0.822515  1
  V  V1  1  0.438137  0.129348  0.677485  1
  V  V2  1  0.561863  0.870652  0.322515  1
  V  V3  1  0.938137  0.370652  0.177485  1
  F  F4  1  0.041175  0.400060  0.874471  1
  F  F5  1  0.056671  0.828274  0.839002  1
  F  F6  1  0.153194  0.600987  0.559206  1
  F  F7  1  0.195950  0.383555  0.229241  1
  F  F8  1  0.194855  0.113437  0.583627  1
  F  F9  1  0.304050  0.883555  0.270759  1
  F  F10  1  0.305145  0.613437  0.916373  1
  F  F11  1  0.346806  0.100987  0.940794  1
  F  F12  1  0.443329  0.328274  0.660998  1
  F  F13  1  0.458825  0.900060  0.625529  1
  F  F14  1  0.541175  0.099940  0.374471  1
  F  F15  1  0.556671  0.671726  0.339002  1
  F  F16  1  0.653194  0.899013  0.059206  1
  F  F17  1  0.694855  0.386563  0.083627  1
  F  F18  1  0.695950  0.116445  0.729241  1
  F  F19  1  0.805145  0.886563  0.416373  1
  F  F20  1  0.804050  0.616445  0.770759  1
  F  F21  1  0.846806  0.399013  0.440794  1
  F  F22  1  0.943329  0.171726  0.160998  1
  F  F23  1  0.958825  0.599940  0.125529  1
