# generated using pymatgen
data_Na2Ge2O5
_symmetry_space_group_name_H-M   'P 1'
_cell_length_a   5.74550030
_cell_length_b   9.96397986
_cell_length_c   8.69491990
_cell_angle_alpha   90.00000000
_cell_angle_beta   90.00000000
_cell_angle_gamma   90.00000000
_symmetry_Int_Tables_number   1
_chemical_formula_structural   Na2Ge2O5
_chemical_formula_sum   'Na8 Ge8 O20'
_cell_volume   497.76720288
_cell_formula_units_Z   4
loop_
 _symmetry_equiv_pos_site_id
 _symmetry_equiv_pos_as_xyz
  1  'x, y, z'
loop_
 _atom_site_type_symbol
 _atom_site_label
 _atom_site_symmetry_multiplicity
 _atom_site_fract_x
 _atom_site_fract_y
 _atom_site_fract_z
 _atom_site_occupancy
  Na  Na0  1  0.063957  0.509754  0.976956  1
  Na  Na1  1  0.063957  0.990246  0.476956  1
  Na  Na2  1  0.092131  0.256844  0.249576  1
  Na  Na3  1  0.092131  0.243156  0.749576  1
  Na  Na4  1  0.907869  0.743156  0.749576  1
  Na  Na5  1  0.907869  0.756844  0.249576  1
  Na  Na6  1  0.936043  0.490246  0.476956  1
  Na  Na7  1  0.936043  0.009754  0.976956  1
  Ge  Ge8  1  0.366405  0.799150  0.053408  1
  Ge  Ge9  1  0.366405  0.700850  0.553408  1
  Ge  Ge10  1  0.454183  0.538536  0.249605  1
  Ge  Ge11  1  0.454183  0.961464  0.749605  1
  Ge  Ge12  1  0.545817  0.038536  0.249605  1
  Ge  Ge13  1  0.545817  0.461464  0.749605  1
  Ge  Ge14  1  0.633595  0.299150  0.053408  1
  Ge  Ge15  1  0.633595  0.200850  0.553408  1
  O  O16  1  0.089003  0.741076  0.497073  1
  O  O17  1  0.089003  0.758924  0.997073  1
  O  O18  1  0.165234  0.003001  0.745264  1
  O  O19  1  0.165234  0.496999  0.245264  1
  O  O20  1  0.338357  0.906019  0.222262  1
  O  O21  1  0.338357  0.593981  0.722262  1
  O  O22  1  0.437836  0.109352  0.428282  1
  O  O23  1  0.437836  0.390648  0.928282  1
  O  O24  1  0.445323  0.164206  0.113185  1
  O  O25  1  0.445323  0.335794  0.613185  1
  O  O26  1  0.554677  0.664206  0.113185  1
  O  O27  1  0.554677  0.835794  0.613185  1
  O  O28  1  0.562164  0.609352  0.428282  1
  O  O29  1  0.562164  0.890648  0.928282  1
  O  O30  1  0.661643  0.093981  0.722262  1
  O  O31  1  0.661643  0.406019  0.222262  1
  O  O32  1  0.834766  0.503000  0.745264  1
  O  O33  1  0.834766  0.997000  0.245264  1
  O  O34  1  0.910997  0.241076  0.497073  1
  O  O35  1  0.910997  0.258924  0.997073  1
