# generated using pymatgen
data_Li4Ti3Mn2Cu3O16
_symmetry_space_group_name_H-M   'P 1'
_cell_length_a   5.89489732
_cell_length_b   5.89327373
_cell_length_c   9.54627745
_cell_angle_alpha   89.91143473
_cell_angle_beta   91.98155491
_cell_angle_gamma   119.89101210
_symmetry_Int_Tables_number   1
_chemical_formula_structural   Li4Ti3Mn2Cu3O16
_chemical_formula_sum   'Li4 Ti3 Mn2 Cu3 O16'
_cell_volume   287.30454114
_cell_formula_units_Z   1
loop_
 _symmetry_equiv_pos_site_id
 _symmetry_equiv_pos_as_xyz
  1  'x, y, z'
loop_
 _atom_site_type_symbol
 _atom_site_label
 _atom_site_symmetry_multiplicity
 _atom_site_fract_x
 _atom_site_fract_y
 _atom_site_fract_z
 _atom_site_occupancy
  Li  Li0  1  0.335382  0.668423  0.897102  1
  Li  Li1  1  0.979370  0.989868  0.987163  1
  Li  Li2  1  0.986837  0.994096  0.494761  1
  Li  Li3  1  0.671871  0.335607  0.400903  1
  Ti  Ti4  1  0.174295  0.834429  0.213469  1
  Ti  Ti5  1  0.175660  0.340028  0.213365  1
  Ti  Ti6  1  0.341185  0.169524  0.714047  1
  Mn  Mn7  1  0.339471  0.669298  0.485535  1
  Mn  Mn8  1  0.671845  0.335293  0.982422  1
  Cu  Cu9  1  0.661140  0.831013  0.208270  1
  Cu  Cu10  1  0.829051  0.657772  0.710722  1
  Cu  Cu11  1  0.828893  0.170166  0.708309  1
  O  O12  1  0.186781  0.843122  0.597203  1
  O  O13  1  0.040277  0.519890  0.337344  1
  O  O14  1  0.327038  0.663758  0.105299  1
  O  O15  1  0.000761  0.000529  0.304406  1
  O  O16  1  0.991762  -0.000024  0.797385  1
  O  O17  1  0.195978  0.346450  0.595227  1
  O  O18  1  0.465105  0.957384  0.352677  1
  O  O19  1  0.466274  0.508507  0.352161  1
  O  O20  1  0.342304  0.171634  0.107538  1
  O  O21  1  0.665354  0.832877  0.596343  1
  O  O22  1  0.505288  0.466121  0.851852  1
  O  O23  1  0.496676  0.038990  0.854809  1
  O  O24  1  0.665956  0.329415  0.607518  1
  O  O25  1  0.852457  0.664431  0.092347  1
  O  O26  1  0.950676  0.473918  0.847342  1
  O  O27  1  0.852313  0.187783  0.092323  1
