# generated using pymatgen
data_Na3TlPCO7
_symmetry_space_group_name_H-M   'P 1'
_cell_length_a   9.38857603
_cell_length_b   5.40465990
_cell_length_c   7.04699147
_cell_angle_alpha   90.00000000
_cell_angle_beta   90.00000000
_cell_angle_gamma   89.86967639
_symmetry_Int_Tables_number   1
_chemical_formula_structural   Na3TlPCO7
_chemical_formula_sum   'Na6 Tl2 P2 C2 O14'
_cell_volume   357.57794215
_cell_formula_units_Z   2
loop_
 _symmetry_equiv_pos_site_id
 _symmetry_equiv_pos_as_xyz
  1  'x, y, z'
loop_
 _atom_site_type_symbol
 _atom_site_label
 _atom_site_symmetry_multiplicity
 _atom_site_fract_x
 _atom_site_fract_y
 _atom_site_fract_z
 _atom_site_occupancy
  Na  Na0  1  0.014251  0.991018  0.483412  1
  Na  Na1  1  0.171526  0.504520  0.200641  1
  Na  Na2  1  0.484943  0.526833  0.475547  1
  Na  Na3  1  0.515057  0.473167  0.975547  1
  Na  Na4  1  0.828474  0.495480  0.700641  1
  Na  Na5  1  0.985749  0.008982  0.983412  1
  Tl  Tl6  1  0.311687  0.982891  0.758736  1
  Tl  Tl7  1  0.688313  0.017109  0.258736  1
  P  P8  1  0.332028  0.994204  0.235079  1
  P  P9  1  0.667972  0.005796  0.735079  1
  C  C10  1  0.140504  0.487887  0.744824  1
  C  C11  1  0.859496  0.512113  0.244824  1
  O  O12  1  0.061345  0.292919  0.725091  1
  O  O13  1  0.079710  0.702868  0.766320  1
  O  O14  1  0.213763  0.078527  0.091365  1
  O  O15  1  0.252646  0.933313  0.425330  1
  O  O16  1  0.280137  0.472178  0.744517  1
  O  O17  1  0.406322  0.755765  0.167598  1
  O  O18  1  0.437687  0.213603  0.256138  1
  O  O19  1  0.562313  0.786397  0.756138  1
  O  O20  1  0.593678  0.244235  0.667598  1
  O  O21  1  0.719863  0.527822  0.244517  1
  O  O22  1  0.747354  0.066687  0.925330  1
  O  O23  1  0.786237  0.921473  0.591365  1
  O  O24  1  0.920290  0.297132  0.266320  1
  O  O25  1  0.938655  0.707081  0.225091  1
