# generated using pymatgen
data_LiMn2F9
_symmetry_space_group_name_H-M   'P 1'
_cell_length_a   5.37359347
_cell_length_b   5.47568255
_cell_length_c   13.78874334
_cell_angle_alpha   88.43232362
_cell_angle_beta   90.44927962
_cell_angle_gamma   61.07755843
_symmetry_Int_Tables_number   1
_chemical_formula_structural   LiMn2F9
_chemical_formula_sum   'Li2 Mn4 F18'
_cell_volume   354.88185287
_cell_formula_units_Z   2
loop_
 _symmetry_equiv_pos_site_id
 _symmetry_equiv_pos_as_xyz
  1  'x, y, z'
loop_
 _atom_site_type_symbol
 _atom_site_label
 _atom_site_symmetry_multiplicity
 _atom_site_fract_x
 _atom_site_fract_y
 _atom_site_fract_z
 _atom_site_occupancy
  Li  Li0  1  0.024097  0.294954  0.461381  1
  Li  Li1  1  0.812861  0.688834  0.963963  1
  Mn  Mn2  1  0.152450  0.027113  0.841471  1
  Mn  Mn3  1  0.335599  0.018436  0.656898  1
  Mn  Mn4  1  0.682368  0.973900  0.339991  1
  Mn  Mn5  1  0.850750  0.981745  0.154281  1
  F  F6  1  0.071389  0.125084  0.126605  1
  F  F7  1  0.227762  0.317116  0.576699  1
  F  F8  1  0.311285  0.137014  0.366126  1
  F  F9  1  0.371126  0.182161  0.781563  1
  F  F10  1  0.051102  0.814821  0.282254  1
  F  F11  1  0.244611  0.849897  0.567375  1
  F  F12  1  0.389581  0.736274  0.756255  1
  F  F13  1  0.402751  0.849291  0.939394  1
  F  F14  1  0.595740  0.162582  0.061234  1
  F  F15  1  0.630932  0.264362  0.247066  1
  F  F16  1  0.764853  0.148792  0.432313  1
  F  F17  1  0.956773  0.178807  0.718759  1
  F  F18  1  0.627567  0.825696  0.221378  1
  F  F19  1  0.937575  0.329625  0.909023  1
  F  F20  1  0.697455  0.865606  0.631575  1
  F  F21  1  0.767865  0.671371  0.415209  1
  F  F22  1  0.938311  0.866333  0.868625  1
  F  F23  1  0.027373  0.682358  0.080952  1
