# generated using pymatgen
data_Li5Cu(PO4)2
_symmetry_space_group_name_H-M   'P 1'
_cell_length_a   6.21188231
_cell_length_b   5.33075001
_cell_length_c   9.95261522
_cell_angle_alpha   90.09321704
_cell_angle_beta   89.94541031
_cell_angle_gamma   89.88711609
_symmetry_Int_Tables_number   1
_chemical_formula_structural   Li5Cu(PO4)2
_chemical_formula_sum   'Li10 Cu2 P4 O16'
_cell_volume   329.56959103
_cell_formula_units_Z   2
loop_
 _symmetry_equiv_pos_site_id
 _symmetry_equiv_pos_as_xyz
  1  'x, y, z'
loop_
 _atom_site_type_symbol
 _atom_site_label
 _atom_site_symmetry_multiplicity
 _atom_site_fract_x
 _atom_site_fract_y
 _atom_site_fract_z
 _atom_site_occupancy
  Li  Li0  1  0.999494  0.155382  0.745784  1
  Li  Li1  1  0.999942  0.156069  0.244848  1
  Li  Li2  1  0.248386  0.326680  0.496017  1
  Li  Li3  1  0.246789  0.328230  0.996213  1
  Li  Li4  1  0.253846  0.673322  0.245109  1
  Li  Li5  1  0.252709  0.672620  0.745191  1
  Li  Li6  1  0.500541  0.845412  0.995001  1
  Li  Li7  1  0.747029  0.672350  0.744792  1
  Li  Li8  1  0.746363  0.674827  0.245546  1
  Li  Li9  1  0.749927  0.326105  0.495054  1
  Cu  Cu10  1  0.499911  0.826797  0.497112  1
  Cu  Cu11  1  0.757545  0.334024  0.998465  1
  P  P12  1  0.004108  0.824582  0.999368  1
  P  P13  1  0.000106  0.826345  0.499771  1
  P  P14  1  0.498083  0.177340  0.249537  1
  P  P15  1  0.497001  0.175398  0.749056  1
  O  O16  1  0.000044  0.818852  0.656168  1
  O  O17  1  0.999901  0.102236  0.449571  1
  O  O18  1  0.000072  0.820539  0.155968  1
  O  O19  1  0.014374  0.099511  0.946160  1
  O  O20  1  0.201633  0.682146  0.444389  1
  O  O21  1  0.207096  0.681502  0.947429  1
  O  O22  1  0.293498  0.314153  0.195338  1
  O  O23  1  0.291908  0.311451  0.695005  1
  O  O24  1  0.490384  0.178535  0.905742  1
  O  O25  1  0.498965  0.893338  0.705652  1
  O  O26  1  0.496098  0.190474  0.405997  1
  O  O27  1  0.500141  0.901140  0.198598  1
  O  O28  1  0.703579  0.309939  0.696843  1
  O  O29  1  0.708906  0.314878  0.204365  1
  O  O30  1  0.798605  0.682634  0.444970  1
  O  O31  1  0.793011  0.703194  0.943534  1
