# generated using pymatgen
data_Sr2Tl2O5
_symmetry_space_group_name_H-M   'P 1'
_cell_length_a   6.09902813
_cell_length_b   7.08522774
_cell_length_c   14.12409884
_cell_angle_alpha   90.00000000
_cell_angle_beta   90.00000000
_cell_angle_gamma   73.48620718
_symmetry_Int_Tables_number   1
_chemical_formula_structural   Sr2Tl2O5
_chemical_formula_sum   'Sr8 Tl8 O20'
_cell_volume   585.16882480
_cell_formula_units_Z   4
loop_
 _symmetry_equiv_pos_site_id
 _symmetry_equiv_pos_as_xyz
  1  'x, y, z'
loop_
 _atom_site_type_symbol
 _atom_site_label
 _atom_site_symmetry_multiplicity
 _atom_site_fract_x
 _atom_site_fract_y
 _atom_site_fract_z
 _atom_site_occupancy
  Sr  Sr0  1  0.453908  0.885757  0.886702  1
  Sr  Sr1  1  0.063141  0.987773  0.236718  1
  Sr  Sr2  1  0.546091  0.614243  0.113298  1
  Sr  Sr3  1  0.936859  0.512227  0.763282  1
  Sr  Sr4  1  0.453908  0.385757  0.613298  1
  Sr  Sr5  1  0.063141  0.487773  0.263282  1
  Sr  Sr6  1  0.936859  0.012227  0.736718  1
  Sr  Sr7  1  0.546091  0.114243  0.386702  1
  Tl  Tl8  1  0.454973  0.886665  0.606895  1
  Tl  Tl9  1  0.000000  0.750000  0.000000  1
  Tl  Tl10  1  0.545027  0.613335  0.393105  1
  Tl  Tl11  1  0.000000  0.750000  0.500000  1
  Tl  Tl12  1  0.454973  0.386665  0.893105  1
  Tl  Tl13  1  0.000000  0.250000  0.500000  1
  Tl  Tl14  1  0.545027  0.113335  0.106895  1
  Tl  Tl15  1  0.000000  0.250000  0.000000  1
  O  O16  1  0.833854  0.785658  0.361443  1
  O  O17  1  0.640636  0.832413  0.734303  1
  O  O18  1  0.266801  0.935243  0.054142  1
  O  O19  1  0.849981  0.787162  0.139047  1
  O  O20  1  0.292061  0.926428  0.465341  1
  O  O21  1  0.166146  0.714342  0.638557  1
  O  O22  1  0.733199  0.564757  0.945858  1
  O  O23  1  0.150019  0.712838  0.860953  1
  O  O24  1  0.707939  0.573572  0.534659  1
  O  O25  1  0.359364  0.667587  0.265697  1
  O  O26  1  0.849981  0.287162  0.360953  1
  O  O27  1  0.833854  0.285658  0.138557  1
  O  O28  1  0.640636  0.332413  0.765697  1
  O  O29  1  0.266801  0.435243  0.445858  1
  O  O30  1  0.292061  0.426428  0.034659  1
  O  O31  1  0.707939  0.073572  0.965341  1
  O  O32  1  0.733199  0.064757  0.554142  1
  O  O33  1  0.359364  0.167587  0.234303  1
  O  O34  1  0.166146  0.214342  0.861443  1
  O  O35  1  0.150019  0.212838  0.639047  1
