# generated using pymatgen
data_LiMn3(O2F)2
_symmetry_space_group_name_H-M   'P 1'
_cell_length_a   5.06725663
_cell_length_b   5.55258159
_cell_length_c   5.30969176
_cell_angle_alpha   120.11544356
_cell_angle_beta   60.10154330
_cell_angle_gamma   114.13466731
_symmetry_Int_Tables_number   1
_chemical_formula_structural   LiMn3(O2F)2
_chemical_formula_sum   'Li1 Mn3 O4 F2'
_cell_volume   109.49015492
_cell_formula_units_Z   1
loop_
 _symmetry_equiv_pos_site_id
 _symmetry_equiv_pos_as_xyz
  1  'x, y, z'
loop_
 _atom_site_type_symbol
 _atom_site_label
 _atom_site_symmetry_multiplicity
 _atom_site_fract_x
 _atom_site_fract_y
 _atom_site_fract_z
 _atom_site_occupancy
  Li  Li0  1  0.619266  0.907415  0.627268  1
  Mn  Mn1  1  0.157624  0.440633  0.149043  1
  Mn  Mn2  1  0.383709  0.075701  0.346726  1
  Mn  Mn3  1  0.833117  0.513207  0.850383  1
  O  O4  1  0.084588  0.277193  0.461039  1
  O  O5  1  0.533745  0.733262  0.224784  1
  O  O6  1  0.786238  0.279369  0.061774  1
  O  O7  1  0.438156  0.251183  0.740562  1
  F  F8  1  0.239802  0.793370  0.968808  1
  F  F9  1  0.923756  0.728665  0.569613  1
