# generated using pymatgen
data_V4(OF3)3
_symmetry_space_group_name_H-M   'P 1'
_cell_length_a   5.22062414
_cell_length_b   5.41375176
_cell_length_c   17.54049578
_cell_angle_alpha   90.18353921
_cell_angle_beta   98.51470541
_cell_angle_gamma   61.24821834
_symmetry_Int_Tables_number   1
_chemical_formula_structural   V4(OF3)3
_chemical_formula_sum   'V8 O6 F18'
_cell_volume   428.51460068
_cell_formula_units_Z   2
loop_
 _symmetry_equiv_pos_site_id
 _symmetry_equiv_pos_as_xyz
  1  'x, y, z'
loop_
 _atom_site_type_symbol
 _atom_site_label
 _atom_site_symmetry_multiplicity
 _atom_site_fract_x
 _atom_site_fract_y
 _atom_site_fract_z
 _atom_site_occupancy
  V  V0  1  0.749653  0.624391  0.124952  1
  V  V1  1  0.783172  0.117869  0.630120  1
  V  V2  1  0.457167  0.261264  0.249430  1
  V  V3  1  0.490390  0.754448  0.750213  1
  V  V4  1  0.252393  0.889540  0.372812  1
  V  V5  1  0.268812  0.391674  0.872978  1
  V  V6  1  0.037989  0.986287  0.001533  1
  V  V7  1  0.001151  0.487821  0.507116  1
  O  O8  1  0.921283  0.342347  0.578969  1
  O  O9  1  0.397346  0.802316  0.040879  1
  O  O10  1  0.393151  0.072147  0.332806  1
  O  O11  1  0.401968  0.580621  0.833286  1
  O  O12  1  0.100031  0.448846  0.208303  1
  O  O13  1  0.077554  0.972292  0.703196  1
  F  F14  1  0.909814  0.848647  0.084941  1
  F  F15  1  0.959759  0.323391  0.058675  1
  F  F16  1  0.972342  0.817576  0.560626  1
  F  F17  1  0.535889  0.929023  0.189061  1
  F  F18  1  0.898355  0.032759  0.292262  1
  F  F19  1  0.916756  0.532905  0.791087  1
  F  F20  1  0.592188  0.401138  0.166272  1
  F  F21  1  0.591774  0.909357  0.663284  1
  F  F22  1  0.576233  0.719167  0.461145  1
  F  F23  1  0.464196  0.551355  0.316174  1
  F  F24  1  0.531534  0.434446  0.686088  1
  F  F25  1  0.432461  0.286102  0.541859  1
  F  F26  1  0.589391  0.204613  0.960672  1
  F  F27  1  0.083420  0.666558  0.419231  1
  F  F28  1  0.475281  0.058648  0.814876  1
  F  F29  1  0.031096  0.686787  0.938059  1
  F  F30  1  0.024252  0.194254  0.436581  1
  F  F31  1  0.083199  0.171412  0.912520  1
