# generated using pymatgen
data_BaO
_symmetry_space_group_name_H-M   'P 1'
_cell_length_a   3.95135711
_cell_length_b   4.75921740
_cell_length_c   4.75921740
_cell_angle_alpha   90.00000000
_cell_angle_beta   90.00000000
_cell_angle_gamma   90.00000000
_symmetry_Int_Tables_number   1
_chemical_formula_structural   BaO
_chemical_formula_sum   'Ba2 O2'
_cell_volume   89.49883227
_cell_formula_units_Z   2
loop_
 _symmetry_equiv_pos_site_id
 _symmetry_equiv_pos_as_xyz
  1  'x, y, z'
loop_
 _atom_site_type_symbol
 _atom_site_label
 _atom_site_symmetry_multiplicity
 _atom_site_fract_x
 _atom_site_fract_y
 _atom_site_fract_z
 _atom_site_occupancy
  O  O0  1  0.000000  0.250000  0.750000  1
  O  O1  1  0.000000  0.750000  0.250000  1
  Ba  Ba2  1  0.272460  0.250000  0.250000  1
  Ba  Ba3  1  0.727540  0.750000  0.750000  1
