# generated using pymatgen
data_Li4Cu4Cl10O
_symmetry_space_group_name_H-M   'P 1'
_cell_length_a   10.39480943
_cell_length_b   10.39480943
_cell_length_c   7.53278130
_cell_angle_alpha   78.99509376
_cell_angle_beta   101.00490624
_cell_angle_gamma   96.41155487
_symmetry_Int_Tables_number   1
_chemical_formula_structural   Li4Cu4Cl10O
_chemical_formula_sum   'Li8 Cu8 Cl20 O2'
_cell_volume   781.87877525
_cell_formula_units_Z   2
loop_
 _symmetry_equiv_pos_site_id
 _symmetry_equiv_pos_as_xyz
  1  'x, y, z'
loop_
 _atom_site_type_symbol
 _atom_site_label
 _atom_site_symmetry_multiplicity
 _atom_site_fract_x
 _atom_site_fract_y
 _atom_site_fract_z
 _atom_site_occupancy
  Li  Li0  1  0.072042  0.718523  0.853238  1
  Li  Li1  1  0.281477  0.927958  0.353238  1
  Li  Li2  1  0.423619  0.748816  0.856155  1
  Li  Li3  1  0.251184  0.576381  0.356155  1
  Li  Li4  1  0.748816  0.423619  0.643845  1
  Li  Li5  1  0.576381  0.251184  0.143845  1
  Li  Li6  1  0.718523  0.072042  0.646762  1
  Li  Li7  1  0.927958  0.281477  0.146762  1
  Cu  Cu8  1  0.230467  0.372780  0.874359  1
  Cu  Cu9  1  0.050408  0.220685  0.591365  1
  Cu  Cu10  1  0.627220  0.769533  0.374359  1
  Cu  Cu11  1  0.779315  0.949592  0.091365  1
  Cu  Cu12  1  0.220685  0.050408  0.908635  1
  Cu  Cu13  1  0.372780  0.230467  0.625641  1
  Cu  Cu14  1  0.949592  0.779315  0.408635  1
  Cu  Cu15  1  0.769533  0.627220  0.125641  1
  Cl  Cl16  1  0.155856  0.733784  0.555434  1
  Cl  Cl17  1  0.013715  0.351087  0.864781  1
  Cl  Cl18  1  0.266216  0.844144  0.055434  1
  Cl  Cl19  1  0.648913  0.986285  0.364781  1
  Cl  Cl20  1  0.445487  0.725178  0.503642  1
  Cl  Cl21  1  0.651718  0.850886  0.858733  1
  Cl  Cl22  1  0.274822  0.554513  0.003642  1
  Cl  Cl23  1  0.149114  0.348282  0.358733  1
  Cl  Cl24  1  0.003542  0.003542  0.750000  1
  Cl  Cl25  1  0.415355  0.415355  0.750000  1
  Cl  Cl26  1  0.584645  0.584645  0.250000  1
  Cl  Cl27  1  0.996458  0.996458  0.250000  1
  Cl  Cl28  1  0.850886  0.651718  0.641267  1
  Cl  Cl29  1  0.725178  0.445487  0.996358  1
  Cl  Cl30  1  0.348282  0.149114  0.141267  1
  Cl  Cl31  1  0.554513  0.274822  0.496358  1
  Cl  Cl32  1  0.351087  0.013715  0.635219  1
  Cl  Cl33  1  0.733784  0.155856  0.944566  1
  Cl  Cl34  1  0.986285  0.648913  0.135219  1
  Cl  Cl35  1  0.844144  0.266216  0.444566  1
  O  O36  1  0.217545  0.217545  0.750000  1
  O  O37  1  0.782455  0.782455  0.250000  1
