# generated using pymatgen
data_Li3FePCO7
_symmetry_space_group_name_H-M   'P 1'
_cell_length_a   5.07471218
_cell_length_b   6.35142306
_cell_length_c   8.75265012
_cell_angle_alpha   94.92072731
_cell_angle_beta   85.54105210
_cell_angle_gamma   90.47652834
_symmetry_Int_Tables_number   1
_chemical_formula_structural   Li3FePCO7
_chemical_formula_sum   'Li6 Fe2 P2 C2 O14'
_cell_volume   280.22142005
_cell_formula_units_Z   2
loop_
 _symmetry_equiv_pos_site_id
 _symmetry_equiv_pos_as_xyz
  1  'x, y, z'
loop_
 _atom_site_type_symbol
 _atom_site_label
 _atom_site_symmetry_multiplicity
 _atom_site_fract_x
 _atom_site_fract_y
 _atom_site_fract_z
 _atom_site_occupancy
  Li  Li0  1  0.140983  0.396532  0.144430  1
  Li  Li1  1  0.069417  0.104190  0.783206  1
  Li  Li2  1  0.195381  0.595455  0.809632  1
  Li  Li3  1  0.612238  0.657092  0.264156  1
  Li  Li4  1  0.739706  0.147967  0.291878  1
  Li  Li5  1  0.667702  0.856606  0.929619  1
  Fe  Fe6  1  0.103634  0.867908  0.400891  1
  Fe  Fe7  1  0.704508  0.383093  0.674262  1
  P  P8  1  0.250190  0.370297  0.448482  1
  P  P9  1  0.558141  0.880482  0.626299  1
  C  C10  1  0.134364  0.863441  0.069510  1
  C  C11  1  0.674765  0.387740  0.005083  1
  O  O12  1  0.114042  0.184880  0.355633  1
  O  O13  1  0.108502  0.422085  0.611128  1
  O  O14  1  0.238209  0.560623  0.346187  1
  O  O15  1  0.065019  0.881398  0.930878  1
  O  O16  1  0.266268  0.934698  0.611133  1
  O  O17  1  0.378995  0.860858  0.098964  1
  O  O18  1  0.430277  0.390296  0.975442  1
  O  O19  1  0.542004  0.315842  0.464020  1
  O  O20  1  0.743702  0.370551  0.144002  1
  O  O21  1  0.570375  0.689905  0.728405  1
  O  O22  1  0.699708  0.829055  0.463560  1
  O  O23  1  0.694414  0.065617  0.719451  1
  O  O24  1  0.944480  0.843981  0.178230  1
  O  O25  1  0.864919  0.406417  0.896518  1
