# generated using pymatgen
data_LiFeSbO4
_symmetry_space_group_name_H-M   'P 1'
_cell_length_a   6.10512240
_cell_length_b   6.27526781
_cell_length_c   6.27526844
_cell_angle_alpha   59.74791085
_cell_angle_beta   60.89293455
_cell_angle_gamma   60.89293131
_symmetry_Int_Tables_number   1
_chemical_formula_structural   LiFeSbO4
_chemical_formula_sum   'Li2 Fe2 Sb2 O8'
_cell_volume   171.91738767
_cell_formula_units_Z   2
loop_
 _symmetry_equiv_pos_site_id
 _symmetry_equiv_pos_as_xyz
  1  'x, y, z'
loop_
 _atom_site_type_symbol
 _atom_site_label
 _atom_site_symmetry_multiplicity
 _atom_site_fract_x
 _atom_site_fract_y
 _atom_site_fract_z
 _atom_site_occupancy
  Li  Li0  1  0.147013  0.102987  0.102987  1
  Li  Li1  1  0.852987  0.897013  0.897013  1
  Fe  Fe2  1  0.000000  0.500000  0.500000  1
  Fe  Fe3  1  0.500000  0.500000  0.500000  1
  Sb  Sb4  1  0.500000  0.000000  0.500000  1
  Sb  Sb5  1  0.500000  0.500000  0.000000  1
  O  O6  1  0.274016  0.250772  0.250772  1
  O  O7  1  0.279679  0.235075  0.705567  1
  O  O8  1  0.279679  0.705567  0.235075  1
  O  O9  1  0.724441  0.250772  0.250772  1
  O  O10  1  0.275559  0.749228  0.749228  1
  O  O11  1  0.720321  0.764925  0.294433  1
  O  O12  1  0.720321  0.294433  0.764925  1
  O  O13  1  0.725984  0.749228  0.749228  1
