# generated using pymatgen
data_U(MoO4)2
_symmetry_space_group_name_H-M   'P 1'
_cell_length_a   9.66013272
_cell_length_b   10.28380379
_cell_length_c   14.39065083
_cell_angle_alpha   90.00000000
_cell_angle_beta   90.00000000
_cell_angle_gamma   90.00000000
_symmetry_Int_Tables_number   1
_chemical_formula_structural   U(MoO4)2
_chemical_formula_sum   'U8 Mo16 O64'
_cell_volume   1429.60912273
_cell_formula_units_Z   8
loop_
 _symmetry_equiv_pos_site_id
 _symmetry_equiv_pos_as_xyz
  1  'x, y, z'
loop_
 _atom_site_type_symbol
 _atom_site_label
 _atom_site_symmetry_multiplicity
 _atom_site_fract_x
 _atom_site_fract_y
 _atom_site_fract_z
 _atom_site_occupancy
  U  U0  1  0.723939  0.533470  0.389715  1
  U  U1  1  0.223939  0.966530  0.389715  1
  U  U2  1  0.223939  0.466530  0.110285  1
  U  U3  1  0.276061  0.966530  0.889715  1
  U  U4  1  0.276061  0.466530  0.610285  1
  U  U5  1  0.776061  0.033470  0.610285  1
  U  U6  1  0.723939  0.033470  0.110285  1
  U  U7  1  0.776061  0.533470  0.889715  1
  Mo  Mo8  1  0.003919  0.224450  0.939764  1
  Mo  Mo9  1  0.503919  0.775550  0.560236  1
  Mo  Mo10  1  0.314935  0.105431  0.151020  1
  Mo  Mo11  1  0.814935  0.894569  0.348980  1
  Mo  Mo12  1  0.185065  0.605431  0.848980  1
  Mo  Mo13  1  0.996081  0.775550  0.060236  1
  Mo  Mo14  1  0.003919  0.724450  0.560236  1
  Mo  Mo15  1  0.496081  0.724450  0.060236  1
  Mo  Mo16  1  0.996081  0.275550  0.439764  1
  Mo  Mo17  1  0.814935  0.394569  0.151020  1
  Mo  Mo18  1  0.503919  0.275550  0.939764  1
  Mo  Mo19  1  0.685065  0.894569  0.848980  1
  Mo  Mo20  1  0.185065  0.105431  0.651020  1
  Mo  Mo21  1  0.314935  0.605431  0.348980  1
  Mo  Mo22  1  0.685065  0.394569  0.651020  1
  Mo  Mo23  1  0.496081  0.224450  0.439764  1
  O  O24  1  0.888382  0.827427  0.624536  1
  O  O25  1  0.500117  0.081295  0.152406  1
  O  O26  1  0.267552  0.270060  0.179343  1
  O  O27  1  0.768897  0.503545  0.730899  1
  O  O28  1  0.624643  0.166876  0.993817  1
  O  O29  1  0.500117  0.581295  0.347594  1
  O  O30  1  0.593267  0.893402  0.634466  1
  O  O31  1  0.906733  0.893402  0.134466  1
  O  O32  1  0.411027  0.859949  0.471424  1
  O  O33  1  0.731103  0.003545  0.269101  1
  O  O34  1  0.755905  0.427302  0.034900  1
  O  O35  1  0.588973  0.140051  0.528576  1
  O  O36  1  0.244095  0.572698  0.965100  1
  O  O37  1  0.231103  0.996455  0.230899  1
  O  O38  1  0.731103  0.503545  0.230899  1
  O  O39  1  0.767552  0.229940  0.179343  1
  O  O40  1  0.088973  0.359949  0.528576  1
  O  O41  1  0.231103  0.496455  0.269101  1
  O  O42  1  0.375357  0.833124  0.006183  1
  O  O43  1  0.767552  0.729940  0.320657  1
  O  O44  1  0.911027  0.140051  0.028576  1
  O  O45  1  0.732448  0.229940  0.679343  1
  O  O46  1  0.232448  0.770060  0.820657  1
  O  O47  1  0.411027  0.359949  0.028576  1
  O  O48  1  -0.000117  0.581295  0.847594  1
  O  O49  1  0.744095  0.927302  0.965100  1
  O  O50  1  0.768897  0.003545  0.769101  1
  O  O51  1  0.124643  0.833124  0.506183  1
  O  O52  1  -0.000117  0.081295  0.652406  1
  O  O53  1  0.911027  0.640051  0.471424  1
  O  O54  1  0.267552  0.770060  0.320657  1
  O  O55  1  0.588973  0.640051  0.971424  1
  O  O56  1  0.124643  0.333124  0.993817  1
  O  O57  1  0.593267  0.393402  0.865534  1
  O  O58  1  0.388382  0.672573  0.624536  1
  O  O59  1  0.406733  0.106598  0.365534  1
  O  O60  1  0.000117  0.418705  0.152406  1
  O  O61  1  0.888382  0.327427  0.875464  1
  O  O62  1  0.111618  0.172573  0.375464  1
  O  O63  1  0.875357  0.166876  0.493817  1
  O  O64  1  0.111618  0.672573  0.124536  1
  O  O65  1  0.744095  0.427302  0.534900  1
  O  O66  1  0.000117  0.918705  0.347594  1
  O  O67  1  0.624643  0.666876  0.506183  1
  O  O68  1  0.906733  0.393402  0.365534  1
  O  O69  1  0.088973  0.859949  0.971424  1
  O  O70  1  0.388382  0.172573  0.875464  1
  O  O71  1  0.255905  0.072698  0.034900  1
  O  O72  1  0.755905  0.927302  0.465100  1
  O  O73  1  0.732448  0.729940  0.820657  1
  O  O74  1  0.093267  0.106598  0.865534  1
  O  O75  1  0.093267  0.606598  0.634466  1
  O  O76  1  0.268897  0.996455  0.730899  1
  O  O77  1  0.406733  0.606598  0.134466  1
  O  O78  1  0.375357  0.333124  0.493817  1
  O  O79  1  0.499883  0.418705  0.652406  1
  O  O80  1  0.611618  0.327427  0.375464  1
  O  O81  1  0.611618  0.827427  0.124536  1
  O  O82  1  0.499883  0.918705  0.847594  1
  O  O83  1  0.255905  0.572698  0.465100  1
  O  O84  1  0.232448  0.270060  0.679343  1
  O  O85  1  0.268897  0.496455  0.769101  1
  O  O86  1  0.875357  0.666876  0.006183  1
  O  O87  1  0.244095  0.072698  0.534900  1
