# generated using pymatgen
data_LiVSiO4
_symmetry_space_group_name_H-M   'P 1'
_cell_length_a   5.23340619
_cell_length_b   5.23311597
_cell_length_c   9.55708491
_cell_angle_alpha   89.97218347
_cell_angle_beta   89.99774048
_cell_angle_gamma   119.99463769
_symmetry_Int_Tables_number   1
_chemical_formula_structural   LiVSiO4
_chemical_formula_sum   'Li2 V2 Si2 O8'
_cell_volume   226.68577553
_cell_formula_units_Z   2
loop_
 _symmetry_equiv_pos_site_id
 _symmetry_equiv_pos_as_xyz
  1  'x, y, z'
loop_
 _atom_site_type_symbol
 _atom_site_label
 _atom_site_symmetry_multiplicity
 _atom_site_fract_x
 _atom_site_fract_y
 _atom_site_fract_z
 _atom_site_occupancy
  Li  Li0  1  0.000024  0.999934  0.218134  1
  Li  Li1  1  0.999618  0.999880  0.717709  1
  V  V2  1  0.333531  0.666720  0.125828  1
  V  V3  1  0.666592  0.333338  0.625851  1
  Si  Si4  1  0.333160  0.666656  0.761884  1
  Si  Si5  1  0.666817  0.333316  0.261871  1
  O  O6  1  0.030138  0.374730  0.704449  1
  O  O7  1  0.343848  0.969304  0.703926  1
  O  O8  1  0.334206  0.666984  0.931680  1
  O  O9  1  0.374829  0.344231  0.204280  1
  O  O10  1  0.624787  0.655761  0.703697  1
  O  O11  1  0.667717  0.333579  0.431700  1
  O  O12  1  0.655736  0.030496  0.204095  1
  O  O13  1  0.969298  0.625072  0.203717  1
