# generated using pymatgen
data_Mn3(OF2)2
_symmetry_space_group_name_H-M   'P 1'
_cell_length_a   4.78806348
_cell_length_b   4.69759938
_cell_length_c   9.69136476
_cell_angle_alpha   90.00000000
_cell_angle_beta   90.00000000
_cell_angle_gamma   90.00000000
_symmetry_Int_Tables_number   1
_chemical_formula_structural   Mn3(OF2)2
_chemical_formula_sum   'Mn6 O4 F8'
_cell_volume   217.98209183
_cell_formula_units_Z   2
loop_
 _symmetry_equiv_pos_site_id
 _symmetry_equiv_pos_as_xyz
  1  'x, y, z'
loop_
 _atom_site_type_symbol
 _atom_site_label
 _atom_site_symmetry_multiplicity
 _atom_site_fract_x
 _atom_site_fract_y
 _atom_site_fract_z
 _atom_site_occupancy
  Mn  Mn0  1  0.037150  0.003162  0.992714  1
  Mn  Mn1  1  0.037150  0.003162  0.340619  1
  Mn  Mn2  1  0.996776  0.972211  0.666667  1
  Mn  Mn3  1  0.462850  0.503162  0.840619  1
  Mn  Mn4  1  0.503224  0.472211  0.166667  1
  Mn  Mn5  1  0.462850  0.503162  0.492714  1
  O  O6  1  0.188578  0.805661  0.497239  1
  O  O7  1  0.188578  0.805661  0.836095  1
  O  O8  1  0.311422  0.305661  0.997239  1
  O  O9  1  0.311422  0.305661  0.336095  1
  F  F10  1  0.225018  0.808496  0.166667  1
  F  F11  1  0.274982  0.308496  0.666667  1
  F  F12  1  0.723338  0.708356  0.007420  1
  F  F13  1  0.723338  0.708356  0.325913  1
  F  F14  1  0.655262  0.684935  0.666667  1
  F  F15  1  0.844738  0.184935  0.166667  1
  F  F16  1  0.776662  0.208356  0.507420  1
  F  F17  1  0.776662  0.208356  0.825913  1
