# generated using pymatgen
data_Na6Co2P(CO4)4
_symmetry_space_group_name_H-M   'P 1'
_cell_length_a   9.86786875
_cell_length_b   9.86786955
_cell_length_c   9.86786923
_cell_angle_alpha   60.00000043
_cell_angle_beta   59.99999828
_cell_angle_gamma   59.99999937
_symmetry_Int_Tables_number   1
_chemical_formula_structural   Na6Co2P(CO4)4
_chemical_formula_sum   'Na12 Co4 P2 C8 O32'
_cell_volume   679.44631176
_cell_formula_units_Z   2
loop_
 _symmetry_equiv_pos_site_id
 _symmetry_equiv_pos_as_xyz
  1  'x, y, z'
loop_
 _atom_site_type_symbol
 _atom_site_label
 _atom_site_symmetry_multiplicity
 _atom_site_fract_x
 _atom_site_fract_y
 _atom_site_fract_z
 _atom_site_occupancy
  Na  Na0  1  0.083626  0.666374  0.083626  1
  Na  Na1  1  0.083626  0.083626  0.666374  1
  Na  Na2  1  0.083626  0.666374  0.666374  1
  Na  Na3  1  0.666374  0.083626  0.083626  1
  Na  Na4  1  0.333626  0.916374  0.333626  1
  Na  Na5  1  0.333626  0.333626  0.916374  1
  Na  Na6  1  0.666374  0.666374  0.083626  1
  Na  Na7  1  0.666374  0.083626  0.666374  1
  Na  Na8  1  0.916374  0.333626  0.333626  1
  Na  Na9  1  0.333626  0.916374  0.916374  1
  Na  Na10  1  0.916374  0.333626  0.916374  1
  Na  Na11  1  0.916374  0.916374  0.333626  1
  Co  Co12  1  0.000000  0.500000  0.500000  1
  Co  Co13  1  0.500000  0.000000  0.500000  1
  Co  Co14  1  0.500000  0.500000  0.000000  1
  Co  Co15  1  0.500000  0.500000  0.500000  1
  P  P16  1  0.125000  0.125000  0.125000  1
  P  P17  1  0.875000  0.875000  0.875000  1
  C  C18  1  0.284306  0.284306  0.284306  1
  C  C19  1  0.284306  0.284306  0.647083  1
  C  C20  1  0.284306  0.647083  0.284306  1
  C  C21  1  0.647083  0.284306  0.284306  1
  C  C22  1  0.352917  0.715694  0.715694  1
  C  C23  1  0.715694  0.352917  0.715694  1
  C  C24  1  0.715694  0.715694  0.352917  1
  C  C25  1  0.715694  0.715694  0.715694  1
  O  O26  1  0.060451  0.060451  0.060451  1
  O  O27  1  0.060451  0.060451  0.318649  1
  O  O28  1  0.060451  0.318649  0.060451  1
  O  O29  1  0.318649  0.060451  0.060451  1
  O  O30  1  0.140999  0.400428  0.308860  1
  O  O31  1  0.308860  0.140999  0.400428  1
  O  O32  1  0.140999  0.308860  0.649713  1
  O  O33  1  0.400428  0.308860  0.140999  1
  O  O34  1  0.140999  0.649713  0.400428  1
  O  O35  1  0.308860  0.649713  0.140999  1
  O  O36  1  0.400428  0.140999  0.649713  1
  O  O37  1  0.308860  0.400428  0.649713  1
  O  O38  1  0.649713  0.140999  0.308860  1
  O  O39  1  0.400428  0.649713  0.308860  1
  O  O40  1  0.649713  0.400428  0.140999  1
  O  O41  1  0.350287  0.691140  0.599572  1
  O  O42  1  0.649713  0.308860  0.400428  1
  O  O43  1  0.350287  0.599572  0.859001  1
  O  O44  1  0.599572  0.350287  0.691140  1
  O  O45  1  0.350287  0.859001  0.691140  1
  O  O46  1  0.691140  0.599572  0.350287  1
  O  O47  1  0.599572  0.859001  0.350287  1
  O  O48  1  0.691140  0.350287  0.859001  1
  O  O49  1  0.859001  0.350287  0.599572  1
  O  O50  1  0.599572  0.691140  0.859001  1
  O  O51  1  0.859001  0.691140  0.350287  1
  O  O52  1  0.691140  0.859001  0.599572  1
  O  O53  1  0.859001  0.599572  0.691140  1
  O  O54  1  0.681351  0.939549  0.939549  1
  O  O55  1  0.939549  0.681351  0.939549  1
  O  O56  1  0.939549  0.939549  0.681351  1
  O  O57  1  0.939549  0.939549  0.939549  1
