# generated using pymatgen
data_Li3V4SnO12
_symmetry_space_group_name_H-M   'P 1'
_cell_length_a   5.47571765
_cell_length_b   10.92773207
_cell_length_c   9.59142297
_cell_angle_alpha   28.05020246
_cell_angle_beta   50.31226727
_cell_angle_gamma   55.73934175
_symmetry_Int_Tables_number   1
_chemical_formula_structural   Li3V4SnO12
_chemical_formula_sum   'Li3 V4 Sn1 O12'
_cell_volume   207.68578939
_cell_formula_units_Z   1
loop_
 _symmetry_equiv_pos_site_id
 _symmetry_equiv_pos_as_xyz
  1  'x, y, z'
loop_
 _atom_site_type_symbol
 _atom_site_label
 _atom_site_symmetry_multiplicity
 _atom_site_fract_x
 _atom_site_fract_y
 _atom_site_fract_z
 _atom_site_occupancy
  Li  Li0  1  0.273513  0.498781  0.290704  1
  Li  Li1  1  0.789573  0.004267  0.781965  1
  Li  Li2  1  0.782532  0.498346  0.782662  1
  V  V3  1  0.041873  0.021006  0.960211  1
  V  V4  1  0.976645  0.487115  0.024677  1
  V  V5  1  0.496434  0.979558  0.522633  1
  V  V6  1  0.518608  0.515392  0.472568  1
  Sn  Sn7  1  0.292899  0.999171  0.287067  1
  O  O8  1  0.358521  0.293734  0.124139  1
  O  O9  1  0.218099  0.116111  0.632625  1
  O  O10  1  0.122084  0.307142  0.732417  1
  O  O11  1  0.872524  0.197678  0.216010  1
  O  O12  1  0.343225  0.808299  0.118611  1
  O  O13  1  0.722978  0.382179  0.356057  1
  O  O14  1  0.211354  0.631661  0.610104  1
  O  O15  1  0.610715  0.174382  0.865920  1
  O  O16  1  0.118181  0.821220  0.716558  1
  O  O17  1  0.845772  0.686033  0.237873  1
  O  O18  1  0.724538  0.883722  0.343652  1
  O  O19  1  0.609530  0.694205  0.853149  1
