# generated using pymatgen
data_LiAg2F4
_symmetry_space_group_name_H-M   'P 1'
_cell_length_a   3.30910811
_cell_length_b   5.58109127
_cell_length_c   10.89134451
_cell_angle_alpha   89.66248078
_cell_angle_beta   90.50431400
_cell_angle_gamma   93.08637642
_symmetry_Int_Tables_number   1
_chemical_formula_structural   LiAg2F4
_chemical_formula_sum   'Li2 Ag4 F8'
_cell_volume   200.84358326
_cell_formula_units_Z   2
loop_
 _symmetry_equiv_pos_site_id
 _symmetry_equiv_pos_as_xyz
  1  'x, y, z'
loop_
 _atom_site_type_symbol
 _atom_site_label
 _atom_site_symmetry_multiplicity
 _atom_site_fract_x
 _atom_site_fract_y
 _atom_site_fract_z
 _atom_site_occupancy
  Li  Li0  1  0.870791  0.201527  0.251505  1
  Li  Li1  1  0.128790  0.799077  0.748941  1
  Ag  Ag2  1  0.368647  0.729513  0.080448  1
  Ag  Ag3  1  0.361863  0.730802  0.420358  1
  Ag  Ag4  1  0.638794  0.269707  0.580436  1
  Ag  Ag5  1  0.631772  0.269943  0.919484  1
  F  F6  1  0.999325  0.999445  0.000174  1
  F  F7  1  0.220769  0.566222  0.879782  1
  F  F8  1  0.232850  0.569120  0.619178  1
  F  F9  1  0.378326  0.987474  0.250699  1
  F  F10  1  0.624918  0.010231  0.749974  1
  F  F11  1  0.780102  0.433416  0.119953  1
  F  F12  1  0.761601  0.432580  0.379742  1
  F  F13  1  0.001452  0.000944  0.499325  1
