# generated using pymatgen
data_LiFeP2O7
_symmetry_space_group_name_H-M   'P 1'
_cell_length_a   6.95849498
_cell_length_b   8.41612625
_cell_length_c   9.38860138
_cell_angle_alpha   90.00000000
_cell_angle_beta   112.25883004
_cell_angle_gamma   90.00000000
_symmetry_Int_Tables_number   1
_chemical_formula_structural   LiFeP2O7
_chemical_formula_sum   'Li4 Fe4 P8 O28'
_cell_volume   508.85787660
_cell_formula_units_Z   4
loop_
 _symmetry_equiv_pos_site_id
 _symmetry_equiv_pos_as_xyz
  1  'x, y, z'
loop_
 _atom_site_type_symbol
 _atom_site_label
 _atom_site_symmetry_multiplicity
 _atom_site_fract_x
 _atom_site_fract_y
 _atom_site_fract_z
 _atom_site_occupancy
  Li  Li0  1  0.103156  0.575898  0.910958  1
  Li  Li1  1  0.396844  0.075898  0.589042  1
  Li  Li2  1  0.603156  0.924102  0.410958  1
  Li  Li3  1  0.896844  0.424102  0.089042  1
  Fe  Fe4  1  0.117351  0.932081  0.807206  1
  Fe  Fe5  1  0.382649  0.432081  0.692794  1
  Fe  Fe6  1  0.617351  0.567919  0.307206  1
  Fe  Fe7  1  0.882649  0.067919  0.192794  1
  P  P8  1  0.057035  0.717929  0.529972  1
  P  P9  1  0.442965  0.217929  0.970028  1
  P  P10  1  0.174166  0.736984  0.241948  1
  P  P11  1  0.325834  0.236984  0.258052  1
  P  P12  1  0.674166  0.763016  0.741948  1
  P  P13  1  0.825834  0.263016  0.758052  1
  P  P14  1  0.557035  0.782071  0.029972  1
  P  P15  1  0.942965  0.282071  0.470028  1
  O  O16  1  0.145774  0.582686  0.645476  1
  O  O17  1  0.129358  0.881666  0.607488  1
  O  O18  1  0.317859  0.781209  0.951527  1
  O  O19  1  0.182141  0.281209  0.548473  1
  O  O20  1  0.370642  0.381666  0.892512  1
  O  O21  1  0.153027  0.691745  0.403677  1
  O  O22  1  0.354226  0.082686  0.854524  1
  O  O23  1  0.087017  0.243836  0.208950  1
  O  O24  1  0.075996  0.902548  0.195847  1
  O  O25  1  0.074590  0.609880  0.124909  1
  O  O26  1  0.653027  0.808255  0.903677  1
  O  O27  1  0.425410  0.109880  0.375091  1
  O  O28  1  0.587017  0.256164  0.708950  1
  O  O29  1  0.575996  0.597452  0.695847  1
  O  O30  1  0.424004  0.402548  0.304153  1
  O  O31  1  0.412983  0.743836  0.291050  1
  O  O32  1  0.574590  0.890120  0.624909  1
  O  O33  1  0.346973  0.191745  0.096323  1
  O  O34  1  0.925410  0.390120  0.875091  1
  O  O35  1  0.924004  0.097452  0.804153  1
  O  O36  1  0.912983  0.756164  0.791050  1
  O  O37  1  0.645774  0.917314  0.145476  1
  O  O38  1  0.846973  0.308255  0.596323  1
  O  O39  1  0.629358  0.618334  0.107488  1
  O  O40  1  0.817859  0.718791  0.451527  1
  O  O41  1  0.682141  0.218791  0.048473  1
  O  O42  1  0.870642  0.118334  0.392512  1
  O  O43  1  0.854226  0.417314  0.354524  1
