# generated using pymatgen
data_Li5Ni3O5F3
_symmetry_space_group_name_H-M   'P 1'
_cell_length_a   6.00220528
_cell_length_b   5.75624396
_cell_length_c   5.99037446
_cell_angle_alpha   61.20209355
_cell_angle_beta   55.66693344
_cell_angle_gamma   61.64563356
_symmetry_Int_Tables_number   1
_chemical_formula_structural   Li5Ni3O5F3
_chemical_formula_sum   'Li5 Ni3 O5 F3'
_cell_volume   143.74382739
_cell_formula_units_Z   1
loop_
 _symmetry_equiv_pos_site_id
 _symmetry_equiv_pos_as_xyz
  1  'x, y, z'
loop_
 _atom_site_type_symbol
 _atom_site_label
 _atom_site_symmetry_multiplicity
 _atom_site_fract_x
 _atom_site_fract_y
 _atom_site_fract_z
 _atom_site_occupancy
  Li  Li0  1  0.501069  0.000316  0.000582  1
  Li  Li1  1  0.996552  0.005846  0.006561  1
  Li  Li2  1  0.997800  0.485750  0.014433  1
  Li  Li3  1  0.990318  0.010199  0.489535  1
  Li  Li4  1  0.508640  0.492332  0.495407  1
  Ni  Ni5  1  0.506503  0.005628  0.494903  1
  Ni  Ni6  1  0.519184  0.484839  0.015233  1
  Ni  Ni7  1  0.000149  0.500929  0.498884  1
  O  O8  1  0.747959  0.254312  0.245946  1
  O  O9  1  0.261940  0.258989  0.274473  1
  O  O10  1  0.758632  0.285064  0.744255  1
  O  O11  1  0.243028  0.715631  0.253923  1
  O  O12  1  0.734892  0.741458  0.724615  1
  F  F13  1  0.278591  0.223293  0.788106  1
  F  F14  1  0.722826  0.776186  0.213636  1
  F  F15  1  0.231917  0.759231  0.739509  1
