# generated using pymatgen
data_Na2Sb4O11
_symmetry_space_group_name_H-M   'P 1'
_cell_length_a   7.64251658
_cell_length_b   10.56808939
_cell_length_c   7.26420204
_cell_angle_alpha   85.04262436
_cell_angle_beta   89.93810368
_cell_angle_gamma   68.83424997
_symmetry_Int_Tables_number   1
_chemical_formula_structural   Na2Sb4O11
_chemical_formula_sum   'Na4 Sb8 O22'
_cell_volume   544.79380150
_cell_formula_units_Z   2
loop_
 _symmetry_equiv_pos_site_id
 _symmetry_equiv_pos_as_xyz
  1  'x, y, z'
loop_
 _atom_site_type_symbol
 _atom_site_label
 _atom_site_symmetry_multiplicity
 _atom_site_fract_x
 _atom_site_fract_y
 _atom_site_fract_z
 _atom_site_occupancy
  Na  Na0  1  0.013580  0.945873  0.283631  1
  Na  Na1  1  0.738206  0.523437  0.063893  1
  Na  Na2  1  0.264121  0.473233  0.934200  1
  Na  Na3  1  0.963585  0.051706  0.722575  1
  Sb  Sb4  1  0.576876  0.847252  0.616289  1
  Sb  Sb5  1  0.573001  0.856427  0.095650  1
  Sb  Sb6  1  0.416041  0.651349  0.434258  1
  Sb  Sb7  1  0.933644  0.650571  0.435055  1
  Sb  Sb8  1  0.585254  0.348096  0.564627  1
  Sb  Sb9  1  0.069003  0.347353  0.564983  1
  Sb  Sb10  1  0.429652  0.141719  0.903348  1
  Sb  Sb11  1  0.424420  0.151370  0.382302  1
  O  O12  1  0.524304  0.952379  0.343286  1
  O  O13  1  0.331663  0.825038  0.565070  1
  O  O14  1  0.844658  0.825632  0.564894  1
  O  O15  1  0.622481  0.759480  0.867409  1
  O  O16  1  0.441240  0.734167  0.183468  1
  O  O17  1  0.827322  0.737335  0.185576  1
  O  O18  1  0.668632  0.664373  0.512280  1
  O  O19  1  0.155495  0.689797  0.351642  1
  O  O20  1  0.032109  0.526707  0.666614  1
  O  O21  1  0.443896  0.527243  0.667134  1
  O  O22  1  0.971500  0.471589  0.332468  1
  O  O23  1  0.558439  0.472230  0.332572  1
  O  O24  1  0.846348  0.308961  0.647737  1
  O  O25  1  0.333626  0.334520  0.487026  1
  O  O26  1  0.562731  0.263007  0.814678  1
  O  O27  1  0.175746  0.264313  0.816048  1
  O  O28  1  0.381456  0.238719  0.131391  1
  O  O29  1  0.157388  0.173731  0.433813  1
  O  O30  1  0.669785  0.173402  0.434178  1
  O  O31  1  0.476968  0.046074  0.655436  1
  O  O32  1  0.328261  0.998888  0.000034  1
  O  O33  1  0.675646  0.999742  0.999634  1
