# generated using pymatgen
data_Li2Fe(Si2O5)3
_symmetry_space_group_name_H-M   'P 1'
_cell_length_a   7.30881180
_cell_length_b   7.50009363
_cell_length_c   6.86219012
_cell_angle_alpha   112.23974012
_cell_angle_beta   113.22399350
_cell_angle_gamma   97.30700945
_symmetry_Int_Tables_number   1
_chemical_formula_structural   Li2Fe(Si2O5)3
_chemical_formula_sum   'Li2 Fe1 Si6 O15'
_cell_volume   302.59905680
_cell_formula_units_Z   1
loop_
 _symmetry_equiv_pos_site_id
 _symmetry_equiv_pos_as_xyz
  1  'x, y, z'
loop_
 _atom_site_type_symbol
 _atom_site_label
 _atom_site_symmetry_multiplicity
 _atom_site_fract_x
 _atom_site_fract_y
 _atom_site_fract_z
 _atom_site_occupancy
  Li  Li0  1  0.169168  0.142216  0.714548  1
  Li  Li1  1  0.830832  0.857784  0.285452  1
  Fe  Fe2  1  0.000000  0.000000  0.000000  1
  Si  Si3  1  0.173193  0.612802  0.872313  1
  Si  Si4  1  0.200797  0.782267  0.354987  1
  Si  Si5  1  0.510376  0.696179  0.717536  1
  Si  Si6  1  0.489624  0.303821  0.282464  1
  Si  Si7  1  0.799203  0.217733  0.645013  1
  Si  Si8  1  0.826807  0.387198  0.127687  1
  O  O9  1  0.057894  0.774195  0.826003  1
  O  O10  1  0.987621  0.623243  0.307284  1
  O  O11  1  0.133914  0.978867  0.352576  1
  O  O12  1  0.374074  0.614015  0.824148  1
  O  O13  1  0.399856  0.841567  0.614667  1
  O  O14  1  0.263775  0.658915  0.150689  1
  O  O15  1  0.254926  0.175276  0.054846  1
  O  O16  1  0.500000  0.500000  0.500000  1
  O  O17  1  0.745074  0.824724  0.945154  1
  O  O18  1  0.736225  0.341085  0.849311  1
  O  O19  1  0.600144  0.158433  0.385333  1
  O  O20  1  0.625926  0.385985  0.175852  1
  O  O21  1  0.866086  0.021134  0.647424  1
  O  O22  1  0.012379  0.376757  0.692716  1
  O  O23  1  0.942106  0.225805  0.173997  1
