# generated using pymatgen
data_Li4Co3WO8
_symmetry_space_group_name_H-M   'P 1'
_cell_length_a   10.38175831
_cell_length_b   10.38043932
_cell_length_c   14.66000201
_cell_angle_alpha   19.69193954
_cell_angle_beta   19.69273689
_cell_angle_gamma   33.93608869
_symmetry_Int_Tables_number   1
_chemical_formula_structural   Li4Co3WO8
_chemical_formula_sum   'Li4 Co3 W1 O8'
_cell_volume   155.34226700
_cell_formula_units_Z   1
loop_
 _symmetry_equiv_pos_site_id
 _symmetry_equiv_pos_as_xyz
  1  'x, y, z'
loop_
 _atom_site_type_symbol
 _atom_site_label
 _atom_site_symmetry_multiplicity
 _atom_site_fract_x
 _atom_site_fract_y
 _atom_site_fract_z
 _atom_site_occupancy
  Li  Li0  1  0.000000  1.000000  0.500000  1
  Li  Li1  1  1.000000  0.500000  0.500001  1
  Li  Li2  1  0.500000  0.000000  0.500000  1
  Li  Li3  1  0.499999  0.500000  0.500000  1
  Co  Co4  1  0.000000  0.500000  1.000000  1
  Co  Co5  1  0.500001  0.000001  0.999999  1
  Co  Co6  1  0.500000  0.500000  1.000000  1
  W  W7  1  0.999999  0.999999  0.000001  1
  O  O8  1  0.000153  0.000099  0.261306  1
  O  O9  1  0.002284  0.544556  0.222995  1
  O  O10  1  0.542443  0.997822  0.227407  1
  O  O11  1  0.999847  0.999902  0.738693  1
  O  O12  1  0.455532  0.457777  0.311985  1
  O  O13  1  0.997715  0.455444  0.777005  1
  O  O14  1  0.457556  0.002178  0.772593  1
  O  O15  1  0.544468  0.542223  0.688016  1
