# generated using pymatgen
data_LiFe2(BO3)2
_symmetry_space_group_name_H-M   'P 1'
_cell_length_a   5.27569245
_cell_length_b   9.11362110
_cell_length_c   11.37620567
_cell_angle_alpha   113.73049667
_cell_angle_beta   77.17699800
_cell_angle_gamma   89.73799027
_symmetry_Int_Tables_number   1
_chemical_formula_structural   LiFe2(BO3)2
_chemical_formula_sum   'Li4 Fe8 B8 O24'
_cell_volume   485.53153359
_cell_formula_units_Z   4
loop_
 _symmetry_equiv_pos_site_id
 _symmetry_equiv_pos_as_xyz
  1  'x, y, z'
loop_
 _atom_site_type_symbol
 _atom_site_label
 _atom_site_symmetry_multiplicity
 _atom_site_fract_x
 _atom_site_fract_y
 _atom_site_fract_z
 _atom_site_occupancy
  Li  Li0  1  0.167744  0.162741  0.346332  1
  Li  Li1  1  0.606114  0.054595  0.103620  1
  Li  Li2  1  0.928849  0.428569  0.838750  1
  Li  Li3  1  0.429541  0.929293  0.834359  1
  Fe  Fe4  1  0.399421  0.280734  0.868963  1
  Fe  Fe5  1  0.094858  0.236228  0.121623  1
  Fe  Fe6  1  0.842800  0.136435  0.614102  1
  Fe  Fe7  1  0.657192  0.353658  0.375492  1
  Fe  Fe8  1  0.345544  0.640819  0.618142  1
  Fe  Fe9  1  0.147449  0.832958  0.366798  1
  Fe  Fe10  1  0.908382  0.777591  0.872794  1
  Fe  Fe11  1  0.602268  0.724203  0.128210  1
  B  B12  1  0.647625  0.018325  0.364266  1
  B  B13  1  0.894828  0.106118  0.875433  1
  B  B14  1  0.145142  0.513429  0.371064  1
  B  B15  1  0.405336  0.609140  0.874648  1
  B  B16  1  0.847582  0.481773  0.629138  1
  B  B17  1  0.601970  0.388264  0.117305  1
  B  B18  1  0.341520  0.980568  0.623146  1
  B  B19  1  0.102775  0.897872  0.123936  1
  O  O20  1  0.130381  0.126222  0.916062  1
  O  O21  1  0.474010  0.117657  0.657444  1
  O  O22  1  0.212235  0.039860  0.132663  1
  O  O23  1  0.522361  0.143819  0.355405  1
  O  O24  1  0.878082  0.040717  0.411572  1
  O  O25  1  0.813621  0.208245  0.823629  1
  O  O26  1  0.268168  0.481430  0.867275  1
  O  O27  1  0.064915  0.353523  0.319174  1
  O  O28  1  0.717677  0.278828  0.154483  1
  O  O29  1  0.631591  0.482396  0.580124  1
  O  O30  1  0.933861  0.347681  0.641173  1
  O  O31  1  0.376107  0.347080  0.074097  1
  O  O32  1  0.637827  0.628391  0.919660  1
  O  O33  1  0.357464  0.527545  0.428376  1
  O  O34  1  0.319619  0.723946  0.834099  1
  O  O35  1  0.976161  0.619951  0.669890  1
  O  O36  1  0.712552  0.521246  0.117161  1
  O  O37  1  0.229809  0.789477  0.152837  1
  O  O38  1  0.126564  0.977343  0.572311  1
  O  O39  1  0.420390  0.854309  0.647769  1
  O  O40  1  0.021135  0.634012  0.363114  1
  O  O41  1  0.744697  0.989176  0.893074  1
  O  O42  1  0.554806  0.867205  0.322425  1
  O  O43  1  0.862775  0.870972  0.089183  1
