# generated using pymatgen
data_Li5Mn(SiO3)4
_symmetry_space_group_name_H-M   'P 1'
_cell_length_a   12.62281793
_cell_length_b   12.62906961
_cell_length_c   12.62645729
_cell_angle_alpha   110.09260995
_cell_angle_beta   109.89875674
_cell_angle_gamma   109.98569614
_symmetry_Int_Tables_number   1
_chemical_formula_structural   Li5Mn(SiO3)4
_chemical_formula_sum   'Li30 Mn6 Si24 O72'
_cell_volume   1518.84991715
_cell_formula_units_Z   6
loop_
 _symmetry_equiv_pos_site_id
 _symmetry_equiv_pos_as_xyz
  1  'x, y, z'
loop_
 _atom_site_type_symbol
 _atom_site_label
 _atom_site_symmetry_multiplicity
 _atom_site_fract_x
 _atom_site_fract_y
 _atom_site_fract_z
 _atom_site_occupancy
  Li  Li0  1  0.025493  0.827795  0.836701  1
  Li  Li1  1  0.173550  0.975279  0.164864  1
  Li  Li2  1  0.141872  0.640020  0.175616  1
  Li  Li3  1  0.362135  0.858220  0.824964  1
  Li  Li4  1  0.183029  0.597537  0.705788  1
  Li  Li5  1  0.399573  0.816199  0.294277  1
  Li  Li6  1  0.473357  0.641576  0.631265  1
  Li  Li7  1  0.357949  0.526286  0.368010  1
  Li  Li8  1  0.293210  0.402452  0.815784  1
  Li  Li9  1  0.600508  0.704535  0.182315  1
  Li  Li10  1  0.763708  0.763344  0.763037  1
  Li  Li11  1  0.000209  0.000078  0.000589  1
  Li  Li12  1  0.237817  0.237861  0.237202  1
  Li  Li13  1  0.163868  0.172262  0.974956  1
  Li  Li14  1  0.826861  0.836085  0.025175  1
  Li  Li15  1  0.369221  0.360096  0.526982  1
  Li  Li16  1  0.644034  0.632902  0.474116  1
  Li  Li17  1  0.858316  0.824991  0.361624  1
  Li  Li18  1  0.176194  0.142682  0.639232  1
  Li  Li19  1  0.526491  0.368208  0.357171  1
  Li  Li20  1  0.631240  0.473320  0.640459  1
  Li  Li21  1  0.999220  0.710655  0.288797  1
  Li  Li22  1  0.290080  0.999766  0.709628  1
  Li  Li23  1  0.711674  0.291210  0.002336  1
  Li  Li24  1  0.824053  0.360878  0.858299  1
  Li  Li25  1  0.638577  0.175125  0.142396  1
  Li  Li26  1  0.703467  0.181070  0.601096  1
  Li  Li27  1  0.815910  0.293557  0.402889  1
  Li  Li28  1  0.835930  0.025056  0.827731  1
  Li  Li29  1  0.974821  0.163602  0.173031  1
  Mn  Mn30  1  0.242303  0.756565  0.000002  1
  Mn  Mn31  1  0.257203  0.744218  0.499239  1
  Mn  Mn32  1  0.000019  0.243161  0.757433  1
  Mn  Mn33  1  0.743068  0.500428  0.256508  1
  Mn  Mn34  1  0.500377  0.255986  0.743411  1
  Mn  Mn35  1  0.757345  0.000075  0.243194  1
  Si  Si36  1  0.021231  0.760958  0.552815  1
  Si  Si37  1  0.239645  0.979082  0.445599  1
  Si  Si38  1  0.192611  0.465858  0.471874  1
  Si  Si39  1  0.535186  0.806139  0.528007  1
  Si  Si40  1  0.699491  0.973409  0.964675  1
  Si  Si41  1  0.026870  0.300060  0.035614  1
  Si  Si42  1  0.485021  0.746348  0.948982  1
  Si  Si43  1  0.254115  0.515109  0.052257  1
  Si  Si44  1  0.746249  0.948151  0.484907  1
  Si  Si45  1  0.051934  0.254164  0.515608  1
  Si  Si46  1  0.464782  0.471352  0.192964  1
  Si  Si47  1  0.527487  0.534112  0.806511  1
  Si  Si48  1  0.973129  0.964741  0.699836  1
  Si  Si49  1  0.035720  0.026760  0.300617  1
  Si  Si50  1  0.446463  0.238581  0.978492  1
  Si  Si51  1  0.759695  0.553896  0.021049  1
  Si  Si52  1  0.300281  0.035231  0.026715  1
  Si  Si53  1  0.963702  0.699384  0.972902  1
  Si  Si54  1  0.807742  0.528102  0.534625  1
  Si  Si55  1  0.471779  0.193977  0.464978  1
  Si  Si56  1  0.515129  0.051476  0.253700  1
  Si  Si57  1  0.947367  0.483901  0.745824  1
  Si  Si58  1  0.978846  0.447153  0.239327  1
  Si  Si59  1  0.554595  0.021595  0.760799  1
  O  O60  1  0.067343  0.912349  0.663432  1
  O  O61  1  0.087028  0.931487  0.336325  1
  O  O62  1  0.222149  0.874408  0.934603  1
  O  O63  1  0.124328  0.776335  0.064963  1
  O  O64  1  0.239133  0.844141  0.415258  1
  O  O65  1  0.158304  0.767499  0.582113  1
  O  O66  1  0.072782  0.594144  0.277719  1
  O  O67  1  0.407976  0.928269  0.722994  1
  O  O68  1  0.410350  0.904090  0.202138  1
  O  O69  1  0.095257  0.588064  0.797973  1
  O  O70  1  0.249733  0.649748  0.088064  1
  O  O71  1  0.350202  0.750215  0.913945  1
  O  O72  1  0.272260  0.626939  0.567881  1
  O  O73  1  0.374157  0.725896  0.432178  1
  O  O74  1  0.053487  0.401825  0.335033  1
  O  O75  1  0.599596  0.944986  0.665515  1
  O  O76  1  0.162863  0.444282  0.105354  1
  O  O77  1  0.554454  0.838307  0.895608  1
  O  O78  1  0.150912  0.411401  0.563268  1
  O  O79  1  0.589223  0.848464  0.436811  1
  O  O80  1  0.202183  0.411931  0.905119  1
  O  O81  1  0.588937  0.797529  0.095251  1
  O  O82  1  0.750920  0.913097  0.350871  1
  O  O83  1  0.087497  0.250673  0.650127  1
  O  O84  1  0.411079  0.563129  0.151377  1
  O  O85  1  0.436546  0.589228  0.848867  1
  O  O86  1  0.792280  0.932780  0.921194  1
  O  O87  1  0.065615  0.206127  0.078213  1
  O  O88  1  0.285788  0.422759  0.433695  1
  O  O89  1  0.577733  0.712598  0.565528  1
  O  O90  1  0.105038  0.162422  0.445080  1
  O  O91  1  0.837555  0.894988  0.555494  1
  O  O92  1  0.065069  0.125150  0.776968  1
  O  O93  1  0.875268  0.935131  0.223057  1
  O  O94  1  0.420305  0.431905  0.284816  1
  O  O95  1  0.563771  0.575299  0.711611  1
  O  O96  1  0.934032  0.922146  0.793731  1
  O  O97  1  0.078966  0.066310  0.207326  1
  O  O98  1  0.625808  0.567427  0.274490  1
  O  O99  1  0.432022  0.373399  0.728557  1
  O  O100  1  0.665587  0.599919  0.945165  1
  O  O101  1  0.401559  0.334985  0.053449  1
  O  O102  1  0.207435  0.078638  0.067093  1
  O  O103  1  0.921418  0.793190  0.933851  1
  O  O104  1  0.715449  0.567453  0.578531  1
  O  O105  1  0.435720  0.288836  0.423786  1
  O  O106  1  0.416738  0.232819  0.841940  1
  O  O107  1  0.761709  0.584007  0.156290  1
  O  O108  1  0.926999  0.722202  0.406422  1
  O  O109  1  0.277437  0.071978  0.592023  1
  O  O110  1  0.335837  0.086903  0.931991  1
  O  O111  1  0.911934  0.663539  0.067739  1
  O  O112  1  0.721912  0.407127  0.927821  1
  O  O113  1  0.592831  0.276952  0.072696  1
  O  O114  1  0.947550  0.664484  0.598192  1
  O  O115  1  0.332980  0.055536  0.399077  1
  O  O116  1  0.727403  0.432002  0.373740  1
  O  O117  1  0.567114  0.272468  0.625665  1
  O  O118  1  0.445085  0.103997  0.161363  1
  O  O119  1  0.894355  0.555088  0.837164  1
  O  O120  1  0.849090  0.436476  0.588909  1
  O  O121  1  0.562553  0.151133  0.410263  1
  O  O122  1  0.585146  0.156917  0.762877  1
  O  O123  1  0.842483  0.417680  0.233880  1
  O  O124  1  0.912537  0.350334  0.750698  1
  O  O125  1  0.649320  0.086098  0.249857  1
  O  O126  1  0.664134  0.068226  0.912716  1
  O  O127  1  0.932638  0.336942  0.087747  1
  O  O128  1  0.777133  0.065390  0.125067  1
  O  O129  1  0.935078  0.222828  0.875329  1
  O  O130  1  0.797729  0.095301  0.588945  1
  O  O131  1  0.904801  0.202259  0.411773  1
