# generated using pymatgen
data_LiMnF4
_symmetry_space_group_name_H-M   'P 1'
_cell_length_a   5.32783184
_cell_length_b   6.88430220
_cell_length_c   5.07609414
_cell_angle_alpha   62.12471377
_cell_angle_beta   89.85070113
_cell_angle_gamma   66.76828423
_symmetry_Int_Tables_number   1
_chemical_formula_structural   LiMnF4
_chemical_formula_sum   'Li2 Mn2 F8'
_cell_volume   147.39787236
_cell_formula_units_Z   2
loop_
 _symmetry_equiv_pos_site_id
 _symmetry_equiv_pos_as_xyz
  1  'x, y, z'
loop_
 _atom_site_type_symbol
 _atom_site_label
 _atom_site_symmetry_multiplicity
 _atom_site_fract_x
 _atom_site_fract_y
 _atom_site_fract_z
 _atom_site_occupancy
  Li  Li0  1  0.143265  0.993768  0.748885  1
  Li  Li1  1  0.852482  0.004287  0.246897  1
  Mn  Mn2  1  0.500847  0.500352  0.498354  1
  Mn  Mn3  1  0.001008  0.497946  0.999237  1
  F  F4  1  0.972006  0.801475  0.694860  1
  F  F5  1  0.569802  0.642606  0.714143  1
  F  F6  1  0.219829  0.802683  0.195695  1
  F  F7  1  0.785595  0.639100  0.213985  1
  F  F8  1  0.220166  0.355264  0.788562  1
  F  F9  1  0.783203  0.198251  0.801111  1
  F  F10  1  0.432369  0.357714  0.285434  1
  F  F11  1  0.028896  0.193765  0.302773  1
