# generated using pymatgen
data_Cs2PrO3
_symmetry_space_group_name_H-M   'P 1'
_cell_length_a   6.72970882
_cell_length_b   7.11015505
_cell_length_c   7.11015504
_cell_angle_alpha   113.44294312
_cell_angle_beta   90.00000000
_cell_angle_gamma   90.00000000
_symmetry_Int_Tables_number   1
_chemical_formula_structural   Cs2PrO3
_chemical_formula_sum   'Cs4 Pr2 O6'
_cell_volume   312.13322209
_cell_formula_units_Z   2
loop_
 _symmetry_equiv_pos_site_id
 _symmetry_equiv_pos_as_xyz
  1  'x, y, z'
loop_
 _atom_site_type_symbol
 _atom_site_label
 _atom_site_symmetry_multiplicity
 _atom_site_fract_x
 _atom_site_fract_y
 _atom_site_fract_z
 _atom_site_occupancy
  O  O0  1  0.647123  0.628326  0.628326  1
  O  O1  1  0.147123  0.371674  0.371674  1
  O  O2  1  0.999005  0.850921  0.098610  1
  O  O3  1  0.499005  0.149079  0.901390  1
  O  O4  1  0.999005  0.098610  0.850921  1
  O  O5  1  0.499005  0.901390  0.149079  1
  Cs  Cs6  1  0.776713  0.198305  0.525127  1
  Cs  Cs7  1  0.776713  0.525127  0.198305  1
  Cs  Cs8  1  0.276713  0.801695  0.474873  1
  Cs  Cs9  1  0.276713  0.474873  0.801695  1
  Pr  Pr10  1  0.233442  0.096571  0.096571  1
  Pr  Pr11  1  0.733442  0.903429  0.903429  1
