# generated using pymatgen
data_Li8BiS6
_symmetry_space_group_name_H-M   'P 1'
_cell_length_a   6.93305762
_cell_length_b   7.57147317
_cell_length_c   6.93305790
_cell_angle_alpha   117.24786139
_cell_angle_beta   60.00000610
_cell_angle_gamma   117.24785713
_symmetry_Int_Tables_number   1
_chemical_formula_structural   Li8BiS6
_chemical_formula_sum   'Li8 Bi1 S6'
_cell_volume   267.53489830
_cell_formula_units_Z   1
loop_
 _symmetry_equiv_pos_site_id
 _symmetry_equiv_pos_as_xyz
  1  'x, y, z'
loop_
 _atom_site_type_symbol
 _atom_site_label
 _atom_site_symmetry_multiplicity
 _atom_site_fract_x
 _atom_site_fract_y
 _atom_site_fract_z
 _atom_site_occupancy
  Li  Li0  1  0.103493  0.364408  0.476589  1
  Li  Li1  1  0.523411  0.635592  0.215675  1
  Li  Li2  1  0.215675  0.635592  0.896507  1
  Li  Li3  1  0.345728  0.037184  0.345728  1
  Li  Li4  1  0.654272  0.962816  0.654272  1
  Li  Li5  1  0.784325  0.364408  0.103493  1
  Li  Li6  1  0.476589  0.364408  0.784325  1
  Li  Li7  1  0.896507  0.635592  0.523411  1
  Bi  Bi8  1  0.000000  0.000000  0.000000  1
  S  S9  1  0.248529  0.751372  0.600756  1
  S  S10  1  0.399244  0.248628  0.097912  1
  S  S11  1  0.097912  0.248628  0.751471  1
  S  S12  1  0.902088  0.751372  0.248529  1
  S  S13  1  0.600756  0.751372  0.902088  1
  S  S14  1  0.751471  0.248628  0.399244  1
