# generated using pymatgen
data_LiFe5O5F
_symmetry_space_group_name_H-M   'P 1'
_cell_length_a   3.55832257
_cell_length_b   3.58851493
_cell_length_c   13.45052754
_cell_angle_alpha   90.00000187
_cell_angle_beta   89.95055229
_cell_angle_gamma   120.28108181
_symmetry_Int_Tables_number   1
_chemical_formula_structural   LiFe5O5F
_chemical_formula_sum   'Li1 Fe5 O5 F1'
_cell_volume   148.31761838
_cell_formula_units_Z   1
loop_
 _symmetry_equiv_pos_site_id
 _symmetry_equiv_pos_as_xyz
  1  'x, y, z'
loop_
 _atom_site_type_symbol
 _atom_site_label
 _atom_site_symmetry_multiplicity
 _atom_site_fract_x
 _atom_site_fract_y
 _atom_site_fract_z
 _atom_site_occupancy
  Li  Li0  1  0.332928  0.666514  0.980695  1
  Fe  Fe1  1  0.317742  0.658921  0.311702  1
  Fe  Fe2  1  0.317885  0.658993  0.648863  1
  Fe  Fe3  1  0.656727  0.328414  0.480258  1
  Fe  Fe4  1  0.653775  0.326938  0.147018  1
  Fe  Fe5  1  0.656779  0.328440  0.813595  1
  O  O6  1  0.354123  0.677111  0.479980  1
  O  O7  1  0.352925  0.676512  0.818461  1
  O  O8  1  0.351950  0.676025  0.141932  1
  O  O9  1  0.667735  0.333918  0.312656  1
  O  O10  1  0.667454  0.333777  0.647575  1
  F  F11  1  0.669975  0.335038  0.980297  1
