# generated using pymatgen
data_KBaLiZnF6
_symmetry_space_group_name_H-M   'P 1'
_cell_length_a   5.80162784
_cell_length_b   5.80162799
_cell_length_c   29.09804743
_cell_angle_alpha   60.10336449
_cell_angle_beta   60.10336365
_cell_angle_gamma   60.00378504
_symmetry_Int_Tables_number   1
_chemical_formula_structural   KBaLiZnF6
_chemical_formula_sum   'K5 Ba5 Li5 Zn5 F30'
_cell_volume   693.64587569
_cell_formula_units_Z   5
loop_
 _symmetry_equiv_pos_site_id
 _symmetry_equiv_pos_as_xyz
  1  'x, y, z'
loop_
 _atom_site_type_symbol
 _atom_site_label
 _atom_site_symmetry_multiplicity
 _atom_site_fract_x
 _atom_site_fract_y
 _atom_site_fract_z
 _atom_site_occupancy
  K  K0  1  0.491418  0.491418  0.105163  1
  K  K1  1  0.997239  0.997239  0.201662  1
  K  K2  1  0.996756  0.996756  0.401966  1
  K  K3  1  0.500853  0.500853  0.699461  1
  K  K4  1  0.500615  0.500615  0.899622  1
  Ba  Ba5  1  0.005539  0.005539  0.996673  1
  Ba  Ba6  1  0.499231  0.499231  0.300457  1
  Ba  Ba7  1  0.508016  0.508016  0.495187  1
  Ba  Ba8  1  0.005526  0.005526  0.596685  1
  Ba  Ba9  1  0.000252  0.000252  0.799847  1
  Li  Li10  1  0.252802  0.252802  0.248317  1
  Li  Li11  1  0.248110  0.248110  0.451135  1
  Li  Li12  1  0.756968  0.756968  0.545821  1
  Li  Li13  1  0.751054  0.751054  0.749376  1
  Li  Li14  1  0.749595  0.749595  0.950246  1
  Zn  Zn15  1  0.251408  0.251408  0.049152  1
  Zn  Zn16  1  0.744861  0.744861  0.153080  1
  Zn  Zn17  1  0.247221  0.247221  0.651674  1
  Zn  Zn18  1  0.751104  0.751104  0.349327  1
  Zn  Zn19  1  0.250147  0.250147  0.849904  1
  F  F20  1  0.000413  0.499948  -0.000062  1
  F  F21  1  -0.000198  -0.000198  0.097028  1
  F  F22  1  0.499948  0.000413  -0.000062  1
  F  F23  1  -0.000249  0.515278  0.097033  1
  F  F24  1  0.515278  -0.000249  0.097033  1
  F  F25  1  0.499974  0.499974  -0.000067  1
  F  F26  1  0.990861  0.500999  0.201434  1
  F  F27  1  0.000092  0.000092  0.300017  1
  F  F28  1  0.500999  0.990861  0.201434  1
  F  F29  1  0.000114  0.499660  0.300014  1
  F  F30  1  0.499660  0.000114  0.300014  1
  F  F31  1  0.500988  0.500988  0.201433  1
  F  F32  1  -0.000940  0.500447  0.400008  1
  F  F33  1  0.997937  0.997937  0.503467  1
  F  F34  1  0.500447  -0.000940  0.400008  1
  F  F35  1  0.997928  0.486785  0.503461  1
  F  F36  1  0.500454  0.500454  0.400007  1
  F  F37  1  0.486785  0.997928  0.503461  1
  F  F38  1  0.999336  0.999336  0.700804  1
  F  F39  1  0.008783  0.498185  0.598971  1
  F  F40  1  0.498185  0.008783  0.598971  1
  F  F41  1  0.999306  0.497409  0.700810  1
  F  F42  1  0.497409  0.999306  0.700810  1
  F  F43  1  0.498174  0.498174  0.598972  1
  F  F44  1  0.998968  0.500271  0.800097  1
  F  F45  1  0.000061  0.000061  0.899985  1
  F  F46  1  0.000055  0.499970  0.899985  1
  F  F47  1  0.500271  0.998968  0.800097  1
  F  F48  1  0.499970  0.000055  0.899985  1
  F  F49  1  0.500278  0.500278  0.800098  1
