# generated using pymatgen
data_LiMn(PO3)4
_symmetry_space_group_name_H-M   'P 1'
_cell_length_a   6.89757817
_cell_length_b   9.45134687
_cell_length_c   14.41976679
_cell_angle_alpha   90.00000000
_cell_angle_beta   92.28395782
_cell_angle_gamma   90.00000000
_symmetry_Int_Tables_number   1
_chemical_formula_structural   LiMn(PO3)4
_chemical_formula_sum   'Li4 Mn4 P16 O48'
_cell_volume   939.29806151
_cell_formula_units_Z   4
loop_
 _symmetry_equiv_pos_site_id
 _symmetry_equiv_pos_as_xyz
  1  'x, y, z'
loop_
 _atom_site_type_symbol
 _atom_site_label
 _atom_site_symmetry_multiplicity
 _atom_site_fract_x
 _atom_site_fract_y
 _atom_site_fract_z
 _atom_site_occupancy
  Li  Li0  1  0.026104  0.565108  0.379647  1
  Li  Li1  1  0.526104  0.934892  0.879647  1
  Li  Li2  1  0.473896  0.065108  0.120353  1
  Li  Li3  1  0.973896  0.434892  0.620353  1
  Mn  Mn4  1  0.112241  0.669787  0.892199  1
  Mn  Mn5  1  0.387759  0.169787  0.607801  1
  Mn  Mn6  1  0.612241  0.830213  0.392199  1
  Mn  Mn7  1  0.887759  0.330213  0.107801  1
  P  P8  1  0.082178  0.222664  0.434233  1
  P  P9  1  0.136187  0.052885  0.791254  1
  P  P10  1  0.190097  0.227648  0.965177  1
  P  P11  1  0.270648  0.023425  0.294449  1
  P  P12  1  0.309903  0.727648  0.534823  1
  P  P13  1  0.363813  0.552885  0.708746  1
  P  P14  1  0.229352  0.523425  0.205551  1
  P  P15  1  0.582178  0.277336  0.934233  1
  P  P16  1  0.417822  0.722664  0.065767  1
  P  P17  1  0.770648  0.476575  0.794449  1
  P  P18  1  0.636187  0.447115  0.291254  1
  P  P19  1  0.690097  0.272352  0.465177  1
  P  P20  1  0.729352  0.976575  0.705551  1
  P  P21  1  0.809903  0.772352  0.034823  1
  P  P22  1  0.863813  0.947115  0.208746  1
  P  P23  1  0.917822  0.777336  0.565767  1
  O  O24  1  0.024873  0.324237  0.994902  1
  O  O25  1  0.113938  0.178697  0.864380  1
  O  O26  1  0.085704  0.964429  0.238561  1
  O  O27  1  0.158194  0.220450  0.535736  1
  O  O28  1  0.236465  0.112619  0.708528  1
  O  O29  1  0.139136  0.837223  0.560029  1
  O  O30  1  0.082749  0.357359  0.382847  1
  O  O31  1  0.282508  0.422960  0.663096  1
  O  O32  1  0.178524  0.091476  0.385227  1
  O  O33  1  0.123417  0.626503  0.261114  1
  O  O34  1  0.217492  0.922960  0.836904  1
  O  O35  1  0.376128  0.891400  0.331292  1
  O  O36  1  0.240241  0.614297  0.471452  1
  O  O37  1  0.360864  0.337223  0.939971  1
  O  O38  1  0.263535  0.612619  0.791472  1
  O  O39  1  0.341806  0.720450  0.964264  1
  O  O40  1  0.259759  0.114297  0.028548  1
  O  O41  1  0.123872  0.391400  0.168708  1
  O  O42  1  0.386062  0.678697  0.635620  1
  O  O43  1  0.376583  0.126503  0.238886  1
  O  O44  1  0.475127  0.824237  0.505098  1
  O  O45  1  0.321476  0.591476  0.114773  1
  O  O46  1  0.585704  0.535571  0.738561  1
  O  O47  1  0.417251  0.857359  0.117153  1
  O  O48  1  0.582749  0.142641  0.882847  1
  O  O49  1  0.414296  0.464429  0.261439  1
  O  O50  1  0.678524  0.408524  0.885227  1
  O  O51  1  0.524873  0.175763  0.494902  1
  O  O52  1  0.623417  0.873497  0.761114  1
  O  O53  1  0.613938  0.321303  0.364380  1
  O  O54  1  0.876128  0.608600  0.831292  1
  O  O55  1  0.740241  0.885703  0.971452  1
  O  O56  1  0.658194  0.279550  0.035736  1
  O  O57  1  0.736465  0.387381  0.208528  1
  O  O58  1  0.639136  0.662777  0.060029  1
  O  O59  1  0.759759  0.385703  0.528548  1
  O  O60  1  0.623872  0.108600  0.668708  1
  O  O61  1  0.782508  0.077040  0.163096  1
  O  O62  1  0.876583  0.373497  0.738886  1
  O  O63  1  0.821476  0.908524  0.614773  1
  O  O64  1  0.717492  0.577040  0.336904  1
  O  O65  1  0.917251  0.642641  0.617153  1
  O  O66  1  0.860864  0.162777  0.439971  1
  O  O67  1  0.763535  0.887381  0.291472  1
  O  O68  1  0.841806  0.779550  0.464264  1
  O  O69  1  0.914296  0.035571  0.761439  1
  O  O70  1  0.886062  0.821303  0.135620  1
  O  O71  1  0.975127  0.675763  0.005098  1
