# generated using pymatgen
data_Sr3La4O9
_symmetry_space_group_name_H-M   'P 1'
_cell_length_a   6.22731488
_cell_length_b   9.66857975
_cell_length_c   6.22731442
_cell_angle_alpha   108.78626718
_cell_angle_beta   59.99999514
_cell_angle_gamma   108.78626588
_symmetry_Int_Tables_number   1
_chemical_formula_structural   Sr3La4O9
_chemical_formula_sum   'Sr3 La4 O9'
_cell_volume   301.42435930
_cell_formula_units_Z   1
loop_
 _symmetry_equiv_pos_site_id
 _symmetry_equiv_pos_as_xyz
  1  'x, y, z'
loop_
 _atom_site_type_symbol
 _atom_site_label
 _atom_site_symmetry_multiplicity
 _atom_site_fract_x
 _atom_site_fract_y
 _atom_site_fract_z
 _atom_site_occupancy
  Sr  Sr0  1  0.182392  0.547176  0.182392  1
  Sr  Sr1  1  0.003861  0.011584  0.003861  1
  Sr  Sr2  1  0.574343  0.723028  0.574343  1
  La  La3  1  0.311456  0.934368  0.311456  1
  La  La4  1  0.439915  0.319745  0.439915  1
  La  La5  1  0.875387  0.626162  0.875387  1
  La  La6  1  0.743955  0.231865  0.743955  1
  O  O7  1  0.978918  0.779298  0.212383  1
  O  O8  1  0.212383  0.779298  0.587997  1
  O  O9  1  0.587997  0.779298  0.978918  1
  O  O10  1  0.149511  0.461142  0.772991  1
  O  O11  1  0.059454  0.119491  0.661755  1
  O  O12  1  0.398281  0.119491  0.059454  1
  O  O13  1  0.538639  0.461142  0.149511  1
  O  O14  1  0.661755  0.119491  0.398281  1
  O  O15  1  0.772991  0.461142  0.538639  1
