# generated using pymatgen
data_Li2MnV(P2O7)2
_symmetry_space_group_name_H-M   'P 1'
_cell_length_a   4.84970672
_cell_length_b   16.60966949
_cell_length_c   7.04796529
_cell_angle_alpha   90.02954278
_cell_angle_beta   108.77967873
_cell_angle_gamma   90.08378990
_symmetry_Int_Tables_number   1
_chemical_formula_structural   Li2MnV(P2O7)2
_chemical_formula_sum   'Li4 Mn2 V2 P8 O28'
_cell_volume   537.50316920
_cell_formula_units_Z   2
loop_
 _symmetry_equiv_pos_site_id
 _symmetry_equiv_pos_as_xyz
  1  'x, y, z'
loop_
 _atom_site_type_symbol
 _atom_site_label
 _atom_site_symmetry_multiplicity
 _atom_site_fract_x
 _atom_site_fract_y
 _atom_site_fract_z
 _atom_site_occupancy
  Li  Li0  1  0.173266  0.930387  0.675260  1
  Li  Li1  1  0.177239  0.430754  0.674698  1
  Li  Li2  1  0.823709  0.180526  0.323853  1
  Li  Li3  1  0.825247  0.680801  0.325835  1
  Mn  Mn4  1  0.213477  0.749215  0.731195  1
  Mn  Mn5  1  0.785348  0.999832  0.271598  1
  V  V6  1  0.216258  0.250034  0.726725  1
  V  V7  1  0.786330  0.499655  0.270892  1
  P  P8  1  0.401062  0.088966  0.521604  1
  P  P9  1  0.398773  0.590089  0.517966  1
  P  P10  1  0.212765  0.392078  0.085353  1
  P  P11  1  0.212241  0.893519  0.090074  1
  P  P12  1  0.788931  0.143089  0.913545  1
  P  P13  1  0.786719  0.642728  0.911355  1
  P  P14  1  0.599309  0.838707  0.483536  1
  P  P15  1  0.599998  0.340156  0.476472  1
  O  O16  1  0.050614  0.162611  0.846387  1
  O  O17  1  0.057764  0.663098  0.854258  1
  O  O18  1  0.132150  0.348067  0.884365  1
  O  O19  1  0.126100  0.851337  0.888920  1
  O  O20  1  0.186101  0.018166  0.481992  1
  O  O21  1  0.189372  0.517968  0.482193  1
  O  O22  1  0.244575  0.670572  0.495887  1
  O  O23  1  0.250189  0.171089  0.504772  1
  O  O24  1  0.396200  0.338851  0.604051  1
  O  O25  1  0.392161  0.835999  0.610110  1
  O  O26  1  0.601936  0.217910  0.913902  1
  O  O27  1  0.602365  0.717299  0.915689  1
  O  O28  1  0.595984  0.076760  0.753158  1
  O  O29  1  0.595657  0.577733  0.750545  1
  O  O30  1  0.404490  0.326514  0.246182  1
  O  O31  1  0.402055  0.827847  0.250061  1
  O  O32  1  0.397344  0.466565  0.082772  1
  O  O33  1  0.401070  0.968252  0.089003  1
  O  O34  1  0.607698  0.587553  0.394252  1
  O  O35  1  0.603657  0.087488  0.392450  1
  O  O36  1  0.753345  0.421674  0.493405  1
  O  O37  1  0.750519  0.920177  0.506107  1
  O  O38  1  0.809767  0.767049  0.518333  1
  O  O39  1  0.813093  0.269102  0.516089  1
  O  O40  1  0.873917  0.101542  0.115262  1
  O  O41  1  0.869033  0.597943  0.111664  1
  O  O42  1  0.948942  0.411823  0.148030  1
  O  O43  1  0.943231  0.914050  0.150202  1
