# generated using pymatgen
data_Li3CrBPO7
_symmetry_space_group_name_H-M   'P 1'
_cell_length_a   8.38070448
_cell_length_b   6.38249642
_cell_length_c   5.02519406
_cell_angle_alpha   90.00000000
_cell_angle_beta   85.12432159
_cell_angle_gamma   90.00000000
_symmetry_Int_Tables_number   1
_chemical_formula_structural   Li3CrBPO7
_chemical_formula_sum   'Li6 Cr2 B2 P2 O14'
_cell_volume   267.82405707
_cell_formula_units_Z   2
loop_
 _symmetry_equiv_pos_site_id
 _symmetry_equiv_pos_as_xyz
  1  'x, y, z'
loop_
 _atom_site_type_symbol
 _atom_site_label
 _atom_site_symmetry_multiplicity
 _atom_site_fract_x
 _atom_site_fract_y
 _atom_site_fract_z
 _atom_site_occupancy
  Li  Li0  1  0.087662  0.250000  0.745561  1
  Li  Li1  1  0.235286  0.993123  0.252289  1
  Li  Li2  1  0.235286  0.506877  0.252289  1
  Li  Li3  1  0.764714  0.493123  0.747711  1
  Li  Li4  1  0.764714  0.006877  0.747711  1
  Li  Li5  1  0.912338  0.750000  0.254439  1
  Cr  Cr6  1  0.326059  0.750000  0.790563  1
  Cr  Cr7  1  0.673941  0.250000  0.209437  1
  B  B8  1  0.044014  0.750000  0.717346  1
  B  B9  1  0.955986  0.250000  0.282654  1
  P  P10  1  0.418279  0.250000  0.722568  1
  P  P11  1  0.581721  0.750000  0.277432  1
  O  O12  1  0.109861  0.250000  0.342372  1
  O  O13  1  0.097991  0.750000  0.974372  1
  O  O14  1  0.171073  0.750000  0.515698  1
  O  O15  1  0.308602  0.062659  0.812897  1
  O  O16  1  0.308602  0.437341  0.812897  1
  O  O17  1  0.455856  0.250000  0.415384  1
  O  O18  1  0.421715  0.750000  0.147338  1
  O  O19  1  0.578285  0.250000  0.852662  1
  O  O20  1  0.544144  0.750000  0.584616  1
  O  O21  1  0.691398  0.562659  0.187103  1
  O  O22  1  0.691398  0.937341  0.187103  1
  O  O23  1  0.828927  0.250000  0.484302  1
  O  O24  1  0.902009  0.250000  0.025628  1
  O  O25  1  0.890139  0.750000  0.657628  1
