# generated using pymatgen
data_LiV2BO5
_symmetry_space_group_name_H-M   'P 1'
_cell_length_a   9.31492282
_cell_length_b   12.40150316
_cell_length_c   3.05861262
_cell_angle_alpha   90.00002992
_cell_angle_beta   90.00002589
_cell_angle_gamma   89.99971310
_symmetry_Int_Tables_number   1
_chemical_formula_structural   LiV2BO5
_chemical_formula_sum   'Li4 V8 B4 O20'
_cell_volume   353.32800823
_cell_formula_units_Z   4
loop_
 _symmetry_equiv_pos_site_id
 _symmetry_equiv_pos_as_xyz
  1  'x, y, z'
loop_
 _atom_site_type_symbol
 _atom_site_label
 _atom_site_symmetry_multiplicity
 _atom_site_fract_x
 _atom_site_fract_y
 _atom_site_fract_z
 _atom_site_occupancy
  Li  Li0  1  0.000040  0.000021  0.000001  1
  Li  Li1  1  0.000020  0.499991  0.500001  1
  Li  Li2  1  0.499969  0.500033  0.000001  1
  Li  Li3  1  0.499926  0.999923  0.500001  1
  V  V4  1  0.002143  0.283927  0.000001  1
  V  V5  1  0.240359  0.108764  0.500002  1
  V  V6  1  0.259632  0.608751  0.499999  1
  V  V7  1  0.497845  0.783898  0.999996  1
  V  V8  1  0.502174  0.216075  0.000002  1
  V  V9  1  0.740355  0.391252  0.500002  1
  V  V10  1  0.759665  0.891247  0.499999  1
  V  V11  1  0.997846  0.716083  1.000000  1
  B  B12  1  0.223906  0.861644  0.499999  1
  B  B13  1  0.276096  0.361690  0.500000  1
  B  B14  1  0.723925  0.638354  0.499997  1
  B  B15  1  0.776133  0.138337  0.500001  1
  O  O16  1  0.110681  0.151083  0.000002  1
  O  O17  1  0.118623  0.581028  0.999999  1
  O  O18  1  0.125361  0.352361  0.500001  1
  O  O19  1  0.145134  0.762907  0.499998  1
  O  O20  1  0.153845  0.956125  0.500002  1
  O  O21  1  0.346110  0.456079  0.500000  1
  O  O22  1  0.354880  0.262878  0.500002  1
  O  O23  1  0.374618  0.852364  0.499995  1
  O  O24  1  0.381366  0.081021  0.000002  1
  O  O25  1  0.389322  0.651074  0.999999  1
  O  O26  1  0.610673  0.348921  0.000001  1
  O  O27  1  0.618643  0.918965  0.999997  1
  O  O28  1  0.625413  0.147637  0.500001  1
  O  O29  1  0.645105  0.737115  0.499994  1
  O  O30  1  0.653825  0.543878  0.500000  1
  O  O31  1  0.846200  0.043900  0.500002  1
  O  O32  1  0.854886  0.237108  0.500000  1
  O  O33  1  0.874590  0.647648  0.499998  1
  O  O34  1  0.881359  0.418979  0.000001  1
  O  O35  1  0.889331  0.848939  0.999998  1
