# generated using pymatgen
data_Li3YbPCO7
_symmetry_space_group_name_H-M   'P 1'
_cell_length_a   8.61319275
_cell_length_b   5.03366051
_cell_length_c   6.61229381
_cell_angle_alpha   90.00000000
_cell_angle_beta   90.00000000
_cell_angle_gamma   90.23384735
_symmetry_Int_Tables_number   1
_chemical_formula_structural   Li3YbPCO7
_chemical_formula_sum   'Li6 Yb2 P2 C2 O14'
_cell_volume   286.67948365
_cell_formula_units_Z   2
loop_
 _symmetry_equiv_pos_site_id
 _symmetry_equiv_pos_as_xyz
  1  'x, y, z'
loop_
 _atom_site_type_symbol
 _atom_site_label
 _atom_site_symmetry_multiplicity
 _atom_site_fract_x
 _atom_site_fract_y
 _atom_site_fract_z
 _atom_site_occupancy
  Yb  Yb0  1  0.304621  0.970994  0.770308  1
  Yb  Yb1  1  0.695379  0.029006  0.270308  1
  Li  Li2  1  0.010444  0.015902  0.488664  1
  Li  Li3  1  0.149510  0.497157  0.188761  1
  Li  Li4  1  0.477962  0.468634  0.509717  1
  Li  Li5  1  0.522038  0.531366  0.009717  1
  Li  Li6  1  0.850490  0.502842  0.688761  1
  Li  Li7  1  0.989556  0.984098  0.988664  1
  P  P8  1  0.315175  0.015384  0.234254  1
  P  P9  1  0.684825  0.984616  0.734254  1
  C  C10  1  0.142373  0.478164  0.739415  1
  C  C11  1  0.857627  0.521836  0.239415  1
  O  O12  1  0.047998  0.279809  0.713277  1
  O  O13  1  0.085416  0.706862  0.794399  1
  O  O14  1  0.198133  0.139780  0.080802  1
  O  O15  1  0.235784  0.955953  0.438629  1
  O  O16  1  0.290866  0.452701  0.714932  1
  O  O17  1  0.374228  0.753957  0.139254  1
  O  O18  1  0.451652  0.214790  0.262191  1
  O  O19  1  0.548348  0.785210  0.762191  1
  O  O20  1  0.625772  0.246043  0.639254  1
  O  O21  1  0.709134  0.547299  0.214932  1
  O  O22  1  0.764216  0.044047  0.938629  1
  O  O23  1  0.801867  0.860220  0.580802  1
  O  O24  1  0.914584  0.293138  0.294399  1
  O  O25  1  0.952002  0.720191  0.213277  1
