# generated using pymatgen
data_KCa4Si8H16O29
_symmetry_space_group_name_H-M   'P 1'
_cell_length_a   9.05887683
_cell_length_b   9.05887683
_cell_length_c   16.09682757
_cell_angle_alpha   90.00000000
_cell_angle_beta   90.00000000
_cell_angle_gamma   90.00000000
_symmetry_Int_Tables_number   1
_chemical_formula_structural   KCa4Si8H16O29
_chemical_formula_sum   'K2 Ca8 Si16 H32 O58'
_cell_volume   1320.95797577
_cell_formula_units_Z   2
loop_
 _symmetry_equiv_pos_site_id
 _symmetry_equiv_pos_as_xyz
  1  'x, y, z'
loop_
 _atom_site_type_symbol
 _atom_site_label
 _atom_site_symmetry_multiplicity
 _atom_site_fract_x
 _atom_site_fract_y
 _atom_site_fract_z
 _atom_site_occupancy
  K  K0  1  0.500000  0.500000  0.000000  1
  K  K1  1  0.000000  0.000000  0.500000  1
  Ca  Ca2  1  0.744627  0.611285  0.500000  1
  Ca  Ca3  1  0.255373  0.388715  0.500000  1
  Ca  Ca4  1  0.755373  0.111285  0.000000  1
  Ca  Ca5  1  0.244627  0.888715  0.000000  1
  Ca  Ca6  1  0.611285  0.255373  0.500000  1
  Ca  Ca7  1  0.388715  0.744627  0.500000  1
  Ca  Ca8  1  0.111285  0.244627  0.000000  1
  Ca  Ca9  1  0.888715  0.755373  0.000000  1
  Si  Si10  1  0.585311  0.725828  0.309603  1
  Si  Si11  1  0.414689  0.274172  0.309603  1
  Si  Si12  1  0.914689  0.225828  0.809603  1
  Si  Si13  1  0.085311  0.774172  0.809603  1
  Si  Si14  1  0.725828  0.414689  0.309603  1
  Si  Si15  1  0.274172  0.585311  0.309603  1
  Si  Si16  1  0.225828  0.085311  0.809603  1
  Si  Si17  1  0.774172  0.914689  0.809603  1
  Si  Si18  1  0.414689  0.274172  0.690397  1
  Si  Si19  1  0.585311  0.725828  0.690397  1
  Si  Si20  1  0.085311  0.774172  0.190397  1
  Si  Si21  1  0.914689  0.225828  0.190397  1
  Si  Si22  1  0.274172  0.585311  0.690397  1
  Si  Si23  1  0.725828  0.414689  0.690397  1
  Si  Si24  1  0.774172  0.914689  0.190397  1
  Si  Si25  1  0.225828  0.085311  0.190397  1
  H  H26  1  0.658716  0.948250  0.409026  1
  H  H27  1  0.341284  0.051750  0.409026  1
  H  H28  1  0.841284  0.448250  0.909026  1
  H  H29  1  0.158716  0.551750  0.909026  1
  H  H30  1  0.948250  0.341284  0.409026  1
  H  H31  1  0.051750  0.658716  0.409026  1
  H  H32  1  0.448250  0.158716  0.909026  1
  H  H33  1  0.551750  0.841284  0.909026  1
  H  H34  1  0.341284  0.051750  0.590974  1
  H  H35  1  0.658716  0.948250  0.590974  1
  H  H36  1  0.158716  0.551750  0.090974  1
  H  H37  1  0.841284  0.448250  0.090974  1
  H  H38  1  0.051750  0.658716  0.590974  1
  H  H39  1  0.948250  0.341284  0.590974  1
  H  H40  1  0.551750  0.841284  0.090974  1
  H  H41  1  0.448250  0.158716  0.090974  1
  H  H42  1  0.925978  0.720058  0.352337  1
  H  H43  1  0.074022  0.279942  0.352337  1
  H  H44  1  0.574022  0.220058  0.852337  1
  H  H45  1  0.425978  0.779942  0.852337  1
  H  H46  1  0.720058  0.074022  0.352337  1
  H  H47  1  0.279942  0.925978  0.352337  1
  H  H48  1  0.220058  0.425978  0.852337  1
  H  H49  1  0.779942  0.574022  0.852337  1
  H  H50  1  0.074022  0.279942  0.647663  1
  H  H51  1  0.925978  0.720058  0.647663  1
  H  H52  1  0.425978  0.779942  0.147663  1
  H  H53  1  0.574022  0.220058  0.147663  1
  H  H54  1  0.279942  0.925978  0.647663  1
  H  H55  1  0.720058  0.074022  0.647663  1
  H  H56  1  0.779942  0.574022  0.147663  1
  H  H57  1  0.220058  0.425978  0.147663  1
  O  O58  1  0.863498  0.363498  0.250000  1
  O  O59  1  0.136502  0.636502  0.250000  1
  O  O60  1  0.636502  0.863498  0.750000  1
  O  O61  1  0.363498  0.136502  0.750000  1
  O  O62  1  0.363498  0.136502  0.250000  1
  O  O63  1  0.636502  0.863498  0.250000  1
  O  O64  1  0.863498  0.363498  0.750000  1
  O  O65  1  0.136502  0.636502  0.750000  1
  O  O66  1  0.689438  0.585091  0.280500  1
  O  O67  1  0.310562  0.414909  0.280500  1
  O  O68  1  0.810562  0.085091  0.780500  1
  O  O69  1  0.189438  0.914909  0.780500  1
  O  O70  1  0.585091  0.310562  0.280500  1
  O  O71  1  0.414909  0.689438  0.280500  1
  O  O72  1  0.085091  0.189438  0.780500  1
  O  O73  1  0.914909  0.810562  0.780500  1
  O  O74  1  0.310562  0.414909  0.719500  1
  O  O75  1  0.689438  0.585091  0.719500  1
  O  O76  1  0.189438  0.914909  0.219500  1
  O  O77  1  0.810562  0.085091  0.219500  1
  O  O78  1  0.414909  0.689438  0.719500  1
  O  O79  1  0.585091  0.310562  0.719500  1
  O  O80  1  0.914909  0.810562  0.219500  1
  O  O81  1  0.085091  0.189438  0.219500  1
  O  O82  1  0.599152  0.763873  0.406697  1
  O  O83  1  0.400848  0.236127  0.406697  1
  O  O84  1  0.900848  0.263873  0.906697  1
  O  O85  1  0.099152  0.736127  0.906697  1
  O  O86  1  0.763873  0.400848  0.406697  1
  O  O87  1  0.236127  0.599152  0.406697  1
  O  O88  1  0.263873  0.099152  0.906697  1
  O  O89  1  0.736127  0.900848  0.906697  1
  O  O90  1  0.400848  0.236127  0.593303  1
  O  O91  1  0.599152  0.763873  0.593303  1
  O  O92  1  0.099152  0.736127  0.093303  1
  O  O93  1  0.900848  0.263873  0.093303  1
  O  O94  1  0.236127  0.599152  0.593303  1
  O  O95  1  0.763873  0.400848  0.593303  1
  O  O96  1  0.736127  0.900848  0.093303  1
  O  O97  1  0.263873  0.099152  0.093303  1
  O  O98  1  0.949772  0.701747  0.410400  1
  O  O99  1  0.050228  0.298253  0.410400  1
  O  O100  1  0.550228  0.201747  0.910400  1
  O  O101  1  0.449772  0.798253  0.910400  1
  O  O102  1  0.701747  0.050228  0.410400  1
  O  O103  1  0.298253  0.949772  0.410400  1
  O  O104  1  0.201747  0.449772  0.910400  1
  O  O105  1  0.798253  0.550228  0.910400  1
  O  O106  1  0.050228  0.298253  0.589600  1
  O  O107  1  0.949772  0.701747  0.589600  1
  O  O108  1  0.449772  0.798253  0.089600  1
  O  O109  1  0.550228  0.201747  0.089600  1
  O  O110  1  0.298253  0.949772  0.589600  1
  O  O111  1  0.701747  0.050228  0.589600  1
  O  O112  1  0.798253  0.550228  0.089600  1
  O  O113  1  0.201747  0.449772  0.089600  1
  O  O114  1  0.500000  0.500000  0.500000  1
  O  O115  1  0.000000  0.000000  0.000000  1
