# generated using pymatgen
data_Cd(FeO2)2
_symmetry_space_group_name_H-M   'P 1'
_cell_length_a   10.91058309
_cell_length_b   9.36473168
_cell_length_c   3.03751562
_cell_angle_alpha   89.99989029
_cell_angle_beta   89.99993632
_cell_angle_gamma   89.91264276
_symmetry_Int_Tables_number   1
_chemical_formula_structural   Cd(FeO2)2
_chemical_formula_sum   'Cd4 Fe8 O16'
_cell_volume   310.35683506
_cell_formula_units_Z   4
loop_
 _symmetry_equiv_pos_site_id
 _symmetry_equiv_pos_as_xyz
  1  'x, y, z'
loop_
 _atom_site_type_symbol
 _atom_site_label
 _atom_site_symmetry_multiplicity
 _atom_site_fract_x
 _atom_site_fract_y
 _atom_site_fract_z
 _atom_site_occupancy
  Cd  Cd0  1  0.155647  0.745073  0.250001  1
  Cd  Cd1  1  0.345282  0.240482  0.250004  1
  Cd  Cd2  1  0.653943  0.754228  0.749999  1
  Cd  Cd3  1  0.845298  0.257692  0.749999  1
  Fe  Fe4  1  0.105160  0.417036  0.750001  1
  Fe  Fe5  1  0.112828  0.066495  0.249996  1
  Fe  Fe6  1  0.384811  0.563735  0.249993  1
  Fe  Fe7  1  0.396825  0.918324  0.749995  1
  Fe  Fe8  1  0.605114  0.083466  0.250001  1
  Fe  Fe9  1  0.613251  0.434263  0.750007  1
  Fe  Fe10  1  0.885237  0.935864  0.749997  1
  Fe  Fe11  1  0.896942  0.582584  0.249999  1
  O  O12  1  0.025395  0.618372  0.750001  1
  O  O13  1  0.071290  0.918949  0.749999  1
  O  O14  1  0.160933  0.204809  0.749996  1
  O  O15  1  0.215885  0.471187  0.250002  1
  O  O16  1  0.286045  0.976856  0.249998  1
  O  O17  1  0.336389  0.704352  0.749997  1
  O  O18  1  0.427156  0.416738  0.750003  1
  O  O19  1  0.477335  0.116638  0.750002  1
  O  O20  1  0.525038  0.881838  0.249997  1
  O  O21  1  0.570404  0.580878  0.250004  1
  O  O22  1  0.660535  0.295357  0.250003  1
  O  O23  1  0.716934  0.030579  0.750000  1
  O  O24  1  0.785056  0.524863  0.750004  1
  O  O25  1  0.836359  0.794771  0.250001  1
  O  O26  1  0.928314  0.081921  0.250000  1
  O  O27  1  0.976593  0.382652  0.250000  1
