# generated using pymatgen
data_Li2Fe2Si8O19
_symmetry_space_group_name_H-M   'P 1'
_cell_length_a   4.96154004
_cell_length_b   7.21222174
_cell_length_c   12.54408241
_cell_angle_alpha   72.81698089
_cell_angle_beta   90.00982846
_cell_angle_gamma   70.09667520
_symmetry_Int_Tables_number   1
_chemical_formula_structural   Li2Fe2Si8O19
_chemical_formula_sum   'Li2 Fe2 Si8 O19'
_cell_volume   400.67989447
_cell_formula_units_Z   1
loop_
 _symmetry_equiv_pos_site_id
 _symmetry_equiv_pos_as_xyz
  1  'x, y, z'
loop_
 _atom_site_type_symbol
 _atom_site_label
 _atom_site_symmetry_multiplicity
 _atom_site_fract_x
 _atom_site_fract_y
 _atom_site_fract_z
 _atom_site_occupancy
  Li  Li0  1  0.762241  0.801506  0.638254  1
  Li  Li1  1  0.566007  0.200029  0.362569  1
  Fe  Fe2  1  0.686731  0.602105  0.402175  1
  Fe  Fe3  1  0.296354  0.401996  0.595553  1
  Si  Si4  1  0.465843  0.758427  0.926793  1
  Si  Si5  1  0.865115  0.981670  0.168693  1
  Si  Si6  1  0.081294  0.866488  0.418320  1
  Si  Si7  1  0.328575  0.438800  0.830680  1
  Si  Si8  1  0.767172  0.558699  0.168322  1
  Si  Si9  1  0.953171  0.133947  0.580713  1
  Si  Si10  1  0.849103  0.018317  0.830116  1
  Si  Si11  1  0.224626  0.240298  0.072371  1
  O  O12  1  0.170507  0.966700  0.889445  1
  O  O13  1  0.738678  0.834308  0.899025  1
  O  O14  1  0.873197  0.999524  0.296191  1
  O  O15  1  0.402573  0.867264  0.415075  1
  O  O16  1  0.451106  0.612517  0.851309  1
  O  O17  1  0.051634  0.639405  0.457428  1
  O  O18  1  0.123613  0.530183  0.713238  1
  O  O19  1  0.863119  0.755568  0.172413  1
  O  O20  1  0.156671  0.364333  0.938160  1
  O  O21  1  0.520391  0.633314  0.060963  1
  O  O22  1  0.622168  0.244286  0.825830  1
  O  O23  1  0.656339  0.466123  0.286379  1
  O  O24  1  0.697707  0.360796  0.542065  1
  O  O25  1  0.061653  0.385851  0.147507  1
  O  O26  1  0.274574  0.134353  0.583520  1
  O  O27  1  0.876320  0.000068  0.702697  1
  O  O28  1  0.892673  0.000547  0.499626  1
  O  O29  1  0.572234  0.166252  0.100792  1
  O  O30  1  0.135679  0.031934  0.109024  1
