# generated using pymatgen
data_Li6V3P8O29
_symmetry_space_group_name_H-M   'P 1'
_cell_length_a   9.78730832
_cell_length_b   9.79022653
_cell_length_c   13.97841691
_cell_angle_alpha   90.00736854
_cell_angle_beta   90.35553514
_cell_angle_gamma   59.99203567
_symmetry_Int_Tables_number   1
_chemical_formula_structural   Li6V3P8O29
_chemical_formula_sum   'Li12 V6 P16 O58'
_cell_volume   1159.84204455
_cell_formula_units_Z   2
loop_
 _symmetry_equiv_pos_site_id
 _symmetry_equiv_pos_as_xyz
  1  'x, y, z'
loop_
 _atom_site_type_symbol
 _atom_site_label
 _atom_site_symmetry_multiplicity
 _atom_site_fract_x
 _atom_site_fract_y
 _atom_site_fract_z
 _atom_site_occupancy
  Li  Li0  1  0.763566  0.898015  0.556332  1
  Li  Li1  1  0.902355  0.331643  0.557849  1
  Li  Li2  1  0.763945  0.335492  0.061713  1
  Li  Li3  1  0.336689  0.899012  0.062707  1
  Li  Li4  1  0.663309  0.235682  0.437328  1
  Li  Li5  1  0.335411  0.762687  0.559545  1
  Li  Li6  1  0.664642  0.098098  0.940434  1
  Li  Li7  1  0.236429  0.661594  0.943680  1
  Li  Li8  1  0.236066  0.099392  0.438309  1
  Li  Li9  1  0.097651  0.233983  0.942178  1
  Li  Li10  1  0.988597  0.957667  0.015401  1
  Li  Li11  1  0.011528  0.946272  0.484682  1
  V  V12  1  0.564116  0.437307  0.251495  1
  V  V13  1  0.431402  0.567740  0.750139  1
  V  V14  1  0.568607  0.999107  0.749841  1
  V  V15  1  0.435855  0.001551  0.248585  1
  V  V16  1  0.999953  0.566166  0.249975  1
  V  V17  1  0.000037  0.438395  0.750009  1
  P  P18  1  0.918479  0.776636  0.844056  1
  P  P19  1  0.778357  0.913054  0.339502  1
  P  P20  1  0.914944  0.311000  0.342465  1
  P  P21  1  0.668188  0.663779  0.131256  1
  P  P22  1  0.664473  0.667733  0.630559  1
  P  P23  1  0.773227  0.314910  0.841566  1
  P  P24  1  0.684359  0.228818  0.656892  1
  P  P25  1  0.315660  0.913185  0.843110  1
  P  P26  1  0.687052  0.090723  0.155787  1
  P  P27  1  0.312940  0.777770  0.344214  1
  P  P28  1  0.221659  0.691394  0.160473  1
  P  P29  1  0.331744  0.332084  0.368728  1
  P  P30  1  0.335543  0.332215  0.869432  1
  P  P31  1  0.081496  0.695123  0.655930  1
  P  P32  1  0.226760  0.088096  0.658441  1
  P  P33  1  0.085014  0.225935  0.157537  1
  O  O34  1  0.992355  0.796480  0.571841  1
  O  O35  1  0.917832  0.746943  0.338594  1
  O  O36  1  0.775999  0.014287  0.065767  1
  O  O37  1  0.746388  0.918081  0.841653  1
  O  O38  1  0.920700  0.619218  0.833013  1
  O  O39  1  0.811340  0.668795  0.178409  1
  O  O40  1  0.912953  0.466698  0.332578  1
  O  O41  1  0.998566  0.219692  0.068742  1
  O  O42  1  0.919130  0.337691  0.841335  1
  O  O43  1  0.678558  0.811151  0.670196  1
  O  O44  1  0.619927  0.916258  0.327958  1
  O  O45  1  0.808421  0.512966  0.672382  1
  O  O46  1  0.668258  0.655625  0.024844  1
  O  O47  1  0.661987  0.668157  0.523582  1
  O  O48  1  0.677710  0.509429  0.173972  1
  O  O49  1  0.473137  0.908030  0.828515  1
  O  O50  1  0.513299  0.810116  0.169517  1
  O  O51  1  0.745403  0.334947  0.341965  1
  O  O52  1  0.795415  0.206050  0.749070  1
  O  O53  1  0.769162  0.230571  0.567410  1
  O  O54  1  0.772073  0.228118  0.930530  1
  O  O55  1  0.619253  0.472324  0.827212  1
  O  O56  1  0.509132  0.680644  0.671755  1
  O  O57  1  0.657840  0.262038  0.160014  1
  O  O58  1  0.467107  0.620681  0.333487  1
  O  O59  1  0.342127  0.919886  0.340070  1
  O  O60  1  0.796510  0.004172  0.247902  1
  O  O61  1  0.781735  0.000387  0.429104  1
  O  O62  1  0.227858  0.000150  0.569468  1
  O  O63  1  0.663832  0.081531  0.657680  1
  O  O64  1  0.526866  0.381137  0.671471  1
  O  O65  1  0.336168  0.745379  0.842325  1
  O  O66  1  0.486741  0.323318  0.330515  1
  O  O67  1  0.380140  0.536326  0.171940  1
  O  O68  1  0.218120  0.782242  0.070904  1
  O  O69  1  0.224096  0.790105  0.434239  1
  O  O70  1  0.203507  0.800627  0.252106  1
  O  O71  1  0.253611  0.664437  0.658331  1
  O  O72  1  0.490851  0.189762  0.828242  1
  O  O73  1  0.532969  0.087640  0.166392  1
  O  O74  1  0.321465  0.489693  0.829794  1
  O  O75  1  0.337955  0.330189  0.976407  1
  O  O76  1  0.331723  0.323973  0.475133  1
  O  O77  1  0.188670  0.480141  0.321570  1
  O  O78  1  0.380715  0.091567  0.672773  1
  O  O79  1  0.322319  0.187075  0.326044  1
  O  O80  1  0.082180  0.664719  0.161386  1
  O  O81  1  -0.000003  0.798886  0.750001  1
  O  O82  1  0.007629  0.788802  0.928159  1
  O  O83  1  0.079176  0.539987  0.666926  1
  O  O84  1  0.191570  0.321370  0.827605  1
  O  O85  1  0.087036  0.379632  0.167442  1
  O  O86  1  0.254505  0.080374  0.158086  1
  O  O87  1  0.230888  0.999756  0.932600  1
  O  O88  1  0.204584  0.001457  0.750940  1
  O  O89  1  0.080861  0.256775  0.658689  1
  O  O90  1  0.001414  0.218322  0.431259  1
  O  O91  1  0.999964  0.201422  0.250006  1
