# generated using pymatgen
data_LiMnBO3
_symmetry_space_group_name_H-M   'P 1'
_cell_length_a   6.06429616
_cell_length_b   5.24501533
_cell_length_c   5.19376015
_cell_angle_alpha   60.87560249
_cell_angle_beta   113.07062009
_cell_angle_gamma   89.51704566
_symmetry_Int_Tables_number   1
_chemical_formula_structural   LiMnBO3
_chemical_formula_sum   'Li2 Mn2 B2 O6'
_cell_volume   128.63006692
_cell_formula_units_Z   2
loop_
 _symmetry_equiv_pos_site_id
 _symmetry_equiv_pos_as_xyz
  1  'x, y, z'
loop_
 _atom_site_type_symbol
 _atom_site_label
 _atom_site_symmetry_multiplicity
 _atom_site_fract_x
 _atom_site_fract_y
 _atom_site_fract_z
 _atom_site_occupancy
  Li  Li0  1  0.671050  0.632371  0.435374  1
  Li  Li1  1  0.328950  0.367629  0.564626  1
  Mn  Mn2  1  0.766567  0.253736  0.160271  1
  Mn  Mn3  1  0.233433  0.746264  0.839729  1
  B  B4  1  0.737491  0.927764  0.807436  1
  B  B5  1  0.262509  0.072236  0.192564  1
  O  O6  1  0.675834  0.697528  0.032528  1
  O  O7  1  0.826154  0.870676  0.622952  1
  O  O8  1  0.702684  0.213289  0.754043  1
  O  O9  1  0.297316  0.786711  0.245957  1
  O  O10  1  0.173846  0.129324  0.377048  1
  O  O11  1  0.324166  0.302472  0.967472  1
