# generated using pymatgen
data_Li3V2(O2F)2
_symmetry_space_group_name_H-M   'P 1'
_cell_length_a   5.97124628
_cell_length_b   5.22280394
_cell_length_c   14.94222998
_cell_angle_alpha   90.73031351
_cell_angle_beta   91.13006034
_cell_angle_gamma   91.72645779
_symmetry_Int_Tables_number   1
_chemical_formula_structural   Li3V2(O2F)2
_chemical_formula_sum   'Li12 V8 O16 F8'
_cell_volume   465.65445038
_cell_formula_units_Z   4
loop_
 _symmetry_equiv_pos_site_id
 _symmetry_equiv_pos_as_xyz
  1  'x, y, z'
loop_
 _atom_site_type_symbol
 _atom_site_label
 _atom_site_symmetry_multiplicity
 _atom_site_fract_x
 _atom_site_fract_y
 _atom_site_fract_z
 _atom_site_occupancy
  Li  Li0  1  0.007824  0.290548  0.162516  1
  Li  Li1  1  0.997558  0.337161  0.666727  1
  Li  Li2  1  0.001775  0.668637  0.292910  1
  Li  Li3  1  0.256721  0.840845  0.666169  1
  Li  Li4  1  0.227386  0.846196  0.162795  1
  Li  Li5  1  0.241313  0.473059  0.025621  1
  Li  Li6  1  0.489768  0.309129  0.178878  1
  Li  Li7  1  0.520656  0.007702  0.039157  1
  Li  Li8  1  0.496004  0.676802  0.297809  1
  Li  Li9  1  0.740937  0.846225  0.665471  1
  Li  Li10  1  0.755448  0.542264  0.044562  1
  Li  Li11  1  0.756006  0.137097  0.298492  1
  V  V12  1  0.000515  0.003244  0.495550  1
  V  V13  1  0.000149  0.670538  0.837185  1
  V  V14  1  0.249430  0.503529  0.503727  1
  V  V15  1  0.255005  0.174456  0.829176  1
  V  V16  1  0.498577  0.000752  0.500392  1
  V  V17  1  0.499161  0.661436  0.827110  1
  V  V18  1  0.749600  0.495506  0.503431  1
  V  V19  1  0.752727  0.163996  0.833122  1
  O  O20  1  0.990254  0.331816  0.436594  1
  O  O21  1  0.014630  0.343484  0.898143  1
  O  O22  1  0.008632  0.004043  0.757768  1
  O  O23  1  0.989904  0.666304  0.576708  1
  O  O24  1  0.245439  0.826959  0.434379  1
  O  O25  1  0.243819  0.834357  0.893110  1
  O  O26  1  0.233100  0.495482  0.757783  1
  O  O27  1  0.229161  0.153475  0.572451  1
  O  O28  1  0.514485  0.345330  0.439642  1
  O  O29  1  0.485378  0.319614  0.898123  1
  O  O30  1  0.497717  0.994461  0.757508  1
  O  O31  1  0.505636  0.682948  0.574980  1
  O  O32  1  0.763345  0.827911  0.434628  1
  O  O33  1  0.750995  0.831560  0.897124  1
  O  O34  1  0.766395  0.509101  0.761208  1
  O  O35  1  0.764497  0.167866  0.572718  1
  F  F36  1  0.002574  0.997892  0.248413  1
  F  F37  1  0.025504  0.634740  0.087239  1
  F  F38  1  0.251192  0.519541  0.240709  1
  F  F39  1  0.268367  0.165776  0.090144  1
  F  F40  1  0.494889  0.997427  0.250788  1
  F  F41  1  0.483773  0.672462  0.068656  1
  F  F42  1  0.740055  0.476406  0.263002  1
  F  F43  1  0.733696  0.218588  0.090716  1
