# generated using pymatgen
data_Ba2Y5F19
_symmetry_space_group_name_H-M   'P 1'
_cell_length_a   7.88915336
_cell_length_b   6.31772341
_cell_length_c   26.22109143
_cell_angle_alpha   90.00000000
_cell_angle_beta   95.84057414
_cell_angle_gamma   90.00000000
_symmetry_Int_Tables_number   1
_chemical_formula_structural   Ba2Y5F19
_chemical_formula_sum   'Ba4 Y10 F38'
_cell_volume   1300.11399233
_cell_formula_units_Z   2
loop_
 _symmetry_equiv_pos_site_id
 _symmetry_equiv_pos_as_xyz
  1  'x, y, z'
loop_
 _atom_site_type_symbol
 _atom_site_label
 _atom_site_symmetry_multiplicity
 _atom_site_fract_x
 _atom_site_fract_y
 _atom_site_fract_z
 _atom_site_occupancy
  Ba  Ba0  1  0.236317  0.764436  0.738087  1
  Ba  Ba1  1  0.233912  0.732581  0.170715  1
  Ba  Ba2  1  0.766088  0.232581  0.829285  1
  Ba  Ba3  1  0.763683  0.264436  0.261913  1
  Y  Y4  1  0.158922  0.241045  0.969631  1
  Y  Y5  1  0.170330  0.253839  0.535706  1
  Y  Y6  1  0.138567  0.758814  0.332530  1
  Y  Y7  1  0.442002  0.735833  0.900546  1
  Y  Y8  1  0.530753  0.753609  0.596681  1
  Y  Y9  1  0.469247  0.253609  0.403319  1
  Y  Y10  1  0.557998  0.235833  0.099454  1
  Y  Y11  1  0.861433  0.258814  0.667470  1
  Y  Y12  1  0.829670  0.753839  0.464294  1
  Y  Y13  1  0.841078  0.741045  0.030369  1
  F  F14  1  0.011356  0.974823  0.997921  1
  F  F15  1  0.009643  0.521813  0.703235  1
  F  F16  1  0.033057  0.246548  0.604882  1
  F  F17  1  0.040791  0.066965  0.718595  1
  F  F18  1  0.004912  0.997467  0.500598  1
  F  F19  1  0.291579  0.519346  0.943004  1
  F  F20  1  0.986798  0.741307  0.104894  1
  F  F21  1  0.323994  0.010607  0.935086  1
  F  F22  1  0.251607  0.728315  0.833798  1
  F  F23  1  0.339809  0.512952  0.567044  1
  F  F24  1  0.290695  0.764315  0.267069  1
  F  F25  1  0.282709  0.488681  0.368543  1
  F  F26  1  0.434799  0.750069  0.671210  1
  F  F27  1  0.322444  0.256066  0.470236  1
  F  F28  1  0.350440  0.008351  0.569130  1
  F  F29  1  0.306069  0.986108  0.375603  1
  F  F30  1  0.405790  0.421984  0.149724  1
  F  F31  1  0.653264  0.748302  0.962552  1
  F  F32  1  0.566460  0.463709  0.869158  1
  F  F33  1  0.433540  0.963709  0.130842  1
  F  F34  1  0.346736  0.248302  0.037448  1
  F  F35  1  0.594210  0.921984  0.850276  1
  F  F36  1  0.693931  0.486108  0.624397  1
  F  F37  1  0.649560  0.508351  0.430870  1
  F  F38  1  0.677556  0.756066  0.529764  1
  F  F39  1  0.565201  0.250069  0.328790  1
  F  F40  1  0.717291  0.988681  0.631457  1
  F  F41  1  0.709305  0.264315  0.732931  1
  F  F42  1  0.660191  0.012952  0.432956  1
  F  F43  1  0.748393  0.228315  0.166202  1
  F  F44  1  0.676007  0.510607  0.064914  1
  F  F45  1  0.013202  0.241307  0.895106  1
  F  F46  1  0.708421  0.019346  0.056996  1
  F  F47  1  0.995088  0.497467  0.499402  1
  F  F48  1  0.959209  0.566965  0.281405  1
  F  F49  1  0.966943  0.746548  0.395118  1
  F  F50  1  0.990357  0.021813  0.296765  1
  F  F51  1  0.988644  0.474823  0.002079  1
