# generated using pymatgen
data_NiH44C12(N5O8)2
_symmetry_space_group_name_H-M   'P 1'
_cell_length_a   9.16861693
_cell_length_b   9.44777366
_cell_length_c   9.78135205
_cell_angle_alpha   87.68023170
_cell_angle_beta   75.66446545
_cell_angle_gamma   61.26812466
_symmetry_Int_Tables_number   1
_chemical_formula_structural   NiH44C12(N5O8)2
_chemical_formula_sum   'Ni1 H44 C12 N10 O16'
_cell_volume   716.75336551
_cell_formula_units_Z   1
loop_
 _symmetry_equiv_pos_site_id
 _symmetry_equiv_pos_as_xyz
  1  'x, y, z'
loop_
 _atom_site_type_symbol
 _atom_site_label
 _atom_site_symmetry_multiplicity
 _atom_site_fract_x
 _atom_site_fract_y
 _atom_site_fract_z
 _atom_site_occupancy
  Ni  Ni0  1  0.500000  0.500000  0.500000  1
  H  H1  1  0.460853  0.651501  0.268609  1
  H  H2  1  0.539147  0.348499  0.731391  1
  H  H3  1  0.271634  0.721354  0.373130  1
  H  H4  1  0.728366  0.278646  0.626870  1
  H  H5  1  0.467942  0.343138  0.286148  1
  H  H6  1  0.532058  0.656862  0.713852  1
  H  H7  1  0.586790  0.204245  0.370709  1
  H  H8  1  0.413210  0.795755  0.629291  1
  H  H9  1  0.187030  0.627965  0.690849  1
  H  H10  1  0.812970  0.372036  0.309151  1
  H  H11  1  0.231058  0.459149  0.615664  1
  H  H12  1  0.768942  0.540851  0.384336  1
  H  H13  1  0.911370  0.817952  0.799659  1
  H  H14  1  0.088630  0.182048  0.200341  1
  H  H15  1  0.007060  0.772406  0.924409  1
  H  H16  1  0.992940  0.227594  0.075591  1
  H  H17  1  0.337420  0.168278  0.200468  1
  H  H18  1  0.662580  0.831722  0.799532  1
  H  H19  1  0.365375  0.990912  0.187774  1
  H  H20  1  0.634625  0.009088  0.812226  1
  H  H21  1  0.130405  0.869156  0.144770  1
  H  H22  1  0.869595  0.130844  0.855230  1
  H  H23  1  0.203935  0.654683  0.143254  1
  H  H24  1  0.796065  0.345317  0.856746  1
  H  H25  1  0.954779  0.684907  0.505530  1
  H  H26  1  0.045221  0.315093  0.494470  1
  H  H27  1  0.102326  0.549562  0.350855  1
  H  H28  1  0.897674  0.450438  0.649145  1
  H  H29  1  0.857415  0.966121  0.505431  1
  H  H30  1  0.142585  0.033879  0.494569  1
  H  H31  1  0.934595  0.046727  0.350442  1
  H  H32  1  0.065405  0.953273  0.649558  1
  H  H33  1  0.841936  0.052037  0.142084  1
  H  H34  1  0.158064  0.947963  0.857916  1
  H  H35  1  0.694706  0.978107  0.139840  1
  H  H36  1  0.305294  0.021893  0.860160  1
  H  H37  1  0.010406  0.554822  0.143643  1
  H  H38  1  0.989594  0.445178  0.856357  1
  H  H39  1  0.791715  0.691740  0.140611  1
  H  H40  1  0.208285  0.308260  0.859389  1
  H  H41  1  0.665647  0.868383  0.503067  1
  H  H42  1  0.334353  0.131617  0.496933  1
  H  H43  1  0.592977  0.873158  0.347054  1
  H  H44  1  0.407023  0.126842  0.652946  1
  C  C45  1  0.094805  0.776041  0.181936  1
  C  C46  1  0.905195  0.223959  0.818064  1
  C  C47  1  0.993042  0.670806  0.389305  1
  C  C48  1  0.006958  0.329194  0.610695  1
  C  C49  1  0.897897  0.954798  0.389174  1
  C  C50  1  0.102103  0.045202  0.610826  1
  C  C51  1  0.803650  0.960692  0.179507  1
  C  C52  1  0.196350  0.039308  0.820493  1
  C  C53  1  0.899933  0.676135  0.180414  1
  C  C54  1  0.100067  0.323865  0.819586  1
  C  C55  1  0.701649  0.856603  0.386761  1
  C  C56  1  0.298351  0.143397  0.613239  1
  N  N57  1  0.047394  0.791956  0.338904  1
  N  N58  1  0.952606  0.208044  0.661096  1
  N  N59  1  0.950739  0.798125  0.125173  1
  N  N60  1  0.049261  0.201875  0.874827  1
  N  N61  1  0.846435  0.691341  0.336998  1
  N  N62  1  0.153565  0.308659  0.663002  1
  N  N63  1  0.749113  0.982285  0.336215  1
  N  N64  1  0.250887  0.017715  0.663785  1
  N  N65  1  0.566323  0.681208  0.995943  1
  N  N66  1  0.433677  0.318792  0.004057  1
  O  O67  1  0.598415  0.572051  0.081459  1
  O  O68  1  0.401585  0.427949  0.918541  1
  O  O69  1  0.638776  0.641917  0.863129  1
  O  O70  1  0.361224  0.358083  0.136871  1
  O  O71  1  0.466183  0.828965  0.039375  1
  O  O72  1  0.533817  0.171035  0.960625  1
  O  O73  1  0.394540  0.684419  0.369371  1
  O  O74  1  0.605460  0.315581  0.630629  1
  O  O75  1  0.502252  0.322170  0.375931  1
  O  O76  1  0.497748  0.677830  0.624069  1
  O  O77  1  0.256346  0.551346  0.603026  1
  O  O78  1  0.743654  0.448654  0.396974  1
  O  O79  1  0.026486  0.769543  0.819282  1
  O  O80  1  0.973514  0.230457  0.180718  1
  O  O81  1  0.291862  0.096564  0.244265  1
  O  O82  1  0.708138  0.903436  0.755735  1
