# generated using pymatgen
data_Ni(IO3)2
_symmetry_space_group_name_H-M   'P 1'
_cell_length_a   5.61410060
_cell_length_b   17.86165832
_cell_length_c   5.43522932
_cell_angle_alpha   90.00000000
_cell_angle_beta   90.00000000
_cell_angle_gamma   90.00000000
_symmetry_Int_Tables_number   1
_chemical_formula_structural   Ni(IO3)2
_chemical_formula_sum   'Ni4 I8 O24'
_cell_volume   545.02928782
_cell_formula_units_Z   4
loop_
 _symmetry_equiv_pos_site_id
 _symmetry_equiv_pos_as_xyz
  1  'x, y, z'
loop_
 _atom_site_type_symbol
 _atom_site_label
 _atom_site_symmetry_multiplicity
 _atom_site_fract_x
 _atom_site_fract_y
 _atom_site_fract_z
 _atom_site_occupancy
  Ni  Ni0  1  0.166953  0.107063  0.720629  1
  Ni  Ni1  1  0.333047  0.892937  0.220629  1
  Ni  Ni2  1  0.666953  0.392937  0.279371  1
  Ni  Ni3  1  0.833047  0.607063  0.779371  1
  I  I4  1  0.145929  0.423725  0.990918  1
  I  I5  1  0.234957  0.202715  0.257637  1
  I  I6  1  0.265043  0.797285  0.757637  1
  I  I7  1  0.354071  0.576275  0.490918  1
  I  I8  1  0.645929  0.076275  0.009083  1
  I  I9  1  0.734957  0.297285  0.742363  1
  I  I10  1  0.765043  0.702715  0.242363  1
  I  I11  1  0.854071  0.923725  0.509082  1
  O  O12  1  0.021872  0.330043  0.086499  1
  O  O13  1  0.032336  0.155567  0.035172  1
  O  O14  1  0.023761  0.199924  0.520618  1
  O  O15  1  0.120292  0.972170  0.394639  1
  O  O16  1  0.113287  0.880288  0.891178  1
  O  O17  1  0.161046  0.553223  0.762267  1
  O  O18  1  0.338954  0.446777  0.262267  1
  O  O19  1  0.386713  0.119712  0.391178  1
  O  O20  1  0.379708  0.027830  0.894639  1
  O  O21  1  0.476239  0.800076  0.020618  1
  O  O22  1  0.467664  0.844433  0.535172  1
  O  O23  1  0.478128  0.669957  0.586499  1
  O  O24  1  0.521872  0.169957  0.913501  1
  O  O25  1  0.532336  0.344433  0.964828  1
  O  O26  1  0.523761  0.300076  0.479382  1
  O  O27  1  0.620292  0.527830  0.605361  1
  O  O28  1  0.613287  0.619712  0.108822  1
  O  O29  1  0.661046  0.946777  0.237733  1
  O  O30  1  0.838954  0.053223  0.737733  1
  O  O31  1  0.886713  0.380288  0.608822  1
  O  O32  1  0.879708  0.472170  0.105361  1
  O  O33  1  0.976239  0.699924  0.979382  1
  O  O34  1  0.967664  0.655567  0.464828  1
  O  O35  1  0.978128  0.830043  0.413501  1
