# generated using pymatgen
data_SbOF3
_symmetry_space_group_name_H-M   'P 1'
_cell_length_a   8.42964714
_cell_length_b   6.73879677
_cell_length_c   7.73907227
_cell_angle_alpha   109.89600170
_cell_angle_beta   98.50379196
_cell_angle_gamma   111.44393774
_symmetry_Int_Tables_number   1
_chemical_formula_structural   SbOF3
_chemical_formula_sum   'Sb4 O4 F12'
_cell_volume   365.67222739
_cell_formula_units_Z   4
loop_
 _symmetry_equiv_pos_site_id
 _symmetry_equiv_pos_as_xyz
  1  'x, y, z'
loop_
 _atom_site_type_symbol
 _atom_site_label
 _atom_site_symmetry_multiplicity
 _atom_site_fract_x
 _atom_site_fract_y
 _atom_site_fract_z
 _atom_site_occupancy
  Sb  Sb0  1  0.208205  0.513851  0.519137  1
  Sb  Sb1  1  0.394302  0.336961  0.111985  1
  Sb  Sb2  1  0.605698  0.663039  0.888015  1
  Sb  Sb3  1  0.791795  0.486149  0.480863  1
  O  O4  1  0.364699  0.599904  0.767824  1
  O  O5  1  0.349181  0.472586  0.348733  1
  O  O6  1  0.650819  0.527414  0.651267  1
  O  O7  1  0.635301  0.400096  0.232176  1
  F  F8  1  0.026180  0.555124  0.673960  1
  F  F9  1  0.183537  0.289751  0.943267  1
  F  F10  1  0.086080  0.190076  0.458754  1
  F  F11  1  0.272644  0.827713  0.553515  1
  F  F12  1  0.697652  0.989484  0.955459  1
  F  F13  1  0.508229  0.679474  0.122496  1
  F  F14  1  0.491771  0.320526  0.877503  1
  F  F15  1  0.302348  0.010516  0.044541  1
  F  F16  1  0.727356  0.172287  0.446485  1
  F  F17  1  0.913920  0.809924  0.541246  1
  F  F18  1  0.816463  0.710249  0.056733  1
  F  F19  1  0.973820  0.444876  0.326040  1
