# generated using pymatgen
data_KAl11O17
_symmetry_space_group_name_H-M   'P 1'
_cell_length_a   5.67505671
_cell_length_b   5.64965132
_cell_length_c   22.95569620
_cell_angle_alpha   90.00063777
_cell_angle_beta   89.99761201
_cell_angle_gamma   120.12013604
_symmetry_Int_Tables_number   1
_chemical_formula_structural   KAl11O17
_chemical_formula_sum   'K2 Al22 O34'
_cell_volume   636.62828897
_cell_formula_units_Z   2
loop_
 _symmetry_equiv_pos_site_id
 _symmetry_equiv_pos_as_xyz
  1  'x, y, z'
loop_
 _atom_site_type_symbol
 _atom_site_label
 _atom_site_symmetry_multiplicity
 _atom_site_fract_x
 _atom_site_fract_y
 _atom_site_fract_z
 _atom_site_occupancy
  K  K0  1  0.104961  0.207033  0.750084  1
  K  K1  1  0.894629  0.792315  0.249997  1
  Al  Al2  1  0.170184  0.834174  0.606402  1
  Al  Al3  1  0.170427  0.834145  0.893613  1
  Al  Al4  1  0.332892  0.666164  0.025375  1
  Al  Al5  1  0.329858  0.661814  0.174798  1
  Al  Al6  1  0.000036  0.999967  0.999983  1
  Al  Al7  1  0.000021  0.000067  0.499970  1
  Al  Al8  1  0.329905  0.661852  0.325318  1
  Al  Al9  1  0.332887  0.666217  0.474697  1
  Al  Al10  1  0.169960  0.338620  0.604355  1
  Al  Al11  1  0.170195  0.338693  0.895694  1
  Al  Al12  1  0.665286  0.834007  0.606400  1
  Al  Al13  1  0.665451  0.834055  0.893613  1
  Al  Al14  1  0.334653  0.165990  0.393567  1
  Al  Al15  1  0.334575  0.165960  0.106396  1
  Al  Al16  1  0.829927  0.661364  0.395647  1
  Al  Al17  1  0.670010  0.338135  0.674707  1
  Al  Al18  1  0.667113  0.333875  0.525300  1
  Al  Al19  1  0.670212  0.338276  0.825237  1
  Al  Al20  1  0.667211  0.333820  0.974687  1
  Al  Al21  1  0.829942  0.661376  0.104329  1
  Al  Al22  1  0.829703  0.165814  0.106402  1
  Al  Al23  1  0.829757  0.165885  0.393573  1
  O  O24  1  0.154447  0.841195  0.049120  1
  O  O25  1  0.154595  0.841308  0.450853  1
  O  O26  1  0.006610  0.502241  0.855640  1
  O  O27  1  0.006384  0.502235  0.644344  1
  O  O28  1  0.333932  0.670643  0.250008  1
  O  O29  1  0.156048  0.312821  0.450091  1
  O  O30  1  0.002164  0.003113  0.640818  1
  O  O31  1  0.997731  0.996863  0.359185  1
  O  O32  1  0.997686  0.996844  0.140791  1
  O  O33  1  0.002413  0.003147  0.859267  1
  O  O34  1  0.334424  0.668076  0.554606  1
  O  O35  1  0.334600  0.668140  0.945449  1
  O  O36  1  0.155968  0.312659  0.049886  1
  O  O37  1  0.501799  0.002269  0.643159  1
  O  O38  1  0.502069  0.002412  0.856839  1
  O  O39  1  0.313781  0.158655  0.549077  1
  O  O40  1  0.313946  0.158708  0.950937  1
  O  O41  1  0.497253  0.502003  0.644333  1
  O  O42  1  0.497429  0.502084  0.855663  1
  O  O43  1  0.502585  0.498023  0.144309  1
  O  O44  1  0.502701  0.497959  0.355632  1
  O  O45  1  0.686243  0.841359  0.049068  1
  O  O46  1  0.686168  0.841398  0.450900  1
  O  O47  1  0.498154  0.997758  0.356819  1
  O  O48  1  0.665579  0.332032  0.445397  1
  O  O49  1  0.843976  0.687329  0.549881  1
  O  O50  1  0.844078  0.687213  0.950117  1
  O  O51  1  0.497985  0.997565  0.143132  1
  O  O52  1  0.665516  0.331871  0.054601  1
  O  O53  1  0.666047  0.329436  0.749968  1
  O  O54  1  0.993546  0.497780  0.144340  1
  O  O55  1  0.993470  0.497764  0.355623  1
  O  O56  1  0.845448  0.158775  0.549119  1
  O  O57  1  0.845583  0.158801  0.950881  1
