# generated using pymatgen
data_Li4Mn2Cu3Sn3O16
_symmetry_space_group_name_H-M   'P 1'
_cell_length_a   6.04664274
_cell_length_b   6.11455869
_cell_length_c   9.58827622
_cell_angle_alpha   89.99512913
_cell_angle_beta   90.17795925
_cell_angle_gamma   120.36676345
_symmetry_Int_Tables_number   1
_chemical_formula_structural   Li4Mn2Cu3Sn3O16
_chemical_formula_sum   'Li4 Mn2 Cu3 Sn3 O16'
_cell_volume   305.86580052
_cell_formula_units_Z   1
loop_
 _symmetry_equiv_pos_site_id
 _symmetry_equiv_pos_as_xyz
  1  'x, y, z'
loop_
 _atom_site_type_symbol
 _atom_site_label
 _atom_site_symmetry_multiplicity
 _atom_site_fract_x
 _atom_site_fract_y
 _atom_site_fract_z
 _atom_site_occupancy
  Li  Li0  1  0.351875  0.676043  0.891957  1
  Li  Li1  1  0.953208  0.976656  0.985287  1
  Li  Li2  1  0.962849  0.981462  0.498759  1
  Li  Li3  1  0.671638  0.335837  0.404314  1
  Mn  Mn4  1  0.336708  0.668302  0.490928  1
  Mn  Mn5  1  0.686097  0.343134  0.980322  1
  Cu  Cu6  1  0.662864  0.831302  0.213384  1
  Cu  Cu7  1  0.833883  0.659987  0.711953  1
  Cu  Cu8  1  0.833995  0.174066  0.711964  1
  Sn  Sn9  1  0.173077  0.832601  0.212091  1
  Sn  Sn10  1  0.172942  0.340336  0.212127  1
  Sn  Sn11  1  0.341603  0.170774  0.710500  1
  O  O12  1  0.166567  0.832322  0.592446  1
  O  O13  1  0.035484  0.517731  0.347003  1
  O  O14  1  0.350684  0.675253  0.100117  1
  O  O15  1  0.987314  0.993592  0.309748  1
  O  O16  1  0.985520  0.992759  0.798905  1
  O  O17  1  0.166569  0.334177  0.592330  1
  O  O18  1  0.475721  0.957574  0.355208  1
  O  O19  1  0.475683  0.518059  0.355183  1
  O  O20  1  0.337589  0.168795  0.094591  1
  O  O21  1  0.643600  0.821574  0.596698  1
  O  O22  1  0.530362  0.480871  0.850723  1
  O  O23  1  0.530526  0.049715  0.850776  1
  O  O24  1  0.684903  0.342538  0.607888  1
  O  O25  1  0.840956  0.662208  0.090344  1
  O  O26  1  0.966754  0.483764  0.852010  1
  O  O27  1  0.841029  0.178869  0.090286  1
