# generated using pymatgen
data_Sr3(AsO4)2
_symmetry_space_group_name_H-M   'P 1'
_cell_length_a   5.98998422
_cell_length_b   10.20888093
_cell_length_c   8.51010910
_cell_angle_alpha   90.00000000
_cell_angle_beta   91.59664758
_cell_angle_gamma   90.00000000
_symmetry_Int_Tables_number   1
_chemical_formula_structural   Sr3(AsO4)2
_chemical_formula_sum   'Sr6 As4 O16'
_cell_volume   520.19993700
_cell_formula_units_Z   2
loop_
 _symmetry_equiv_pos_site_id
 _symmetry_equiv_pos_as_xyz
  1  'x, y, z'
loop_
 _atom_site_type_symbol
 _atom_site_label
 _atom_site_symmetry_multiplicity
 _atom_site_fract_x
 _atom_site_fract_y
 _atom_site_fract_z
 _atom_site_occupancy
  Sr  Sr0  1  0.000000  0.000000  0.500000  1
  Sr  Sr1  1  0.084199  0.355481  0.633195  1
  Sr  Sr2  1  0.415800  0.855481  0.866805  1
  Sr  Sr3  1  0.500000  0.500000  0.000000  1
  Sr  Sr4  1  0.584200  0.144519  0.133195  1
  Sr  Sr5  1  0.915800  0.644519  0.366805  1
  As  As6  1  0.038165  0.308374  0.200842  1
  As  As7  1  0.461835  0.808374  0.299158  1
  As  As8  1  0.538165  0.191626  0.700842  1
  As  As9  1  0.961835  0.691626  0.799158  1
  O  O10  1  0.028457  0.847770  0.738854  1
  O  O11  1  0.046089  0.416965  0.356187  1
  O  O12  1  0.174916  0.648219  0.928772  1
  O  O13  1  0.206817  0.810748  0.384453  1
  O  O14  1  0.325084  0.148219  0.571228  1
  O  O15  1  0.471543  0.347770  0.761146  1
  O  O16  1  0.293183  0.310748  0.115547  1
  O  O17  1  0.453911  0.916965  0.143813  1
  O  O18  1  0.546089  0.083035  0.856187  1
  O  O19  1  0.706817  0.689252  0.884453  1
  O  O20  1  0.528457  0.652230  0.238854  1
  O  O21  1  0.674916  0.851781  0.428772  1
  O  O22  1  0.793183  0.189252  0.615547  1
  O  O23  1  0.825084  0.351781  0.071228  1
  O  O24  1  0.953911  0.583035  0.643813  1
  O  O25  1  0.971543  0.152230  0.261146  1
