# generated using pymatgen
data_LiFe2OF5
_symmetry_space_group_name_H-M   'P 1'
_cell_length_a   5.22269399
_cell_length_b   5.22195574
_cell_length_c   13.72668650
_cell_angle_alpha   90.01392282
_cell_angle_beta   89.96840003
_cell_angle_gamma   120.00180890
_symmetry_Int_Tables_number   1
_chemical_formula_structural   LiFe2OF5
_chemical_formula_sum   'Li3 Fe6 O3 F15'
_cell_volume   324.20232912
_cell_formula_units_Z   3
loop_
 _symmetry_equiv_pos_site_id
 _symmetry_equiv_pos_as_xyz
  1  'x, y, z'
loop_
 _atom_site_type_symbol
 _atom_site_label
 _atom_site_symmetry_multiplicity
 _atom_site_fract_x
 _atom_site_fract_y
 _atom_site_fract_z
 _atom_site_occupancy
  Li  Li0  1  0.977776  0.976126  0.004710  1
  Li  Li1  1  0.024003  0.000600  0.337836  1
  Li  Li2  1  -0.000638  0.023249  0.671315  1
  Fe  Fe3  1  0.316650  0.646326  0.828830  1
  Fe  Fe4  1  0.353029  0.670024  0.162027  1
  Fe  Fe5  1  0.330062  0.683547  0.495349  1
  Fe  Fe6  1  0.669495  0.352086  0.162102  1
  Fe  Fe7  1  0.648084  0.317833  0.495360  1
  Fe  Fe8  1  0.682413  0.330141  0.828869  1
  O  O9  1  0.999462  0.349831  0.759805  1
  O  O10  1  0.351047  0.000843  0.426280  1
  O  O11  1  0.649640  0.649133  0.093013  1
  F  F12  1  0.012264  0.643455  0.243593  1
  F  F13  1  0.000680  0.651986  0.912408  1
  F  F14  1  0.986518  0.633646  0.575519  1
  F  F15  1  -0.000304  0.346825  0.423841  1
  F  F16  1  0.000773  0.349529  0.089385  1
  F  F17  1  0.366329  0.352810  0.908997  1
  F  F18  1  0.356928  0.369559  0.576903  1
  F  F19  1  0.347562  0.348757  0.245682  1
  F  F20  1  0.346843  0.000684  0.090605  1
  F  F21  1  0.348746  0.998824  0.756131  1
  F  F22  1  0.653354  0.652545  0.757327  1
  F  F23  1  0.650756  0.651804  0.422626  1
  F  F24  1  0.630408  0.987171  0.910382  1
  F  F25  1  0.646714  0.013250  0.242126  1
  F  F26  1  0.651104  0.999414  0.578980  1
