# generated using pymatgen
data_Li2Mn2(Si2O5)3
_symmetry_space_group_name_H-M   'P 1'
_cell_length_a   11.53275373
_cell_length_b   11.53275373
_cell_length_c   10.29763515
_cell_angle_alpha   90.00000000
_cell_angle_beta   90.00000000
_cell_angle_gamma   78.49725151
_symmetry_Int_Tables_number   1
_chemical_formula_structural   Li2Mn2(Si2O5)3
_chemical_formula_sum   'Li8 Mn8 Si24 O60'
_cell_volume   1342.12202923
_cell_formula_units_Z   4
loop_
 _symmetry_equiv_pos_site_id
 _symmetry_equiv_pos_as_xyz
  1  'x, y, z'
loop_
 _atom_site_type_symbol
 _atom_site_label
 _atom_site_symmetry_multiplicity
 _atom_site_fract_x
 _atom_site_fract_y
 _atom_site_fract_z
 _atom_site_occupancy
  Li  Li0  1  0.996512  0.496512  0.750000  1
  Li  Li1  1  0.503488  0.003488  0.250000  1
  Li  Li2  1  0.603673  0.603673  0.741787  1
  Li  Li3  1  0.396327  0.396327  0.258213  1
  Li  Li4  1  0.103673  0.103673  0.758213  1
  Li  Li5  1  0.896327  0.896327  0.241787  1
  Li  Li6  1  0.496512  0.996512  0.750000  1
  Li  Li7  1  0.003488  0.503488  0.250000  1
  Mn  Mn8  1  0.243748  0.756252  0.000000  1
  Mn  Mn9  1  0.158779  0.658779  0.250000  1
  Mn  Mn10  1  0.341221  0.841221  0.750000  1
  Mn  Mn11  1  0.256252  0.743748  0.500000  1
  Mn  Mn12  1  0.743748  0.256252  0.500000  1
  Mn  Mn13  1  0.841221  0.341221  0.750000  1
  Mn  Mn14  1  0.658779  0.158779  0.250000  1
  Mn  Mn15  1  0.756252  0.243748  0.000000  1
  Si  Si16  1  0.186715  0.967268  0.191085  1
  Si  Si17  1  0.032732  0.813285  0.808915  1
  Si  Si18  1  0.196076  0.417647  0.459316  1
  Si  Si19  1  0.082353  0.303924  0.959316  1
  Si  Si20  1  0.582353  0.803924  0.540684  1
  Si  Si21  1  0.696076  0.917647  0.040684  1
  Si  Si22  1  0.313285  0.532732  0.691085  1
  Si  Si23  1  0.467268  0.686715  0.308915  1
  Si  Si24  1  0.758319  0.975442  0.513667  1
  Si  Si25  1  0.024558  0.241681  0.486333  1
  Si  Si26  1  0.524558  0.741681  0.013667  1
  Si  Si27  1  0.258319  0.475442  0.986333  1
  Si  Si28  1  0.975442  0.758319  0.513667  1
  Si  Si29  1  0.241681  0.024558  0.486333  1
  Si  Si30  1  0.741681  0.524558  0.013667  1
  Si  Si31  1  0.475442  0.258319  0.986333  1
  Si  Si32  1  0.686715  0.467268  0.308915  1
  Si  Si33  1  0.532732  0.313285  0.691085  1
  Si  Si34  1  0.417647  0.196076  0.459316  1
  Si  Si35  1  0.917647  0.696076  0.040684  1
  Si  Si36  1  0.303924  0.082353  0.959316  1
  Si  Si37  1  0.803924  0.582353  0.540684  1
  Si  Si38  1  0.813285  0.032732  0.808915  1
  Si  Si39  1  0.967268  0.186715  0.191085  1
  O  O40  1  0.247753  0.988640  0.331450  1
  O  O41  1  0.011360  0.752247  0.668550  1
  O  O42  1  0.163451  0.836394  0.166156  1
  O  O43  1  0.163606  0.836549  0.833844  1
  O  O44  1  0.248459  0.910511  0.576029  1
  O  O45  1  0.089489  0.751541  0.423971  1
  O  O46  1  0.251541  0.589489  0.076029  1
  O  O47  1  0.410511  0.748459  0.923971  1
  O  O48  1  0.336549  0.663606  0.666156  1
  O  O49  1  0.336394  0.663451  0.333844  1
  O  O50  1  0.157184  0.484418  0.325810  1
  O  O51  1  0.015582  0.342816  0.825810  1
  O  O52  1  0.515582  0.842816  0.674190  1
  O  O53  1  0.657184  0.984418  0.174190  1
  O  O54  1  0.995853  0.280438  0.079735  1
  O  O55  1  0.219562  0.504147  0.579735  1
  O  O56  1  0.495853  0.780438  0.420265  1
  O  O57  1  0.719562  0.004147  0.920265  1
  O  O58  1  0.149510  0.406258  0.016110  1
  O  O59  1  0.093742  0.350490  0.516110  1
  O  O60  1  0.649510  0.906258  0.483890  1
  O  O61  1  0.593742  0.850490  0.983890  1
  O  O62  1  0.488640  0.747753  0.168550  1
  O  O63  1  0.252247  0.511360  0.831450  1
  O  O64  1  0.940282  0.940282  0.819044  1
  O  O65  1  0.617526  0.617526  0.974001  1
  O  O66  1  0.323113  0.323113  0.429038  1
  O  O67  1  0.059718  0.059718  0.180956  1
  O  O68  1  0.176887  0.176887  0.929038  1
  O  O69  1  0.117526  0.117526  0.525999  1
  O  O70  1  0.440282  0.440282  0.680956  1
  O  O71  1  0.382474  0.382474  0.025999  1
  O  O72  1  0.559718  0.559718  0.319044  1
  O  O73  1  0.823113  0.823113  0.070962  1
  O  O74  1  0.882474  0.882474  0.474001  1
  O  O75  1  0.676887  0.676887  0.570962  1
  O  O76  1  0.747753  0.488640  0.168550  1
  O  O77  1  0.511360  0.252247  0.831450  1
  O  O78  1  0.850490  0.593742  0.983890  1
  O  O79  1  0.406258  0.149510  0.016110  1
  O  O80  1  0.350490  0.093742  0.516110  1
  O  O81  1  0.906258  0.649510  0.483890  1
  O  O82  1  0.004147  0.719562  0.920265  1
  O  O83  1  0.280438  0.995853  0.079735  1
  O  O84  1  0.504147  0.219562  0.579735  1
  O  O85  1  0.780438  0.495853  0.420265  1
  O  O86  1  0.842816  0.515582  0.674190  1
  O  O87  1  0.342816  0.015582  0.825810  1
  O  O88  1  0.484418  0.157184  0.325810  1
  O  O89  1  0.984418  0.657184  0.174190  1
  O  O90  1  0.663451  0.336394  0.333844  1
  O  O91  1  0.663606  0.336549  0.666156  1
  O  O92  1  0.589489  0.251541  0.076029  1
  O  O93  1  0.748459  0.410511  0.923971  1
  O  O94  1  0.910511  0.248459  0.576029  1
  O  O95  1  0.751541  0.089489  0.423971  1
  O  O96  1  0.836394  0.163451  0.166156  1
  O  O97  1  0.836549  0.163606  0.833844  1
  O  O98  1  0.988640  0.247753  0.331450  1
  O  O99  1  0.752247  0.011360  0.668550  1
