# generated using pymatgen
data_Li3Fe5OF11
_symmetry_space_group_name_H-M   'P 1'
_cell_length_a   5.30406664
_cell_length_b   5.73031245
_cell_length_c   9.43586344
_cell_angle_alpha   85.25092297
_cell_angle_beta   74.22762911
_cell_angle_gamma   118.22732549
_symmetry_Int_Tables_number   1
_chemical_formula_structural   Li3Fe5OF11
_chemical_formula_sum   'Li3 Fe5 O1 F11'
_cell_volume   235.49761678
_cell_formula_units_Z   1
loop_
 _symmetry_equiv_pos_site_id
 _symmetry_equiv_pos_as_xyz
  1  'x, y, z'
loop_
 _atom_site_type_symbol
 _atom_site_label
 _atom_site_symmetry_multiplicity
 _atom_site_fract_x
 _atom_site_fract_y
 _atom_site_fract_z
 _atom_site_occupancy
  Li  Li0  1  0.166702  0.374534  0.057213  1
  Li  Li1  1  0.143981  0.872457  0.577910  1
  Li  Li2  1  0.871728  0.646523  0.926349  1
  Fe  Fe3  1  0.353979  0.874191  0.170321  1
  Fe  Fe4  1  0.330465  0.363192  0.668216  1
  Fe  Fe5  1  0.621046  0.604320  0.330056  1
  Fe  Fe6  1  0.880841  0.138601  0.427752  1
  Fe  Fe7  1  0.654634  0.133489  0.829226  1
  O  O8  1  0.253563  0.277545  0.477596  1
  F  F9  1  0.048019  0.536922  0.728770  1
  F  F10  1  0.042780  0.020126  0.216519  1
  F  F11  1  0.472483  0.897658  0.369692  1
  F  F12  1  0.551386  0.621678  0.121096  1
  F  F13  1  0.249433  0.773740  0.971521  1
  F  F14  1  0.745892  0.220234  0.034867  1
  F  F15  1  0.755551  0.723673  0.529053  1
  F  F16  1  0.428883  0.354414  0.867046  1
  F  F17  1  0.552405  0.115364  0.628245  1
  F  F18  1  0.958035  0.487848  0.274795  1
  F  F19  1  0.918194  0.963491  0.793757  1
