# generated using pymatgen
data_Sr3CrN4
_symmetry_space_group_name_H-M   'P 1'
_cell_length_a   9.62624717
_cell_length_b   10.23686308
_cell_length_c   11.36235589
_cell_angle_alpha   90.00000000
_cell_angle_beta   90.00000000
_cell_angle_gamma   90.00000000
_symmetry_Int_Tables_number   1
_chemical_formula_structural   Sr3CrN4
_chemical_formula_sum   'Sr24 Cr8 N32'
_cell_volume   1119.67579899
_cell_formula_units_Z   8
loop_
 _symmetry_equiv_pos_site_id
 _symmetry_equiv_pos_as_xyz
  1  'x, y, z'
loop_
 _atom_site_type_symbol
 _atom_site_label
 _atom_site_symmetry_multiplicity
 _atom_site_fract_x
 _atom_site_fract_y
 _atom_site_fract_z
 _atom_site_occupancy
  N  N0  1  0.786802  0.230590  0.674167  1
  N  N1  1  0.286802  0.769410  0.825833  1
  N  N2  1  0.713198  0.730590  0.325833  1
  N  N3  1  0.213198  0.269410  0.174167  1
  N  N4  1  0.213198  0.769410  0.325833  1
  N  N5  1  0.713198  0.230590  0.174167  1
  N  N6  1  0.286802  0.269410  0.674167  1
  N  N7  1  0.786802  0.730590  0.825833  1
  N  N8  1  0.812293  0.497355  0.966943  1
  N  N9  1  0.312293  0.502645  0.533057  1
  N  N10  1  0.687707  0.997355  0.033057  1
  N  N11  1  0.187707  0.002645  0.466943  1
  N  N12  1  0.187707  0.502645  0.033057  1
  N  N13  1  0.687707  0.497355  0.466943  1
  N  N14  1  0.312293  0.002645  0.966943  1
  N  N15  1  0.620652  0.000719  0.719946  1
  N  N16  1  0.569277  0.154170  0.511733  1
  N  N17  1  0.069277  0.845830  0.988267  1
  N  N18  1  0.930723  0.654170  0.488267  1
  N  N19  1  0.430723  0.345830  0.011733  1
  N  N20  1  0.430723  0.845830  0.488267  1
  N  N21  1  0.930723  0.154170  0.011733  1
  N  N22  1  0.069277  0.345830  0.511733  1
  N  N23  1  0.569277  0.654170  0.988267  1
  N  N24  1  0.620652  0.500719  0.780054  1
  N  N25  1  0.120652  0.499281  0.719946  1
  N  N26  1  0.879348  0.000719  0.219946  1
  N  N27  1  0.379348  0.999281  0.280054  1
  N  N28  1  0.379348  0.499281  0.219946  1
  N  N29  1  0.879348  0.500719  0.280054  1
  N  N30  1  0.120652  0.999281  0.780054  1
  N  N31  1  0.812293  0.997355  0.533057  1
  Cr  Cr32  1  0.696460  0.098180  0.611857  1
  Cr  Cr33  1  0.196460  0.901820  0.888143  1
  Cr  Cr34  1  0.803540  0.598180  0.388143  1
  Cr  Cr35  1  0.303540  0.401820  0.111857  1
  Cr  Cr36  1  0.303540  0.901820  0.388143  1
  Cr  Cr37  1  0.803540  0.098180  0.111857  1
  Cr  Cr38  1  0.196460  0.401820  0.611857  1
  Cr  Cr39  1  0.696460  0.598180  0.888143  1
  Sr  Sr40  1  0.528935  0.372387  0.606425  1
  Sr  Sr41  1  0.200159  0.717252  0.615163  1
  Sr  Sr42  1  0.799841  0.782748  0.115163  1
  Sr  Sr43  1  0.299841  0.217252  0.384837  1
  Sr  Sr44  1  0.299841  0.717252  0.115163  1
  Sr  Sr45  1  0.799841  0.282748  0.384837  1
  Sr  Sr46  1  0.200159  0.217252  0.884837  1
  Sr  Sr47  1  0.700159  0.782748  0.615163  1
  Sr  Sr48  1  0.700159  0.282748  0.884837  1
  Sr  Sr49  1  0.028935  0.627613  0.893575  1
  Sr  Sr50  1  0.971065  0.872387  0.393575  1
  Sr  Sr51  1  0.471065  0.127613  0.106425  1
  Sr  Sr52  1  0.471065  0.627613  0.393575  1
  Sr  Sr53  1  0.971065  0.372387  0.106425  1
  Sr  Sr54  1  0.028935  0.127613  0.606425  1
  Sr  Sr55  1  0.528935  0.872387  0.893575  1
  Sr  Sr56  1  0.874176  0.472368  0.641994  1
  Sr  Sr57  1  0.374176  0.527632  0.858006  1
  Sr  Sr58  1  0.625824  0.972368  0.358006  1
  Sr  Sr59  1  0.125824  0.027632  0.141994  1
  Sr  Sr60  1  0.125824  0.527632  0.358006  1
  Sr  Sr61  1  0.625824  0.472368  0.141994  1
  Sr  Sr62  1  0.374176  0.027632  0.641994  1
  Sr  Sr63  1  0.874176  0.972368  0.858006  1
