# generated using pymatgen
data_Mn3OF8
_symmetry_space_group_name_H-M   'P 1'
_cell_length_a   5.22617255
_cell_length_b   5.10600798
_cell_length_c   13.43074492
_cell_angle_alpha   87.93443975
_cell_angle_beta   90.00000000
_cell_angle_gamma   59.21840082
_symmetry_Int_Tables_number   1
_chemical_formula_structural   Mn3OF8
_chemical_formula_sum   'Mn6 O2 F16'
_cell_volume   307.63716842
_cell_formula_units_Z   2
loop_
 _symmetry_equiv_pos_site_id
 _symmetry_equiv_pos_as_xyz
  1  'x, y, z'
loop_
 _atom_site_type_symbol
 _atom_site_label
 _atom_site_symmetry_multiplicity
 _atom_site_fract_x
 _atom_site_fract_y
 _atom_site_fract_z
 _atom_site_occupancy
  Mn  Mn0  1  0.007658  0.982212  0.004815  1
  Mn  Mn1  1  0.010131  0.982212  0.504815  1
  Mn  Mn2  1  0.324068  0.351297  0.661840  1
  Mn  Mn3  1  0.324635  0.351297  0.161840  1
  Mn  Mn4  1  0.665107  0.666288  0.833289  1
  Mn  Mn5  1  0.668604  0.666288  0.333289  1
  O  O6  1  0.044405  0.669009  0.084460  1
  O  O7  1  0.286586  0.669009  0.584460  1
  F  F8  1  0.060918  0.277586  0.581305  1
  F  F9  1  0.007222  0.399676  0.251722  1
  F  F10  1  0.270918  0.060462  0.084561  1
  F  F11  1  0.395008  -0.000184  0.751095  1
  F  F12  1  0.605177  -0.000184  0.251095  1
  F  F13  1  0.668620  0.060462  0.584561  1
  F  F14  1  0.335545  0.728229  0.920024  1
  F  F15  1  0.401535  0.603701  0.246474  1
  F  F16  1  0.593102  0.399676  0.751722  1
  F  F17  1  0.661498  0.277586  0.081305  1
  F  F18  1  0.331903  0.930101  0.415580  1
  F  F19  1  0.732400  0.331625  0.414834  1
  F  F20  1  0.935975  0.331625  0.914834  1
  F  F21  1  0.737997  0.930101  0.915580  1
  F  F22  1  0.994764  0.603701  0.746474  1
  F  F23  1  0.936226  0.728229  0.420024  1
