# generated using pymatgen
data_Li2CoSn3(PO4)6
_symmetry_space_group_name_H-M   'P 1'
_cell_length_a   8.79101880
_cell_length_b   8.79101901
_cell_length_c   8.79101949
_cell_angle_alpha   59.06873862
_cell_angle_beta   59.06873537
_cell_angle_gamma   59.06873381
_symmetry_Int_Tables_number   1
_chemical_formula_structural   Li2CoSn3(PO4)6
_chemical_formula_sum   'Li2 Co1 Sn3 P6 O24'
_cell_volume   470.19882158
_cell_formula_units_Z   1
loop_
 _symmetry_equiv_pos_site_id
 _symmetry_equiv_pos_as_xyz
  1  'x, y, z'
loop_
 _atom_site_type_symbol
 _atom_site_label
 _atom_site_symmetry_multiplicity
 _atom_site_fract_x
 _atom_site_fract_y
 _atom_site_fract_z
 _atom_site_occupancy
  Li  Li0  1  0.983160  0.983160  0.983160  1
  Li  Li1  1  0.498567  0.498567  0.498567  1
  Co  Co2  1  0.856818  0.856818  0.856818  1
  Sn  Sn3  1  0.142225  0.142225  0.142225  1
  Sn  Sn4  1  0.357125  0.357125  0.357125  1
  Sn  Sn5  1  0.644094  0.644094  0.644094  1
  P  P6  1  0.041177  0.749956  0.467847  1
  P  P7  1  0.467847  0.041177  0.749956  1
  P  P8  1  0.749956  0.467847  0.041177  1
  P  P9  1  0.241564  0.550844  0.954596  1
  P  P10  1  0.550844  0.954596  0.241564  1
  P  P11  1  0.954596  0.241564  0.550844  1
  O  O12  1  0.114245  0.292451  0.520058  1
  O  O13  1  0.292451  0.520058  0.114245  1
  O  O14  1  0.061959  0.911274  0.274053  1
  O  O15  1  0.520058  0.114245  0.292451  1
  O  O16  1  0.234103  0.584395  0.448990  1
  O  O17  1  0.003433  0.801483  0.627921  1
  O  O18  1  0.274053  0.061959  0.911274  1
  O  O19  1  0.448990  0.234103  0.584395  1
  O  O20  1  0.584395  0.448990  0.234103  1
  O  O21  1  0.200094  0.385544  0.988576  1
  O  O22  1  0.072643  0.737817  0.937330  1
  O  O23  1  0.385544  0.988576  0.200094  1
  O  O24  1  0.627921  0.003433  0.801483  1
  O  O25  1  0.911274  0.274053  0.061959  1
  O  O26  1  0.801483  0.627921  0.003433  1
  O  O27  1  0.407939  0.569984  0.764795  1
  O  O28  1  0.569984  0.764795  0.407939  1
  O  O29  1  0.737817  0.937330  0.072643  1
  O  O30  1  0.988576  0.200094  0.385544  1
  O  O31  1  0.764795  0.407939  0.569984  1
  O  O32  1  0.489327  0.891759  0.691856  1
  O  O33  1  0.937330  0.072643  0.737817  1
  O  O34  1  0.691856  0.489327  0.891759  1
  O  O35  1  0.891759  0.691856  0.489327  1
