# generated using pymatgen
data_Fe4O5F3
_symmetry_space_group_name_H-M   'P 1'
_cell_length_a   4.74591114
_cell_length_b   7.70351924
_cell_length_c   7.69720876
_cell_angle_alpha   76.15084797
_cell_angle_beta   92.36115480
_cell_angle_gamma   87.48149437
_symmetry_Int_Tables_number   1
_chemical_formula_structural   Fe4O5F3
_chemical_formula_sum   'Fe8 O10 F6'
_cell_volume   272.57862466
_cell_formula_units_Z   2
loop_
 _symmetry_equiv_pos_site_id
 _symmetry_equiv_pos_as_xyz
  1  'x, y, z'
loop_
 _atom_site_type_symbol
 _atom_site_label
 _atom_site_symmetry_multiplicity
 _atom_site_fract_x
 _atom_site_fract_y
 _atom_site_fract_z
 _atom_site_occupancy
  Fe  Fe0  1  0.536122  0.387576  0.862629  1
  Fe  Fe1  1  0.445375  0.120499  0.640314  1
  Fe  Fe2  1  0.516309  0.894229  0.343859  1
  Fe  Fe3  1  0.498269  0.616774  0.133096  1
  Fe  Fe4  1  0.024201  0.742164  0.758316  1
  Fe  Fe5  1  0.983709  0.501963  0.511999  1
  Fe  Fe6  1  0.991703  0.235044  0.253982  1
  Fe  Fe7  1  0.996825  0.002443  0.993496  1
  O  O8  1  0.816938  0.540922  0.721418  1
  O  O9  1  0.815836  0.026388  0.211210  1
  O  O10  1  0.694495  0.157720  0.845386  1
  O  O11  1  0.690943  0.649156  0.343074  1
  O  O12  1  0.696103  0.402910  0.102355  1
  O  O13  1  0.318553  0.592186  0.912095  1
  O  O14  1  0.304722  0.357671  0.656547  1
  O  O15  1  0.298935  0.837027  0.143618  1
  O  O16  1  0.308457  0.097824  0.402731  1
  O  O17  1  0.177677  0.967035  0.781678  1
  F  F18  1  0.808196  0.275336  0.476067  1
  F  F19  1  0.796421  0.776387  0.968444  1
  F  F20  1  0.698614  0.903149  0.597051  1
  F  F21  1  0.199200  0.221517  0.029823  1
  F  F22  1  0.196992  0.728623  0.524187  1
  F  F23  1  0.185408  0.465456  0.286626  1
