# generated using pymatgen
data_VCrP2(O4F)2
_symmetry_space_group_name_H-M   'P 1'
_cell_length_a   5.10199298
_cell_length_b   5.29158466
_cell_length_c   7.32338008
_cell_angle_alpha   109.46877334
_cell_angle_beta   106.66453536
_cell_angle_gamma   96.42381996
_symmetry_Int_Tables_number   1
_chemical_formula_structural   VCrP2(O4F)2
_chemical_formula_sum   'V1 Cr1 P2 O8 F2'
_cell_volume   173.80564951
_cell_formula_units_Z   1
loop_
 _symmetry_equiv_pos_site_id
 _symmetry_equiv_pos_as_xyz
  1  'x, y, z'
loop_
 _atom_site_type_symbol
 _atom_site_label
 _atom_site_symmetry_multiplicity
 _atom_site_fract_x
 _atom_site_fract_y
 _atom_site_fract_z
 _atom_site_occupancy
  V  V0  1  0.000000  0.000000  0.000000  1
  Cr  Cr1  1  0.500000  0.500000  0.500000  1
  P  P2  1  0.428070  0.114140  0.754960  1
  P  P3  1  0.571930  0.885860  0.245040  1
  O  O4  1  0.270320  0.136684  0.914138  1
  O  O5  1  0.338751  0.820220  0.597850  1
  O  O6  1  0.360202  0.330620  0.668025  1
  O  O7  1  0.247776  0.815830  0.117790  1
  O  O8  1  0.752224  0.184170  0.882210  1
  O  O9  1  0.639798  0.669380  0.331975  1
  O  O10  1  0.661249  0.179780  0.402150  1
  O  O11  1  0.729680  0.863316  0.085862  1
  F  F12  1  0.142872  0.309847  0.256141  1
  F  F13  1  0.857128  0.690153  0.743859  1
