# generated using pymatgen
data_Li3Ni(BO3)2
_symmetry_space_group_name_H-M   'P 1'
_cell_length_a   4.98443092
_cell_length_b   6.30886559
_cell_length_c   8.05223417
_cell_angle_alpha   74.45757803
_cell_angle_beta   89.40674855
_cell_angle_gamma   89.70945411
_symmetry_Int_Tables_number   1
_chemical_formula_structural   Li3Ni(BO3)2
_chemical_formula_sum   'Li6 Ni2 B4 O12'
_cell_volume   243.93827678
_cell_formula_units_Z   2
loop_
 _symmetry_equiv_pos_site_id
 _symmetry_equiv_pos_as_xyz
  1  'x, y, z'
loop_
 _atom_site_type_symbol
 _atom_site_label
 _atom_site_symmetry_multiplicity
 _atom_site_fract_x
 _atom_site_fract_y
 _atom_site_fract_z
 _atom_site_occupancy
  Li  Li0  1  0.175682  0.892802  0.927006  1
  Li  Li1  1  0.326717  0.024622  0.258135  1
  Li  Li2  1  0.329760  0.739743  0.609973  1
  Li  Li3  1  0.670240  0.260257  0.390027  1
  Li  Li4  1  0.673283  0.975378  0.741865  1
  Li  Li5  1  0.824318  0.107198  0.072994  1
  Ni  Ni6  1  0.152016  0.551800  0.275685  1
  Ni  Ni7  1  0.847984  0.448200  0.724315  1
  B  B8  1  0.160277  0.172489  0.572624  1
  B  B9  1  0.332929  0.324579  0.909843  1
  B  B10  1  0.667071  0.675421  0.090157  1
  B  B11  1  0.839723  0.827511  0.427376  1
  O  O12  1  0.109418  0.768722  0.398398  1
  O  O13  1  0.199085  0.488835  0.785595  1
  O  O14  1  0.205984  0.162785  0.028971  1
  O  O15  1  0.280076  0.281576  0.413528  1
  O  O16  1  0.291238  0.008284  0.685220  1
  O  O17  1  0.384203  0.670465  0.095696  1
  O  O18  1  0.615797  0.329535  0.904304  1
  O  O19  1  0.708762  0.991716  0.314780  1
  O  O20  1  0.719924  0.718424  0.586472  1
  O  O21  1  0.794015  0.837215  0.971029  1
  O  O22  1  0.800915  0.511165  0.214405  1
  O  O23  1  0.890582  0.231278  0.601602  1
