# generated using pymatgen
data_LiSb(PO3)4
_symmetry_space_group_name_H-M   'P 1'
_cell_length_a   7.24605831
_cell_length_b   8.81690214
_cell_length_c   15.26082172
_cell_angle_alpha   90.00000000
_cell_angle_beta   90.55718465
_cell_angle_gamma   90.00000000
_symmetry_Int_Tables_number   1
_chemical_formula_structural   LiSb(PO3)4
_chemical_formula_sum   'Li4 Sb4 P16 O48'
_cell_volume   974.93402630
_cell_formula_units_Z   4
loop_
 _symmetry_equiv_pos_site_id
 _symmetry_equiv_pos_as_xyz
  1  'x, y, z'
loop_
 _atom_site_type_symbol
 _atom_site_label
 _atom_site_symmetry_multiplicity
 _atom_site_fract_x
 _atom_site_fract_y
 _atom_site_fract_z
 _atom_site_occupancy
  Li  Li0  1  0.015245  0.598770  0.363623  1
  Li  Li1  1  0.515245  0.901230  0.863623  1
  Li  Li2  1  0.484755  0.098770  0.136377  1
  Li  Li3  1  0.984755  0.401230  0.636377  1
  Sb  Sb4  1  0.092228  0.663544  0.896635  1
  Sb  Sb5  1  0.407772  0.163544  0.603365  1
  Sb  Sb6  1  0.592228  0.836456  0.396635  1
  Sb  Sb7  1  0.907772  0.336456  0.103365  1
  P  P8  1  0.086968  0.252740  0.430649  1
  P  P9  1  0.131906  0.035700  0.786819  1
  P  P10  1  0.170918  0.259614  0.936522  1
  P  P11  1  0.257108  0.035070  0.296899  1
  P  P12  1  0.329082  0.759614  0.563478  1
  P  P13  1  0.368094  0.535700  0.713181  1
  P  P14  1  0.242892  0.535070  0.203101  1
  P  P15  1  0.586968  0.247260  0.930649  1
  P  P16  1  0.413032  0.752740  0.069351  1
  P  P17  1  0.757108  0.464930  0.796899  1
  P  P18  1  0.631906  0.464300  0.286819  1
  P  P19  1  0.670918  0.240386  0.436522  1
  P  P20  1  0.742892  0.964930  0.703101  1
  P  P21  1  0.829082  0.740386  0.063478  1
  P  P22  1  0.868094  0.964300  0.213181  1
  P  P23  1  0.913032  0.747260  0.569351  1
  O  O24  1  0.071991  0.412837  0.938443  1
  O  O25  1  0.091331  0.172779  0.851594  1
  O  O26  1  0.069580  0.015753  0.239888  1
  O  O27  1  0.124571  0.234828  0.528240  1
  O  O28  1  0.231934  0.096201  0.707073  1
  O  O29  1  0.123822  0.798450  0.590168  1
  O  O30  1  0.123333  0.399536  0.387136  1
  O  O31  1  0.274002  0.407552  0.665200  1
  O  O32  1  0.183955  0.108978  0.386140  1
  O  O33  1  0.117733  0.634367  0.252392  1
  O  O34  1  0.225998  0.907552  0.834800  1
  O  O35  1  0.330469  0.880677  0.327142  1
  O  O36  1  0.349147  0.667832  0.481902  1
  O  O37  1  0.376178  0.298450  0.909832  1
  O  O38  1  0.268066  0.596201  0.792927  1
  O  O39  1  0.375429  0.734828  0.971760  1
  O  O40  1  0.150853  0.167832  0.018098  1
  O  O41  1  0.169531  0.380677  0.172858  1
  O  O42  1  0.408669  0.672779  0.648406  1
  O  O43  1  0.382267  0.134367  0.247608  1
  O  O44  1  0.428009  0.912837  0.561557  1
  O  O45  1  0.316045  0.608978  0.113860  1
  O  O46  1  0.569580  0.484247  0.739888  1
  O  O47  1  0.376667  0.899536  0.112864  1
  O  O48  1  0.623333  0.100464  0.887136  1
  O  O49  1  0.430420  0.515753  0.260112  1
  O  O50  1  0.683955  0.391022  0.886140  1
  O  O51  1  0.571991  0.087163  0.438443  1
  O  O52  1  0.617733  0.865633  0.752392  1
  O  O53  1  0.591331  0.327221  0.351594  1
  O  O54  1  0.830469  0.619323  0.827142  1
  O  O55  1  0.849147  0.832168  0.981902  1
  O  O56  1  0.624571  0.265172  0.028240  1
  O  O57  1  0.731934  0.403799  0.207073  1
  O  O58  1  0.623822  0.701550  0.090168  1
  O  O59  1  0.650853  0.332168  0.518098  1
  O  O60  1  0.669531  0.119323  0.672858  1
  O  O61  1  0.774002  0.092448  0.165200  1
  O  O62  1  0.882267  0.365633  0.747608  1
  O  O63  1  0.816045  0.891022  0.613860  1
  O  O64  1  0.725998  0.592448  0.334800  1
  O  O65  1  0.876667  0.600464  0.612864  1
  O  O66  1  0.876178  0.201550  0.409832  1
  O  O67  1  0.768066  0.903799  0.292927  1
  O  O68  1  0.875429  0.765172  0.471760  1
  O  O69  1  0.930420  0.984247  0.760112  1
  O  O70  1  0.908669  0.827221  0.148406  1
  O  O71  1  0.928009  0.587163  0.061557  1
