# generated using pymatgen
data_LaP3(HO)6
_symmetry_space_group_name_H-M   'P 1'
_cell_length_a   6.93676081
_cell_length_b   7.29946609
_cell_length_c   8.80591794
_cell_angle_alpha   83.50921123
_cell_angle_beta   76.64062554
_cell_angle_gamma   76.55337828
_symmetry_Int_Tables_number   1
_chemical_formula_structural   LaP3(HO)6
_chemical_formula_sum   'La2 P6 H12 O12'
_cell_volume   421.09695305
_cell_formula_units_Z   2
loop_
 _symmetry_equiv_pos_site_id
 _symmetry_equiv_pos_as_xyz
  1  'x, y, z'
loop_
 _atom_site_type_symbol
 _atom_site_label
 _atom_site_symmetry_multiplicity
 _atom_site_fract_x
 _atom_site_fract_y
 _atom_site_fract_z
 _atom_site_occupancy
  La  La0  1  0.734332  0.411868  0.641570  1
  La  La1  1  0.265668  0.588132  0.358430  1
  P  P2  1  0.891921  0.870294  0.679634  1
  P  P3  1  0.108079  0.129706  0.320366  1
  P  P4  1  0.270916  0.231169  0.695105  1
  P  P5  1  0.729084  0.768831  0.304895  1
  P  P6  1  0.358580  0.704737  0.926842  1
  P  P7  1  0.641420  0.295263  0.073158  1
  H  H8  1  0.775424  0.830388  0.831721  1
  H  H9  1  0.224576  0.169612  0.168279  1
  H  H10  1  0.020205  0.038823  0.974563  1
  H  H11  1  0.979795  0.961177  0.025437  1
  H  H12  1  0.323076  0.071717  0.603969  1
  H  H13  1  0.676924  0.928283  0.396031  1
  H  H14  1  0.361476  0.167784  0.825811  1
  H  H15  1  0.638524  0.832216  0.174189  1
  H  H16  1  0.252448  0.891186  0.914613  1
  H  H17  1  0.747552  0.108814  0.085387  1
  H  H18  1  0.212212  0.594443  0.934074  1
  H  H19  1  0.787788  0.405557  0.065926  1
  O  O20  1  0.928024  0.692699  0.586871  1
  O  O21  1  0.071976  0.307301  0.413129  1
  O  O22  1  0.781352  0.060446  0.616432  1
  O  O23  1  0.218648  0.939554  0.383568  1
  O  O24  1  0.381077  0.383949  0.601379  1
  O  O25  1  0.618923  0.616051  0.398621  1
  O  O26  1  0.041777  0.290223  0.752329  1
  O  O27  1  0.958223  0.709777  0.247671  1
  O  O28  1  0.518605  0.678463  0.775605  1
  O  O29  1  0.481395  0.321537  0.224395  1
  O  O30  1  0.422424  0.677502  0.084303  1
  O  O31  1  0.577576  0.322498  0.915697  1
