# generated using pymatgen
data_Li3Fe8(BO3)8
_symmetry_space_group_name_H-M   'P 1'
_cell_length_a   5.30433379
_cell_length_b   9.03189160
_cell_length_c   11.38136108
_cell_angle_alpha   113.18123771
_cell_angle_beta   77.38323125
_cell_angle_gamma   90.61089752
_symmetry_Int_Tables_number   1
_chemical_formula_structural   Li3Fe8(BO3)8
_chemical_formula_sum   'Li3 Fe8 B8 O24'
_cell_volume   487.40752714
_cell_formula_units_Z   1
loop_
 _symmetry_equiv_pos_site_id
 _symmetry_equiv_pos_as_xyz
  1  'x, y, z'
loop_
 _atom_site_type_symbol
 _atom_site_label
 _atom_site_symmetry_multiplicity
 _atom_site_fract_x
 _atom_site_fract_y
 _atom_site_fract_z
 _atom_site_occupancy
  Li  Li0  1  0.165200  0.161742  0.347100  1
  Li  Li1  1  0.602414  0.049690  0.086185  1
  Li  Li2  1  0.673906  0.664518  0.345421  1
  Fe  Fe3  1  0.403121  0.268835  0.866373  1
  Fe  Fe4  1  0.091450  0.225456  0.113612  1
  Fe  Fe5  1  0.852519  0.144780  0.622461  1
  Fe  Fe6  1  0.650373  0.350555  0.376166  1
  Fe  Fe7  1  0.349292  0.651216  0.632992  1
  Fe  Fe8  1  0.149142  0.841975  0.374083  1
  Fe  Fe9  1  0.910779  0.773987  0.867989  1
  Fe  Fe10  1  0.594942  0.724930  0.120008  1
  B  B11  1  0.655059  0.016048  0.368084  1
  B  B12  1  0.885553  0.107991  0.872684  1
  B  B13  1  0.140360  0.511027  0.375437  1
  B  B14  1  0.403218  0.602689  0.872427  1
  B  B15  1  0.860450  0.477284  0.615806  1
  B  B16  1  0.591041  0.393921  0.127809  1
  B  B17  1  0.355095  0.980518  0.619490  1
  B  B18  1  0.104969  0.896625  0.129374  1
  O  O19  1  0.119312  0.148327  0.908442  1
  O  O20  1  0.476566  0.124386  0.660662  1
  O  O21  1  0.220335  0.037046  0.139907  1
  O  O22  1  0.527187  0.144991  0.361741  1
  O  O23  1  0.882223  0.038024  0.413215  1
  O  O24  1  0.781914  0.202621  0.819016  1
  O  O25  1  0.299572  0.461584  0.860690  1
  O  O26  1  0.033964  0.359985  0.339872  1
  O  O27  1  0.691119  0.289639  0.176298  1
  O  O28  1  0.632855  0.478214  0.569737  1
  O  O29  1  0.959512  0.338421  0.612707  1
  O  O30  1  0.402012  0.341059  0.059364  1
  O  O31  1  0.612826  0.651841  0.931035  1
  O  O32  1  0.380636  0.522768  0.411995  1
  O  O33  1  0.305292  0.704173  0.823135  1
  O  O34  1  0.979868  0.619897  0.657562  1
  O  O35  1  0.681945  0.543122  0.154422  1
  O  O36  1  0.221595  0.786141  0.162891  1
  O  O37  1  0.128835  0.982616  0.577462  1
  O  O38  1  0.459527  0.840327  0.613858  1
  O  O39  1  0.014969  0.637748  0.372518  1
  O  O40  1  0.758894  0.988574  0.898176  1
  O  O41  1  0.557190  0.864751  0.328361  1
  O  O42  1  0.868261  0.868576  0.092028  1
