# generated using pymatgen
data_Ba17U11O42
_symmetry_space_group_name_H-M   'P 1'
_cell_length_a   14.23666583
_cell_length_b   8.95910623
_cell_length_c   10.90258176
_cell_angle_alpha   113.45791942
_cell_angle_beta   96.84494612
_cell_angle_gamma   90.68344793
_symmetry_Int_Tables_number   1
_chemical_formula_structural   Ba17U11O42
_chemical_formula_sum   'Ba17 U11 O42'
_cell_volume   1263.88456831
_cell_formula_units_Z   1
loop_
 _symmetry_equiv_pos_site_id
 _symmetry_equiv_pos_as_xyz
  1  'x, y, z'
loop_
 _atom_site_type_symbol
 _atom_site_label
 _atom_site_symmetry_multiplicity
 _atom_site_fract_x
 _atom_site_fract_y
 _atom_site_fract_z
 _atom_site_occupancy
  Ba  Ba0  1  0.785866  0.182769  0.857775  1
  Ba  Ba1  1  0.785480  0.678735  0.860948  1
  Ba  Ba2  1  0.068229  0.108713  0.715443  1
  Ba  Ba3  1  0.357100  0.038194  0.567674  1
  Ba  Ba4  1  0.503448  0.747308  0.996840  1
  Ba  Ba5  1  0.928419  0.388660  0.285082  1
  Ba  Ba6  1  0.357186  0.533234  0.575183  1
  Ba  Ba7  1  0.857143  0.785714  0.571429  1
  Ba  Ba8  1  0.285007  0.929111  0.857239  1
  Ba  Ba9  1  0.646056  0.462716  0.427414  1
  Ba  Ba10  1  0.073284  0.606614  0.711377  1
  Ba  Ba11  1  0.501790  0.250873  0.004397  1
  Ba  Ba12  1  0.641002  0.964815  0.431480  1
  Ba  Ba13  1  0.429279  0.642317  0.285618  1
  Ba  Ba14  1  0.928806  0.892694  0.281909  1
  Ba  Ba15  1  0.212495  0.320556  0.138460  1
  Ba  Ba16  1  0.210838  0.824121  0.146017  1
  U  U17  1  0.857143  0.285714  0.571429  1
  U  U18  1  0.571347  0.356728  0.714157  1
  U  U19  1  0.284488  0.424286  0.851004  1
  U  U20  1  0.714373  0.071262  0.143987  1
  U  U21  1  0.429797  0.147143  0.291853  1
  U  U22  1  0.572918  0.861821  0.721061  1
  U  U23  1  0.142939  0.214701  0.428700  1
  U  U24  1  0.718044  0.567915  0.135947  1
  U  U25  1  0.141368  0.709607  0.421796  1
  U  U26  1  0.996242  0.003514  0.006910  1
  U  U27  1  -0.000087  0.500166  0.998870  1
  O  O28  1  0.603277  0.124669  0.736359  1
  O  O29  1  0.945881  0.353291  0.780942  1
  O  O30  1  0.625851  0.501003  0.936199  1
  O  O31  1  0.968573  0.741680  0.989460  1
  O  O32  1  0.820310  0.056252  0.551372  1
  O  O33  1  0.245242  0.191223  0.824914  1
  O  O34  1  0.993485  0.197932  0.474273  1
  O  O35  1  0.420795  0.338633  0.750301  1
  O  O36  1  0.720801  0.373496  0.668584  1
  O  O37  1  0.147609  0.514690  0.952773  1
  O  O38  1  0.893975  0.515176  0.591485  1
  O  O39  1  0.323403  0.656828  0.873497  1
  O  O40  1  0.666841  0.928556  0.922963  1
  O  O41  1  0.519165  0.206943  0.494816  1
  O  O42  1  0.909676  0.953379  0.825802  1
  O  O43  1  0.768405  0.218138  0.361915  1
  O  O44  1  0.195121  0.364485  0.648041  1
  O  O45  1  0.542357  0.597065  0.704999  1
  O  O46  1  0.566676  0.056738  0.190084  1
  O  O47  1  0.684406  0.771246  0.615426  1
  O  O48  1  0.867011  0.083668  0.108749  1
  O  O49  1  0.112395  0.916149  0.905327  1
  O  O50  1  0.461990  0.947112  0.828653  1
  O  O51  1  0.293490  0.232795  0.392556  1
  O  O52  1  0.469044  0.380206  0.317943  1
  O  O53  1  0.804610  0.618050  0.317055  1
  O  O54  1  0.231007  0.756693  0.602402  1
  O  O55  1  0.088435  0.070425  0.206658  1
  O  O56  1  0.483278  0.814736  0.540455  1
  O  O57  1  0.346388  0.106749  0.108259  1
  O  O58  1  0.689122  0.305638  0.117946  1
  O  O59  1  0.111009  0.446759  0.406498  1
  O  O60  1  0.847274  0.487760  0.034108  1
  O  O61  1  0.252296  0.624316  0.314204  1
  O  O62  1  0.601891  0.655280  0.237530  1
  O  O63  1  0.029879  0.800182  0.527431  1
  O  O64  1  0.745713  0.829748  0.153398  1
  O  O65  1  0.171928  0.974363  0.437859  1
  O  O66  1  0.025164  0.265790  0.024911  1
  O  O67  1  0.367897  0.464679  0.034598  1
  O  O68  1  0.047444  0.642873  0.219894  1
  O  O69  1  0.390882  0.914600  0.269360  1
