# generated using pymatgen
data_BaNb8O14
_symmetry_space_group_name_H-M   'P 1'
_cell_length_a   10.51710237
_cell_length_b   13.13519977
_cell_length_c   9.58439000
_cell_angle_alpha   90.00000000
_cell_angle_beta   90.00000000
_cell_angle_gamma   66.40053951
_symmetry_Int_Tables_number   1
_chemical_formula_structural   BaNb8O14
_chemical_formula_sum   'Ba4 Nb32 O56'
_cell_volume   1213.29515843
_cell_formula_units_Z   4
loop_
 _symmetry_equiv_pos_site_id
 _symmetry_equiv_pos_as_xyz
  1  'x, y, z'
loop_
 _atom_site_type_symbol
 _atom_site_label
 _atom_site_symmetry_multiplicity
 _atom_site_fract_x
 _atom_site_fract_y
 _atom_site_fract_z
 _atom_site_occupancy
  Ba  Ba0  1  0.126399  0.729599  0.505851  1
  Ba  Ba1  1  0.644002  0.729599  0.005851  1
  Ba  Ba2  1  0.373601  0.270401  0.005851  1
  Ba  Ba3  1  0.855998  0.270401  0.505851  1
  Nb  Nb4  1  0.487422  0.867197  0.376139  1
  Nb  Nb5  1  0.145380  0.867197  0.876139  1
  Nb  Nb6  1  0.642676  0.865863  0.625746  1
  Nb  Nb7  1  0.991461  0.865863  0.125746  1
  Nb  Nb8  1  0.781902  0.758569  0.382215  1
  Nb  Nb9  1  0.959530  0.758569  0.882215  1
  Nb  Nb10  1  0.288193  0.752704  0.117827  1
  Nb  Nb11  1  0.459103  0.752704  0.617827  1
  Nb  Nb12  1  0.608928  0.635175  0.377798  1
  Nb  Nb13  1  0.107679  0.633981  0.125044  1
  Nb  Nb14  1  0.758340  0.633981  0.625044  1
  Nb  Nb15  1  0.255897  0.635175  0.877798  1
  Nb  Nb16  1  0.431713  0.507060  0.362968  1
  Nb  Nb17  1  0.561226  0.507060  0.862968  1
  Nb  Nb18  1  0.938774  0.492940  0.362968  1
  Nb  Nb19  1  0.068287  0.492940  0.862968  1
  Nb  Nb20  1  0.392321  0.366019  0.625044  1
  Nb  Nb21  1  0.244103  0.364825  0.377798  1
  Nb  Nb22  1  0.741660  0.366019  0.125044  1
  Nb  Nb23  1  0.891072  0.364825  0.877798  1
  Nb  Nb24  1  0.040897  0.247296  0.117827  1
  Nb  Nb25  1  0.718098  0.241431  0.882215  1
  Nb  Nb26  1  0.211807  0.247296  0.617827  1
  Nb  Nb27  1  0.540470  0.241431  0.382215  1
  Nb  Nb28  1  0.012578  0.132803  0.876139  1
  Nb  Nb29  1  0.508539  0.134137  0.625746  1
  Nb  Nb30  1  0.354620  0.132803  0.376139  1
  Nb  Nb31  1  0.857324  0.134137  0.125746  1
  Nb  Nb32  1  0.159683  0.000000  0.383390  1
  Nb  Nb33  1  0.661055  0.000000  0.116761  1
  Nb  Nb34  1  0.838945  0.000000  0.616761  1
  Nb  Nb35  1  0.340317  0.000000  0.883390  1
  O  O36  1  0.475986  0.874372  0.756190  1
  O  O37  1  0.645744  0.876056  0.241310  1
  O  O38  1  0.149642  0.874372  0.256190  1
  O  O39  1  0.978200  0.876056  0.741310  1
  O  O40  1  0.310461  0.873623  0.493014  1
  O  O41  1  0.809866  0.873707  0.007938  1
  O  O42  1  0.816427  0.873707  0.507938  1
  O  O43  1  0.315915  0.873623  0.993014  1
  O  O44  1  0.278772  0.750183  0.740960  1
  O  O45  1  0.471045  0.750183  0.240960  1
  O  O46  1  0.781838  0.750111  0.758242  1
  O  O47  1  0.968051  0.750111  0.258242  1
  O  O48  1  0.438019  0.626951  0.491255  1
  O  O49  1  0.435029  0.626951  0.991255  1
  O  O50  1  0.927216  0.621776  0.494435  1
  O  O51  1  0.951007  0.621776  0.994435  1
  O  O52  1  0.598224  0.624666  0.752428  1
  O  O53  1  0.094297  0.623129  0.758713  1
  O  O54  1  0.782573  0.623129  0.258713  1
  O  O55  1  0.277110  0.624666  0.252428  1
  O  O56  1  0.763999  0.506062  0.488718  1
  O  O57  1  0.229938  0.506062  0.988718  1
  O  O58  1  0.911770  0.502060  0.754776  1
  O  O59  1  0.413830  0.497940  0.754776  1
  O  O60  1  0.588230  0.497940  0.254776  1
  O  O61  1  0.086170  0.502060  0.254776  1
  O  O62  1  0.736001  0.493937  0.988718  1
  O  O63  1  0.270062  0.493937  0.488718  1
  O  O64  1  0.717427  0.376871  0.758713  1
  O  O65  1  0.901776  0.375334  0.252428  1
  O  O66  1  0.405703  0.376871  0.258713  1
  O  O67  1  0.222890  0.375334  0.752428  1
  O  O68  1  0.548993  0.378223  0.494435  1
  O  O69  1  0.572784  0.378223  0.994435  1
  O  O70  1  0.064971  0.373049  0.491255  1
  O  O71  1  0.061981  0.373049  0.991255  1
  O  O72  1  0.221228  0.249817  0.240960  1
  O  O73  1  0.028955  0.249817  0.740960  1
  O  O74  1  0.531949  0.249889  0.758242  1
  O  O75  1  0.718162  0.249889  0.258242  1
  O  O76  1  0.184085  0.126377  0.493014  1
  O  O77  1  0.683573  0.126293  0.007938  1
  O  O78  1  0.189539  0.126377  0.993014  1
  O  O79  1  0.690134  0.126293  0.507938  1
  O  O80  1  0.350358  0.125628  0.756190  1
  O  O81  1  0.854256  0.123944  0.741310  1
  O  O82  1  0.024014  0.125628  0.256190  1
  O  O83  1  0.521800  0.123944  0.241310  1
  O  O84  1  0.680612  0.000000  0.729566  1
  O  O85  1  0.499507  0.000000  0.500772  1
  O  O86  1  0.000493  0.000000  0.000772  1
  O  O87  1  0.499878  0.000000  0.998747  1
  O  O88  1  0.819388  0.000000  0.229566  1
  O  O89  1  0.318612  0.000000  0.269793  1
  O  O90  1  0.000122  0.000000  0.498747  1
  O  O91  1  0.181388  0.000000  0.769793  1
