# generated using pymatgen
data_Li6V3P8O29
_symmetry_space_group_name_H-M   'P 1'
_cell_length_a   9.80799780
_cell_length_b   9.80242056
_cell_length_c   13.84811331
_cell_angle_alpha   89.78780293
_cell_angle_beta   89.78790060
_cell_angle_gamma   60.08199874
_symmetry_Int_Tables_number   1
_chemical_formula_structural   Li6V3P8O29
_chemical_formula_sum   'Li12 V6 P16 O58'
_cell_volume   1153.95590010
_cell_formula_units_Z   2
loop_
 _symmetry_equiv_pos_site_id
 _symmetry_equiv_pos_as_xyz
  1  'x, y, z'
loop_
 _atom_site_type_symbol
 _atom_site_label
 _atom_site_symmetry_multiplicity
 _atom_site_fract_x
 _atom_site_fract_y
 _atom_site_fract_z
 _atom_site_occupancy
  Li  Li0  1  0.898017  0.763645  0.063651  1
  Li  Li1  1  0.770911  0.910253  0.558977  1
  Li  Li2  1  0.903169  0.323380  0.556800  1
  Li  Li3  1  0.763194  0.337576  0.063822  1
  Li  Li4  1  0.337900  0.898038  0.063127  1
  Li  Li5  1  0.324567  0.771087  0.558697  1
  Li  Li6  1  0.662724  0.101447  0.939234  1
  Li  Li7  1  0.236661  0.661863  0.938818  1
  Li  Li8  1  0.094198  0.677520  0.438838  1
  Li  Li9  1  0.227553  0.096529  0.438760  1
  Li  Li10  1  0.101548  0.235878  0.938686  1
  Li  Li11  1  0.998675  0.000761  0.002624  1
  V  V12  1  0.565236  0.432220  0.253564  1
  V  V13  1  0.434754  0.564496  0.748191  1
  V  V14  1  0.566685  0.001526  0.748863  1
  V  V15  1  0.435786  0.999064  0.251433  1
  V  V16  1  0.998723  0.566140  0.251275  1
  V  V17  1  -0.000290  0.433103  0.748977  1
  P  P18  1  0.911991  0.771748  0.842998  1
  P  P19  1  0.770319  0.912331  0.343361  1
  P  P20  1  0.911202  0.316488  0.342031  1
  P  P21  1  0.665556  0.665991  0.126390  1
  P  P22  1  0.667183  0.667669  0.627391  1
  P  P23  1  0.771331  0.315237  0.843710  1
  P  P24  1  0.685020  0.230101  0.656816  1
  P  P25  1  0.316026  0.911304  0.842635  1
  P  P26  1  0.686519  0.087281  0.157232  1
  P  P27  1  0.318749  0.769455  0.342101  1
  P  P28  1  0.227719  0.684787  0.157642  1
  P  P29  1  0.331245  0.334883  0.372604  1
  P  P30  1  0.332662  0.332753  0.874098  1
  P  P31  1  0.088033  0.681536  0.657791  1
  P  P32  1  0.230707  0.088171  0.657574  1
  P  P33  1  0.089673  0.226655  0.157494  1
  O  O34  1  0.997848  0.757859  0.567286  1
  O  O35  1  0.917537  0.745329  0.340664  1
  O  O36  1  0.777142  0.998543  0.067080  1
  O  O37  1  0.745128  0.918934  0.841209  1
  O  O38  1  0.908133  0.619472  0.830744  1
  O  O39  1  0.810368  0.675584  0.166295  1
  O  O40  1  0.905130  0.476278  0.322219  1
  O  O41  1  0.003702  0.220930  0.067431  1
  O  O42  1  0.918888  0.335058  0.840627  1
  O  O43  1  0.674684  0.813906  0.669141  1
  O  O44  1  0.619458  0.902018  0.322163  1
  O  O45  1  0.813362  0.513415  0.668695  1
  O  O46  1  0.666026  0.663100  0.018227  1
  O  O47  1  0.668122  0.668611  0.519712  1
  O  O48  1  0.672533  0.511816  0.168427  1
  O  O49  1  0.472133  0.908257  0.829968  1
  O  O50  1  0.510876  0.811160  0.166360  1
  O  O51  1  0.746771  0.339089  0.340624  1
  O  O52  1  0.789637  0.204833  0.753651  1
  O  O53  1  0.769200  0.240182  0.570926  1
  O  O54  1  0.776787  0.225903  0.935115  1
  O  O55  1  0.620001  0.472038  0.830584  1
  O  O56  1  0.512621  0.674705  0.667851  1
  O  O57  1  0.668387  0.252122  0.157342  1
  O  O58  1  0.479653  0.622827  0.325189  1
  O  O59  1  0.332778  0.919792  0.342199  1
  O  O60  1  0.793784  0.998373  0.250214  1
  O  O61  1  0.758354  0.996204  0.434478  1
  O  O62  1  0.243890  0.998175  0.567199  1
  O  O63  1  0.663079  0.084033  0.658036  1
  O  O64  1  0.523451  0.381018  0.676226  1
  O  O65  1  0.336433  0.744212  0.840311  1
  O  O66  1  0.478580  0.334517  0.324810  1
  O  O67  1  0.380804  0.529064  0.167860  1
  O  O68  1  0.220896  0.777180  0.067244  1
  O  O69  1  0.239902  0.757510  0.432428  1
  O  O70  1  0.206592  0.793312  0.250173  1
  O  O71  1  0.252763  0.665308  0.657431  1
  O  O72  1  0.488554  0.188578  0.833164  1
  O  O73  1  0.529813  0.091345  0.169575  1
  O  O74  1  0.322674  0.487903  0.833395  1
  O  O75  1  0.332626  0.331181  0.982251  1
  O  O76  1  0.329987  0.336750  0.479981  1
  O  O77  1  0.184234  0.488981  0.332094  1
  O  O78  1  0.380200  0.098885  0.676574  1
  O  O79  1  0.327033  0.186589  0.332243  1
  O  O80  1  0.080783  0.663968  0.159486  1
  O  O81  1  0.999944  0.792754  0.749729  1
  O  O82  1  0.998423  0.776120  0.932815  1
  O  O83  1  0.099144  0.520959  0.677221  1
  O  O84  1  0.188450  0.322030  0.833029  1
  O  O85  1  0.093019  0.379305  0.168898  1
  O  O86  1  0.257059  0.080468  0.159156  1
  O  O87  1  0.225384  0.997060  0.932769  1
  O  O88  1  0.207357  0.999860  0.749792  1
  O  O89  1  0.082707  0.253139  0.657292  1
  O  O90  1  0.004156  0.242700  0.431816  1
  O  O91  1  0.002663  0.205184  0.250273  1
