# generated using pymatgen
data_Nb18P3O50
_symmetry_space_group_name_H-M   'P 1'
_cell_length_a   11.66357954
_cell_length_b   7.72673619
_cell_length_c   11.65994314
_cell_angle_alpha   101.03782223
_cell_angle_beta   91.99850944
_cell_angle_gamma   79.42416169
_symmetry_Int_Tables_number   1
_chemical_formula_structural   Nb18P3O50
_chemical_formula_sum   'Nb18 P3 O50'
_cell_volume   1013.85137880
_cell_formula_units_Z   1
loop_
 _symmetry_equiv_pos_site_id
 _symmetry_equiv_pos_as_xyz
  1  'x, y, z'
loop_
 _atom_site_type_symbol
 _atom_site_label
 _atom_site_symmetry_multiplicity
 _atom_site_fract_x
 _atom_site_fract_y
 _atom_site_fract_z
 _atom_site_occupancy
  Nb  Nb0  1  0.879281  0.611974  0.320322  1
  Nb  Nb1  1  0.880943  0.110378  0.318953  1
  Nb  Nb2  1  0.562534  0.654859  0.192089  1
  Nb  Nb3  1  0.560432  0.160997  0.199048  1
  Nb  Nb4  1  0.800329  0.940885  0.559597  1
  Nb  Nb5  1  0.811990  0.436234  0.561516  1
  Nb  Nb6  1  0.318158  0.953800  0.124271  1
  Nb  Nb7  1  0.320505  0.448918  0.114193  1
  Nb  Nb8  1  0.999074  0.499701  0.001108  1
  Nb  Nb9  1  0.000627  0.998930  0.999331  1
  Nb  Nb10  1  0.680657  0.546286  0.878310  1
  Nb  Nb11  1  0.680302  0.046351  0.880343  1
  Nb  Nb12  1  0.193571  0.561783  0.434895  1
  Nb  Nb13  1  0.198381  0.059003  0.441315  1
  Nb  Nb14  1  0.436796  0.843177  0.808587  1
  Nb  Nb15  1  0.441787  0.338397  0.798359  1
  Nb  Nb16  1  0.116965  0.892224  0.679349  1
  Nb  Nb17  1  0.124328  0.390711  0.682236  1
  P  P18  1  0.462911  0.386982  0.508144  1
  P  P19  1  0.495192  0.864643  0.462646  1
  P  P20  1  0.542385  0.624360  0.536370  1
  O  O21  1  0.934915  0.562880  0.167110  1
  O  O22  1  0.933560  0.058124  0.166338  1
  O  O23  1  0.612979  0.604815  0.034008  1
  O  O24  1  0.612110  0.112590  0.040519  1
  O  O25  1  0.856766  0.878105  0.363558  1
  O  O26  1  0.863038  0.374935  0.363764  1
  O  O27  1  0.707969  0.635042  0.261561  1
  O  O28  1  0.707580  0.140804  0.265139  1
  O  O29  1  0.957674  0.936840  0.614197  1
  O  O30  1  0.968999  0.409826  0.608847  1
  O  O31  1  0.513932  0.927255  0.185551  1
  O  O32  1  0.509279  0.425179  0.190054  1
  O  O33  1  0.831488  0.682479  0.513835  1
  O  O34  1  0.799714  0.182112  0.508800  1
  O  O35  1  0.362457  0.693607  0.131094  1
  O  O36  1  0.363959  0.198282  0.144927  1
  O  O37  1  0.611535  0.932405  0.480433  1
  O  O38  1  0.661805  0.530754  0.480786  1
  O  O39  1  0.166921  0.976842  0.066345  1
  O  O40  1  0.165836  0.473949  0.065000  1
  O  O41  1  0.470857  0.758867  0.340003  1
  O  O42  1  0.486225  0.266852  0.389106  1
  O  O43  1  0.733238  0.984716  0.706096  1
  O  O44  1  0.741649  0.485059  0.706820  1
  O  O45  1  0.999794  0.749301  0.998302  1
  O  O46  1  0.998909  0.250909  0.000750  1
  O  O47  1  0.262503  0.009568  0.291893  1
  O  O48  1  0.263013  0.512144  0.290789  1
  O  O49  1  0.539563  0.711611  0.665545  1
  O  O50  1  0.499342  0.304564  0.617631  1
  O  O51  1  0.832567  0.523569  0.934632  1
  O  O52  1  0.832775  0.025847  0.932577  1
  O  O53  1  0.339969  0.504500  0.526281  1
  O  O54  1  0.383186  0.993191  0.507382  1
  O  O55  1  0.638053  0.804062  0.866766  1
  O  O56  1  0.635262  0.300375  0.854244  1
  O  O57  1  0.186363  0.314944  0.488219  1
  O  O58  1  0.188926  0.819106  0.489575  1
  O  O59  1  0.483653  0.575958  0.828710  1
  O  O60  1  0.490578  0.073368  0.800502  1
  O  O61  1  0.035040  0.578528  0.385943  1
  O  O62  1  0.039551  0.079002  0.387682  1
  O  O63  1  0.293153  0.862803  0.736840  1
  O  O64  1  0.291442  0.368027  0.737636  1
  O  O65  1  0.132494  0.629189  0.637926  1
  O  O66  1  0.146129  0.122974  0.635687  1
  O  O67  1  0.388645  0.901678  0.965134  1
  O  O68  1  0.386116  0.376785  0.958749  1
  O  O69  1  0.066146  0.941915  0.832813  1
  O  O70  1  0.065198  0.438171  0.832924  1
