# generated using pymatgen
data_Li3Co2(CO3)4
_symmetry_space_group_name_H-M   'P 1'
_cell_length_a   6.28624992
_cell_length_b   7.70725437
_cell_length_c   5.23385537
_cell_angle_alpha   89.07123985
_cell_angle_beta   115.63003867
_cell_angle_gamma   89.93349062
_symmetry_Int_Tables_number   1
_chemical_formula_structural   Li3Co2(CO3)4
_chemical_formula_sum   'Li3 Co2 C4 O12'
_cell_volume   228.58876351
_cell_formula_units_Z   1
loop_
 _symmetry_equiv_pos_site_id
 _symmetry_equiv_pos_as_xyz
  1  'x, y, z'
loop_
 _atom_site_type_symbol
 _atom_site_label
 _atom_site_symmetry_multiplicity
 _atom_site_fract_x
 _atom_site_fract_y
 _atom_site_fract_z
 _atom_site_occupancy
  Li  Li0  1  0.297775  0.939925  0.607906  1
  Li  Li1  1  0.698218  0.068062  0.386244  1
  Li  Li2  1  0.807355  0.557213  0.616632  1
  Co  Co3  1  0.001357  0.996063  0.995551  1
  Co  Co4  1  0.486289  0.501320  0.981313  1
  C  C5  1  0.115411  0.256515  0.860243  1
  C  C6  1  0.636354  0.233012  0.857835  1
  C  C7  1  0.377254  0.771602  0.146137  1
  C  C8  1  0.878728  0.739815  0.147322  1
  O  O9  1  0.080426  0.113125  0.710506  1
  O  O10  1  0.147955  0.404171  0.776024  1
  O  O11  1  0.376102  0.763869  0.898197  1
  O  O12  1  0.099571  0.229371  0.096989  1
  O  O13  1  0.323493  0.919104  0.231805  1
  O  O14  1  0.437143  0.638386  0.309986  1
  O  O15  1  0.612540  0.374295  0.714909  1
  O  O16  1  0.680240  0.084030  0.766152  1
  O  O17  1  0.896310  0.754373  0.907580  1
  O  O18  1  0.602645  0.236385  0.084184  1
  O  O19  1  0.828718  0.601928  0.238687  1
  O  O20  1  0.922388  0.887593  0.285781  1
