# generated using pymatgen
data_LiFeSiO4
_symmetry_space_group_name_H-M   'P 1'
_cell_length_a   5.19694150
_cell_length_b   5.19694141
_cell_length_c   8.22963872
_cell_angle_alpha   71.59418076
_cell_angle_beta   89.99999994
_cell_angle_gamma   59.99999286
_symmetry_Int_Tables_number   1
_chemical_formula_structural   LiFeSiO4
_chemical_formula_sum   'Li2 Fe2 Si2 O8'
_cell_volume   179.23997512
_cell_formula_units_Z   2
loop_
 _symmetry_equiv_pos_site_id
 _symmetry_equiv_pos_as_xyz
  1  'x, y, z'
loop_
 _atom_site_type_symbol
 _atom_site_label
 _atom_site_symmetry_multiplicity
 _atom_site_fract_x
 _atom_site_fract_y
 _atom_site_fract_z
 _atom_site_occupancy
  Li  Li0  1  0.846415  0.307170  0.539245  1
  Li  Li1  1  0.578289  0.843424  0.734865  1
  Fe  Fe2  1  0.446314  0.107371  0.338943  1
  Fe  Fe3  1  0.978217  0.043565  0.934651  1
  Si  Si4  1  0.128197  0.743607  0.384590  1
  Si  Si5  1  0.296356  0.407289  0.889067  1
  O  O6  1  0.835714  0.986708  0.452855  1
  O  O7  1  0.984925  0.426263  0.820488  1
  O  O8  1  0.439563  0.724724  0.452855  1
  O  O9  1  0.588812  0.164438  0.820488  1
  O  O10  1  0.246751  0.768324  0.820488  1
  O  O11  1  0.057324  0.885352  0.171973  1
  O  O12  1  0.367016  0.265969  0.101047  1
  O  O13  1  0.177579  0.382859  0.452855  1
