# generated using pymatgen
data_Na4V2C4SO16
_symmetry_space_group_name_H-M   'P 1'
_cell_length_a   9.96776404
_cell_length_b   9.89242832
_cell_length_c   9.89419524
_cell_angle_alpha   60.49851090
_cell_angle_beta   59.74197098
_cell_angle_gamma   59.75951812
_symmetry_Int_Tables_number   1
_chemical_formula_structural   Na4V2C4SO16
_chemical_formula_sum   'Na8 V4 C8 S2 O32'
_cell_volume   689.78945579
_cell_formula_units_Z   2
loop_
 _symmetry_equiv_pos_site_id
 _symmetry_equiv_pos_as_xyz
  1  'x, y, z'
loop_
 _atom_site_type_symbol
 _atom_site_label
 _atom_site_symmetry_multiplicity
 _atom_site_fract_x
 _atom_site_fract_y
 _atom_site_fract_z
 _atom_site_occupancy
  Na  Na0  1  0.670220  0.079780  0.079780  1
  Na  Na1  1  0.911333  0.338667  0.338667  1
  Na  Na2  1  0.338814  0.911186  0.338814  1
  Na  Na3  1  0.336863  0.336863  0.913137  1
  Na  Na4  1  0.913137  0.913137  0.336863  1
  Na  Na5  1  0.911186  0.338814  0.911186  1
  Na  Na6  1  0.079780  0.670220  0.670220  1
  Na  Na7  1  0.338667  0.911333  0.911333  1
  V  V8  1  0.498064  0.502590  0.000036  1
  V  V9  1  0.499310  0.000036  0.502590  1
  V  V10  1  0.000036  0.499310  0.498064  1
  V  V11  1  0.502590  0.498064  0.499310  1
  C  C12  1  0.642637  0.284741  0.281997  1
  C  C13  1  0.290624  0.281997  0.284741  1
  C  C14  1  0.284741  0.642637  0.290624  1
  C  C15  1  0.281997  0.290624  0.642637  1
  C  C16  1  0.712178  0.361262  0.711574  1
  C  C17  1  0.714986  0.711574  0.361262  1
  C  C18  1  0.361262  0.712178  0.714986  1
  C  C19  1  0.711574  0.714986  0.712178  1
  S  S20  1  0.125000  0.125000  0.125000  1
  S  S21  1  0.875000  0.875000  0.875000  1
  O  O22  1  0.309782  0.063032  0.063177  1
  O  O23  1  0.064010  0.063177  0.063032  1
  O  O24  1  0.063032  0.309782  0.064010  1
  O  O25  1  0.063177  0.064010  0.309782  1
  O  O26  1  0.649005  0.138654  0.310623  1
  O  O27  1  0.401716  0.310623  0.138654  1
  O  O28  1  0.644691  0.393447  0.137246  1
  O  O29  1  0.324617  0.137246  0.393447  1
  O  O30  1  0.146429  0.391818  0.318074  1
  O  O31  1  0.643678  0.318074  0.391818  1
  O  O32  1  0.318074  0.643678  0.146429  1
  O  O33  1  0.391818  0.146429  0.643678  1
  O  O34  1  0.851336  0.365023  0.595049  1
  O  O35  1  0.688592  0.595049  0.365023  1
  O  O36  1  0.393447  0.644691  0.324617  1
  O  O37  1  0.137246  0.324617  0.644691  1
  O  O38  1  0.596455  0.362004  0.685890  1
  O  O39  1  0.855650  0.685890  0.362004  1
  O  O40  1  0.310623  0.401716  0.649005  1
  O  O41  1  0.138654  0.649005  0.401716  1
  O  O42  1  0.602268  0.858092  0.353049  1
  O  O43  1  0.686592  0.353049  0.858092  1
  O  O44  1  0.353049  0.686592  0.602268  1
  O  O45  1  0.858092  0.602268  0.686592  1
  O  O46  1  0.362004  0.596455  0.855650  1
  O  O47  1  0.685890  0.855650  0.596455  1
  O  O48  1  0.365023  0.851336  0.688592  1
  O  O49  1  0.595049  0.688592  0.851336  1
  O  O50  1  0.938648  0.932827  0.689678  1
  O  O51  1  0.938847  0.689678  0.932827  1
  O  O52  1  0.689678  0.938847  0.938648  1
  O  O53  1  0.932827  0.938648  0.938847  1
