# generated using pymatgen
data_Li3Fe2OF5
_symmetry_space_group_name_H-M   'P 1'
_cell_length_a   5.26299442
_cell_length_b   5.25228521
_cell_length_c   9.50036620
_cell_angle_alpha   101.02172301
_cell_angle_beta   78.96457725
_cell_angle_gamma   70.84586117
_symmetry_Int_Tables_number   1
_chemical_formula_structural   Li3Fe2OF5
_chemical_formula_sum   'Li6 Fe4 O2 F10'
_cell_volume   234.17632884
_cell_formula_units_Z   2
loop_
 _symmetry_equiv_pos_site_id
 _symmetry_equiv_pos_as_xyz
  1  'x, y, z'
loop_
 _atom_site_type_symbol
 _atom_site_label
 _atom_site_symmetry_multiplicity
 _atom_site_fract_x
 _atom_site_fract_y
 _atom_site_fract_z
 _atom_site_occupancy
  Li  Li0  1  0.454707  0.287564  0.083379  1
  Li  Li1  1  0.881326  0.366207  0.240906  1
  Li  Li2  1  0.205248  0.042624  0.582726  1
  Li  Li3  1  0.780229  0.969968  0.437024  1
  Li  Li4  1  0.133048  0.615518  0.729374  1
  Li  Li5  1  0.536052  0.710166  0.926637  1
  Fe  Fe6  1  0.961528  0.791673  0.082647  1
  Fe  Fe7  1  0.707305  0.543817  0.583291  1
  Fe  Fe8  1  0.385589  0.868001  0.237887  1
  Fe  Fe9  1  0.034993  0.219021  0.928642  1
  O  O10  1  0.210065  0.040849  0.085370  1
  O  O11  1  0.711824  0.537111  0.082984  1
  F  F12  1  0.635405  0.124567  0.252748  1
  F  F13  1  0.941529  0.778444  0.583260  1
  F  F14  1  0.109238  0.631563  0.248575  1
  F  F15  1  0.548924  0.743721  0.422214  1
  F  F16  1  0.908192  0.384738  0.742998  1
  F  F17  1  0.030832  0.177003  0.421453  1
  F  F18  1  0.472612  0.309892  0.583739  1
  F  F19  1  0.295798  0.464816  0.913374  1
  F  F20  1  0.337866  0.870267  0.746817  1
  F  F21  1  0.801025  0.939137  0.917287  1
