# generated using pymatgen
data_K3NiPCO7
_symmetry_space_group_name_H-M   'P 1'
_cell_length_a   9.62948833
_cell_length_b   6.89321099
_cell_length_c   5.60524572
_cell_angle_alpha   90.00000000
_cell_angle_beta   89.91393968
_cell_angle_gamma   90.00000000
_symmetry_Int_Tables_number   1
_chemical_formula_structural   K3NiPCO7
_chemical_formula_sum   'K6 Ni2 P2 C2 O14'
_cell_volume   372.06511175
_cell_formula_units_Z   2
loop_
 _symmetry_equiv_pos_site_id
 _symmetry_equiv_pos_as_xyz
  1  'x, y, z'
loop_
 _atom_site_type_symbol
 _atom_site_label
 _atom_site_symmetry_multiplicity
 _atom_site_fract_x
 _atom_site_fract_y
 _atom_site_fract_z
 _atom_site_occupancy
  K  K0  1  0.071958  0.250000  0.759574  1
  K  K1  1  0.286562  0.014174  0.255645  1
  K  K2  1  0.286562  0.485826  0.255645  1
  K  K3  1  0.713437  0.514174  0.744355  1
  K  K4  1  0.713437  0.985826  0.744355  1
  K  K5  1  0.928042  0.750000  0.240426  1
  Ni  Ni6  1  0.353809  0.750000  0.763561  1
  Ni  Ni7  1  0.646191  0.250000  0.236439  1
  P  P8  1  0.424455  0.250000  0.729841  1
  P  P9  1  0.575545  0.750000  0.270159  1
  C  C10  1  0.090351  0.750000  0.741312  1
  C  C11  1  0.909649  0.250000  0.258688  1
  O  O12  1  0.043472  0.250000  0.261553  1
  O  O13  1  0.159508  0.750000  0.941637  1
  O  O14  1  0.163777  0.750000  0.545034  1
  O  O15  1  0.330015  0.067693  0.761481  1
  O  O16  1  0.330015  0.432307  0.761481  1
  O  O17  1  0.485920  0.250000  0.472152  1
  O  O18  1  0.456528  0.750000  0.084988  1
  O  O19  1  0.543472  0.250000  0.915012  1
  O  O20  1  0.514080  0.750000  0.527848  1
  O  O21  1  0.669985  0.567693  0.238519  1
  O  O22  1  0.669985  0.932307  0.238519  1
  O  O23  1  0.836223  0.250000  0.454966  1
  O  O24  1  0.840492  0.250000  0.058363  1
  O  O25  1  0.956528  0.750000  0.738447  1
