# generated using pymatgen
data_Fe10O11F9
_symmetry_space_group_name_H-M   'P 1'
_cell_length_a   4.75564520
_cell_length_b   4.76464422
_cell_length_c   15.31217878
_cell_angle_alpha   90.00000000
_cell_angle_beta   90.00000000
_cell_angle_gamma   93.81205915
_symmetry_Int_Tables_number   1
_chemical_formula_structural   Fe10O11F9
_chemical_formula_sum   'Fe10 O11 F9'
_cell_volume   346.19036132
_cell_formula_units_Z   1
loop_
 _symmetry_equiv_pos_site_id
 _symmetry_equiv_pos_as_xyz
  1  'x, y, z'
loop_
 _atom_site_type_symbol
 _atom_site_label
 _atom_site_symmetry_multiplicity
 _atom_site_fract_x
 _atom_site_fract_y
 _atom_site_fract_z
 _atom_site_occupancy
  Fe  Fe0  1  0.003547  0.984862  0.993946  1
  Fe  Fe1  1  0.999111  0.997470  0.200000  1
  Fe  Fe2  1  0.003547  0.984862  0.406054  1
  Fe  Fe3  1  0.042161  0.001001  0.601054  1
  Fe  Fe4  1  0.042161  0.001001  0.798946  1
  Fe  Fe5  1  0.503232  0.493113  0.100346  1
  Fe  Fe6  1  0.461406  0.516962  0.492780  1
  Fe  Fe7  1  0.503232  0.493113  0.299654  1
  Fe  Fe8  1  0.458197  0.510471  0.700000  1
  Fe  Fe9  1  0.461406  0.516962  0.907220  1
  O  O10  1  0.190424  0.808306  0.499382  1
  O  O11  1  0.200438  0.812922  0.700000  1
  O  O12  1  0.190424  0.808306  0.900618  1
  O  O13  1  0.297864  0.296581  0.006720  1
  O  O14  1  0.304231  0.295413  0.200000  1
  O  O15  1  0.297864  0.296581  0.393280  1
  O  O16  1  0.313975  0.318187  0.596852  1
  O  O17  1  0.313975  0.318187  0.803148  1
  O  O18  1  0.693465  0.692773  0.004569  1
  O  O19  1  0.699217  0.692352  0.200000  1
  O  O20  1  0.693465  0.692773  0.395431  1
  F  F21  1  0.190048  0.801257  0.101363  1
  F  F22  1  0.190048  0.801257  0.298637  1
  F  F23  1  0.701325  0.707387  0.600269  1
  F  F24  1  0.701325  0.707387  0.799731  1
  F  F25  1  0.809136  0.185167  0.099586  1
  F  F26  1  0.806425  0.191664  0.501073  1
  F  F27  1  0.809136  0.185167  0.300414  1
  F  F28  1  0.806425  0.191664  0.898927  1
  F  F29  1  0.812795  0.196853  0.700000  1
