# generated using pymatgen
data_LiCoBO3
_symmetry_space_group_name_H-M   'P 1'
_cell_length_a   8.17064723
_cell_length_b   8.17138639
_cell_length_c   3.07066795
_cell_angle_alpha   90.00000000
_cell_angle_beta   90.00000000
_cell_angle_gamma   119.97936565
_symmetry_Int_Tables_number   1
_chemical_formula_structural   LiCoBO3
_chemical_formula_sum   'Li3 Co3 B3 O9'
_cell_volume   177.58486844
_cell_formula_units_Z   3
loop_
 _symmetry_equiv_pos_site_id
 _symmetry_equiv_pos_as_xyz
  1  'x, y, z'
loop_
 _atom_site_type_symbol
 _atom_site_label
 _atom_site_symmetry_multiplicity
 _atom_site_fract_x
 _atom_site_fract_y
 _atom_site_fract_z
 _atom_site_occupancy
  Li  Li0  1  0.283232  0.980507  0.500000  1
  Li  Li1  1  0.019435  0.302604  0.500000  1
  Li  Li2  1  0.697384  0.717017  0.500000  1
  Co  Co3  1  0.371476  0.360458  0.000000  1
  Co  Co4  1  0.639410  0.011269  0.000000  1
  Co  Co5  1  0.988939  0.628403  0.000000  1
  B  B6  1  0.333421  0.666846  0.500000  1
  B  B7  1  0.999878  0.999908  0.000000  1
  B  B8  1  0.666798  0.333315  0.500000  1
  O  O9  1  0.106625  0.910497  0.000000  1
  O  O10  1  0.138404  0.585179  0.500000  1
  O  O11  1  0.089398  0.196043  0.000000  1
  O  O12  1  0.446816  0.861514  0.500000  1
  O  O13  1  0.414903  0.553054  0.500000  1
  O  O14  1  0.471078  0.253367  0.500000  1
  O  O15  1  0.803923  0.893475  0.000000  1
  O  O16  1  0.782296  0.528810  0.500000  1
  O  O17  1  0.746584  0.217736  0.500000  1
