# generated using pymatgen
data_Ca5Ta4O15
_symmetry_space_group_name_H-M   'P 1'
_cell_length_a   5.53722248
_cell_length_b   5.53723738
_cell_length_c   23.45547820
_cell_angle_alpha   90.00109667
_cell_angle_beta   90.00143118
_cell_angle_gamma   120.00017777
_symmetry_Int_Tables_number   1
_chemical_formula_structural   Ca5Ta4O15
_chemical_formula_sum   'Ca10 Ta8 O30'
_cell_volume   622.81528164
_cell_formula_units_Z   2
loop_
 _symmetry_equiv_pos_site_id
 _symmetry_equiv_pos_as_xyz
  1  'x, y, z'
loop_
 _atom_site_type_symbol
 _atom_site_label
 _atom_site_symmetry_multiplicity
 _atom_site_fract_x
 _atom_site_fract_y
 _atom_site_fract_z
 _atom_site_occupancy
  Ca  Ca0  1  0.333328  0.666656  0.231004  1
  Ca  Ca1  1  0.333330  0.666642  0.381260  1
  Ca  Ca2  1  0.000009  -0.000005  -0.000000  1
  Ca  Ca3  1  0.000086  0.999995  0.500000  1
  Ca  Ca4  1  0.333319  0.666653  0.731004  1
  Ca  Ca5  1  0.333304  0.666647  0.881259  1
  Ca  Ca6  1  0.666684  0.333362  0.118740  1
  Ca  Ca7  1  0.666669  0.333339  0.268999  1
  Ca  Ca8  1  0.666698  0.333341  0.618741  1
  Ca  Ca9  1  0.666665  0.333328  0.768996  1
  Ta  Ta10  1  0.333331  0.666698  0.052233  1
  Ta  Ta11  1  0.000018  0.000028  0.156511  1
  Ta  Ta12  1  0.999985  0.999977  0.343488  1
  Ta  Ta13  1  0.000035  0.000016  0.656515  1
  Ta  Ta14  1  0.999968  0.999973  0.843486  1
  Ta  Ta15  1  0.333346  0.666667  0.552245  1
  Ta  Ta16  1  0.666654  0.333315  0.447762  1
  Ta  Ta17  1  0.666634  0.333318  0.947755  1
  O  O18  1  0.077987  0.740018  0.806575  1
  O  O19  1  0.099930  0.776564  0.095958  1
  O  O20  1  0.223504  0.900092  0.595956  1
  O  O21  1  0.999969  0.500017  0.000008  1
  O  O22  1  0.999943  0.499991  0.500006  1
  O  O23  1  0.259895  0.921908  0.306567  1
  O  O24  1  0.078018  0.337942  0.306572  1
  O  O25  1  0.099975  0.323432  0.595956  1
  O  O26  1  0.223485  0.323426  0.095958  1
  O  O27  1  0.259873  0.337934  0.806569  1
  O  O28  1  0.338015  0.259942  0.693427  1
  O  O29  1  0.661980  0.921918  0.806573  1
  O  O30  1  0.323383  0.223441  0.404043  1
  O  O31  1  0.323364  0.099913  0.904047  1
  O  O32  1  0.499951  0.500046  0.999995  1
  O  O33  1  0.499967  0.499994  0.499991  1
  O  O34  1  0.676627  0.900105  0.095954  1
  O  O35  1  0.676642  0.776559  0.595947  1
  O  O36  1  0.338001  0.078083  0.193429  1
  O  O37  1  0.661991  0.740026  0.306575  1
  O  O38  1  0.740094  0.662064  0.193430  1
  O  O39  1  0.776491  0.676586  0.904046  1
  O  O40  1  0.499925  0.000023  0.000010  1
  O  O41  1  0.499930  0.000001  0.499994  1
  O  O42  1  0.900071  0.676589  0.404043  1
  O  O43  1  0.921978  0.662038  0.693424  1
  O  O44  1  0.740117  0.078071  0.693428  1
  O  O45  1  0.776522  0.099904  0.404046  1
  O  O46  1  0.900025  0.223448  0.904048  1
  O  O47  1  0.921984  0.259973  0.193427  1
