# generated using pymatgen
data_Li2Si3Ni2O9
_symmetry_space_group_name_H-M   'P 1'
_cell_length_a   9.93840866
_cell_length_b   9.93840941
_cell_length_c   12.24471243
_cell_angle_alpha   90.00000000
_cell_angle_beta   90.00000000
_cell_angle_gamma   119.99999837
_symmetry_Int_Tables_number   1
_chemical_formula_structural   Li2Si3Ni2O9
_chemical_formula_sum   'Li12 Si18 Ni12 O54'
_cell_volume   1047.40094893
_cell_formula_units_Z   6
loop_
 _symmetry_equiv_pos_site_id
 _symmetry_equiv_pos_as_xyz
  1  'x, y, z'
loop_
 _atom_site_type_symbol
 _atom_site_label
 _atom_site_symmetry_multiplicity
 _atom_site_fract_x
 _atom_site_fract_y
 _atom_site_fract_z
 _atom_site_occupancy
  Li  Li0  1  0.143107  0.975404  0.183251  1
  Li  Li1  1  0.303082  0.825281  0.013478  1
  Li  Li2  1  0.174719  0.477801  0.680144  1
  Li  Li3  1  0.024596  0.167703  0.849918  1
  Li  Li4  1  0.522199  0.696918  0.346811  1
  Li  Li5  1  0.166802  0.028131  0.682845  1
  Li  Li6  1  0.345460  0.331767  0.761023  1
  Li  Li7  1  0.832297  0.856893  0.516584  1
  Li  Li8  1  0.861330  0.833198  0.016178  1
  Li  Li9  1  0.668233  0.013693  0.427690  1
  Li  Li10  1  0.986307  0.654540  0.094357  1
  Li  Li11  1  0.971869  0.138670  0.349512  1
  Si  Si12  1  0.138849  0.956768  0.918353  1
  Si  Si13  1  0.292130  0.814247  0.757379  1
  Si  Si14  1  0.174594  0.507202  0.905248  1
  Si  Si15  1  0.332608  0.825407  0.238582  1
  Si  Si16  1  0.043232  0.182081  0.585019  1
  Si  Si17  1  0.185753  0.477883  0.424046  1
  Si  Si18  1  0.171146  0.005050  0.436305  1
  Si  Si19  1  0.492798  0.667392  0.571915  1
  Si  Si20  1  0.522117  0.707870  0.090712  1
  Si  Si21  1  0.618340  0.488566  0.444819  1
  Si  Si22  1  0.469934  0.184122  0.572288  1
  Si  Si23  1  0.817919  0.861151  0.251686  1
  Si  Si24  1  0.833903  0.828854  0.769639  1
  Si  Si25  1  0.714189  0.530066  0.905622  1
  Si  Si26  1  0.511434  0.129774  0.111485  1
  Si  Si27  1  0.870226  0.381660  0.778152  1
  Si  Si28  1  0.815878  0.285811  0.238955  1
  Si  Si29  1  0.994950  0.166097  0.102972  1
  Ni  Ni30  1  0.340932  0.827906  0.498066  1
  Ni  Ni31  1  0.172094  0.513027  0.164733  1
  Ni  Ni32  1  0.486973  0.659068  0.831399  1
  Ni  Ni33  1  0.342220  0.329384  0.237441  1
  Ni  Ni34  1  0.370144  0.332880  0.001517  1
  Ni  Ni35  1  0.489339  0.160835  0.840306  1
  Ni  Ni36  1  0.671496  0.510661  0.173639  1
  Ni  Ni37  1  0.987164  0.657780  0.570775  1
  Ni  Ni38  1  0.962736  0.629856  0.334851  1
  Ni  Ni39  1  0.667120  0.037264  0.668184  1
  Ni  Ni40  1  0.670616  0.012836  0.904108  1
  Ni  Ni41  1  0.839165  0.328504  0.506973  1
  O  O42  1  0.070768  0.815009  0.437338  1
  O  O43  1  0.097466  0.877518  0.037050  1
  O  O44  1  0.192246  0.862402  0.835750  1
  O  O45  1  0.147108  0.698934  0.232382  1
  O  O46  1  0.059159  0.533497  0.440243  1
  O  O47  1  0.017903  0.377059  0.840357  1
  O  O48  1  0.215865  0.768445  0.635779  1
  O  O49  1  0.142248  0.573715  0.015877  1
  O  O50  1  0.359157  0.982097  0.173690  1
  O  O51  1  0.264625  0.651254  0.814437  1
  O  O52  1  0.137598  0.329844  0.502417  1
  O  O53  1  0.431468  0.857752  0.349210  1
  O  O54  1  0.122482  0.219950  0.703717  1
  O  O55  1  0.231555  0.447420  0.302446  1
  O  O56  1  0.474338  0.940841  0.773576  1
  O  O57  1  0.386629  0.735375  0.147770  1
  O  O58  1  0.301066  0.448174  0.899048  1
  O  O59  1  0.184991  0.255759  0.104004  1
  O  O60  1  0.076317  0.049648  0.527978  1
  O  O61  1  0.348746  0.613371  0.481104  1
  O  O62  1  0.202470  0.103764  0.325324  1
  O  O63  1  0.426285  0.568532  0.682543  1
  O  O64  1  0.551826  0.852892  0.565715  1
  O  O65  1  0.552580  0.784135  0.969113  1
  O  O66  1  0.266998  0.138165  0.904748  1
  O  O67  1  0.466503  0.525662  0.106909  1
  O  O68  1  0.670156  0.807754  0.169083  1
  O  O69  1  0.622941  0.640843  0.507023  1
  O  O70  1  0.333950  0.034141  0.499198  1
  O  O71  1  0.744241  0.929232  0.770671  1
  O  O72  1  0.554057  0.483501  0.320397  1
  O  O73  1  0.399241  0.173347  0.693339  1
  O  O74  1  0.780050  0.902534  0.370384  1
  O  O75  1  0.486714  0.336785  0.509856  1
  O  O76  1  0.486123  0.278913  0.128350  1
  O  O77  1  0.545275  0.376723  0.893223  1
  O  O78  1  0.700191  0.666050  0.832532  1
  O  O79  1  0.516499  0.070555  0.987064  1
  O  O80  1  0.774106  0.600759  0.026672  1
  O  O81  1  0.901294  0.797530  0.658657  1
  O  O82  1  0.871167  0.733002  0.238081  1
  O  O83  1  0.623277  0.168553  0.559890  1
  O  O84  1  0.792791  0.513877  0.461683  1
  O  O85  1  0.973331  0.923682  0.861311  1
  O  O86  1  0.663215  0.149928  0.176522  1
  O  O87  1  0.850072  0.513286  0.843189  1
  O  O88  1  0.831447  0.454725  0.226556  1
  O  O89  1  0.721087  0.207209  0.795017  1
  O  O90  1  0.826653  0.225894  0.360006  1
  O  O91  1  0.929445  0.445943  0.653730  1
  O  O92  1  0.861835  0.128833  0.571414  1
  O  O93  1  0.965859  0.299809  0.165865  1
  O  O94  1  0.896236  0.098706  0.991990  1
  O  O95  1  0.950352  0.026669  0.194645  1
