# generated using pymatgen
data_Sr3FeN3
_symmetry_space_group_name_H-M   'P 1'
_cell_length_a   7.66820895
_cell_length_b   7.66820859
_cell_length_c   5.37980247
_cell_angle_alpha   90.00000000
_cell_angle_beta   90.00000000
_cell_angle_gamma   120.00000153
_symmetry_Int_Tables_number   1
_chemical_formula_structural   Sr3FeN3
_chemical_formula_sum   'Sr6 Fe2 N6'
_cell_volume   273.95852010
_cell_formula_units_Z   2
loop_
 _symmetry_equiv_pos_site_id
 _symmetry_equiv_pos_as_xyz
  1  'x, y, z'
loop_
 _atom_site_type_symbol
 _atom_site_label
 _atom_site_symmetry_multiplicity
 _atom_site_fract_x
 _atom_site_fract_y
 _atom_site_fract_z
 _atom_site_occupancy
  Fe  Fe0  1  0.333333  0.666667  0.250000  1
  Fe  Fe1  1  0.666667  0.333333  0.750000  1
  N  N2  1  0.698186  0.108646  0.750000  1
  N  N3  1  0.589541  0.698186  0.250000  1
  N  N4  1  0.108646  0.410459  0.250000  1
  N  N5  1  0.891354  0.589541  0.750000  1
  N  N6  1  0.410459  0.301814  0.750000  1
  N  N7  1  0.301814  0.891354  0.250000  1
  Sr  Sr8  1  0.718877  0.081548  0.250000  1
  Sr  Sr9  1  0.637329  0.718877  0.750000  1
  Sr  Sr10  1  0.081548  0.362671  0.750000  1
  Sr  Sr11  1  0.918452  0.637329  0.250000  1
  Sr  Sr12  1  0.362671  0.281123  0.250000  1
  Sr  Sr13  1  0.281123  0.918452  0.750000  1
