# generated using pymatgen
data_VH10SO10
_symmetry_space_group_name_H-M   'P 1'
_cell_length_a   7.37220870
_cell_length_b   11.07100524
_cell_length_c   7.57038287
_cell_angle_alpha   90.05167007
_cell_angle_beta   90.01697316
_cell_angle_gamma   90.03615963
_symmetry_Int_Tables_number   1
_chemical_formula_structural   VH10SO10
_chemical_formula_sum   'V2 H20 S2 O20'
_cell_volume   617.87729997
_cell_formula_units_Z   2
loop_
 _symmetry_equiv_pos_site_id
 _symmetry_equiv_pos_as_xyz
  1  'x, y, z'
loop_
 _atom_site_type_symbol
 _atom_site_label
 _atom_site_symmetry_multiplicity
 _atom_site_fract_x
 _atom_site_fract_y
 _atom_site_fract_z
 _atom_site_occupancy
  V  V0  1  0.499759  0.773268  0.539788  1
  V  V1  1  0.000086  0.226664  0.039881  1
  H  H2  1  0.643905  0.857718  0.913952  1
  H  H3  1  0.356029  0.857883  0.913977  1
  H  H4  1  0.856185  0.142354  0.413891  1
  H  H5  1  0.143919  0.142261  0.413872  1
  H  H6  1  0.768848  0.015633  0.473230  1
  H  H7  1  0.230880  0.015498  0.473169  1
  H  H8  1  0.731270  0.984389  0.973597  1
  H  H9  1  0.268789  0.984566  0.973553  1
  H  H10  1  0.736652  0.849277  0.199685  1
  H  H11  1  0.263525  0.849369  0.199337  1
  H  H12  1  0.763351  0.150563  0.699725  1
  H  H13  1  0.236567  0.150506  0.699672  1
  H  H14  1  0.550769  0.423262  0.985895  1
  H  H15  1  0.449172  0.423231  0.985851  1
  H  H16  1  0.949332  0.576675  0.485569  1
  H  H17  1  0.050925  0.576511  0.485762  1
  H  H18  1  0.893456  0.692545  0.749438  1
  H  H19  1  0.106442  0.692600  0.749215  1
  H  H20  1  0.606529  0.307698  0.249370  1
  H  H21  1  0.393523  0.307732  0.249231  1
  S  S22  1  0.499800  0.304956  0.595500  1
  S  S23  1  0.000891  0.695451  0.095420  1
  O  O24  1  0.499972  0.632950  0.475113  1
  O  O25  1  0.000112  0.366916  0.975004  1
  O  O26  1  0.499697  0.785643  0.763910  1
  O  O27  1  0.000169  0.214711  0.264049  1
  O  O28  1  0.714682  0.850737  0.462389  1
  O  O29  1  0.284404  0.850279  0.462305  1
  O  O30  1  0.784935  0.149352  0.962512  1
  O  O31  1  0.215197  0.149471  0.962482  1
  O  O32  1  0.770310  0.790935  0.298159  1
  O  O33  1  0.230505  0.790477  0.297402  1
  O  O34  1  0.729608  0.208966  0.798169  1
  O  O35  1  0.270096  0.209104  0.797992  1
  O  O36  1  0.770386  0.103169  0.497653  1
  O  O37  1  0.229689  0.103023  0.497609  1
  O  O38  1  0.729720  0.896852  0.997856  1
  O  O39  1  0.270254  0.897027  0.997817  1
  O  O40  1  0.500309  0.427600  0.660256  1
  O  O41  1  0.999300  0.572057  0.160145  1
  O  O42  1  0.500043  0.340825  0.309901  1
  O  O43  1  0.000011  0.659299  0.809701  1
