# generated using pymatgen
data_Sr2LaCl7
_symmetry_space_group_name_H-M   'P 1'
_cell_length_a   7.19391705
_cell_length_b   13.81154888
_cell_length_c   12.44947293
_cell_angle_alpha   90.00000000
_cell_angle_beta   90.44539603
_cell_angle_gamma   90.00000000
_symmetry_Int_Tables_number   1
_chemical_formula_structural   Sr2LaCl7
_chemical_formula_sum   'Sr8 La4 Cl28'
_cell_volume   1236.93151111
_cell_formula_units_Z   4
loop_
 _symmetry_equiv_pos_site_id
 _symmetry_equiv_pos_as_xyz
  1  'x, y, z'
loop_
 _atom_site_type_symbol
 _atom_site_label
 _atom_site_symmetry_multiplicity
 _atom_site_fract_x
 _atom_site_fract_y
 _atom_site_fract_z
 _atom_site_occupancy
  Sr  Sr0  1  0.198658  0.479970  0.714396  1
  Sr  Sr1  1  0.265425  0.861262  0.643884  1
  Sr  Sr2  1  0.267442  0.211605  0.146684  1
  Sr  Sr3  1  0.265606  0.605427  0.191803  1
  Sr  Sr4  1  0.734394  0.105427  0.808196  1
  Sr  Sr5  1  0.732558  0.711605  0.853316  1
  Sr  Sr6  1  0.734575  0.361262  0.356116  1
  Sr  Sr7  1  0.801342  0.979970  0.285604  1
  La  La8  1  0.185331  0.153020  0.559582  1
  La  La9  1  0.208574  0.930884  0.026607  1
  La  La10  1  0.791426  0.430884  0.973393  1
  La  La11  1  0.814669  0.653020  0.440418  1
  Cl  Cl12  1  0.095828  0.339189  0.879462  1
  Cl  Cl13  1  0.035504  0.593148  0.987687  1
  Cl  Cl14  1  0.997204  0.478046  0.503055  1
  Cl  Cl15  1  0.089216  0.820402  0.854456  1
  Cl  Cl16  1  0.155011  0.726075  0.378714  1
  Cl  Cl17  1  0.095721  0.242218  0.366323  1
  Cl  Cl18  1  0.138819  0.056892  0.760117  1
  Cl  Cl19  1  0.196397  0.014684  0.238600  1
  Cl  Cl20  1  0.406738  0.665768  0.697152  1
  Cl  Cl21  1  0.431710  0.402939  0.184210  1
  Cl  Cl22  1  0.383689  0.318082  0.612798  1
  Cl  Cl23  1  0.572563  0.285031  0.891339  1
  Cl  Cl24  1  0.495518  0.031019  0.573575  1
  Cl  Cl25  1  0.511612  0.571284  0.976829  1
  Cl  Cl26  1  0.488388  0.071284  0.023171  1
  Cl  Cl27  1  0.504482  0.531019  0.426425  1
  Cl  Cl28  1  0.427437  0.785031  0.108661  1
  Cl  Cl29  1  0.616311  0.818082  0.387202  1
  Cl  Cl30  1  0.568290  0.902939  0.815790  1
  Cl  Cl31  1  0.593262  0.165768  0.302848  1
  Cl  Cl32  1  0.803603  0.514684  0.761400  1
  Cl  Cl33  1  0.861181  0.556892  0.239883  1
  Cl  Cl34  1  0.904279  0.742218  0.633677  1
  Cl  Cl35  1  0.844988  0.226075  0.621286  1
  Cl  Cl36  1  0.910784  0.320402  0.145544  1
  Cl  Cl37  1  0.002796  0.978046  0.496945  1
  Cl  Cl38  1  0.964496  0.093148  0.012313  1
  Cl  Cl39  1  0.904172  0.839189  0.120538  1
