# generated using pymatgen
data_H9OsN7Cl2
_symmetry_space_group_name_H-M   'P 1'
_cell_length_a   13.72943394
_cell_length_b   9.66534566
_cell_length_c   6.93211304
_cell_angle_alpha   90.00000000
_cell_angle_beta   90.00000000
_cell_angle_gamma   90.00000000
_symmetry_Int_Tables_number   1
_chemical_formula_structural   H9OsN7Cl2
_chemical_formula_sum   'H36 Os4 N28 Cl8'
_cell_volume   919.88949232
_cell_formula_units_Z   4
loop_
 _symmetry_equiv_pos_site_id
 _symmetry_equiv_pos_as_xyz
  1  'x, y, z'
loop_
 _atom_site_type_symbol
 _atom_site_label
 _atom_site_symmetry_multiplicity
 _atom_site_fract_x
 _atom_site_fract_y
 _atom_site_fract_z
 _atom_site_occupancy
  H  H0  1  0.543428  0.250000  0.942245  1
  H  H1  1  0.043428  0.250000  0.557755  1
  H  H2  1  0.456572  0.750000  0.057755  1
  H  H3  1  0.956572  0.750000  0.442245  1
  H  H4  1  0.463527  0.337346  0.078046  1
  H  H5  1  0.963527  0.162654  0.421954  1
  H  H6  1  0.536473  0.837346  0.921954  1
  H  H7  1  0.036473  0.662654  0.578046  1
  H  H8  1  0.536473  0.662654  0.921954  1
  H  H9  1  0.036473  0.837346  0.578046  1
  H  H10  1  0.463527  0.162654  0.078046  1
  H  H11  1  0.963527  0.337346  0.421954  1
  H  H12  1  0.790352  0.250000  0.166729  1
  H  H13  1  0.290352  0.250000  0.333271  1
  H  H14  1  0.209648  0.750000  0.833271  1
  H  H15  1  0.709648  0.750000  0.666729  1
  H  H16  1  0.717905  0.337761  0.016887  1
  H  H17  1  0.217905  0.162239  0.483113  1
  H  H18  1  0.282095  0.837761  0.983113  1
  H  H19  1  0.782095  0.662239  0.516887  1
  H  H20  1  0.282095  0.662239  0.983113  1
  H  H21  1  0.782095  0.837761  0.516887  1
  H  H22  1  0.717905  0.162239  0.016887  1
  H  H23  1  0.217905  0.337761  0.483113  1
  H  H24  1  0.784242  0.250000  0.488034  1
  H  H25  1  0.284242  0.250000  0.011966  1
  H  H26  1  0.215758  0.750000  0.511966  1
  H  H27  1  0.715758  0.750000  0.988034  1
  H  H28  1  0.705233  0.337303  0.625600  1
  H  H29  1  0.205233  0.162697  0.874400  1
  H  H30  1  0.294767  0.837303  0.374400  1
  H  H31  1  0.794767  0.662697  0.125600  1
  H  H32  1  0.294767  0.662697  0.374400  1
  H  H33  1  0.794767  0.837303  0.125600  1
  H  H34  1  0.705233  0.162697  0.625600  1
  H  H35  1  0.205233  0.337303  0.874400  1
  Os  Os36  1  0.609612  0.250000  0.308386  1
  Os  Os37  1  0.109612  0.250000  0.191614  1
  Os  Os38  1  0.390388  0.750000  0.691614  1
  Os  Os39  1  0.890388  0.750000  0.808386  1
  N  N40  1  0.499073  0.250000  0.505732  1
  N  N41  1  0.999073  0.250000  0.994268  1
  N  N42  1  0.500927  0.750000  0.494268  1
  N  N43  1  0.000927  0.750000  0.005732  1
  N  N44  1  0.439255  0.250000  0.614932  1
  N  N45  1  0.939255  0.250000  0.885068  1
  N  N46  1  0.560745  0.750000  0.385068  1
  N  N47  1  0.060745  0.750000  0.114932  1
  N  N48  1  0.507382  0.250000  0.071219  1
  N  N49  1  0.007382  0.250000  0.428781  1
  N  N50  1  0.492618  0.750000  0.928781  1
  N  N51  1  0.992618  0.750000  0.571219  1
  N  N52  1  0.723294  0.250000  0.102322  1
  N  N53  1  0.223294  0.250000  0.397678  1
  N  N54  1  0.276706  0.750000  0.897678  1
  N  N55  1  0.776706  0.750000  0.602322  1
  N  N56  1  0.714792  0.250000  0.540297  1
  N  N57  1  0.214792  0.250000  0.959703  1
  N  N58  1  0.285208  0.750000  0.459703  1
  N  N59  1  0.785208  0.750000  0.040297  1
  N  N60  1  0.608666  0.063587  0.310902  1
  N  N61  1  0.108666  0.436413  0.189098  1
  N  N62  1  0.391334  0.563587  0.689098  1
  N  N63  1  0.891334  0.936413  0.810902  1
  N  N64  1  0.391334  0.936413  0.689098  1
  N  N65  1  0.891334  0.563587  0.810902  1
  N  N66  1  0.608666  0.436413  0.310902  1
  N  N67  1  0.108666  0.063587  0.189098  1
  Cl  Cl68  1  0.641414  0.000684  0.818759  1
  Cl  Cl69  1  0.141414  0.499316  0.681241  1
  Cl  Cl70  1  0.358586  0.500684  0.181241  1
  Cl  Cl71  1  0.858586  0.999316  0.318759  1
  Cl  Cl72  1  0.358586  0.999316  0.181241  1
  Cl  Cl73  1  0.858586  0.500684  0.318759  1
  Cl  Cl74  1  0.641414  0.499316  0.818759  1
  Cl  Cl75  1  0.141414  0.000684  0.681241  1
