# generated using pymatgen
data_Li2VCrP2(HO5)2
_symmetry_space_group_name_H-M   'P 1'
_cell_length_a   15.15866822
_cell_length_b   7.38838950
_cell_length_c   5.16585700
_cell_angle_alpha   108.93428858
_cell_angle_beta   87.92446027
_cell_angle_gamma   85.88516674
_symmetry_Int_Tables_number   1
_chemical_formula_structural   Li2VCrP2(HO5)2
_chemical_formula_sum   'Li6 V3 Cr3 P6 H6 O30'
_cell_volume   544.76362121
_cell_formula_units_Z   3
loop_
 _symmetry_equiv_pos_site_id
 _symmetry_equiv_pos_as_xyz
  1  'x, y, z'
loop_
 _atom_site_type_symbol
 _atom_site_label
 _atom_site_symmetry_multiplicity
 _atom_site_fract_x
 _atom_site_fract_y
 _atom_site_fract_z
 _atom_site_occupancy
  Li  Li0  1  0.132580  0.689860  0.614553  1
  Li  Li1  1  0.201015  0.975397  0.052073  1
  Li  Li2  1  0.466038  0.357482  0.281931  1
  Li  Li3  1  0.533962  0.642518  0.718069  1
  Li  Li4  1  0.798985  0.024603  0.947927  1
  Li  Li5  1  0.867420  0.310140  0.385447  1
  V  V6  1  0.000000  0.000000  0.000000  1
  V  V7  1  0.333603  0.167094  0.667128  1
  V  V8  1  0.666397  0.832906  0.332872  1
  Cr  Cr9  1  0.000000  0.500000  0.000000  1
  Cr  Cr10  1  0.333171  0.666554  0.666435  1
  Cr  Cr11  1  0.666829  0.333445  0.333565  1
  P  P12  1  0.120186  0.113371  0.558208  1
  P  P13  1  0.213292  0.554975  0.110362  1
  P  P14  1  0.452671  0.778177  0.222760  1
  P  P15  1  0.547329  0.221823  0.777240  1
  P  P16  1  0.786708  0.445025  0.889638  1
  P  P17  1  0.879814  0.886629  0.441792  1
  H  H18  1  0.019615  0.322030  0.340355  1
  H  H19  1  0.353143  0.984279  0.006061  1
  H  H20  1  0.313542  0.349059  0.327076  1
  H  H21  1  0.686458  0.650941  0.672924  1
  H  H22  1  0.646857  0.015721  0.993939  1
  H  H23  1  0.980385  0.677970  0.659645  1
  O  O24  1  0.015674  0.706720  0.823697  1
  O  O25  1  0.084415  0.988541  0.286907  1
  O  O26  1  0.067828  0.313339  0.659367  1
  O  O27  1  0.114538  0.545259  0.190777  1
  O  O28  1  0.113315  0.007155  0.774209  1
  O  O29  1  0.220287  0.659907  0.892777  1
  O  O30  1  0.249577  0.679194  0.381855  1
  O  O31  1  0.316565  0.956433  0.844975  1
  O  O32  1  0.218607  0.125057  0.478053  1
  O  O33  1  0.264899  0.354724  0.008820  1
  O  O34  1  0.401531  0.978867  0.324287  1
  O  O35  1  0.350141  0.377056  0.488115  1
  O  O36  1  0.416712  0.653792  0.951213  1
  O  O37  1  0.446015  0.673394  0.440200  1
  O  O38  1  0.448530  0.209896  0.856082  1
  O  O39  1  0.551470  0.790104  0.143918  1
  O  O40  1  0.553985  0.326606  0.559800  1
  O  O41  1  0.583288  0.346208  0.048787  1
  O  O42  1  0.649859  0.622944  0.511885  1
  O  O43  1  0.598469  0.021133  0.675713  1
  O  O44  1  0.735101  0.645276  0.991180  1
  O  O45  1  0.781393  0.874943  0.521947  1
  O  O46  1  0.683435  0.043567  0.155025  1
  O  O47  1  0.750423  0.320806  0.618145  1
  O  O48  1  0.779713  0.340093  0.107223  1
  O  O49  1  0.886685  0.992845  0.225791  1
  O  O50  1  0.885462  0.454741  0.809223  1
  O  O51  1  0.932172  0.686661  0.340633  1
  O  O52  1  0.915585  0.011459  0.713093  1
  O  O53  1  0.984326  0.293280  0.176303  1
