# generated using pymatgen
data_Li4Ti3MnO8
_symmetry_space_group_name_H-M   'P 1'
_cell_length_a   10.44723516
_cell_length_b   10.44715973
_cell_length_c   14.78389128
_cell_angle_alpha   19.35159775
_cell_angle_beta   19.35230487
_cell_angle_gamma   33.35129936
_symmetry_Int_Tables_number   1
_chemical_formula_structural   Li4Ti3MnO8
_chemical_formula_sum   'Li4 Ti3 Mn1 O8'
_cell_volume   153.46532585
_cell_formula_units_Z   1
loop_
 _symmetry_equiv_pos_site_id
 _symmetry_equiv_pos_as_xyz
  1  'x, y, z'
loop_
 _atom_site_type_symbol
 _atom_site_label
 _atom_site_symmetry_multiplicity
 _atom_site_fract_x
 _atom_site_fract_y
 _atom_site_fract_z
 _atom_site_occupancy
  Li  Li0  1  0.000003  -0.000001  0.499998  1
  Li  Li1  1  0.000003  0.500002  0.499997  1
  Li  Li2  1  0.500003  0.000000  0.499997  1
  Li  Li3  1  0.500003  0.499999  0.499998  1
  Ti  Ti4  1  0.999997  0.499995  0.000006  1
  Ti  Ti5  1  0.500001  0.000001  -0.000000  1
  Ti  Ti6  1  0.499995  0.500002  0.000003  1
  Mn  Mn7  1  0.999978  0.999993  0.000021  1
  O  O8  1  0.999609  0.999557  0.255910  1
  O  O9  1  0.000102  0.474376  0.272887  1
  O  O10  1  0.474372  0.000093  0.272877  1
  O  O11  1  0.000394  0.000446  0.744084  1
  O  O12  1  0.525376  0.525365  0.221936  1
  O  O13  1  0.999903  0.525622  0.727111  1
  O  O14  1  0.525630  0.999912  0.727116  1
  O  O15  1  0.474632  0.474636  0.778058  1
