# generated using pymatgen
data_V3O5F
_symmetry_space_group_name_H-M   'P 1'
_cell_length_a   7.27417947
_cell_length_b   5.50530778
_cell_length_c   5.50530778
_cell_angle_alpha   71.00727529
_cell_angle_beta   71.86061075
_cell_angle_gamma   71.86061075
_symmetry_Int_Tables_number   1
_chemical_formula_structural   V3O5F
_chemical_formula_sum   'V6 O10 F2'
_cell_volume   192.61962395
_cell_formula_units_Z   2
loop_
 _symmetry_equiv_pos_site_id
 _symmetry_equiv_pos_as_xyz
  1  'x, y, z'
loop_
 _atom_site_type_symbol
 _atom_site_label
 _atom_site_symmetry_multiplicity
 _atom_site_fract_x
 _atom_site_fract_y
 _atom_site_fract_z
 _atom_site_occupancy
  V  V0  1  0.833333  0.666667  0.666667  1
  V  V1  1  0.675801  0.338284  0.338284  1
  V  V2  1  0.333333  0.666667  0.666667  1
  V  V3  1  0.148934  0.320884  0.320884  1
  V  V4  1  0.517733  0.012450  0.012450  1
  V  V5  1  0.990866  0.995049  0.995049  1
  O  O6  1  0.661879  0.033023  0.636223  1
  O  O7  1  0.333333  0.359389  0.973944  1
  O  O8  1  0.964402  0.230736  0.230736  1
  O  O9  1  0.637395  0.566021  0.566021  1
  O  O10  1  0.702265  0.102597  0.102597  1
  O  O11  1  0.029272  0.767313  0.767313  1
  O  O12  1  0.004787  0.300310  0.697110  1
  O  O13  1  0.661879  0.636223  0.033023  1
  O  O14  1  0.333333  0.973944  0.359389  1
  O  O15  1  0.004787  0.697110  0.300310  1
  F  F16  1  0.299720  0.904360  0.904360  1
  F  F17  1  0.366947  0.428973  0.428973  1
