# generated using pymatgen
data_Li4Cu7(PO4)6
_symmetry_space_group_name_H-M   'P 1'
_cell_length_a   8.86989565
_cell_length_b   8.86989565
_cell_length_c   6.30400735
_cell_angle_alpha   81.31375951
_cell_angle_beta   98.68624049
_cell_angle_gamma   74.13228729
_symmetry_Int_Tables_number   1
_chemical_formula_structural   Li4Cu7(PO4)6
_chemical_formula_sum   'Li4 Cu7 P6 O24'
_cell_volume   461.85112558
_cell_formula_units_Z   1
loop_
 _symmetry_equiv_pos_site_id
 _symmetry_equiv_pos_as_xyz
  1  'x, y, z'
loop_
 _atom_site_type_symbol
 _atom_site_label
 _atom_site_symmetry_multiplicity
 _atom_site_fract_x
 _atom_site_fract_y
 _atom_site_fract_z
 _atom_site_occupancy
  Li  Li0  1  0.011529  0.988471  0.496781  1
  Li  Li1  1  0.365699  0.634301  0.587907  1
  Li  Li2  1  0.681220  0.537810  0.494891  1
  Li  Li3  1  0.462190  0.318780  0.494891  1
  Cu  Cu4  1  0.644575  0.995329  0.185737  1
  Cu  Cu5  1  0.004671  0.355425  0.185737  1
  Cu  Cu6  1  0.003969  0.996031  0.000734  1
  Cu  Cu7  1  0.347205  0.341785  0.001815  1
  Cu  Cu8  1  0.658215  0.652795  0.001815  1
  Cu  Cu9  1  0.360449  0.998168  0.820442  1
  Cu  Cu10  1  0.001832  0.639551  0.820442  1
  P  P11  1  0.711027  0.905486  0.701280  1
  P  P12  1  0.094514  0.288973  0.701280  1
  P  P13  1  0.325034  0.674966  0.083535  1
  P  P14  1  0.683608  0.316392  0.924486  1
  P  P15  1  0.293619  0.081608  0.303317  1
  P  P16  1  0.918392  0.706381  0.303317  1
  O  O17  1  0.350168  0.960559  0.522632  1
  O  O18  1  0.039441  0.649832  0.522632  1
  O  O19  1  0.027696  0.386270  0.872701  1
  O  O20  1  0.613730  0.972304  0.872701  1
  O  O21  1  0.192214  0.807786  0.133882  1
  O  O22  1  0.425009  0.746755  0.930558  1
  O  O23  1  0.253245  0.574991  0.930558  1
  O  O24  1  0.116957  0.102361  0.762019  1
  O  O25  1  0.897639  0.883043  0.762019  1
  O  O26  1  0.699571  0.732154  0.706322  1
  O  O27  1  0.267846  0.300429  0.706322  1
  O  O28  1  0.432181  0.567819  0.298073  1
  O  O29  1  0.576966  0.423034  0.707075  1
  O  O30  1  0.311440  0.251875  0.302616  1
  O  O31  1  0.748125  0.688560  0.302616  1
  O  O32  1  0.106245  0.111402  0.236567  1
  O  O33  1  0.888598  0.893755  0.236567  1
  O  O34  1  0.816821  0.183179  0.878147  1
  O  O35  1  0.392390  0.014525  0.134481  1
  O  O36  1  0.985475  0.607610  0.134481  1
  O  O37  1  0.754886  0.421571  0.065896  1
  O  O38  1  0.578429  0.245114  0.065896  1
  O  O39  1  0.643320  0.027212  0.483818  1
  O  O40  1  0.972788  0.356680  0.483818  1
