# generated using pymatgen
data_Cs6Ti2O7
_symmetry_space_group_name_H-M   'P 1'
_cell_length_a   7.32792358
_cell_length_b   10.11518637
_cell_length_c   10.18012942
_cell_angle_alpha   90.00000000
_cell_angle_beta   88.37187205
_cell_angle_gamma   90.00000000
_symmetry_Int_Tables_number   1
_chemical_formula_structural   Cs6Ti2O7
_chemical_formula_sum   'Cs12 Ti4 O14'
_cell_volume   754.28028072
_cell_formula_units_Z   2
loop_
 _symmetry_equiv_pos_site_id
 _symmetry_equiv_pos_as_xyz
  1  'x, y, z'
loop_
 _atom_site_type_symbol
 _atom_site_label
 _atom_site_symmetry_multiplicity
 _atom_site_fract_x
 _atom_site_fract_y
 _atom_site_fract_z
 _atom_site_occupancy
  Cs  Cs0  1  0.125906  0.289620  0.280395  1
  Cs  Cs1  1  0.120395  0.150220  0.924619  1
  Cs  Cs2  1  0.245605  0.025210  0.550459  1
  Cs  Cs3  1  0.254395  0.525210  0.949541  1
  Cs  Cs4  1  0.374094  0.789620  0.219605  1
  Cs  Cs5  1  0.379605  0.650220  0.575381  1
  Cs  Cs6  1  0.620395  0.349780  0.424619  1
  Cs  Cs7  1  0.625906  0.210380  0.780395  1
  Cs  Cs8  1  0.745605  0.474790  0.050459  1
  Cs  Cs9  1  0.754395  0.974790  0.449541  1
  Cs  Cs10  1  0.879605  0.849780  0.075381  1
  Cs  Cs11  1  0.874094  0.710380  0.719605  1
  Ti  Ti12  1  0.051059  0.364978  0.627558  1
  Ti  Ti13  1  0.448941  0.864978  0.872442  1
  Ti  Ti14  1  0.551059  0.135022  0.127558  1
  Ti  Ti15  1  0.948941  0.635022  0.372442  1
  O  O16  1  0.000000  0.500000  0.500000  1
  O  O17  1  0.043061  0.589450  0.211105  1
  O  O18  1  0.062577  0.785063  0.426371  1
  O  O19  1  0.202586  0.838112  0.864954  1
  O  O20  1  0.297414  0.338112  0.635046  1
  O  O21  1  0.437423  0.285063  0.073629  1
  O  O22  1  0.456939  0.089450  0.288895  1
  O  O23  1  0.500000  0.000000  0.000000  1
  O  O24  1  0.543061  0.910550  0.711105  1
  O  O25  1  0.562577  0.714937  0.926371  1
  O  O26  1  0.702586  0.661888  0.364954  1
  O  O27  1  0.797414  0.161888  0.135046  1
  O  O28  1  0.937423  0.214937  0.573629  1
  O  O29  1  0.956939  0.410550  0.788895  1
