# generated using pymatgen
data_Li3V2(PO4)3
_symmetry_space_group_name_H-M   'P 1'
_cell_length_a   8.62726914
_cell_length_b   8.63614542
_cell_length_c   8.63614578
_cell_angle_alpha   61.50638758
_cell_angle_beta   61.63816641
_cell_angle_gamma   61.63816336
_symmetry_Int_Tables_number   1
_chemical_formula_structural   Li3V2(PO4)3
_chemical_formula_sum   'Li6 V4 P6 O24'
_cell_volume   471.25627115
_cell_formula_units_Z   2
loop_
 _symmetry_equiv_pos_site_id
 _symmetry_equiv_pos_as_xyz
  1  'x, y, z'
loop_
 _atom_site_type_symbol
 _atom_site_label
 _atom_site_symmetry_multiplicity
 _atom_site_fract_x
 _atom_site_fract_y
 _atom_site_fract_z
 _atom_site_occupancy
  Li  Li0  1  0.028091  0.005391  0.996657  1
  Li  Li1  1  0.750000  0.150887  0.349113  1
  Li  Li2  1  0.471909  0.503343  0.494609  1
  Li  Li3  1  0.250000  0.846033  0.653967  1
  Li  Li4  1  0.654166  0.253658  0.842321  1
  Li  Li5  1  0.845834  0.657679  0.246342  1
  V  V6  1  0.142201  0.145161  0.138124  1
  V  V7  1  0.357799  0.361876  0.354839  1
  V  V8  1  0.645730  0.645393  0.645342  1
  V  V9  1  0.854270  0.854658  0.854607  1
  P  P10  1  0.048753  0.751256  0.450594  1
  P  P11  1  0.451247  0.049406  0.748744  1
  P  P12  1  0.750000  0.453415  0.046585  1
  P  P13  1  0.250000  0.542156  0.957844  1
  P  P14  1  0.543626  0.962548  0.250709  1
  P  P15  1  0.956374  0.249291  0.537452  1
  O  O16  1  0.127120  0.288805  0.498070  1
  O  O17  1  0.306198  0.508263  0.116375  1
  O  O18  1  0.048739  0.920405  0.267719  1
  O  O19  1  0.530251  0.120573  0.298049  1
  O  O20  1  0.237235  0.592597  0.427994  1
  O  O21  1  0.020215  0.804407  0.611141  1
  O  O22  1  0.262765  0.072006  0.907403  1
  O  O23  1  0.451261  0.232281  0.579595  1
  O  O24  1  0.596086  0.432553  0.239486  1
  O  O25  1  0.193802  0.383625  0.991737  1
  O  O26  1  0.090616  0.735501  0.935089  1
  O  O27  1  0.372880  0.001930  0.211195  1
  O  O28  1  0.612439  0.013227  0.807882  1
  O  O29  1  0.903914  0.260514  0.067447  1
  O  O30  1  0.810977  0.611718  0.012802  1
  O  O31  1  0.409384  0.564911  0.764499  1
  O  O32  1  0.567269  0.769583  0.411302  1
  O  O33  1  0.731490  0.933884  0.088757  1
  O  O34  1  0.969749  0.201951  0.379427  1
  O  O35  1  0.768510  0.411243  0.566116  1
  O  O36  1  0.479785  0.888859  0.695593  1
  O  O37  1  0.932731  0.088698  0.730417  1
  O  O38  1  0.689023  0.487198  0.888282  1
  O  O39  1  0.887561  0.692118  0.486773  1
