# generated using pymatgen
data_Li2Cu3(CO3)3
_symmetry_space_group_name_H-M   'P 1'
_cell_length_a   8.22492627
_cell_length_b   8.20562681
_cell_length_c   6.24190875
_cell_angle_alpha   90.00000000
_cell_angle_beta   90.00000000
_cell_angle_gamma   120.20080675
_symmetry_Int_Tables_number   1
_chemical_formula_structural   Li2Cu3(CO3)3
_chemical_formula_sum   'Li4 Cu6 C6 O18'
_cell_volume   364.09061370
_cell_formula_units_Z   2
loop_
 _symmetry_equiv_pos_site_id
 _symmetry_equiv_pos_as_xyz
  1  'x, y, z'
loop_
 _atom_site_type_symbol
 _atom_site_label
 _atom_site_symmetry_multiplicity
 _atom_site_fract_x
 _atom_site_fract_y
 _atom_site_fract_z
 _atom_site_occupancy
  Li  Li0  1  0.324864  0.297715  0.250000  1
  Li  Li1  1  0.972057  0.675251  0.750000  1
  Li  Li2  1  0.702369  0.027276  0.750000  1
  Li  Li3  1  0.704043  0.027811  0.250000  1
  Cu  Cu4  1  0.021951  0.366513  0.001924  1
  Cu  Cu5  1  0.021951  0.366513  0.498076  1
  Cu  Cu6  1  0.335959  0.980643  0.497444  1
  Cu  Cu7  1  0.335959  0.980643  0.002556  1
  Cu  Cu8  1  0.638414  0.650383  0.995606  1
  Cu  Cu9  1  0.638414  0.650383  0.504394  1
  C  C10  1  0.337670  0.665653  0.250000  1
  C  C11  1  0.336066  0.671586  0.750000  1
  C  C12  1  0.998313  0.001394  -0.000018  1
  C  C13  1  0.998313  0.001394  0.500018  1
  C  C14  1  0.666142  0.331135  0.000005  1
  C  C15  1  0.666142  0.331135  0.499995  1
  O  O16  1  0.065905  0.890685  0.518424  1
  O  O17  1  0.065905  0.890685  0.981576  1
  O  O18  1  0.156581  0.569248  0.250000  1
  O  O19  1  0.151361  0.575741  0.750000  1
  O  O20  1  0.426466  0.850420  0.250000  1
  O  O21  1  0.421652  0.857110  0.750000  1
  O  O22  1  0.107157  0.180897  0.477706  1
  O  O23  1  0.107157  0.180897  0.022294  1
  O  O24  1  0.436277  0.580009  0.250000  1
  O  O25  1  0.431575  0.587018  0.750000  1
  O  O26  1  0.814534  0.930275  0.996469  1
  O  O27  1  0.814534  0.930275  0.503531  1
  O  O28  1  0.487234  0.259917  0.019189  1
  O  O29  1  0.487234  0.259917  0.480811  1
  O  O30  1  0.776597  0.510351  0.983707  1
  O  O31  1  0.776597  0.510351  0.516293  1
  O  O32  1  0.737658  0.219480  0.997364  1
  O  O33  1  0.737658  0.219480  0.502636  1
