# generated using pymatgen
data_Li2Mn2(SO4)3
_symmetry_space_group_name_H-M   'P 1'
_cell_length_a   8.81881622
_cell_length_b   8.92161565
_cell_length_c   24.49527323
_cell_angle_alpha   90.00000000
_cell_angle_beta   90.00000000
_cell_angle_gamma   90.00000000
_symmetry_Int_Tables_number   1
_chemical_formula_structural   Li2Mn2(SO4)3
_chemical_formula_sum   'Li16 Mn16 S24 O96'
_cell_volume   1927.24128244
_cell_formula_units_Z   8
loop_
 _symmetry_equiv_pos_site_id
 _symmetry_equiv_pos_as_xyz
  1  'x, y, z'
loop_
 _atom_site_type_symbol
 _atom_site_label
 _atom_site_symmetry_multiplicity
 _atom_site_fract_x
 _atom_site_fract_y
 _atom_site_fract_z
 _atom_site_occupancy
  Li  Li0  1  0.962479  0.377338  0.708907  1
  Li  Li1  1  0.537521  0.622662  0.208907  1
  Li  Li2  1  0.462479  0.377338  0.791093  1
  Li  Li3  1  0.143768  0.568649  0.509345  1
  Li  Li4  1  0.643768  0.568649  0.990655  1
  Li  Li5  1  0.856232  0.431351  0.490655  1
  Li  Li6  1  0.962479  0.122662  0.208907  1
  Li  Li7  1  0.856232  0.068649  0.990655  1
  Li  Li8  1  0.462479  0.122662  0.291093  1
  Li  Li9  1  0.643768  0.931351  0.490655  1
  Li  Li10  1  0.356232  0.068649  0.509345  1
  Li  Li11  1  0.037521  0.877338  0.791093  1
  Li  Li12  1  0.143768  0.931351  0.009345  1
  Li  Li13  1  0.037521  0.622662  0.291093  1
  Li  Li14  1  0.356232  0.431351  0.009345  1
  Li  Li15  1  0.537521  0.877338  0.708907  1
  Mn  Mn16  1  0.499166  0.902870  0.065764  1
  Mn  Mn17  1  0.999166  0.597130  0.934236  1
  Mn  Mn18  1  0.501426  0.705299  0.821984  1
  Mn  Mn19  1  0.998574  0.205299  0.821984  1
  Mn  Mn20  1  0.001426  0.705299  0.678016  1
  Mn  Mn21  1  0.500834  0.097130  0.934236  1
  Mn  Mn22  1  0.500834  0.402870  0.434236  1
  Mn  Mn23  1  0.998574  0.294701  0.321984  1
  Mn  Mn24  1  0.498574  0.294701  0.178016  1
  Mn  Mn25  1  0.501426  0.794701  0.321984  1
  Mn  Mn26  1  0.001426  0.794701  0.178016  1
  Mn  Mn27  1  0.000834  0.097130  0.565764  1
  Mn  Mn28  1  0.499166  0.597130  0.565764  1
  Mn  Mn29  1  0.498574  0.205299  0.678016  1
  Mn  Mn30  1  0.000834  0.402870  0.065764  1
  Mn  Mn31  1  0.999166  0.902870  0.434236  1
  S  S32  1  0.806136  0.907165  0.884061  1
  S  S33  1  0.193864  0.092835  0.115939  1
  S  S34  1  0.144490  0.552870  0.798799  1
  S  S35  1  0.855510  0.052870  0.701201  1
  S  S36  1  0.648963  0.246844  0.551801  1
  S  S37  1  0.355510  0.052870  0.798799  1
  S  S38  1  0.806136  0.592835  0.384061  1
  S  S39  1  0.193864  0.407165  0.615939  1
  S  S40  1  0.355510  0.447130  0.298799  1
  S  S41  1  0.644490  0.552870  0.701201  1
  S  S42  1  0.144490  0.947130  0.298799  1
  S  S43  1  0.648963  0.253156  0.051801  1
  S  S44  1  0.851037  0.753156  0.051801  1
  S  S45  1  0.351037  0.746844  0.948199  1
  S  S46  1  0.306136  0.592835  0.115939  1
  S  S47  1  0.148963  0.253156  0.448199  1
  S  S48  1  0.693864  0.407165  0.884061  1
  S  S49  1  0.693864  0.092835  0.384061  1
  S  S50  1  0.351037  0.753156  0.448199  1
  S  S51  1  0.148963  0.246844  0.948199  1
  S  S52  1  0.855510  0.447130  0.201201  1
  S  S53  1  0.306136  0.907165  0.615939  1
  S  S54  1  0.644490  0.947130  0.201201  1
  S  S55  1  0.851037  0.746844  0.551801  1
  O  O56  1  0.405981  0.810525  0.583114  1
  O  O57  1  0.094318  0.678234  0.762246  1
  O  O58  1  0.905981  0.810525  0.916886  1
  O  O59  1  0.141263  0.231711  0.388691  1
  O  O60  1  0.915564  0.886522  0.524491  1
  O  O61  1  0.641262  0.231711  0.111309  1
  O  O62  1  0.065463  0.111541  0.965463  1
  O  O63  1  0.313413  0.543538  0.797616  1
  O  O64  1  0.358737  0.768289  0.888691  1
  O  O65  1  0.419006  0.591492  0.277994  1
  O  O66  1  0.580994  0.408508  0.722006  1
  O  O67  1  0.810092  0.263407  0.033144  1
  O  O68  1  0.415564  0.613478  0.475509  1
  O  O69  1  0.689908  0.736593  0.533144  1
  O  O70  1  0.594019  0.310525  0.916886  1
  O  O71  1  0.098200  0.011372  0.156925  1
  O  O72  1  0.584436  0.386522  0.524491  1
  O  O73  1  0.919006  0.908508  0.722006  1
  O  O74  1  0.858738  0.768289  0.611309  1
  O  O75  1  0.410539  0.415507  0.354249  1
  O  O76  1  0.565463  0.388459  0.034537  1
  O  O77  1  0.401800  0.511372  0.156925  1
  O  O78  1  0.310092  0.236593  0.966856  1
  O  O79  1  0.080994  0.408508  0.777994  1
  O  O80  1  0.813413  0.956462  0.202384  1
  O  O81  1  0.810588  0.178297  0.354682  1
  O  O82  1  0.310588  0.321703  0.645318  1
  O  O83  1  0.233585  0.482389  0.077772  1
  O  O84  1  0.186587  0.043538  0.797616  1
  O  O85  1  0.858738  0.731711  0.111309  1
  O  O86  1  0.584436  0.113478  0.024491  1
  O  O87  1  0.084436  0.386522  0.975509  1
  O  O88  1  0.905682  0.178234  0.737754  1
  O  O89  1  0.089461  0.584493  0.854249  1
  O  O90  1  0.934537  0.611541  0.534537  1
  O  O91  1  0.733585  0.482389  0.422228  1
  O  O92  1  0.094318  0.821766  0.262246  1
  O  O93  1  0.094019  0.189475  0.083114  1
  O  O94  1  0.901800  0.988628  0.843075  1
  O  O95  1  0.434537  0.888459  0.465463  1
  O  O96  1  0.901800  0.511372  0.343075  1
  O  O97  1  0.094019  0.310525  0.583114  1
  O  O98  1  0.689908  0.763407  0.033144  1
  O  O99  1  0.189412  0.678297  0.145318  1
  O  O100  1  0.401800  0.988628  0.656925  1
  O  O101  1  0.089461  0.915507  0.354249  1
  O  O102  1  0.589461  0.915507  0.145751  1
  O  O103  1  0.810092  0.236593  0.533144  1
  O  O104  1  0.065463  0.388459  0.465463  1
  O  O105  1  0.405682  0.321766  0.262246  1
  O  O106  1  0.141263  0.268289  0.888691  1
  O  O107  1  0.310588  0.178297  0.145318  1
  O  O108  1  0.084436  0.113478  0.475509  1
  O  O109  1  0.919006  0.591492  0.222006  1
  O  O110  1  0.080994  0.091493  0.277994  1
  O  O111  1  0.358737  0.731711  0.388691  1
  O  O112  1  0.733585  0.017611  0.922228  1
  O  O113  1  0.405682  0.178234  0.762246  1
  O  O114  1  0.689412  0.678297  0.354682  1
  O  O115  1  0.689412  0.821703  0.854682  1
  O  O116  1  0.813413  0.543538  0.702384  1
  O  O117  1  0.905981  0.689475  0.416886  1
  O  O118  1  0.310092  0.263407  0.466856  1
  O  O119  1  0.905682  0.321766  0.237754  1
  O  O120  1  0.313413  0.956462  0.297616  1
  O  O121  1  0.915564  0.613478  0.024491  1
  O  O122  1  0.594019  0.189475  0.416886  1
  O  O123  1  0.686587  0.456462  0.202384  1
  O  O124  1  0.910539  0.084493  0.645751  1
  O  O125  1  0.405981  0.689475  0.083114  1
  O  O126  1  0.419006  0.908508  0.777994  1
  O  O127  1  0.266415  0.517611  0.577772  1
  O  O128  1  0.189412  0.821703  0.645318  1
  O  O129  1  0.266415  0.982389  0.077772  1
  O  O130  1  0.098200  0.488628  0.656925  1
  O  O131  1  0.189908  0.763407  0.466856  1
  O  O132  1  0.598200  0.488628  0.843075  1
  O  O133  1  0.641262  0.268289  0.611309  1
  O  O134  1  0.766415  0.982389  0.422228  1
  O  O135  1  0.594318  0.678234  0.737754  1
  O  O136  1  0.189908  0.736593  0.966856  1
  O  O137  1  0.598200  0.011372  0.343075  1
  O  O138  1  0.686587  0.043538  0.702384  1
  O  O139  1  0.766415  0.517611  0.922228  1
  O  O140  1  0.810588  0.321703  0.854682  1
  O  O141  1  0.580994  0.091493  0.222006  1
  O  O142  1  0.415564  0.886522  0.975509  1
  O  O143  1  0.589461  0.584493  0.645751  1
  O  O144  1  0.410539  0.084493  0.854249  1
  O  O145  1  0.565463  0.111541  0.534537  1
  O  O146  1  0.186587  0.456462  0.297616  1
  O  O147  1  0.910539  0.415507  0.145751  1
  O  O148  1  0.934537  0.888459  0.034537  1
  O  O149  1  0.233585  0.017611  0.577772  1
  O  O150  1  0.434537  0.611541  0.965463  1
  O  O151  1  0.594318  0.821766  0.237754  1
