# generated using pymatgen
data_CoH19S3N5O11
_symmetry_space_group_name_H-M   'P 1'
_cell_length_a   13.56098778
_cell_length_b   16.01849661
_cell_length_c   6.72609648
_cell_angle_alpha   90.00000000
_cell_angle_beta   95.74925845
_cell_angle_gamma   90.00000000
_symmetry_Int_Tables_number   1
_chemical_formula_structural   CoH19S3N5O11
_chemical_formula_sum   'Co4 H76 S12 N20 O44'
_cell_volume   1453.73777766
_cell_formula_units_Z   4
loop_
 _symmetry_equiv_pos_site_id
 _symmetry_equiv_pos_as_xyz
  1  'x, y, z'
loop_
 _atom_site_type_symbol
 _atom_site_label
 _atom_site_symmetry_multiplicity
 _atom_site_fract_x
 _atom_site_fract_y
 _atom_site_fract_z
 _atom_site_occupancy
  Co  Co0  1  0.247493  0.390469  0.519321  1
  Co  Co1  1  0.252507  0.890469  0.480679  1
  Co  Co2  1  0.752507  0.609531  0.480679  1
  Co  Co3  1  0.747493  0.109531  0.519321  1
  H  H4  1  0.918298  0.241580  0.151150  1
  H  H5  1  0.581702  0.741580  0.848850  1
  H  H6  1  0.081702  0.758420  0.848850  1
  H  H7  1  0.418298  0.258420  0.151150  1
  H  H8  1  0.833594  0.307109  0.085377  1
  H  H9  1  0.666406  0.807109  0.914623  1
  H  H10  1  0.166406  0.692891  0.914623  1
  H  H11  1  0.333594  0.192891  0.085377  1
  H  H12  1  0.258722  0.308974  0.176032  1
  H  H13  1  0.241278  0.808974  0.823968  1
  H  H14  1  0.741278  0.691026  0.823968  1
  H  H15  1  0.758722  0.191026  0.176032  1
  H  H16  1  0.147376  0.352683  0.164619  1
  H  H17  1  0.352624  0.852683  0.835381  1
  H  H18  1  0.852624  0.647317  0.835381  1
  H  H19  1  0.647376  0.147317  0.164619  1
  H  H20  1  0.092313  0.301236  0.485484  1
  H  H21  1  0.407687  0.801236  0.514516  1
  H  H22  1  0.907687  0.698764  0.514516  1
  H  H23  1  0.592313  0.198764  0.485484  1
  H  H24  1  0.103939  0.339208  0.713967  1
  H  H25  1  0.396061  0.839208  0.286033  1
  H  H26  1  0.896061  0.660792  0.286033  1
  H  H27  1  0.603939  0.160792  0.713967  1
  H  H28  1  0.059893  0.399335  0.522989  1
  H  H29  1  0.440107  0.899335  0.477011  1
  H  H30  1  0.940107  0.600665  0.477011  1
  H  H31  1  0.559893  0.100665  0.522989  1
  H  H32  1  0.242216  0.552237  0.525820  1
  H  H33  1  0.257784  0.052236  0.474180  1
  H  H34  1  0.757784  0.447763  0.474180  1
  H  H35  1  0.742216  0.947763  0.525820  1
  H  H36  1  0.128160  0.516335  0.475864  1
  H  H37  1  0.371840  0.016335  0.524136  1
  H  H38  1  0.871840  0.483665  0.524136  1
  H  H39  1  0.628160  0.983665  0.475864  1
  H  H40  1  0.203740  0.519850  0.296346  1
  H  H41  1  0.296260  0.019850  0.703654  1
  H  H42  1  0.796260  0.480150  0.703654  1
  H  H43  1  0.703740  0.980150  0.296346  1
  H  H44  1  0.286141  0.232613  0.481470  1
  H  H45  1  0.213859  0.732613  0.518530  1
  H  H46  1  0.713859  0.767387  0.518530  1
  H  H47  1  0.786141  0.267387  0.481470  1
  H  H48  1  0.264525  0.250978  0.715195  1
  H  H49  1  0.235475  0.750978  0.284805  1
  H  H50  1  0.735475  0.749022  0.284805  1
  H  H51  1  0.764525  0.249022  0.715195  1
  H  H52  1  0.374859  0.275162  0.643933  1
  H  H53  1  0.125141  0.775162  0.356067  1
  H  H54  1  0.625141  0.724838  0.356067  1
  H  H55  1  0.874859  0.224838  0.643933  1
  H  H56  1  0.387571  0.487671  0.443501  1
  H  H57  1  0.112429  0.987671  0.556499  1
  H  H58  1  0.612429  0.512329  0.556499  1
  H  H59  1  0.887571  0.012329  0.443501  1
  H  H60  1  0.397890  0.400879  0.322925  1
  H  H61  1  0.102110  0.900879  0.677075  1
  H  H62  1  0.602110  0.599121  0.677075  1
  H  H63  1  0.897890  0.099121  0.322925  1
  H  H64  1  0.435008  0.404927  0.564666  1
  H  H65  1  0.064992  0.904927  0.435334  1
  H  H66  1  0.564992  0.595073  0.435334  1
  H  H67  1  0.935008  0.095073  0.564666  1
  H  H68  1  0.280571  0.492445  0.830225  1
  H  H69  1  0.219429  0.992445  0.169775  1
  H  H70  1  0.719429  0.507555  0.169775  1
  H  H71  1  0.780571  0.007555  0.830225  1
  H  H72  1  0.232757  0.407271  0.912488  1
  H  H73  1  0.267243  0.907271  0.087512  1
  H  H74  1  0.767243  0.592729  0.087512  1
  H  H75  1  0.732757  0.092729  0.912488  1
  H  H76  1  0.350309  0.409213  0.869507  1
  H  H77  1  0.149691  0.909213  0.130493  1
  H  H78  1  0.649691  0.590787  0.130493  1
  H  H79  1  0.850309  0.090787  0.869507  1
  S  S80  1  0.096403  0.149285  0.887934  1
  S  S81  1  0.403597  0.649285  0.112066  1
  S  S82  1  0.903597  0.850715  0.112066  1
  S  S83  1  0.596403  0.350715  0.887934  1
  S  S84  1  0.100122  0.136879  0.218568  1
  S  S85  1  0.399878  0.636879  0.781432  1
  S  S86  1  0.899878  0.863121  0.781432  1
  S  S87  1  0.600122  0.363121  0.218568  1
  S  S88  1  0.970089  0.446807  0.080135  1
  S  S89  1  0.529911  0.946807  0.919865  1
  S  S90  1  0.029911  0.553193  0.919865  1
  S  S91  1  0.470089  0.053193  0.080135  1
  N  N92  1  0.111248  0.354192  0.567938  1
  N  N93  1  0.388752  0.854192  0.432062  1
  N  N94  1  0.888752  0.645808  0.432062  1
  N  N95  1  0.611248  0.145808  0.567938  1
  N  N96  1  0.280703  0.428915  0.816518  1
  N  N97  1  0.219297  0.928915  0.183482  1
  N  N98  1  0.719297  0.571085  0.183482  1
  N  N99  1  0.780703  0.071085  0.816518  1
  N  N100  1  0.380616  0.424252  0.456740  1
  N  N101  1  0.119384  0.924252  0.543260  1
  N  N102  1  0.619384  0.575748  0.543260  1
  N  N103  1  0.880616  0.075748  0.456740  1
  N  N104  1  0.200095  0.507810  0.445456  1
  N  N105  1  0.299905  0.007810  0.554544  1
  N  N106  1  0.799905  0.492190  0.554544  1
  N  N107  1  0.700095  0.992190  0.445456  1
  N  N108  1  0.300250  0.273731  0.598202  1
  N  N109  1  0.199750  0.773731  0.401798  1
  N  N110  1  0.699750  0.726269  0.401798  1
  N  N111  1  0.800250  0.226269  0.598202  1
  O  O112  1  0.217487  0.356087  0.223820  1
  O  O113  1  0.282513  0.856087  0.776180  1
  O  O114  1  0.782513  0.643913  0.776180  1
  O  O115  1  0.717487  0.143913  0.223820  1
  O  O116  1  0.154594  0.225922  0.864902  1
  O  O117  1  0.345406  0.725922  0.135098  1
  O  O118  1  0.845406  0.774078  0.135098  1
  O  O119  1  0.654594  0.274078  0.864902  1
  O  O120  1  0.990735  0.158279  0.815821  1
  O  O121  1  0.509265  0.658279  0.184179  1
  O  O122  1  0.009265  0.841721  0.184179  1
  O  O123  1  0.490735  0.341721  0.815821  1
  O  O124  1  0.142221  0.072973  0.821163  1
  O  O125  1  0.357779  0.572973  0.178837  1
  O  O126  1  0.857779  0.927027  0.178837  1
  O  O127  1  0.642221  0.427027  0.821163  1
  O  O128  1  0.206188  0.141814  0.294759  1
  O  O129  1  0.293812  0.641814  0.705241  1
  O  O130  1  0.793812  0.858186  0.705241  1
  O  O131  1  0.706188  0.358186  0.294759  1
  O  O132  1  0.056638  0.054362  0.249976  1
  O  O133  1  0.443362  0.554362  0.750024  1
  O  O134  1  0.943362  0.945638  0.750024  1
  O  O135  1  0.556638  0.445638  0.249976  1
  O  O136  1  0.041222  0.207202  0.285996  1
  O  O137  1  0.458778  0.707202  0.714004  1
  O  O138  1  0.958778  0.792798  0.714004  1
  O  O139  1  0.541222  0.292798  0.285996  1
  O  O140  1  0.867502  0.436715  0.993017  1
  O  O141  1  0.632498  0.936715  0.006983  1
  O  O142  1  0.132498  0.563285  0.006983  1
  O  O143  1  0.367502  0.063285  0.993017  1
  O  O144  1  0.034780  0.375671  0.039294  1
  O  O145  1  0.465220  0.875671  0.960706  1
  O  O146  1  0.965220  0.624329  0.960706  1
  O  O147  1  0.534780  0.124329  0.039294  1
  O  O148  1  0.979882  0.472428  0.291993  1
  O  O149  1  0.520118  0.972428  0.708007  1
  O  O150  1  0.020118  0.527572  0.708007  1
  O  O151  1  0.479882  0.027572  0.291993  1
  O  O152  1  0.847319  0.247391  0.107352  1
  O  O153  1  0.652681  0.747391  0.892648  1
  O  O154  1  0.152681  0.752609  0.892648  1
  O  O155  1  0.347319  0.252609  0.107352  1
