# generated using pymatgen
data_Li4V2Si(PO6)2
_symmetry_space_group_name_H-M   'P 1'
_cell_length_a   9.00667018
_cell_length_b   8.48671431
_cell_length_c   12.38991512
_cell_angle_alpha   94.92204564
_cell_angle_beta   90.03854067
_cell_angle_gamma   89.99436712
_symmetry_Int_Tables_number   1
_chemical_formula_structural   Li4V2Si(PO6)2
_chemical_formula_sum   'Li16 V8 Si4 P8 O48'
_cell_volume   943.55580537
_cell_formula_units_Z   4
loop_
 _symmetry_equiv_pos_site_id
 _symmetry_equiv_pos_as_xyz
  1  'x, y, z'
loop_
 _atom_site_type_symbol
 _atom_site_label
 _atom_site_symmetry_multiplicity
 _atom_site_fract_x
 _atom_site_fract_y
 _atom_site_fract_z
 _atom_site_occupancy
  Li  Li0  1  0.964830  0.443943  0.299805  1
  Li  Li1  1  0.740478  0.757205  0.249840  1
  Li  Li2  1  0.654036  0.761922  0.491316  1
  Li  Li3  1  0.759933  0.757600  0.750188  1
  Li  Li4  1  0.451061  0.543925  0.207012  1
  Li  Li5  1  0.965032  0.043661  0.702162  1
  Li  Li6  1  0.845278  0.760361  0.992863  1
  Li  Li7  1  0.535606  0.043673  0.202596  1
  Li  Li8  1  0.442202  0.979508  0.803525  1
  Li  Li9  1  0.166009  0.229818  0.997011  1
  Li  Li10  1  0.534822  0.446488  0.800398  1
  Li  Li11  1  0.058271  0.978515  0.302441  1
  Li  Li12  1  0.257199  0.241619  0.250983  1
  Li  Li13  1  0.334156  0.229071  0.496767  1
  Li  Li14  1  0.242587  0.241607  0.751078  1
  Li  Li15  1  0.048910  0.542908  0.706847  1
  V  V16  1  0.747995  0.465121  0.108778  1
  V  V17  1  0.249449  0.967968  0.107716  1
  V  V18  1  0.752059  0.464680  0.609214  1
  V  V19  1  0.751666  0.037151  0.388683  1
  V  V20  1  0.250416  0.967904  0.607658  1
  V  V21  1  0.747666  0.035918  0.889185  1
  V  V22  1  0.253417  0.532509  0.393051  1
  V  V23  1  0.246601  0.532626  0.892287  1
  Si  Si24  1  0.454068  0.252016  0.000983  1
  Si  Si25  1  0.397785  0.895894  0.351772  1
  Si  Si26  1  0.102371  0.896779  0.851984  1
  Si  Si27  1  0.045988  0.252188  0.500759  1
  P  P28  1  0.949932  0.750765  0.500911  1
  P  P29  1  0.896618  0.099562  0.147607  1
  P  P30  1  0.549808  0.750699  0.000363  1
  P  P31  1  0.603081  0.399416  0.351212  1
  P  P32  1  0.897065  0.399655  0.851456  1
  P  P33  1  0.603148  0.099965  0.647501  1
  P  P34  1  0.100717  0.600158  0.148411  1
  P  P35  1  0.399382  0.600482  0.648146  1
  O  O36  1  0.928740  0.595585  0.168365  1
  O  O37  1  0.847523  0.273795  0.165147  1
  O  O38  1  0.845708  0.819001  0.414569  1
  O  O39  1  0.660084  0.686238  0.085126  1
  O  O40  1  0.849538  0.021938  0.036412  1
  O  O41  1  0.946136  0.124428  0.426306  1
  O  O42  1  0.839814  0.686078  0.585607  1
  O  O43  1  0.457087  0.876376  0.066223  1
  O  O44  1  0.946001  0.383714  0.571718  1
  O  O45  1  0.920842  0.901939  0.830777  1
  O  O46  1  0.830292  0.991714  0.231569  1
  O  O47  1  0.670970  0.507841  0.267273  1
  O  O48  1  0.579699  0.900265  0.330948  1
  O  O49  1  0.554424  0.383706  0.071462  1
  O  O50  1  0.650047  0.476914  0.462186  1
  O  O51  1  0.829907  0.509008  0.767657  1
  O  O52  1  0.323217  0.006015  0.262326  1
  O  O53  1  0.650573  0.224931  0.333846  1
  O  O54  1  0.356320  0.708744  0.336857  1
  O  O55  1  0.848255  0.226341  0.833651  1
  O  O56  1  0.344598  0.180481  0.091827  1
  O  O57  1  0.850242  0.477508  0.962581  1
  O  O58  1  0.342834  0.980857  0.467556  1
  O  O59  1  0.431857  0.395650  0.329833  1
  O  O60  1  0.571119  0.594723  0.668319  1
  O  O61  1  0.647542  0.022736  0.535921  1
  O  O62  1  0.148509  0.520130  0.037894  1
  O  O63  1  0.654228  0.817121  0.913491  1
  O  O64  1  0.652520  0.274440  0.664485  1
  O  O65  1  0.144184  0.775523  0.161449  1
  O  O66  1  0.356604  0.775703  0.661618  1
  O  O67  1  0.168683  0.496149  0.234856  1
  O  O68  1  0.671080  0.992640  0.731395  1
  O  O69  1  0.351386  0.521060  0.537460  1
  O  O70  1  0.454062  0.624540  0.937120  1
  O  O71  1  0.432102  0.103716  0.669372  1
  O  O72  1  0.330789  0.496388  0.734239  1
  O  O73  1  0.177522  0.005769  0.762222  1
  O  O74  1  0.067880  0.103268  0.168688  1
  O  O75  1  0.045067  0.624444  0.437578  1
  O  O76  1  0.553638  0.123057  0.927311  1
  O  O77  1  0.159345  0.321584  0.410161  1
  O  O78  1  0.043521  0.876122  0.566745  1
  O  O79  1  0.157288  0.981850  0.967686  1
  O  O80  1  0.341795  0.321727  0.909910  1
  O  O81  1  0.155175  0.180452  0.591758  1
  O  O82  1  0.142983  0.709263  0.837709  1
  O  O83  1  0.068631  0.395248  0.830285  1
