# generated using pymatgen
data_Li4Mn3Fe(BO3)4
_symmetry_space_group_name_H-M   'P 1'
_cell_length_a   6.01659707
_cell_length_b   5.24846117
_cell_length_c   16.29969067
_cell_angle_alpha   90.67063430
_cell_angle_beta   97.96351767
_cell_angle_gamma   89.52604133
_symmetry_Int_Tables_number   1
_chemical_formula_structural   Li4Mn3Fe(BO3)4
_chemical_formula_sum   'Li8 Mn6 Fe2 B8 O24'
_cell_volume   509.69959024
_cell_formula_units_Z   2
loop_
 _symmetry_equiv_pos_site_id
 _symmetry_equiv_pos_as_xyz
  1  'x, y, z'
loop_
 _atom_site_type_symbol
 _atom_site_label
 _atom_site_symmetry_multiplicity
 _atom_site_fract_x
 _atom_site_fract_y
 _atom_site_fract_z
 _atom_site_occupancy
  Li  Li0  1  0.067862  0.848627  0.611602  1
  Li  Li1  1  0.432138  0.151372  0.888398  1
  Li  Li2  1  0.185450  0.652222  0.139803  1
  Li  Li3  1  0.314550  0.347778  0.360197  1
  Li  Li4  1  0.686306  0.648688  0.640558  1
  Li  Li5  1  0.813694  0.351312  0.859442  1
  Li  Li6  1  0.565119  0.847679  0.108883  1
  Li  Li7  1  0.934881  0.152321  0.391117  1
  Mn  Mn8  1  0.270138  0.670491  0.958665  1
  Mn  Mn9  1  0.026024  0.169431  0.210489  1
  Mn  Mn10  1  0.229862  0.329509  0.541335  1
  Mn  Mn11  1  0.473976  0.830569  0.289511  1
  Mn  Mn12  1  0.777180  0.668135  0.460899  1
  Mn  Mn13  1  0.722820  0.331865  0.039101  1
  Fe  Fe14  1  0.527477  0.169466  0.712680  1
  Fe  Fe15  1  0.972523  0.830534  0.787320  1
  B  B16  1  0.037385  0.327440  0.705067  1
  B  B17  1  0.285333  0.829563  0.452856  1
  B  B18  1  0.462615  0.672560  0.794933  1
  B  B19  1  0.214667  0.170437  0.047144  1
  B  B20  1  0.782425  0.832997  0.950415  1
  B  B21  1  0.534768  0.330195  0.201883  1
  B  B22  1  0.717575  0.167003  0.549585  1
  B  B23  1  0.965232  0.669805  0.298117  1
  O  O24  1  0.014628  0.588014  0.692793  1
  O  O25  1  0.171417  0.183608  0.657771  1
  O  O26  1  0.169733  0.711982  0.510533  1
  O  O27  1  0.330267  0.288018  0.989467  1
  O  O28  1  0.082530  0.785971  0.240729  1
  O  O29  1  0.328583  0.816392  0.842229  1
  O  O30  1  0.081140  0.319555  0.093551  1
  O  O31  1  0.263214  0.088684  0.439248  1
  O  O32  1  0.485372  0.411986  0.807207  1
  O  O33  1  0.236786  0.911316  0.060752  1
  O  O34  1  0.418860  0.680445  0.406449  1
  O  O35  1  0.417470  0.214029  0.259271  1
  O  O36  1  0.579209  0.793339  0.738283  1
  O  O37  1  0.585022  0.314749  0.596722  1
  O  O38  1  0.760021  0.092090  0.937174  1
  O  O39  1  0.513788  0.589171  0.187898  1
  O  O40  1  0.739979  0.907910  0.562826  1
  O  O41  1  0.914978  0.685251  0.903278  1
  O  O42  1  0.668537  0.179958  0.155865  1
  O  O43  1  0.920791  0.206661  0.761717  1
  O  O44  1  0.669129  0.714917  0.008457  1
  O  O45  1  0.830871  0.285083  0.491543  1
  O  O46  1  0.831463  0.820042  0.344135  1
  O  O47  1  0.986212  0.410829  0.312102  1
