# generated using pymatgen
data_SbOF
_symmetry_space_group_name_H-M   'P 1'
_cell_length_a   12.57652721
_cell_length_b   3.57274592
_cell_length_c   4.34898930
_cell_angle_alpha   90.00000000
_cell_angle_beta   90.00000000
_cell_angle_gamma   90.00000000
_symmetry_Int_Tables_number   1
_chemical_formula_structural   SbOF
_chemical_formula_sum   'Sb4 O4 F4'
_cell_volume   195.41198929
_cell_formula_units_Z   4
loop_
 _symmetry_equiv_pos_site_id
 _symmetry_equiv_pos_as_xyz
  1  'x, y, z'
loop_
 _atom_site_type_symbol
 _atom_site_label
 _atom_site_symmetry_multiplicity
 _atom_site_fract_x
 _atom_site_fract_y
 _atom_site_fract_z
 _atom_site_occupancy
  Sb  Sb0  1  0.152007  0.250000  0.330281  1
  Sb  Sb1  1  0.347993  0.750000  0.830281  1
  Sb  Sb2  1  0.652007  0.250000  0.169719  1
  Sb  Sb3  1  0.847993  0.750000  0.669719  1
  O  O4  1  0.248342  0.750000  0.468872  1
  O  O5  1  0.251658  0.250000  0.968872  1
  O  O6  1  0.748342  0.750000  0.031128  1
  O  O7  1  0.751658  0.250000  0.531128  1
  F  F8  1  0.088607  0.750000  0.069035  1
  F  F9  1  0.411393  0.250000  0.569035  1
  F  F10  1  0.588607  0.750000  0.430964  1
  F  F11  1  0.911393  0.250000  0.930965  1
