# generated using pymatgen
data_Zr2N2O
_symmetry_space_group_name_H-M   'P 1'
_cell_length_a   5.54073395
_cell_length_b   5.78298951
_cell_length_c   16.18152605
_cell_angle_alpha   90.04521331
_cell_angle_beta   90.00002928
_cell_angle_gamma   89.74950433
_symmetry_Int_Tables_number   1
_chemical_formula_structural   Zr2N2O
_chemical_formula_sum   'Zr16 N16 O8'
_cell_volume   518.48344289
_cell_formula_units_Z   8
loop_
 _symmetry_equiv_pos_site_id
 _symmetry_equiv_pos_as_xyz
  1  'x, y, z'
loop_
 _atom_site_type_symbol
 _atom_site_label
 _atom_site_symmetry_multiplicity
 _atom_site_fract_x
 _atom_site_fract_y
 _atom_site_fract_z
 _atom_site_occupancy
  Zr  Zr0  1  0.996390  0.204109  0.075574  1
  Zr  Zr1  1  0.987254  0.748552  0.187674  1
  Zr  Zr2  1  0.990699  0.295302  0.571827  1
  Zr  Zr3  1  0.994370  0.749652  0.685219  1
  Zr  Zr4  1  0.507847  0.251134  0.186268  1
  Zr  Zr5  1  0.504976  0.250330  0.685791  1
  Zr  Zr6  1  0.503141  0.794240  0.578413  1
  Zr  Zr7  1  0.504900  0.706288  0.074463  1
  Zr  Zr8  1  0.509343  0.205940  0.428282  1
  Zr  Zr9  1  0.525263  0.296065  0.930409  1
  Zr  Zr10  1  0.481762  0.765663  0.309640  1
  Zr  Zr11  1  0.499054  0.736907  0.813648  1
  Zr  Zr12  1  0.986909  0.707548  0.426147  1
  Zr  Zr13  1  0.002189  0.248088  0.316314  1
  Zr  Zr14  1  0.004746  0.240980  0.813822  1
  Zr  Zr15  1  0.975216  0.798019  0.930280  1
  N  N16  1  0.158034  0.106882  0.201398  1
  N  N17  1  0.153408  0.390831  0.702393  1
  N  N18  1  0.206201  0.974617  0.379172  1
  N  N19  1  0.344216  0.608953  0.201266  1
  N  N20  1  0.349393  0.889524  0.700564  1
  N  N21  1  0.650730  0.118455  0.299874  1
  N  N22  1  0.645928  0.374798  0.800333  1
  N  N23  1  0.632815  0.663597  0.947684  1
  N  N24  1  0.704348  0.977145  0.121233  1
  N  N25  1  0.704251  0.522790  0.622026  1
  N  N26  1  0.795848  0.478186  0.120709  1
  N  N27  1  0.796337  0.020242  0.619486  1
  N  N28  1  0.858411  0.337244  0.448640  1
  N  N29  1  0.867953  0.163181  0.948398  1
  N  N30  1  0.854204  0.875462  0.799374  1
  N  N31  1  0.847171  0.621980  0.300857  1
  O  O32  1  0.150643  0.831960  0.046741  1
  O  O33  1  0.152520  0.665567  0.546856  1
  O  O34  1  0.196308  0.525528  0.876628  1
  O  O35  1  0.307044  0.483618  0.379155  1
  O  O36  1  0.304724  0.026031  0.875266  1
  O  O37  1  0.351428  0.170829  0.548350  1
  O  O38  1  0.350479  0.331946  0.047803  1
  O  O39  1  0.643543  0.841818  0.452024  1
