# generated using pymatgen
data_V6O11F
_symmetry_space_group_name_H-M   'P 1'
_cell_length_a   10.33121961
_cell_length_b   6.60954345
_cell_length_c   2.93809470
_cell_angle_alpha   90.00000000
_cell_angle_beta   90.00000000
_cell_angle_gamma   108.66164793
_symmetry_Int_Tables_number   1
_chemical_formula_structural   V6O11F
_chemical_formula_sum   'V6 O11 F1'
_cell_volume   190.07873618
_cell_formula_units_Z   1
loop_
 _symmetry_equiv_pos_site_id
 _symmetry_equiv_pos_as_xyz
  1  'x, y, z'
loop_
 _atom_site_type_symbol
 _atom_site_label
 _atom_site_symmetry_multiplicity
 _atom_site_fract_x
 _atom_site_fract_y
 _atom_site_fract_z
 _atom_site_occupancy
  V  V0  1  -0.000064  0.001214  0.000000  1
  V  V1  1  0.332775  0.166417  0.500000  1
  V  V2  1  0.000330  0.500268  0.500000  1
  V  V3  1  0.333621  0.667952  0.000000  1
  V  V4  1  0.666524  0.348549  0.000000  1
  V  V5  1  0.666910  0.817315  0.500000  1
  O  O6  1  0.130959  0.065375  0.500000  1
  O  O7  1  0.000206  0.303751  0.000000  1
  O  O8  1  0.998397  0.695495  0.000000  1
  O  O9  1  0.334996  0.363718  0.000000  1
  O  O10  1  0.202675  0.601164  0.500000  1
  O  O11  1  0.536303  0.265437  0.500000  1
  O  O12  1  0.466316  0.735866  0.500000  1
  O  O13  1  0.796994  0.395973  0.500000  1
  O  O14  1  0.333115  0.970257  0.000000  1
  O  O15  1  0.666518  0.631060  0.000000  1
  O  O16  1  0.866759  0.935918  0.500000  1
  F  F17  1  0.666664  0.034270  0.000000  1
