# generated using pymatgen
data_Li2Cr5(Si2O5)6
_symmetry_space_group_name_H-M   'P 1'
_cell_length_a   10.25432439
_cell_length_b   10.22710591
_cell_length_c   14.69972032
_cell_angle_alpha   90.66670363
_cell_angle_beta   90.81026186
_cell_angle_gamma   119.76923758
_symmetry_Int_Tables_number   1
_chemical_formula_structural   Li2Cr5(Si2O5)6
_chemical_formula_sum   'Li4 Cr10 Si24 O60'
_cell_volume   1337.70670144
_cell_formula_units_Z   2
loop_
 _symmetry_equiv_pos_site_id
 _symmetry_equiv_pos_as_xyz
  1  'x, y, z'
loop_
 _atom_site_type_symbol
 _atom_site_label
 _atom_site_symmetry_multiplicity
 _atom_site_fract_x
 _atom_site_fract_y
 _atom_site_fract_z
 _atom_site_occupancy
  Li  Li0  1  0.331387  0.660518  -0.000014  1
  Li  Li1  1  0.993326  0.000081  0.749973  1
  Li  Li2  1  0.998164  0.997734  0.249972  1
  Li  Li3  1  0.667560  0.334023  0.499761  1
  Cr  Cr4  1  0.001784  0.499541  0.750449  1
  Cr  Cr5  1  0.999674  0.498240  0.250114  1
  Cr  Cr6  1  0.332648  0.666958  0.252242  1
  Cr  Cr7  1  0.333060  0.667130  0.747918  1
  Cr  Cr8  1  0.500733  0.503520  0.248229  1
  Cr  Cr9  1  0.503792  0.501105  0.748762  1
  Cr  Cr10  1  0.667398  0.333948  0.247653  1
  Cr  Cr11  1  0.666322  0.332571  0.752234  1
  Cr  Cr12  1  0.499826  0.002374  0.251587  1
  Cr  Cr13  1  0.499168  0.998721  0.750694  1
  Si  Si14  1  0.114018  0.765333  0.611168  1
  Si  Si15  1  0.110906  0.763369  0.392411  1
  Si  Si16  1  0.238944  0.883357  0.108370  1
  Si  Si17  1  0.235087  0.880492  0.889324  1
  Si  Si18  1  0.116599  0.349419  0.111844  1
  Si  Si19  1  0.111318  0.346977  0.892157  1
  Si  Si20  1  0.239101  0.354041  0.390676  1
  Si  Si21  1  0.238336  0.355618  0.609064  1
  Si  Si22  1  0.649076  0.885700  0.388951  1
  Si  Si23  1  0.651810  0.891362  0.607901  1
  Si  Si24  1  0.352760  0.236783  0.108619  1
  Si  Si25  1  0.348965  0.235268  0.889679  1
  Si  Si26  1  0.650696  0.764018  0.108698  1
  Si  Si27  1  0.647464  0.762869  0.889407  1
  Si  Si28  1  0.351851  0.118594  0.612642  1
  Si  Si29  1  0.351089  0.114538  0.393535  1
  Si  Si30  1  0.763566  0.647358  0.388675  1
  Si  Si31  1  0.763907  0.650703  0.608164  1
  Si  Si32  1  0.890245  0.651342  0.107419  1
  Si  Si33  1  0.884421  0.646771  0.889120  1
  Si  Si34  1  0.763358  0.114241  0.111926  1
  Si  Si35  1  0.760138  0.110713  0.892992  1
  Si  Si36  1  0.884221  0.234799  0.388980  1
  Si  Si37  1  0.885475  0.238736  0.608361  1
  O  O38  1  0.055916  0.777348  0.859961  1
  O  O39  1  0.062289  0.787461  0.137411  1
  O  O40  1  0.223395  0.945942  0.638491  1
  O  O41  1  0.216775  0.942488  0.365834  1
  O  O42  1  0.116820  0.746205  0.501704  1
  O  O43  1  0.151244  0.650601  0.340755  1
  O  O44  1  0.157843  0.656511  0.665416  1
  O  O45  1  0.255816  0.856447  0.998864  1
  O  O46  1  0.162862  0.507294  0.163614  1
  O  O47  1  0.152634  0.504191  0.846366  1
  O  O48  1  0.057747  0.278822  0.364779  1
  O  O49  1  0.059997  0.284925  0.634142  1
  O  O50  1  0.348162  0.837137  0.161807  1
  O  O51  1  0.344265  0.835668  0.836045  1
  O  O52  1  0.138056  0.385729  0.002754  1
  O  O53  1  0.260971  0.382064  0.500285  1
  O  O54  1  0.499687  0.850923  0.657659  1
  O  O55  1  0.494700  0.841396  0.334765  1
  O  O56  1  0.218904  0.272844  0.141536  1
  O  O57  1  0.212838  0.271037  0.858916  1
  O  O58  1  0.343748  0.503760  0.335091  1
  O  O59  1  0.345654  0.508143  0.665722  1
  O  O60  1  0.281076  0.221943  0.361480  1
  O  O61  1  0.278229  0.223868  0.640774  1
  O  O62  1  0.631068  0.885987  0.497771  1
  O  O63  1  0.489380  0.650432  0.838438  1
  O  O64  1  0.494737  0.647289  0.153876  1
  O  O65  1  0.287351  0.058728  0.134186  1
  O  O66  1  0.278770  0.053876  0.864412  1
  O  O67  1  0.612622  0.750858  0.998582  1
  O  O68  1  0.373005  0.256982  -0.000255  1
  O  O69  1  0.720816  0.941660  0.142469  1
  O  O70  1  0.723039  0.939436  0.859496  1
  O  O71  1  0.506102  0.346510  0.163911  1
  O  O72  1  0.498854  0.343110  0.836246  1
  O  O73  1  0.390503  0.139577  0.503811  1
  O  O74  1  0.713281  0.771789  0.361227  1
  O  O75  1  0.722952  0.782733  0.635497  1
  O  O76  1  0.653181  0.489744  0.336203  1
  O  O77  1  0.649450  0.494870  0.655018  1
  O  O78  1  0.785233  0.726404  0.135303  1
  O  O79  1  0.775198  0.717032  0.862101  1
  O  O80  1  0.506981  0.153608  0.347357  1
  O  O81  1  0.507758  0.163480  0.665992  1
  O  O82  1  0.749369  0.609764  0.497777  1
  O  O83  1  0.880951  0.623919  0.997949  1
  O  O84  1  0.656334  0.160045  0.166391  1
  O  O85  1  0.647965  0.152729  0.841913  1
  O  O86  1  0.939963  0.727080  0.359274  1
  O  O87  1  0.942306  0.726234  0.640486  1
  O  O88  1  0.850116  0.500202  0.159083  1
  O  O89  1  0.839213  0.493596  0.832993  1
  O  O90  1  0.744128  0.116807  0.002673  1
  O  O91  1  0.838937  0.345214  0.337042  1
  O  O92  1  0.840289  0.351055  0.658338  1
  O  O93  1  0.859134  0.251486  0.498280  1
  O  O94  1  0.783020  0.055373  0.357935  1
  O  O95  1  0.788021  0.062710  0.640273  1
  O  O96  1  0.944006  0.222082  0.138752  1
  O  O97  1  0.937949  0.215987  0.865367  1
