# generated using pymatgen
data_LiCoSiO4
_symmetry_space_group_name_H-M   'P 1'
_cell_length_a   8.63778486
_cell_length_b   8.01311908
_cell_length_c   15.07322436
_cell_angle_alpha   90.00000000
_cell_angle_beta   89.78533345
_cell_angle_gamma   90.00000000
_symmetry_Int_Tables_number   1
_chemical_formula_structural   LiCoSiO4
_chemical_formula_sum   'Li12 Co12 Si12 O48'
_cell_volume   1043.29492518
_cell_formula_units_Z   12
loop_
 _symmetry_equiv_pos_site_id
 _symmetry_equiv_pos_as_xyz
  1  'x, y, z'
loop_
 _atom_site_type_symbol
 _atom_site_label
 _atom_site_symmetry_multiplicity
 _atom_site_fract_x
 _atom_site_fract_y
 _atom_site_fract_z
 _atom_site_occupancy
  Li  Li0  1  0.223557  0.028237  0.557185  1
  Li  Li1  1  0.231938  0.966329  0.904428  1
  Li  Li2  1  0.245017  0.150962  0.249415  1
  Li  Li3  1  0.254983  0.650962  0.250585  1
  Li  Li4  1  0.268062  0.466329  0.595572  1
  Li  Li5  1  0.276443  0.528237  0.942815  1
  Li  Li6  1  0.723557  0.471763  0.057185  1
  Li  Li7  1  0.731938  0.533671  0.404428  1
  Li  Li8  1  0.745017  0.349038  0.749415  1
  Li  Li9  1  0.754983  0.849038  0.750585  1
  Li  Li10  1  0.768062  0.033671  0.095572  1
  Li  Li11  1  0.776443  0.971763  0.442815  1
  Co  Co12  1  0.045546  0.730734  0.094831  1
  Co  Co13  1  0.091764  0.790355  0.728611  1
  Co  Co14  1  0.115245  0.726090  0.428848  1
  Co  Co15  1  0.384755  0.226090  0.071152  1
  Co  Co16  1  0.408236  0.290355  0.771389  1
  Co  Co17  1  0.454454  0.230734  0.405169  1
  Co  Co18  1  0.545546  0.769266  0.594831  1
  Co  Co19  1  0.591764  0.709645  0.228611  1
  Co  Co20  1  0.615245  0.773910  0.928848  1
  Co  Co21  1  0.884755  0.273910  0.571152  1
  Co  Co22  1  0.908236  0.209645  0.271388  1
  Co  Co23  1  0.954454  0.269266  0.905169  1
  Si  Si24  1  0.050583  0.336754  0.093350  1
  Si  Si25  1  0.084787  0.174187  0.725492  1
  Si  Si26  1  0.109369  0.331533  0.423476  1
  Si  Si27  1  0.390631  0.831533  0.076524  1
  Si  Si28  1  0.415213  0.674187  0.774508  1
  Si  Si29  1  0.449417  0.836754  0.406650  1
  Si  Si30  1  0.550583  0.163246  0.593350  1
  Si  Si31  1  0.584787  0.325813  0.225492  1
  Si  Si32  1  0.609369  0.168467  0.923476  1
  Si  Si33  1  0.890631  0.668467  0.576524  1
  Si  Si34  1  0.915213  0.825813  0.274508  1
  Si  Si35  1  0.949417  0.663246  0.906650  1
  O  O36  1  0.037499  0.482991  0.892662  1
  O  O37  1  0.046561  0.643617  0.638159  1
  O  O38  1  0.059799  0.773282  0.973803  1
  O  O39  1  0.073517  0.729384  0.306087  1
  O  O40  1  0.068941  0.218230  0.511771  1
  O  O41  1  0.100473  0.997066  0.671167  1
  O  O42  1  0.078736  0.135320  0.833313  1
  O  O43  1  0.071089  0.235267  0.187196  1
  O  O44  1  0.173224  0.512079  0.461380  1
  O  O45  1  0.223271  0.370326  0.048544  1
  O  O46  1  0.246713  0.239682  0.365657  1
  O  O47  1  0.235077  0.291110  0.699242  1
  O  O48  1  0.253287  0.739682  0.134343  1
  O  O49  1  0.264923  0.791110  0.800758  1
  O  O50  1  0.276729  0.870326  0.451456  1
  O  O51  1  0.326776  0.012079  0.038620  1
  O  O52  1  0.428911  0.735267  0.312804  1
  O  O53  1  0.421264  0.635320  0.666687  1
  O  O54  1  0.399527  0.497066  0.828833  1
  O  O55  1  0.426483  0.229384  0.193913  1
  O  O56  1  0.431059  0.718230  0.988229  1
  O  O57  1  0.440201  0.273282  0.526197  1
  O  O58  1  0.453439  0.143617  0.861841  1
  O  O59  1  0.462501  0.982991  0.607338  1
  O  O60  1  0.537499  0.017009  0.392662  1
  O  O61  1  0.546561  0.856383  0.138159  1
  O  O62  1  0.559799  0.726718  0.473803  1
  O  O63  1  0.568941  0.281770  0.011771  1
  O  O64  1  0.573517  0.770616  0.806087  1
  O  O65  1  0.600473  0.502934  0.171167  1
  O  O66  1  0.578736  0.364680  0.333313  1
  O  O67  1  0.571089  0.264733  0.687196  1
  O  O68  1  0.673224  0.987921  0.961380  1
  O  O69  1  0.723271  0.129674  0.548544  1
  O  O70  1  0.735077  0.208890  0.199242  1
  O  O71  1  0.746713  0.260318  0.865657  1
  O  O72  1  0.764923  0.708890  0.300758  1
  O  O73  1  0.753287  0.760318  0.634343  1
  O  O74  1  0.776729  0.629674  0.951456  1
  O  O75  1  0.826776  0.487921  0.538620  1
  O  O76  1  0.928911  0.764733  0.812804  1
  O  O77  1  0.921264  0.864680  0.166687  1
  O  O78  1  0.899527  0.002935  0.328833  1
  O  O79  1  0.931059  0.781770  0.488229  1
  O  O80  1  0.926483  0.270616  0.693913  1
  O  O81  1  0.940201  0.226718  0.026197  1
  O  O82  1  0.953439  0.356383  0.361841  1
  O  O83  1  0.962501  0.517009  0.107338  1
