# generated using pymatgen
data_CaFeSn(PO4)3
_symmetry_space_group_name_H-M   'P 1'
_cell_length_a   8.96791811
_cell_length_b   8.96791789
_cell_length_c   8.96791787
_cell_angle_alpha   58.14976101
_cell_angle_beta   58.14976191
_cell_angle_gamma   58.14976147
_symmetry_Int_Tables_number   1
_chemical_formula_structural   CaFeSn(PO4)3
_chemical_formula_sum   'Ca2 Fe2 Sn2 P6 O24'
_cell_volume   488.36039077
_cell_formula_units_Z   2
loop_
 _symmetry_equiv_pos_site_id
 _symmetry_equiv_pos_as_xyz
  1  'x, y, z'
loop_
 _atom_site_type_symbol
 _atom_site_label
 _atom_site_symmetry_multiplicity
 _atom_site_fract_x
 _atom_site_fract_y
 _atom_site_fract_z
 _atom_site_occupancy
  Ca  Ca0  1  0.997191  0.997191  0.997191  1
  Ca  Ca1  1  0.497191  0.497191  0.497191  1
  Fe  Fe2  1  0.352265  0.352265  0.352265  1
  Fe  Fe3  1  0.852265  0.852265  0.852265  1
  Sn  Sn4  1  0.147576  0.147576  0.147576  1
  Sn  Sn5  1  0.647576  0.647576  0.647576  1
  P  P6  1  0.045150  0.748228  0.460443  1
  P  P7  1  0.460443  0.045150  0.748228  1
  P  P8  1  0.748228  0.460443  0.045150  1
  P  P9  1  0.248228  0.545150  0.960443  1
  P  P10  1  0.545150  0.960443  0.248228  1
  P  P11  1  0.960443  0.248228  0.545150  1
  O  O12  1  0.121794  0.291711  0.508347  1
  O  O13  1  0.291711  0.508347  0.121794  1
  O  O14  1  0.064270  0.917751  0.270650  1
  O  O15  1  0.508347  0.121794  0.291711  1
  O  O16  1  0.008347  0.791711  0.621794  1
  O  O17  1  0.229522  0.580107  0.438116  1
  O  O18  1  0.270650  0.064270  0.917751  1
  O  O19  1  0.438116  0.229522  0.580107  1
  O  O20  1  0.580107  0.438116  0.229522  1
  O  O21  1  0.211474  0.383484  0.981921  1
  O  O22  1  0.080107  0.729522  0.938116  1
  O  O23  1  0.383484  0.981921  0.211474  1
  O  O24  1  0.621794  0.008347  0.791711  1
  O  O25  1  0.917751  0.270650  0.064270  1
  O  O26  1  0.791711  0.621794  0.008347  1
  O  O27  1  0.417751  0.564270  0.770650  1
  O  O28  1  0.564270  0.770650  0.417751  1
  O  O29  1  0.729522  0.938116  0.080107  1
  O  O30  1  0.770650  0.417751  0.564270  1
  O  O31  1  0.981921  0.211474  0.383484  1
  O  O32  1  0.481921  0.883484  0.711474  1
  O  O33  1  0.938116  0.080107  0.729522  1
  O  O34  1  0.711474  0.481921  0.883484  1
  O  O35  1  0.883484  0.711474  0.481921  1
