# generated using pymatgen
data_SrV2P2(H4O7)2
_symmetry_space_group_name_H-M   'P 1'
_cell_length_a   6.43782075
_cell_length_b   6.43782075
_cell_length_c   13.13046351
_cell_angle_alpha   82.54071121
_cell_angle_beta   97.45928879
_cell_angle_gamma   89.96486644
_symmetry_Int_Tables_number   1
_chemical_formula_structural   SrV2P2(H4O7)2
_chemical_formula_sum   'Sr2 V4 P4 H16 O28'
_cell_volume   534.94290024
_cell_formula_units_Z   2
loop_
 _symmetry_equiv_pos_site_id
 _symmetry_equiv_pos_as_xyz
  1  'x, y, z'
loop_
 _atom_site_type_symbol
 _atom_site_label
 _atom_site_symmetry_multiplicity
 _atom_site_fract_x
 _atom_site_fract_y
 _atom_site_fract_z
 _atom_site_occupancy
  Sr  Sr0  1  0.544576  0.067911  0.779155  1
  Sr  Sr1  1  0.932089  0.455424  0.279155  1
  V  V2  1  0.752651  0.026473  0.481235  1
  V  V3  1  0.973527  0.247349  0.981235  1
  V  V4  1  0.262738  0.497617  0.565398  1
  V  V5  1  0.502383  0.737262  0.065398  1
  P  P6  1  0.266338  0.011296  0.525142  1
  P  P7  1  0.988704  0.733662  0.025142  1
  P  P8  1  0.759235  0.511925  0.523264  1
  P  P9  1  0.488075  0.240765  0.023264  1
  H  H10  1  0.638531  0.069850  0.232165  1
  H  H11  1  0.930150  0.361469  0.732165  1
  H  H12  1  0.862966  0.990236  0.282137  1
  H  H13  1  0.009764  0.137034  0.782137  1
  H  H14  1  0.286974  0.402629  0.832256  1
  H  H15  1  0.597371  0.713026  0.332256  1
  H  H16  1  0.290249  0.619998  0.763674  1
  H  H17  1  0.380002  0.709751  0.263674  1
  H  H18  1  0.072171  0.837415  0.830280  1
  H  H19  1  0.162585  0.927829  0.330280  1
  H  H20  1  0.073943  0.885836  0.708497  1
  H  H21  1  0.114164  0.926057  0.208497  1
  H  H22  1  0.690441  0.688867  0.694309  1
  H  H23  1  0.311133  0.309559  0.194309  1
  H  H24  1  0.626960  0.599837  0.800575  1
  H  H25  1  0.400163  0.373040  0.300575  1
  O  O26  1  0.784874  0.999721  0.608823  1
  O  O27  1  0.000279  0.215126  0.108823  1
  O  O28  1  0.440528  0.019644  0.454460  1
  O  O29  1  0.980356  0.559472  0.954460  1
  O  O30  1  0.056346  0.049369  0.452488  1
  O  O31  1  0.950631  0.943654  0.952488  1
  O  O32  1  0.742899  0.344583  0.447195  1
  O  O33  1  0.655417  0.257101  0.947195  1
  O  O34  1  0.753764  0.723618  0.449713  1
  O  O35  1  0.276382  0.246236  0.949713  1
  O  O36  1  0.207280  0.516811  0.439041  1
  O  O37  1  0.483189  0.792720  0.939041  1
  O  O38  1  0.267918  0.796622  0.594965  1
  O  O39  1  0.203378  0.732082  0.094965  1
  O  O40  1  0.963754  0.485474  0.601247  1
  O  O41  1  0.514526  0.036246  0.101247  1
  O  O42  1  0.579485  0.498594  0.591195  1
  O  O43  1  0.501406  0.420515  0.091195  1
  O  O44  1  0.297456  0.178348  0.602611  1
  O  O45  1  0.821652  0.702544  0.102611  1
  O  O46  1  0.747645  0.086311  0.291468  1
  O  O47  1  0.913689  0.252355  0.791468  1
  O  O48  1  0.328637  0.471401  0.765198  1
  O  O49  1  0.528599  0.671363  0.265198  1
  O  O50  1  0.152969  0.902630  0.776173  1
  O  O51  1  0.097370  0.847031  0.276173  1
  O  O52  1  0.701118  0.716449  0.766403  1
  O  O53  1  0.283551  0.298882  0.266403  1
