# generated using pymatgen
data_Li4Mn3NiO8
_symmetry_space_group_name_H-M   'P 1'
_cell_length_a   5.97776899
_cell_length_b   5.92188624
_cell_length_c   5.87179452
_cell_angle_alpha   118.89087661
_cell_angle_beta   120.22622822
_cell_angle_gamma   59.50737003
_symmetry_Int_Tables_number   1
_chemical_formula_structural   Li4Mn3NiO8
_chemical_formula_sum   'Li4 Mn3 Ni1 O8'
_cell_volume   147.34557111
_cell_formula_units_Z   1
loop_
 _symmetry_equiv_pos_site_id
 _symmetry_equiv_pos_as_xyz
  1  'x, y, z'
loop_
 _atom_site_type_symbol
 _atom_site_label
 _atom_site_symmetry_multiplicity
 _atom_site_fract_x
 _atom_site_fract_y
 _atom_site_fract_z
 _atom_site_occupancy
  Li  Li0  1  0.000079  0.999281  0.499497  1
  Li  Li1  1  0.497076  0.496705  0.498329  1
  Li  Li2  1  0.997164  0.499843  0.499992  1
  Li  Li3  1  0.500803  0.997618  0.500520  1
  Mn  Mn4  1  0.499458  0.499425  0.999842  1
  Mn  Mn5  1  0.499705  0.999249  0.999641  1
  Mn  Mn6  1  0.999391  0.499459  0.999625  1
  Ni  Ni7  1  0.999822  0.999618  0.000113  1
  O  O8  1  0.263076  0.216785  0.745165  1
  O  O9  1  0.277387  0.758673  0.780732  1
  O  O10  1  0.752170  0.286950  0.788201  1
  O  O11  1  0.745118  0.759294  0.777810  1
  O  O12  1  0.254371  0.239465  0.221543  1
  O  O13  1  0.246856  0.711872  0.211534  1
  O  O14  1  0.721901  0.240304  0.219127  1
  O  O15  1  0.736409  0.781908  0.254417  1
