# generated using pymatgen
data_LiCu(PO3)2
_symmetry_space_group_name_H-M   'P 1'
_cell_length_a   8.93016926
_cell_length_b   4.97864318
_cell_length_c   7.80584317
_cell_angle_alpha   89.27059475
_cell_angle_beta   114.56086606
_cell_angle_gamma   90.36609663
_symmetry_Int_Tables_number   1
_chemical_formula_structural   LiCu(PO3)2
_chemical_formula_sum   'Li2 Cu2 P4 O12'
_cell_volume   315.62207018
_cell_formula_units_Z   2
loop_
 _symmetry_equiv_pos_site_id
 _symmetry_equiv_pos_as_xyz
  1  'x, y, z'
loop_
 _atom_site_type_symbol
 _atom_site_label
 _atom_site_symmetry_multiplicity
 _atom_site_fract_x
 _atom_site_fract_y
 _atom_site_fract_z
 _atom_site_occupancy
  Li  Li0  1  0.307189  0.357928  0.136696  1
  Li  Li1  1  0.720508  0.858205  0.905055  1
  Cu  Cu2  1  0.372534  0.863628  0.942156  1
  Cu  Cu3  1  0.908680  0.352860  0.910768  1
  P  P4  1  0.091422  0.816591  0.495523  1
  P  P5  1  0.104866  0.860312  0.101971  1
  P  P6  1  0.617236  0.369057  0.057385  1
  P  P7  1  0.875104  0.318306  0.479262  1
  O  O8  1  0.025802  0.532185  0.541994  1
  O  O9  1  0.241945  0.900299  0.657753  1
  O  O10  1  0.107603  0.757204  0.311133  1
  O  O11  1  0.117793  0.165473  0.110377  1
  O  O12  1  0.584387  0.656079  0.983682  1
  O  O13  1  0.256815  0.721152  0.104829  1
  O  O14  1  0.712790  0.207317  0.972894  1
  O  O15  1  0.473656  0.228186  0.075872  1
  O  O16  1  0.811721  0.292096  0.625869  1
  O  O17  1  0.939835  0.758109  0.957522  1
  O  O18  1  0.754164  0.421056  0.285735  1
  O  O19  1  0.943452  0.032456  0.442525  1
