# generated using pymatgen
data_Li4Fe2Co3Sn3O16
_symmetry_space_group_name_H-M   'P 1'
_cell_length_a   5.99788436
_cell_length_b   6.03055404
_cell_length_c   9.62479848
_cell_angle_alpha   90.22281249
_cell_angle_beta   89.12760656
_cell_angle_gamma   120.39129545
_symmetry_Int_Tables_number   1
_chemical_formula_structural   Li4Fe2Co3Sn3O16
_chemical_formula_sum   'Li4 Fe2 Co3 Sn3 O16'
_cell_volume   300.25969980
_cell_formula_units_Z   1
loop_
 _symmetry_equiv_pos_site_id
 _symmetry_equiv_pos_as_xyz
  1  'x, y, z'
loop_
 _atom_site_type_symbol
 _atom_site_label
 _atom_site_symmetry_multiplicity
 _atom_site_fract_x
 _atom_site_fract_y
 _atom_site_fract_z
 _atom_site_occupancy
  Li  Li0  1  0.352063  0.674447  0.884841  1
  Li  Li1  1  0.957869  0.978444  0.992001  1
  Li  Li2  1  0.972888  0.984502  0.502652  1
  Li  Li3  1  0.675599  0.337318  0.397886  1
  Fe  Fe4  1  0.338545  0.673865  0.496703  1
  Fe  Fe5  1  0.679173  0.341934  0.988704  1
  Co  Co6  1  0.659815  0.830119  0.215782  1
  Co  Co7  1  0.831424  0.659326  0.714208  1
  Co  Co8  1  0.830962  0.169601  0.712699  1
  Sn  Sn9  1  0.170912  0.831235  0.215064  1
  Sn  Sn10  1  0.170741  0.339455  0.214058  1
  Sn  Sn11  1  0.339294  0.170132  0.714911  1
  O  O12  1  0.154644  0.831799  0.597584  1
  O  O13  1  0.036745  0.518399  0.348443  1
  O  O14  1  0.354471  0.677100  0.099839  1
  O  O15  1  0.978299  0.989773  0.315795  1
  O  O16  1  0.977307  0.990010  0.806924  1
  O  O17  1  0.145154  0.320554  0.599820  1
  O  O18  1  0.495789  0.964364  0.339818  1
  O  O19  1  0.494945  0.530891  0.340186  1
  O  O20  1  0.321137  0.158975  0.086529  1
  O  O21  1  0.671719  0.841843  0.612553  1
  O  O22  1  0.536843  0.493454  0.839427  1
  O  O23  1  0.543489  0.042973  0.836904  1
  O  O24  1  0.689286  0.343038  0.609061  1
  O  O25  1  0.829851  0.671128  0.100069  1
  O  O26  1  0.962345  0.478018  0.825416  1
  O  O27  1  0.828693  0.157603  0.099959  1
