# generated using pymatgen
data_LiVFeP2(HO5)2
_symmetry_space_group_name_H-M   'P 1'
_cell_length_a   10.62076937
_cell_length_b   7.44217538
_cell_length_c   5.22098155
_cell_angle_alpha   109.94809174
_cell_angle_beta   97.97318461
_cell_angle_gamma   105.75281766
_symmetry_Int_Tables_number   1
_chemical_formula_structural   LiVFeP2(HO5)2
_chemical_formula_sum   'Li2 V2 Fe2 P4 H4 O20'
_cell_volume   360.93426821
_cell_formula_units_Z   2
loop_
 _symmetry_equiv_pos_site_id
 _symmetry_equiv_pos_as_xyz
  1  'x, y, z'
loop_
 _atom_site_type_symbol
 _atom_site_label
 _atom_site_symmetry_multiplicity
 _atom_site_fract_x
 _atom_site_fract_y
 _atom_site_fract_z
 _atom_site_occupancy
  Li  Li0  1  0.206373  0.850665  0.778359  1
  Li  Li1  1  0.793627  0.149335  0.221641  1
  V  V2  1  0.000000  0.500000  0.000000  1
  V  V3  1  0.500000  0.500000  0.000000  1
  Fe  Fe4  1  0.000000  0.000000  0.000000  1
  Fe  Fe5  1  0.500000  0.000000  0.000000  1
  P  P6  1  0.178363  0.223811  0.677361  1
  P  P7  1  0.322660  0.769443  0.319851  1
  P  P8  1  0.677340  0.230557  0.680149  1
  P  P9  1  0.821637  0.776189  0.322639  1
  H  H10  1  0.032481  0.349691  0.353893  1
  H  H11  1  0.485121  0.659432  0.651681  1
  H  H12  1  0.514879  0.340568  0.348319  1
  H  H13  1  0.967519  0.650309  0.646107  1
  O  O14  1  0.023375  0.714029  0.842625  1
  O  O15  1  0.097062  0.376690  0.742235  1
  O  O16  1  0.171192  0.654276  0.295041  1
  O  O17  1  0.120319  0.076507  0.368236  1
  O  O18  1  0.164148  0.107271  0.871473  1
  O  O19  1  0.331159  0.871268  0.108639  1
  O  O20  1  0.374708  0.926388  0.628652  1
  O  O21  1  0.328001  0.347702  0.723248  1
  O  O22  1  0.404340  0.621130  0.277128  1
  O  O23  1  0.515896  0.717134  0.859584  1
  O  O24  1  0.484104  0.282866  0.140416  1
  O  O25  1  0.595660  0.378870  0.722872  1
  O  O26  1  0.671999  0.652298  0.276752  1
  O  O27  1  0.625292  0.073612  0.371348  1
  O  O28  1  0.668841  0.128732  0.891361  1
  O  O29  1  0.835852  0.892729  0.128527  1
  O  O30  1  0.879681  0.923493  0.631764  1
  O  O31  1  0.828808  0.345724  0.704959  1
  O  O32  1  0.902938  0.623310  0.257765  1
  O  O33  1  0.976625  0.285971  0.157375  1
