# generated using pymatgen
data_PH8C2NO4
_symmetry_space_group_name_H-M   'P 1'
_cell_length_a   9.24449628
_cell_length_b   9.24449628
_cell_length_c   9.24449628
_cell_angle_alpha   107.60492624
_cell_angle_beta   107.60492624
_cell_angle_gamma   113.27198091
_symmetry_Int_Tables_number   1
_chemical_formula_structural   PH8C2NO4
_chemical_formula_sum   'P4 H32 C8 N4 O16'
_cell_volume   606.15272863
_cell_formula_units_Z   4
loop_
 _symmetry_equiv_pos_site_id
 _symmetry_equiv_pos_as_xyz
  1  'x, y, z'
loop_
 _atom_site_type_symbol
 _atom_site_label
 _atom_site_symmetry_multiplicity
 _atom_site_fract_x
 _atom_site_fract_y
 _atom_site_fract_z
 _atom_site_occupancy
  P  P0  1  0.941263  0.321183  0.744530  1
  P  P1  1  0.576654  0.196733  0.255470  1
  P  P2  1  0.803267  0.058737  0.379921  1
  P  P3  1  0.678817  0.423346  0.620079  1
  H  H4  1  0.536132  0.781668  0.391719  1
  H  H5  1  0.389949  0.144413  0.608281  1
  H  H6  1  0.855587  0.463868  0.245536  1
  H  H7  1  0.218332  0.610051  0.754464  1
  H  H8  1  0.317265  0.349238  0.444320  1
  H  H9  1  0.904918  0.872944  0.555680  1
  H  H10  1  0.127056  0.682735  0.031974  1
  H  H11  1  0.650762  0.095082  0.968026  1
  H  H12  1  0.093635  0.272005  0.360685  1
  H  H13  1  0.911320  0.732951  0.639315  1
  H  H14  1  0.267049  0.906365  0.178369  1
  H  H15  1  0.727995  0.088680  0.821631  1
  H  H16  1  0.253276  0.497038  0.483007  1
  H  H17  1  0.014031  0.770269  0.516993  1
  H  H18  1  0.229731  0.746724  0.243762  1
  H  H19  1  0.502962  0.985969  0.756238  1
  H  H20  1  0.341483  0.511910  0.116483  1
  H  H21  1  0.395426  0.225000  0.883517  1
  H  H22  1  0.775000  0.658517  0.170427  1
  H  H23  1  0.488090  0.604574  0.829573  1
  H  H24  1  0.478915  0.500982  0.291440  1
  H  H25  1  0.209542  0.187475  0.708560  1
  H  H26  1  0.812525  0.521085  0.022067  1
  H  H27  1  0.499018  0.790458  0.977933  1
  H  H28  1  0.161180  0.242734  0.131325  1
  H  H29  1  0.111409  0.029856  0.868675  1
  H  H30  1  0.970144  0.838820  0.081554  1
  H  H31  1  0.757266  0.888591  0.918446  1
  H  H32  1  0.086847  0.393700  0.175107  1
  H  H33  1  0.218593  0.911740  0.824893  1
  H  H34  1  0.088260  0.913153  0.306853  1
  H  H35  1  0.606300  0.781407  0.693147  1
  C  C36  1  0.367719  0.521413  0.244791  1
  C  C37  1  0.276622  0.122928  0.755209  1
  C  C38  1  0.877072  0.632281  0.153694  1
  C  C39  1  0.478587  0.723378  0.846306  1
  C  C40  1  0.198638  0.375503  0.223138  1
  C  C41  1  0.152365  0.975500  0.776862  1
  C  C42  1  0.024500  0.801362  0.176865  1
  C  C43  1  0.624497  0.847635  0.823135  1
  N  N44  1  0.219364  0.375325  0.389549  1
  N  N45  1  0.985777  0.829816  0.610451  1
  N  N46  1  0.170184  0.780636  0.155961  1
  N  N47  1  0.624675  0.014223  0.844039  1
  O  O48  1  0.940134  0.248766  0.560116  1
  O  O49  1  0.688650  0.380018  0.439884  1
  O  O50  1  0.619982  0.059866  0.308631  1
  O  O51  1  0.751234  0.311350  0.691369  1
  O  O52  1  0.097597  0.513613  0.848694  1
  O  O53  1  0.664919  0.248903  0.151306  1
  O  O54  1  0.751097  0.902403  0.416016  1
  O  O55  1  0.486387  0.335081  0.583984  1
  O  O56  1  0.926096  0.193077  0.814574  1
  O  O57  1  0.378502  0.111521  0.185426  1
  O  O58  1  0.888479  0.073904  0.266981  1
  O  O59  1  0.806923  0.621498  0.733019  1
  O  O60  1  0.412867  0.693670  0.364502  1
  O  O61  1  0.329168  0.048365  0.635498  1
  O  O62  1  0.951635  0.587133  0.280803  1
  O  O63  1  0.306330  0.670832  0.719197  1
