# generated using pymatgen
data_Li2CuSnO4
_symmetry_space_group_name_H-M   'P 1'
_cell_length_a   5.41784132
_cell_length_b   10.39740944
_cell_length_c   9.95004319
_cell_angle_alpha   16.86849780
_cell_angle_beta   30.54495731
_cell_angle_gamma   34.49509064
_symmetry_Int_Tables_number   1
_chemical_formula_structural   Li2CuSnO4
_chemical_formula_sum   'Li2 Cu1 Sn1 O4'
_cell_volume   82.65799536
_cell_formula_units_Z   1
loop_
 _symmetry_equiv_pos_site_id
 _symmetry_equiv_pos_as_xyz
  1  'x, y, z'
loop_
 _atom_site_type_symbol
 _atom_site_label
 _atom_site_symmetry_multiplicity
 _atom_site_fract_x
 _atom_site_fract_y
 _atom_site_fract_z
 _atom_site_occupancy
  Li  Li0  1  0.000000  0.000000  0.000000  1
  Li  Li1  1  0.000000  0.500000  0.000000  1
  Cu  Cu2  1  0.500000  0.000000  0.500000  1
  Sn  Sn3  1  0.500000  0.500000  0.500000  1
  O  O4  1  0.322143  1.000000  0.221005  1
  O  O5  1  0.211029  0.500000  0.245751  1
  O  O6  1  0.677857  0.000000  0.778995  1
  O  O7  1  0.788971  0.500000  0.754249  1
