# generated using pymatgen
data_FeOF
_symmetry_space_group_name_H-M   'P 1'
_cell_length_a   9.46062464
_cell_length_b   14.24690626
_cell_length_c   3.11190349
_cell_angle_alpha   90.00000000
_cell_angle_beta   90.00000000
_cell_angle_gamma   90.05095362
_symmetry_Int_Tables_number   1
_chemical_formula_structural   FeOF
_chemical_formula_sum   'Fe12 O12 F12'
_cell_volume   419.43660204
_cell_formula_units_Z   12
loop_
 _symmetry_equiv_pos_site_id
 _symmetry_equiv_pos_as_xyz
  1  'x, y, z'
loop_
 _atom_site_type_symbol
 _atom_site_label
 _atom_site_symmetry_multiplicity
 _atom_site_fract_x
 _atom_site_fract_y
 _atom_site_fract_z
 _atom_site_occupancy
  Fe  Fe0  1  0.018965  0.998245  0.000000  1
  Fe  Fe1  1  0.012612  0.328594  0.000000  1
  Fe  Fe2  1  0.018926  0.661507  0.000000  1
  Fe  Fe3  1  0.227503  0.166876  0.500000  1
  Fe  Fe4  1  0.228110  0.493849  0.500000  1
  Fe  Fe5  1  0.227141  0.829639  0.500000  1
  Fe  Fe6  1  0.519481  0.329857  0.000000  1
  Fe  Fe7  1  0.515358  0.995649  0.000000  1
  Fe  Fe8  1  0.516148  0.662164  0.000000  1
  Fe  Fe9  1  0.761953  0.185505  0.500000  1
  Fe  Fe10  1  0.729676  0.496944  0.500000  1
  Fe  Fe11  1  0.730638  0.829165  0.500000  1
  O  O12  1  0.100227  0.270554  0.500000  1
  O  O13  1  0.095660  0.600306  0.500000  1
  O  O14  1  0.097061  0.935329  0.500000  1
  O  O15  1  0.152437  0.101848  0.000000  1
  O  O16  1  0.151544  0.767897  0.000000  1
  O  O17  1  0.151213  0.433499  0.000000  1
  O  O18  1  0.595414  0.266036  0.500000  1
  O  O19  1  0.600155  0.939098  0.500000  1
  O  O20  1  0.595160  0.601647  0.500000  1
  O  O21  1  0.651287  0.434941  0.000000  1
  O  O22  1  0.649174  0.769041  0.000000  1
  O  O23  1  0.852850  0.235591  0.000000  1
  F  F24  1  0.347792  0.232851  0.000000  1
  F  F25  1  0.346918  0.564682  0.000000  1
  F  F26  1  0.349760  0.900650  0.000000  1
  F  F27  1  0.407972  0.067529  0.500000  1
  F  F28  1  0.401875  0.397805  0.500000  1
  F  F29  1  0.399558  0.732585  0.500000  1
  F  F30  1  0.655565  0.103591  0.000000  1
  F  F31  1  0.846994  0.898284  0.000000  1
  F  F32  1  0.845738  0.567557  0.000000  1
  F  F33  1  0.897139  0.063308  0.500000  1
  F  F34  1  0.901227  0.404648  0.500000  1
  F  F35  1  0.900765  0.732729  0.500000  1
