# generated using pymatgen
data_Te(S2O7)2
_symmetry_space_group_name_H-M   'P 1'
_cell_length_a   6.98584058
_cell_length_b   6.97127295
_cell_length_c   12.32789999
_cell_angle_alpha   80.18960914
_cell_angle_beta   99.95744739
_cell_angle_gamma   102.65837429
_symmetry_Int_Tables_number   1
_chemical_formula_structural   Te(S2O7)2
_chemical_formula_sum   'Te2 S8 O28'
_cell_volume   571.44470560
_cell_formula_units_Z   2
loop_
 _symmetry_equiv_pos_site_id
 _symmetry_equiv_pos_as_xyz
  1  'x, y, z'
loop_
 _atom_site_type_symbol
 _atom_site_label
 _atom_site_symmetry_multiplicity
 _atom_site_fract_x
 _atom_site_fract_y
 _atom_site_fract_z
 _atom_site_occupancy
  Te  Te0  1  0.062002  0.066706  0.749700  1
  Te  Te1  1  0.935797  0.937218  0.250155  1
  S  S2  1  0.075400  0.458601  0.858732  1
  S  S3  1  0.543001  0.927302  0.357937  1
  S  S4  1  0.310641  0.189911  0.998194  1
  S  S5  1  0.192580  0.308174  0.507568  1
  S  S6  1  0.809329  0.690184  0.497766  1
  S  S7  1  0.691225  0.807281  0.006838  1
  S  S8  1  0.510240  0.225068  0.681049  1
  S  S9  1  0.941310  0.547674  0.147182  1
  O  O10  1  0.111575  0.666567  0.818469  1
  O  O11  1  0.335112  0.889177  0.318756  1
  O  O12  1  0.070881  0.353729  0.751484  1
  O  O13  1  0.281491  0.418792  0.929378  1
  O  O14  1  0.123145  0.650996  0.110394  1
  O  O15  1  0.735007  0.852711  0.895183  1
  O  O16  1  0.224829  0.506023  0.532233  1
  O  O17  1  0.648423  0.931292  0.251445  1
  O  O18  1  0.049717  0.158572  0.579286  1
  O  O19  1  0.582356  0.719693  0.429099  1
  O  O20  1  0.163148  0.052871  0.923281  1
  O  O21  1  0.148989  0.264830  0.395779  1
  O  O22  1  0.494458  0.776742  0.031355  1
  O  O23  1  0.833416  0.762445  0.602098  1
  O  O24  1  0.540807  0.418314  0.712068  1
  O  O25  1  0.513723  0.197026  0.992347  1
  O  O26  1  0.844279  0.946362  0.079452  1
  O  O27  1  0.348767  0.073503  0.746764  1
  O  O28  1  0.403568  0.221425  0.553568  1
  O  O29  1  0.947815  0.834146  0.422170  1
  O  O30  1  0.242133  0.170126  0.103240  1
  O  O31  1  0.800379  0.485470  0.493435  1
  O  O32  1  0.912170  0.363812  0.915943  1
  O  O33  1  0.901561  0.645018  0.248498  1
  O  O34  1  0.754376  0.582478  0.056133  1
  O  O35  1  0.668547  0.121638  0.688473  1
  O  O36  1  0.637421  0.090194  0.416140  1
  O  O37  1  0.902646  0.338097  0.182516  1
