# generated using pymatgen
data_Sr10P6ClO24F
_symmetry_space_group_name_H-M   'P 1'
_cell_length_a   9.94787620
_cell_length_b   19.89409700
_cell_length_c   7.29130209
_cell_angle_alpha   90.00000000
_cell_angle_beta   90.00000000
_cell_angle_gamma   120.00135428
_symmetry_Int_Tables_number   1
_chemical_formula_structural   Sr10P6ClO24F
_chemical_formula_sum   'Sr20 P12 Cl2 O48 F2'
_cell_volume   1249.63850905
_cell_formula_units_Z   2
loop_
 _symmetry_equiv_pos_site_id
 _symmetry_equiv_pos_as_xyz
  1  'x, y, z'
loop_
 _atom_site_type_symbol
 _atom_site_label
 _atom_site_symmetry_multiplicity
 _atom_site_fract_x
 _atom_site_fract_y
 _atom_site_fract_z
 _atom_site_occupancy
  Sr  Sr0  1  0.249879  0.996657  0.245395  1
  Sr  Sr1  1  0.007793  0.624583  0.250897  1
  Sr  Sr2  1  0.334217  0.833168  -0.000006  1
  Sr  Sr3  1  0.333642  0.832853  0.498489  1
  Sr  Sr4  1  0.249748  0.620524  0.750912  1
  Sr  Sr5  1  0.243694  0.496275  0.251182  1
  Sr  Sr6  1  0.741590  0.873397  0.245910  1
  Sr  Sr7  1  0.006228  0.129519  0.245958  1
  Sr  Sr8  1  0.667527  0.666456  0.500581  1
  Sr  Sr9  1  0.666941  0.666148  0.998789  1
  Sr  Sr10  1  0.332473  0.333544  0.000581  1
  Sr  Sr11  1  0.333059  0.333852  0.498789  1
  Sr  Sr12  1  0.993772  0.870481  0.745958  1
  Sr  Sr13  1  0.258410  0.126603  0.745910  1
  Sr  Sr14  1  0.756306  0.503725  0.751182  1
  Sr  Sr15  1  0.750252  0.379476  0.250912  1
  Sr  Sr16  1  0.665783  0.166832  0.499994  1
  Sr  Sr17  1  0.666358  0.167147  0.998489  1
  Sr  Sr18  1  0.992207  0.375417  0.750897  1
  Sr  Sr19  1  0.750121  0.003343  0.745395  1
  P  P20  1  0.029651  0.698688  0.750972  1
  P  P21  1  0.372085  0.983901  0.749928  1
  P  P22  1  0.397655  0.683865  0.250952  1
  P  P23  1  0.594681  0.813141  0.750053  1
  P  P24  1  0.031934  0.202822  0.750033  1
  P  P25  1  0.369224  0.485323  0.751030  1
  P  P26  1  0.630776  0.514677  0.251030  1
  P  P27  1  0.968066  0.797178  0.250033  1
  P  P28  1  0.405319  0.186859  0.250053  1
  P  P29  1  0.602345  0.316135  0.750952  1
  P  P30  1  0.627915  0.016099  0.249928  1
  P  P31  1  0.970349  0.301312  0.250972  1
  Cl  Cl32  1  0.999639  0.000026  0.473692  1
  Cl  Cl33  1  0.000361  0.999974  0.973692  1
  O  O34  1  0.268739  0.955493  0.924432  1
  O  O35  1  0.264837  0.957796  0.578402  1
  O  O36  1  0.147929  0.833421  0.251373  1
  O  O37  1  0.119828  0.789648  0.748617  1
  O  O38  1  0.079262  0.670079  0.579001  1
  O  O39  1  0.081410  0.672128  0.924419  1
  O  O40  1  0.466582  0.940332  0.745783  1
  O  O41  1  0.331959  0.740443  0.251026  1
  O  O42  1  0.519179  0.926244  0.251411  1
  O  O43  1  0.413199  0.765669  0.746026  1
  O  O44  1  0.340523  0.630252  0.079241  1
  O  O45  1  0.344539  0.631306  0.424261  1
  O  O46  1  0.641580  0.864870  0.924829  1
  O  O47  1  0.649955  0.866814  0.578322  1
  O  O48  1  0.263961  0.459393  0.924553  1
  O  O49  1  0.261837  0.460364  0.579186  1
  O  O50  1  0.149285  0.334134  0.251232  1
  O  O51  1  0.118525  0.293540  0.746047  1
  O  O52  1  0.579509  0.729649  0.248664  1
  O  O53  1  0.084500  0.175221  0.578587  1
  O  O54  1  0.088794  0.179370  0.924605  1
  O  O55  1  0.481230  0.574900  0.751154  1
  O  O56  1  0.667076  0.759361  0.751550  1
  O  O57  1  0.538790  0.559529  0.248829  1
  O  O58  1  0.461210  0.440471  0.748829  1
  O  O59  1  0.332924  0.240639  0.251550  1
  O  O60  1  0.518770  0.425100  0.251154  1
  O  O61  1  0.915500  0.824779  0.078587  1
  O  O62  1  0.911206  0.820630  0.424605  1
  O  O63  1  0.420491  0.270351  0.748664  1
  O  O64  1  0.881475  0.706460  0.246047  1
  O  O65  1  0.850715  0.665866  0.751232  1
  O  O66  1  0.736039  0.540607  0.424553  1
  O  O67  1  0.738163  0.539636  0.079186  1
  O  O68  1  0.358420  0.135130  0.424829  1
  O  O69  1  0.350045  0.133186  0.078322  1
  O  O70  1  0.659477  0.369748  0.579241  1
  O  O71  1  0.655461  0.368694  0.924261  1
  O  O72  1  0.586801  0.234331  0.246026  1
  O  O73  1  0.480821  0.073756  0.751411  1
  O  O74  1  0.668041  0.259557  0.751026  1
  O  O75  1  0.533418  0.059668  0.245783  1
  O  O76  1  0.920738  0.329921  0.079001  1
  O  O77  1  0.918590  0.327872  0.424419  1
  O  O78  1  0.880172  0.210352  0.248617  1
  O  O79  1  0.852071  0.166579  0.751373  1
  O  O80  1  0.731261  0.044507  0.424432  1
  O  O81  1  0.735163  0.042204  0.078402  1
  F  F82  1  0.000959  0.499941  0.276684  1
  F  F83  1  0.999041  0.500059  0.776684  1
