# generated using pymatgen
data_LiVF4
_symmetry_space_group_name_H-M   'P 1'
_cell_length_a   5.27096217
_cell_length_b   5.98515422
_cell_length_c   10.06427988
_cell_angle_alpha   90.00000000
_cell_angle_beta   83.65450678
_cell_angle_gamma   90.00000000
_symmetry_Int_Tables_number   1
_chemical_formula_structural   LiVF4
_chemical_formula_sum   'Li4 V4 F16'
_cell_volume   315.55790704
_cell_formula_units_Z   4
loop_
 _symmetry_equiv_pos_site_id
 _symmetry_equiv_pos_as_xyz
  1  'x, y, z'
loop_
 _atom_site_type_symbol
 _atom_site_label
 _atom_site_symmetry_multiplicity
 _atom_site_fract_x
 _atom_site_fract_y
 _atom_site_fract_z
 _atom_site_occupancy
  Li  Li0  1  0.162310  0.892682  0.216186  1
  Li  Li1  1  0.337690  0.392682  0.283814  1
  Li  Li2  1  0.662310  0.607318  0.716186  1
  Li  Li3  1  0.837690  0.107318  0.783814  1
  V  V4  1  0.258222  0.845551  0.504870  1
  V  V5  1  0.241778  0.345551  0.995130  1
  V  V6  1  0.758222  0.654449  0.004870  1
  V  V7  1  0.741778  0.154449  0.495130  1
  F  F8  1  0.082224  0.090764  0.389747  1
  F  F9  1  0.154411  0.649517  0.365246  1
  F  F10  1  0.118068  0.132155  0.883776  1
  F  F11  1  0.067515  0.582326  0.887692  1
  F  F12  1  0.345589  0.149517  0.134754  1
  F  F13  1  0.417776  0.590764  0.110253  1
  F  F14  1  0.432485  0.082326  0.612308  1
  F  F15  1  0.381932  0.632155  0.616224  1
  F  F16  1  0.618068  0.367845  0.383776  1
  F  F17  1  0.567515  0.917674  0.387692  1
  F  F18  1  0.582224  0.409236  0.889747  1
  F  F19  1  0.654411  0.850483  0.865246  1
  F  F20  1  0.932485  0.417674  0.112308  1
  F  F21  1  0.881932  0.867845  0.116224  1
  F  F22  1  0.845589  0.350483  0.634754  1
  F  F23  1  0.917776  0.909236  0.610253  1
