# generated using pymatgen
data_PuCoH24C4N6O13
_symmetry_space_group_name_H-M   'P 1'
_cell_length_a   8.27777336
_cell_length_b   8.55841990
_cell_length_c   14.60870246
_cell_angle_alpha   102.20258153
_cell_angle_beta   100.75694354
_cell_angle_gamma   107.32606496
_symmetry_Int_Tables_number   1
_chemical_formula_structural   PuCoH24C4N6O13
_chemical_formula_sum   'Pu2 Co2 H48 C8 N12 O26'
_cell_volume   930.47562516
_cell_formula_units_Z   2
loop_
 _symmetry_equiv_pos_site_id
 _symmetry_equiv_pos_as_xyz
  1  'x, y, z'
loop_
 _atom_site_type_symbol
 _atom_site_label
 _atom_site_symmetry_multiplicity
 _atom_site_fract_x
 _atom_site_fract_y
 _atom_site_fract_z
 _atom_site_occupancy
  Pu  Pu0  1  0.640233  0.487776  0.635487  1
  Pu  Pu1  1  0.359767  0.512224  0.364513  1
  Co  Co2  1  0.000000  0.000000  0.500000  1
  Co  Co3  1  0.500000  0.500000  0.000000  1
  H  H4  1  0.305019  0.925027  0.861900  1
  H  H5  1  0.694981  0.074973  0.138100  1
  H  H6  1  0.281719  0.947146  0.970744  1
  H  H7  1  0.718281  0.052854  0.029256  1
  H  H8  1  0.152905  0.763504  0.028287  1
  H  H9  1  0.847095  0.236496  0.971713  1
  H  H10  1  0.213880  0.933969  0.112327  1
  H  H11  1  0.786120  0.066031  0.887673  1
  H  H12  1  0.863906  0.865482  0.771121  1
  H  H13  1  0.136094  0.134518  0.228879  1
  H  H14  1  0.040348  0.968644  0.852554  1
  H  H15  1  0.959652  0.031356  0.147446  1
  H  H16  1  0.909139  0.707642  0.526605  1
  H  H17  1  0.090861  0.292358  0.473395  1
  H  H18  1  0.803256  0.693754  0.416309  1
  H  H19  1  0.196744  0.306246  0.583691  1
  H  H20  1  0.010252  0.703073  0.436621  1
  H  H21  1  0.989748  0.296927  0.563379  1
  H  H22  1  0.676811  0.925360  0.491201  1
  H  H23  1  0.323189  0.074640  0.508799  1
  H  H24  1  0.781624  0.908600  0.594374  1
  H  H25  1  0.218376  0.091400  0.405626  1
  H  H26  1  0.789916  0.101818  0.582206  1
  H  H27  1  0.210084  0.898182  0.417794  1
  H  H28  1  0.746687  0.891118  0.349889  1
  H  H29  1  0.253313  0.108882  0.650111  1
  H  H30  1  0.850687  0.091613  0.361136  1
  H  H31  1  0.149313  0.908387  0.638864  1
  H  H32  1  0.929716  0.942472  0.315295  1
  H  H33  1  0.070284  0.057528  0.684705  1
  H  H34  1  0.217161  0.389097  0.050396  1
  H  H35  1  0.782839  0.610903  0.949604  1
  H  H36  1  0.169168  0.386325  0.934190  1
  H  H37  1  0.830832  0.613675  0.065810  1
  H  H38  1  0.235594  0.235672  0.966603  1
  H  H39  1  0.764406  0.764328  0.033397  1
  H  H40  1  0.486424  0.780774  0.979467  1
  H  H41  1  0.513576  0.219226  0.020533  1
  H  H42  1  0.470074  0.659676  0.870824  1
  H  H43  1  0.529926  0.340324  0.129176  1
  H  H44  1  0.296879  0.627006  0.915823  1
  H  H45  1  0.703121  0.372994  0.084177  1
  H  H46  1  0.575161  0.406004  0.841065  1
  H  H47  1  0.424839  0.593996  0.158935  1
  H  H48  1  0.482835  0.235081  0.874070  1
  H  H49  1  0.517165  0.764919  0.125930  1
  H  H50  1  0.359631  0.334594  0.825022  1
  H  H51  1  0.640369  0.665406  0.174978  1
  C  C52  1  0.980710  0.402089  0.746167  1
  C  C53  1  0.019290  0.597911  0.253833  1
  C  C54  1  0.939065  0.513760  0.831171  1
  C  C55  1  0.060935  0.486240  0.168829  1
  C  C56  1  0.406977  0.728203  0.707001  1
  C  C57  1  0.593023  0.271797  0.292999  1
  C  C58  1  0.368482  0.702165  0.595117  1
  C  C59  1  0.631518  0.297835  0.404883  1
  N  N60  1  0.923522  0.748107  0.466220  1
  N  N61  1  0.076478  0.251893  0.533780  1
  N  N62  1  0.788541  0.983393  0.547754  1
  N  N63  1  0.211459  0.016607  0.452246  1
  N  N64  1  0.870441  0.980765  0.367140  1
  N  N65  1  0.129559  0.019235  0.632860  1
  N  N66  1  0.253229  0.363198  0.986604  1
  N  N67  1  0.746771  0.636802  0.013396  1
  N  N68  1  0.431386  0.658411  0.934163  1
  N  N69  1  0.568614  0.341589  0.065837  1
  N  N70  1  0.477455  0.352010  0.871127  1
  N  N71  1  0.522545  0.647990  0.128873  1
  O  O72  1  0.468869  0.287990  0.630711  1
  O  O73  1  0.531131  0.712010  0.369289  1
  O  O74  1  0.808648  0.691922  0.642102  1
  O  O75  1  0.191352  0.308078  0.357898  1
  O  O76  1  0.869697  0.362408  0.662801  1
  O  O77  1  0.130303  0.637592  0.337199  1
  O  O78  1  0.791548  0.536696  0.811072  1
  O  O79  1  0.208452  0.463304  0.188928  1
  O  O80  1  0.111298  0.358058  0.763049  1
  O  O81  1  0.888702  0.641942  0.236951  1
  O  O82  1  0.048651  0.571493  0.912940  1
  O  O83  1  0.951349  0.428507  0.087060  1
  O  O84  1  0.509267  0.654960  0.741504  1
  O  O85  1  0.490733  0.345040  0.258496  1
  O  O86  1  0.420469  0.587156  0.548597  1
  O  O87  1  0.579531  0.412844  0.451403  1
  O  O88  1  0.335210  0.815094  0.752955  1
  O  O89  1  0.664790  0.184906  0.247045  1
  O  O90  1  0.292662  0.785180  0.556148  1
  O  O91  1  0.707338  0.214820  0.443852  1
  O  O92  1  0.280716  -0.000369  0.915589  1
  O  O93  1  0.719284  0.000369  0.084411  1
  O  O94  1  0.256915  0.863778  0.066671  1
  O  O95  1  0.743085  0.136222  0.933329  1
  O  O96  1  0.927794  0.976041  0.820195  1
  O  O97  1  0.072206  0.023959  0.179805  1
