# generated using pymatgen
data_Tm(ClO4)3
_symmetry_space_group_name_H-M   'P 1'
_cell_length_a   9.22390280
_cell_length_b   9.22394479
_cell_length_c   5.67582948
_cell_angle_alpha   90.00000000
_cell_angle_beta   90.00000000
_cell_angle_gamma   119.99993366
_symmetry_Int_Tables_number   1
_chemical_formula_structural   Tm(ClO4)3
_chemical_formula_sum   'Tm2 Cl6 O24'
_cell_volume   418.20736220
_cell_formula_units_Z   2
loop_
 _symmetry_equiv_pos_site_id
 _symmetry_equiv_pos_as_xyz
  1  'x, y, z'
loop_
 _atom_site_type_symbol
 _atom_site_label
 _atom_site_symmetry_multiplicity
 _atom_site_fract_x
 _atom_site_fract_y
 _atom_site_fract_z
 _atom_site_occupancy
  Tm  Tm0  1  0.333394  0.666695  0.750000  1
  Tm  Tm1  1  0.666704  0.333308  0.250000  1
  Cl  Cl2  1  0.090758  0.707519  0.250000  1
  Cl  Cl3  1  0.292489  0.383244  0.250000  1
  Cl  Cl4  1  0.616766  0.909247  0.250000  1
  Cl  Cl5  1  0.383241  0.090757  0.750000  1
  Cl  Cl6  1  0.707519  0.616758  0.750000  1
  Cl  Cl7  1  0.909249  0.292488  0.750000  1
  O  O8  1  0.020045  0.812895  0.250000  1
  O  O9  1  0.035978  0.471222  0.750000  1
  O  O10  1  0.198267  0.741502  0.041914  1
  O  O11  1  0.198267  0.741502  0.458086  1
  O  O12  1  0.435247  0.964019  0.750000  1
  O  O13  1  0.258496  0.456771  0.458085  1
  O  O14  1  0.258496  0.456771  0.041915  1
  O  O15  1  0.187099  0.207154  0.250000  1
  O  O16  1  0.543239  0.801732  0.041920  1
  O  O17  1  0.543239  0.801732  0.458080  1
  O  O18  1  0.207151  0.020049  0.750000  1
  O  O19  1  0.471225  0.435243  0.250000  1
  O  O20  1  0.528776  0.564760  0.750000  1
  O  O21  1  0.792854  0.979954  0.250000  1
  O  O22  1  0.456768  0.198268  0.541914  1
  O  O23  1  0.456768  0.198268  0.958086  1
  O  O24  1  0.812896  0.792848  0.750000  1
  O  O25  1  0.741501  0.543232  0.958084  1
  O  O26  1  0.741501  0.543232  0.541916  1
  O  O27  1  0.564753  0.035976  0.250000  1
  O  O28  1  0.801723  0.258489  0.958079  1
  O  O29  1  0.801723  0.258489  0.541921  1
  O  O30  1  0.964019  0.528776  0.250000  1
  O  O31  1  0.979945  0.187098  0.750000  1
