# generated using pymatgen
data_Mn2P4O13
_symmetry_space_group_name_H-M   'P 1'
_cell_length_a   6.20440040
_cell_length_b   7.04551509
_cell_length_c   14.37349529
_cell_angle_alpha   67.98791145
_cell_angle_beta   90.00000000
_cell_angle_gamma   63.87643804
_symmetry_Int_Tables_number   1
_chemical_formula_structural   Mn2P4O13
_chemical_formula_sum   'Mn4 P8 O26'
_cell_volume   512.62349785
_cell_formula_units_Z   2
loop_
 _symmetry_equiv_pos_site_id
 _symmetry_equiv_pos_as_xyz
  1  'x, y, z'
loop_
 _atom_site_type_symbol
 _atom_site_label
 _atom_site_symmetry_multiplicity
 _atom_site_fract_x
 _atom_site_fract_y
 _atom_site_fract_z
 _atom_site_occupancy
  Mn  Mn0  1  0.305732  0.445055  0.894192  1
  Mn  Mn1  1  0.750787  0.554945  0.605808  1
  Mn  Mn2  1  0.249213  0.445055  0.394192  1
  Mn  Mn3  1  0.694268  0.554945  0.105808  1
  P  P4  1  0.191542  0.952983  0.861810  1
  P  P5  1  0.855475  0.952983  0.361810  1
  P  P6  1  0.816710  0.425313  0.842858  1
  P  P7  1  0.242023  0.574687  0.657142  1
  P  P8  1  0.757977  0.425313  0.342858  1
  P  P9  1  0.183290  0.574687  0.157142  1
  P  P10  1  0.144525  0.047017  0.638190  1
  P  P11  1  0.808458  0.047017  0.138190  1
  O  O12  1  0.380307  0.935847  0.932838  1
  O  O13  1  0.122745  0.759028  0.889438  1
  O  O14  1  0.683844  0.935847  0.432838  1
  O  O15  1  0.099916  0.824917  0.659882  1
  O  O16  1  0.009573  0.429199  0.906786  1
  O  O17  1  0.603376  0.458596  0.899676  1
  O  O18  1  0.731437  0.604682  0.731636  1
  O  O19  1  0.118227  0.759028  0.389438  1
  O  O20  1  0.075166  0.824917  0.159882  1
  O  O21  1  0.336120  0.395318  0.768364  1
  O  O22  1  0.061972  0.541404  0.600324  1
  O  O23  1  0.438773  0.570801  0.593214  1
  O  O24  1  0.561227  0.429199  0.406786  1
  O  O25  1  0.938028  0.458596  0.399676  1
  O  O26  1  0.663880  0.604682  0.231636  1
  O  O27  1  0.924834  0.175084  0.840118  1
  O  O28  1  0.881773  0.240972  0.610562  1
  O  O29  1  0.268563  0.395318  0.268364  1
  O  O30  1  0.396624  0.541404  0.100324  1
  O  O31  1  0.990427  0.570801  0.093214  1
  O  O32  1  0.262922  0.000000  0.750000  1
  O  O33  1  0.900084  0.175084  0.340118  1
  O  O34  1  0.316156  0.064153  0.567162  1
  O  O35  1  0.877255  0.240972  0.110562  1
  O  O36  1  0.737078  0.000000  0.250000  1
  O  O37  1  0.619693  0.064153  0.067162  1
