# generated using pymatgen
data_Ti3Mn2Sn(PO4)6
_symmetry_space_group_name_H-M   'P 1'
_cell_length_a   8.70212027
_cell_length_b   8.70212039
_cell_length_c   8.70212062
_cell_angle_alpha   60.27583120
_cell_angle_beta   60.27583299
_cell_angle_gamma   60.27583055
_symmetry_Int_Tables_number   1
_chemical_formula_structural   Ti3Mn2Sn(PO4)6
_chemical_formula_sum   'Ti3 Mn2 Sn1 P6 O24'
_cell_volume   468.88146538
_cell_formula_units_Z   1
loop_
 _symmetry_equiv_pos_site_id
 _symmetry_equiv_pos_as_xyz
  1  'x, y, z'
loop_
 _atom_site_type_symbol
 _atom_site_label
 _atom_site_symmetry_multiplicity
 _atom_site_fract_x
 _atom_site_fract_y
 _atom_site_fract_z
 _atom_site_occupancy
  Ti  Ti0  1  0.144842  0.144842  0.144842  1
  Ti  Ti1  1  0.354917  0.354917  0.354917  1
  Ti  Ti2  1  0.643364  0.643364  0.643364  1
  Mn  Mn3  1  0.004900  0.004900  0.004900  1
  Mn  Mn4  1  0.499968  0.499968  0.499968  1
  Sn  Sn5  1  0.855266  0.855266  0.855266  1
  P  P6  1  0.747411  0.454298  0.044845  1
  P  P7  1  0.250859  0.541454  0.957350  1
  P  P8  1  0.541454  0.957350  0.250859  1
  P  P9  1  0.957350  0.250859  0.541454  1
  P  P10  1  0.044845  0.747411  0.454298  1
  P  P11  1  0.454298  0.044845  0.747411  1
  O  O12  1  0.116188  0.309928  0.502307  1
  O  O13  1  0.309928  0.502307  0.116188  1
  O  O14  1  0.060239  0.911704  0.263948  1
  O  O15  1  0.502307  0.116188  0.309928  1
  O  O16  1  0.015435  0.806709  0.609448  1
  O  O17  1  0.236909  0.585934  0.436430  1
  O  O18  1  0.263948  0.060239  0.911704  1
  O  O19  1  0.436430  0.236909  0.585934  1
  O  O20  1  0.187219  0.385625  0.997294  1
  O  O21  1  0.585934  0.436430  0.236909  1
  O  O22  1  0.088331  0.736820  0.943221  1
  O  O23  1  0.385625  0.997294  0.187219  1
  O  O24  1  0.609448  0.015435  0.806709  1
  O  O25  1  0.911704  0.263948  0.060239  1
  O  O26  1  0.411241  0.559157  0.764918  1
  O  O27  1  0.806709  0.609448  0.015435  1
  O  O28  1  0.559157  0.764918  0.411241  1
  O  O29  1  0.736820  0.943221  0.088331  1
  O  O30  1  0.764918  0.411241  0.559157  1
  O  O31  1  0.997294  0.187219  0.385625  1
  O  O32  1  0.497831  0.883823  0.689868  1
  O  O33  1  0.943221  0.088331  0.736820  1
  O  O34  1  0.689868  0.497831  0.883823  1
  O  O35  1  0.883823  0.689868  0.497831  1
