# generated using pymatgen
data_V4O5F7
_symmetry_space_group_name_H-M   'P 1'
_cell_length_a   5.31613209
_cell_length_b   5.33823871
_cell_length_c   8.90390599
_cell_angle_alpha   75.33891788
_cell_angle_beta   90.00000000
_cell_angle_gamma   60.13689496
_symmetry_Int_Tables_number   1
_chemical_formula_structural   V4O5F7
_chemical_formula_sum   'V4 O5 F7'
_cell_volume   209.58997774
_cell_formula_units_Z   1
loop_
 _symmetry_equiv_pos_site_id
 _symmetry_equiv_pos_as_xyz
  1  'x, y, z'
loop_
 _atom_site_type_symbol
 _atom_site_label
 _atom_site_symmetry_multiplicity
 _atom_site_fract_x
 _atom_site_fract_y
 _atom_site_fract_z
 _atom_site_occupancy
  V  V0  1  0.733832  0.513468  0.250485  1
  V  V1  1  0.497298  0.986532  0.499515  1
  V  V2  1  0.290070  0.502877  0.737034  1
  V  V3  1  0.042947  0.997123  0.012966  1
  O  O4  1  0.952982  0.239807  0.122496  1
  O  O5  1  0.556896  0.750000  0.375000  1
  O  O6  1  0.403622  0.756535  0.078284  1
  O  O7  1  0.410156  0.743465  0.671716  1
  O  O8  1  0.442789  0.260193  0.627504  1
  F  F9  1  0.925334  0.747091  0.590734  1
  F  F10  1  0.922424  0.752909  0.159266  1
  F  F11  1  0.573557  0.251690  0.329648  1
  F  F12  1  0.567714  0.252219  0.918169  1
  F  F13  1  0.035198  0.750000  0.875000  1
  F  F14  1  0.069933  0.247781  0.831831  1
  F  F15  1  0.075247  0.248310  0.420352  1
