# generated using pymatgen
data_Li2TiNi2O5
_symmetry_space_group_name_H-M   'P 1'
_cell_length_a   5.18299809
_cell_length_b   7.72001944
_cell_length_c   5.15154443
_cell_angle_alpha   70.50908336
_cell_angle_beta   111.23645984
_cell_angle_gamma   96.94204042
_symmetry_Int_Tables_number   1
_chemical_formula_structural   Li2TiNi2O5
_chemical_formula_sum   'Li4 Ti2 Ni4 O10'
_cell_volume   181.12037001
_cell_formula_units_Z   2
loop_
 _symmetry_equiv_pos_site_id
 _symmetry_equiv_pos_as_xyz
  1  'x, y, z'
loop_
 _atom_site_type_symbol
 _atom_site_label
 _atom_site_symmetry_multiplicity
 _atom_site_fract_x
 _atom_site_fract_y
 _atom_site_fract_z
 _atom_site_occupancy
  Li  Li0  1  0.500043  0.603035  0.698493  1
  Li  Li1  1  0.000006  0.403499  0.798252  1
  Li  Li2  1  0.500010  0.794976  0.102510  1
  Li  Li3  1  0.000004  0.199571  0.400205  1
  Ti  Ti4  1  0.500001  0.199593  0.900203  1
  Ti  Ti5  1  0.000024  0.598094  0.200979  1
  Ni  Ni6  1  0.000037  0.800001  0.600049  1
  Ni  Ni7  1  0.500011  0.403106  0.298397  1
  Ni  Ni8  1  0.499967  0.992234  0.503841  1
  Ni  Ni9  1  0.999977  0.001990  0.998960  1
  O  O10  1  0.764859  0.793973  0.854536  1
  O  O11  1  0.226524  0.599878  0.972463  1
  O  O12  1  0.728391  0.197017  0.665965  1
  O  O13  1  0.773471  0.599859  0.427692  1
  O  O14  1  0.235133  0.793985  0.351519  1
  O  O15  1  0.258558  0.010826  0.753476  1
  O  O16  1  0.255819  0.400270  0.548240  1
  O  O17  1  0.741441  0.010817  0.235733  1
  O  O18  1  0.744177  0.400250  0.051507  1
  O  O19  1  0.271549  0.197024  0.136981  1
