# generated using pymatgen
data_Sr18Ni13O42
_symmetry_space_group_name_H-M   'P 1'
_cell_length_a   13.24127075
_cell_length_b   13.24127022
_cell_length_c   13.24127029
_cell_angle_alpha   41.93527215
_cell_angle_beta   41.93527471
_cell_angle_gamma   41.93527304
_symmetry_Int_Tables_number   1
_chemical_formula_structural   Sr18Ni13O42
_chemical_formula_sum   'Sr18 Ni13 O42'
_cell_volume   937.79059634
_cell_formula_units_Z   1
loop_
 _symmetry_equiv_pos_site_id
 _symmetry_equiv_pos_as_xyz
  1  'x, y, z'
loop_
 _atom_site_type_symbol
 _atom_site_label
 _atom_site_symmetry_multiplicity
 _atom_site_fract_x
 _atom_site_fract_y
 _atom_site_fract_z
 _atom_site_occupancy
  Sr  Sr0  1  0.004249  0.721268  0.362099  1
  Sr  Sr1  1  0.362099  0.004249  0.721268  1
  Sr  Sr2  1  0.082596  0.411649  0.758214  1
  Sr  Sr3  1  0.721268  0.362099  0.004249  1
  Sr  Sr4  1  0.411649  0.758214  0.082596  1
  Sr  Sr5  1  0.134465  0.794365  0.489690  1
  Sr  Sr6  1  0.758214  0.082596  0.411649  1
  Sr  Sr7  1  0.489690  0.134465  0.794365  1
  Sr  Sr8  1  0.212221  0.495965  0.873109  1
  Sr  Sr9  1  0.794365  0.489690  0.134465  1
  Sr  Sr10  1  0.495965  0.873109  0.212221  1
  Sr  Sr11  1  0.248525  0.920786  0.578236  1
  Sr  Sr12  1  0.873109  0.212221  0.495965  1
  Sr  Sr13  1  0.578236  0.248525  0.920786  1
  Sr  Sr14  1  0.284151  0.635550  0.997275  1
  Sr  Sr15  1  0.920786  0.578236  0.248525  1
  Sr  Sr16  1  0.635550  0.997275  0.284151  1
  Sr  Sr17  1  0.997275  0.284151  0.635550  1
  Ni  Ni18  1  0.999337  0.999337  0.999337  1
  Ni  Ni19  1  0.068113  0.068113  0.068113  1
  Ni  Ni20  1  0.216085  0.216085  0.216085  1
  Ni  Ni21  1  0.285146  0.285146  0.285146  1
  Ni  Ni22  1  0.357715  0.357715  0.357715  1
  Ni  Ni23  1  0.431297  0.431297  0.431297  1
  Ni  Ni24  1  0.500016  0.500016  0.500016  1
  Ni  Ni25  1  0.568721  0.568721  0.568721  1
  Ni  Ni26  1  0.642029  0.642029  0.642029  1
  Ni  Ni27  1  0.715371  0.715371  0.715371  1
  Ni  Ni28  1  0.784597  0.784597  0.784597  1
  Ni  Ni29  1  0.858054  0.858054  0.858054  1
  Ni  Ni30  1  0.931031  0.931031  0.931031  1
  O  O31  1  0.022368  0.366512  0.181427  1
  O  O32  1  0.181427  0.022368  0.366512  1
  O  O33  1  0.366512  0.181427  0.022368  1
  O  O34  1  0.099534  0.251165  0.403188  1
  O  O35  1  0.251165  0.403188  0.099534  1
  O  O36  1  0.403188  0.099534  0.251165  1
  O  O37  1  0.154063  0.470020  0.324804  1
  O  O38  1  0.324804  0.154063  0.470020  1
  O  O39  1  0.470020  0.324804  0.154063  1
  O  O40  1  0.041297  0.181215  0.871358  1
  O  O41  1  0.181215  0.871358  0.041297  1
  O  O42  1  0.248530  0.550731  0.400588  1
  O  O43  1  0.400588  0.248530  0.550731  1
  O  O44  1  0.090514  0.930620  0.260459  1
  O  O45  1  0.550731  0.400588  0.248530  1
  O  O46  1  0.260459  0.090514  0.930620  1
  O  O47  1  0.871358  0.041297  0.181215  1
  O  O48  1  0.317744  0.459040  0.624206  1
  O  O49  1  0.459040  0.624206  0.317744  1
  O  O50  1  0.624206  0.317744  0.459040  1
  O  O51  1  0.930620  0.260459  0.090514  1
  O  O52  1  0.053192  0.747323  0.899674  1
  O  O53  1  0.376700  0.679728  0.542225  1
  O  O54  1  0.542225  0.376700  0.679728  1
  O  O55  1  0.679728  0.542225  0.376700  1
  O  O56  1  0.124178  0.958082  0.817777  1
  O  O57  1  0.747323  0.899674  0.053192  1
  O  O58  1  0.448760  0.598337  0.752957  1
  O  O59  1  0.899674  0.053192  0.747323  1
  O  O60  1  0.598337  0.752957  0.448760  1
  O  O61  1  0.752957  0.448760  0.598337  1
  O  O62  1  0.817777  0.124178  0.958082  1
  O  O63  1  0.958082  0.817777  0.124178  1
  O  O64  1  0.531091  0.675654  0.845584  1
  O  O65  1  0.675654  0.845584  0.531091  1
  O  O66  1  0.845584  0.531091  0.675654  1
  O  O67  1  0.600298  0.900731  0.749355  1
  O  O68  1  0.749355  0.600298  0.900731  1
  O  O69  1  0.900731  0.749355  0.600298  1
  O  O70  1  0.653831  0.823280  0.969933  1
  O  O71  1  0.823280  0.969933  0.653831  1
  O  O72  1  0.969933  0.653831  0.823280  1
