# generated using pymatgen
data_BaCaI4
_symmetry_space_group_name_H-M   'P 1'
_cell_length_a   8.91343011
_cell_length_b   9.22187139
_cell_length_c   9.22187139
_cell_angle_alpha   110.41339616
_cell_angle_beta   66.73703348
_cell_angle_gamma   66.73703348
_symmetry_Int_Tables_number   1
_chemical_formula_structural   BaCaI4
_chemical_formula_sum   'Ba2 Ca2 I8'
_cell_volume   512.75000917
_cell_formula_units_Z   2
loop_
 _symmetry_equiv_pos_site_id
 _symmetry_equiv_pos_as_xyz
  1  'x, y, z'
loop_
 _atom_site_type_symbol
 _atom_site_label
 _atom_site_symmetry_multiplicity
 _atom_site_fract_x
 _atom_site_fract_y
 _atom_site_fract_z
 _atom_site_occupancy
  Ba  Ba0  1  0.250000  0.384578  0.115422  1
  Ba  Ba1  1  0.750000  0.615422  0.884578  1
  Ca  Ca2  1  0.750000  0.252399  0.247601  1
  Ca  Ca3  1  0.250000  0.747601  0.752399  1
  I  I4  1  0.218824  0.010342  0.133312  1
  I  I5  1  0.920549  0.795190  0.137742  1
  I  I6  1  0.281176  0.366688  0.489658  1
  I  I7  1  0.579451  0.362258  0.704810  1
  I  I8  1  0.420549  0.637742  0.295190  1
  I  I9  1  0.718824  0.633312  0.510342  1
  I  I10  1  0.079451  0.204810  0.862258  1
  I  I11  1  0.781176  0.989658  0.866688  1
