# generated using pymatgen
data_Li5Fe8(BO3)8
_symmetry_space_group_name_H-M   'P 1'
_cell_length_a   5.21751367
_cell_length_b   9.09128420
_cell_length_c   10.24685855
_cell_angle_alpha   91.06383422
_cell_angle_beta   90.34662086
_cell_angle_gamma   89.91033835
_symmetry_Int_Tables_number   1
_chemical_formula_structural   Li5Fe8(BO3)8
_chemical_formula_sum   'Li5 Fe8 B8 O24'
_cell_volume   485.95527417
_cell_formula_units_Z   1
loop_
 _symmetry_equiv_pos_site_id
 _symmetry_equiv_pos_as_xyz
  1  'x, y, z'
loop_
 _atom_site_type_symbol
 _atom_site_label
 _atom_site_symmetry_multiplicity
 _atom_site_fract_x
 _atom_site_fract_y
 _atom_site_fract_z
 _atom_site_occupancy
  Li  Li0  1  0.850162  0.829412  0.652252  1
  Li  Li1  1  0.674237  0.670261  0.408230  1
  Li  Li2  1  0.658961  0.680478  0.919539  1
  Li  Li3  1  0.341050  0.322249  0.666873  1
  Li  Li4  1  0.312906  0.328289  0.165647  1
  Fe  Fe5  1  0.852393  0.161349  0.627027  1
  Fe  Fe6  1  0.819538  0.508166  0.133659  1
  Fe  Fe7  1  0.673491  0.017417  0.876809  1
  Fe  Fe8  1  0.676617  0.330306  0.382568  1
  Fe  Fe9  1  0.334347  0.657216  0.633358  1
  Fe  Fe10  1  0.326427  0.988949  0.126589  1
  Fe  Fe11  1  0.163867  0.846004  0.379210  1
  Fe  Fe12  1  0.167382  0.492097  0.887015  1
  B  B13  1  0.836508  0.498386  0.620675  1
  B  B14  1  0.829848  0.167784  0.128774  1
  B  B15  1  0.655905  0.998371  0.376627  1
  B  B16  1  0.670317  0.339141  0.873016  1
  B  B17  1  0.338556  0.998232  0.634625  1
  B  B18  1  0.329046  0.666328  0.126138  1
  B  B19  1  0.178346  0.506003  0.376399  1
  B  B20  1  0.174325  0.832663  0.878067  1
  O  O21  1  0.909895  0.501129  0.354068  1
  O  O22  1  0.910893  0.847681  0.861641  1
  O  O23  1  0.809475  0.210999  0.841064  1
  O  O24  1  0.760390  0.130599  0.422479  1
  O  O25  1  0.781944  0.868659  0.396221  1
  O  O26  1  0.793077  0.466533  0.919481  1
  O  O27  1  0.718036  0.634297  0.615811  1
  O  O28  1  0.676734  0.057079  0.072849  1
  O  O29  1  0.697001  0.370949  0.582712  1
  O  O30  1  0.703070  0.292119  0.180208  1
  O  O31  1  0.589411  0.675063  0.114361  1
  O  O32  1  0.595529  0.988662  0.681445  1
  O  O33  1  0.414636  0.002490  0.316667  1
  O  O34  1  0.412825  0.336541  0.854622  1
  O  O35  1  0.300446  0.703205  0.844574  1
  O  O36  1  0.292566  0.636067  0.416411  1
  O  O37  1  0.323734  0.381538  0.356000  1
  O  O38  1  0.322555  0.949732  0.927358  1
  O  O39  1  0.203586  0.531885  0.102166  1
  O  O40  1  0.224330  0.131410  0.626974  1
  O  O41  1  0.211919  0.869821  0.595886  1
  O  O42  1  0.189397  0.793441  0.158305  1
  O  O43  1  0.090800  0.155679  0.131912  1
  O  O44  1  0.089465  0.484961  0.659650  1
