# generated using pymatgen
data_Li2Ti3VO8
_symmetry_space_group_name_H-M   'P 1'
_cell_length_a   5.98397022
_cell_length_b   5.98385065
_cell_length_c   6.07775330
_cell_angle_alpha   89.69365605
_cell_angle_beta   60.32039566
_cell_angle_gamma   59.84446987
_symmetry_Int_Tables_number   1
_chemical_formula_structural   Li2Ti3VO8
_chemical_formula_sum   'Li2 Ti3 V1 O8'
_cell_volume   154.66909745
_cell_formula_units_Z   1
loop_
 _symmetry_equiv_pos_site_id
 _symmetry_equiv_pos_as_xyz
  1  'x, y, z'
loop_
 _atom_site_type_symbol
 _atom_site_label
 _atom_site_symmetry_multiplicity
 _atom_site_fract_x
 _atom_site_fract_y
 _atom_site_fract_z
 _atom_site_occupancy
  Li  Li0  1  0.999998  0.500000  0.499998  1
  Li  Li1  1  0.499997  0.000000  0.499998  1
  Ti  Ti2  1  0.999999  0.499998  0.999997  1
  Ti  Ti3  1  0.499998  0.500003  0.999999  1
  Ti  Ti4  1  0.500006  0.000001  0.999999  1
  V  V5  1  0.000011  0.999994  0.000006  1
  O  O6  1  0.471637  0.263490  0.791720  1
  O  O7  1  0.497751  0.755399  0.783895  1
  O  O8  1  0.971401  0.281720  0.783917  1
  O  O9  1  0.959581  0.753014  0.793312  1
  O  O10  1  0.040418  0.246990  0.206690  1
  O  O11  1  0.028591  0.718278  0.216090  1
  O  O12  1  0.502254  0.244600  0.216101  1
  O  O13  1  0.528359  0.736514  0.208278  1
