# generated using pymatgen
data_Li5Ti2Co5O12
_symmetry_space_group_name_H-M   'P 1'
_cell_length_a   5.06034886
_cell_length_b   5.14093396
_cell_length_c   9.89252262
_cell_angle_alpha   84.78557868
_cell_angle_beta   78.89919561
_cell_angle_gamma   60.58054867
_symmetry_Int_Tables_number   1
_chemical_formula_structural   Li5Ti2Co5O12
_chemical_formula_sum   'Li5 Ti2 Co5 O12'
_cell_volume   219.97052164
_cell_formula_units_Z   1
loop_
 _symmetry_equiv_pos_site_id
 _symmetry_equiv_pos_as_xyz
  1  'x, y, z'
loop_
 _atom_site_type_symbol
 _atom_site_label
 _atom_site_symmetry_multiplicity
 _atom_site_fract_x
 _atom_site_fract_y
 _atom_site_fract_z
 _atom_site_occupancy
  Li  Li0  1  0.330339  0.843140  0.004875  1
  Li  Li1  1  0.825636  0.844894  0.494783  1
  Li  Li2  1  0.182022  0.135066  0.498225  1
  Li  Li3  1  0.917242  0.165965  0.250648  1
  Li  Li4  1  0.681005  0.137540  0.001551  1
  Ti  Ti5  1  0.252292  0.495157  0.249039  1
  Ti  Ti6  1  0.764963  0.486290  0.750222  1
  Co  Co7  1  0.086344  0.827145  0.749812  1
  Co  Co8  1  0.000912  0.491903  0.004652  1
  Co  Co9  1  0.509607  0.490365  0.495605  1
  Co  Co10  1  0.418767  0.159728  0.749631  1
  Co  Co11  1  0.582306  0.835872  0.250588  1
  O  O12  1  0.235124  0.809444  0.365081  1
  O  O13  1  0.477014  0.806916  0.633284  1
  O  O14  1  0.119433  0.486624  0.628479  1
  O  O15  1  0.605243  0.529957  0.138085  1
  O  O16  1  0.312504  0.168381  0.137255  1
  O  O17  1  0.956934  0.808569  0.135343  1
  O  O18  1  0.019675  0.183195  0.875274  1
  O  O19  1  0.385868  0.489814  0.869748  1
  O  O20  1  0.712347  0.808311  0.866388  1
  O  O21  1  0.865714  0.529980  0.361101  1
  O  O22  1  0.519439  0.171492  0.363510  1
  O  O23  1  0.796519  0.179831  0.626869  1
