# generated using pymatgen
data_Li2V3NiO8
_symmetry_space_group_name_H-M   'P 1'
_cell_length_a   5.86875012
_cell_length_b   5.86877805
_cell_length_c   9.73247873
_cell_angle_alpha   89.99948949
_cell_angle_beta   89.99955154
_cell_angle_gamma   119.99951127
_symmetry_Int_Tables_number   1
_chemical_formula_structural   Li2V3NiO8
_chemical_formula_sum   'Li4 V6 Ni2 O16'
_cell_volume   290.30167221
_cell_formula_units_Z   2
loop_
 _symmetry_equiv_pos_site_id
 _symmetry_equiv_pos_as_xyz
  1  'x, y, z'
loop_
 _atom_site_type_symbol
 _atom_site_label
 _atom_site_symmetry_multiplicity
 _atom_site_fract_x
 _atom_site_fract_y
 _atom_site_fract_z
 _atom_site_occupancy
  Li  Li0  1  0.333352  0.666698  0.895135  1
  Li  Li1  1  -0.000001  0.000026  0.996057  1
  Li  Li2  1  0.000006  0.000055  0.496044  1
  Li  Li3  1  0.666654  0.333316  0.395140  1
  V  V4  1  0.146383  0.807474  0.213544  1
  V  V5  1  0.192545  0.338927  0.213543  1
  V  V6  1  0.853665  0.661080  0.713538  1
  V  V7  1  0.661081  0.853607  0.213531  1
  V  V8  1  0.338910  0.192608  0.713546  1
  V  V9  1  0.807404  0.146329  0.713526  1
  Ni  Ni10  1  0.333386  0.666736  0.491760  1
  Ni  Ni11  1  0.666683  0.333307  0.991730  1
  O  O12  1  0.174954  0.854849  0.608007  1
  O  O13  1  0.035334  0.529564  0.331585  1
  O  O14  1  0.333339  0.666672  0.100120  1
  O  O15  1  0.999990  0.000005  0.311471  1
  O  O16  1  0.999981  0.999993  0.811465  1
  O  O17  1  0.145176  0.320147  0.608018  1
  O  O18  1  0.494204  0.964648  0.331583  1
  O  O19  1  0.470425  0.505769  0.331575  1
  O  O20  1  0.320134  0.145223  0.108019  1
  O  O21  1  0.679871  0.825080  0.608012  1
  O  O22  1  0.505787  0.470457  0.831567  1
  O  O23  1  0.529527  0.035356  0.831586  1
  O  O24  1  0.666668  0.333351  0.600120  1
  O  O25  1  0.825095  0.679884  0.108019  1
  O  O26  1  0.964668  0.494209  0.831580  1
  O  O27  1  0.854778  0.174930  0.108021  1
