# generated using pymatgen
data_CoH6C2S2N2O3
_symmetry_space_group_name_H-M   'P 1'
_cell_length_a   7.01356032
_cell_length_b   7.01356032
_cell_length_c   10.64672145
_cell_angle_alpha   88.79131255
_cell_angle_beta   91.20868745
_cell_angle_gamma   128.63895484
_symmetry_Int_Tables_number   1
_chemical_formula_structural   CoH6C2S2N2O3
_chemical_formula_sum   'Co2 H12 C4 S4 N4 O6'
_cell_volume   408.95775875
_cell_formula_units_Z   2
loop_
 _symmetry_equiv_pos_site_id
 _symmetry_equiv_pos_as_xyz
  1  'x, y, z'
loop_
 _atom_site_type_symbol
 _atom_site_label
 _atom_site_symmetry_multiplicity
 _atom_site_fract_x
 _atom_site_fract_y
 _atom_site_fract_z
 _atom_site_occupancy
  Co  Co0  1  0.000000  0.500000  0.000000  1
  Co  Co1  1  0.500000  0.000000  0.500000  1
  H  H2  1  0.745445  0.004980  0.993480  1
  H  H3  1  0.004980  0.745445  0.506520  1
  H  H4  1  0.254555  0.995020  0.006520  1
  H  H5  1  0.995020  0.254555  0.493480  1
  H  H6  1  0.938324  0.104826  0.106230  1
  H  H7  1  0.104826  0.938324  0.393770  1
  H  H8  1  0.061676  0.895174  0.893770  1
  H  H9  1  0.895174  0.061676  0.606230  1
  H  H10  1  0.784699  0.884139  0.291681  1
  H  H11  1  0.884139  0.784699  0.208318  1
  H  H12  1  0.215301  0.115861  0.708318  1
  H  H13  1  0.115861  0.215301  0.791682  1
  C  C14  1  0.252318  0.592124  0.266413  1
  C  C15  1  0.592124  0.252318  0.233587  1
  C  C16  1  0.747682  0.407876  0.733587  1
  C  C17  1  0.407876  0.747682  0.766413  1
  S  S18  1  0.369840  0.598270  0.401562  1
  S  S19  1  0.598270  0.369840  0.098438  1
  S  S20  1  0.630160  0.401730  0.598438  1
  S  S21  1  0.401730  0.630160  0.901562  1
  N  N22  1  0.169692  0.588316  0.167778  1
  N  N23  1  0.588316  0.169692  0.332222  1
  N  N24  1  0.830308  0.411684  0.832222  1
  N  N25  1  0.411684  0.830308  0.667778  1
  O  O26  1  0.902318  0.151008  0.025846  1
  O  O27  1  0.151008  0.902318  0.474154  1
  O  O28  1  0.097682  0.848992  0.974154  1
  O  O29  1  0.848992  0.097682  0.525846  1
  O  O30  1  0.933904  0.933904  0.250000  1
  O  O31  1  0.066096  0.066096  0.750000  1
