# generated using pymatgen
data_Li24Mn5Cr7O36
_symmetry_space_group_name_H-M   'P 1'
_cell_length_a   5.03296846
_cell_length_b   13.28283260
_cell_length_c   9.76438684
_cell_angle_alpha   97.00743168
_cell_angle_beta   94.96458346
_cell_angle_gamma   100.57241000
_symmetry_Int_Tables_number   1
_chemical_formula_structural   Li24Mn5Cr7O36
_chemical_formula_sum   'Li24 Mn5 Cr7 O36'
_cell_volume   632.91348643
_cell_formula_units_Z   1
loop_
 _symmetry_equiv_pos_site_id
 _symmetry_equiv_pos_as_xyz
  1  'x, y, z'
loop_
 _atom_site_type_symbol
 _atom_site_label
 _atom_site_symmetry_multiplicity
 _atom_site_fract_x
 _atom_site_fract_y
 _atom_site_fract_z
 _atom_site_occupancy
  Li  Li0  1  0.836421  0.166618  0.999726  1
  Li  Li1  1  0.953231  0.387207  0.999206  1
  Li  Li2  1  0.998552  0.749168  0.249467  1
  Li  Li3  1  0.665264  0.083569  0.249379  1
  Li  Li4  1  0.951253  0.887641  0.502356  1
  Li  Li5  1  0.617962  0.218885  0.499706  1
  Li  Li6  1  0.835091  0.667130  0.499802  1
  Li  Li7  1  0.505162  0.000881  0.499697  1
  Li  Li8  1  0.720116  0.447457  0.500680  1
  Li  Li9  1  0.670432  0.583649  0.749458  1
  Li  Li10  1  0.500787  0.499641  0.000013  1
  Li  Li11  1  0.710766  0.945070  0.997859  1
  Li  Li12  1  0.378413  0.279072  0.000282  1
  Li  Li13  1  0.620619  0.721469  0.999424  1
  Li  Li14  1  0.284930  0.053922  0.001489  1
  Li  Li15  1  0.330947  0.415988  0.250271  1
  Li  Li16  1  0.277261  0.552083  0.499115  1
  Li  Li17  1  0.166588  0.333044  0.500168  1
  Li  Li18  1  0.379350  0.780333  0.499611  1
  Li  Li19  1  0.048514  0.113194  0.498911  1
  Li  Li20  1  0.332946  0.915357  0.750110  1
  Li  Li21  1  0.169266  0.833906  0.999280  1
  Li  Li22  1  0.000276  0.249450  0.749722  1
  Li  Li23  1  0.046306  0.613207  0.000606  1
  Mn  Mn24  1  0.886286  0.027472  0.749161  1
  Mn  Mn25  1  0.891288  0.528263  0.251320  1
  Mn  Mn26  1  0.779701  0.807098  0.751681  1
  Mn  Mn27  1  0.222924  0.193711  0.250317  1
  Mn  Mn28  1  0.111671  0.472171  0.749794  1
  Cr  Cr29  1  0.772101  0.306592  0.249530  1
  Cr  Cr30  1  0.563496  0.361508  0.752116  1
  Cr  Cr31  1  0.435868  0.136371  0.747879  1
  Cr  Cr32  1  0.550499  0.860986  0.248202  1
  Cr  Cr33  1  0.444135  0.637114  0.251281  1
  Cr  Cr34  1  0.229047  0.693542  0.749476  1
  Cr  Cr35  1  0.103176  0.971127  0.249529  1
  O  O36  1  0.004207  0.071586  0.139010  1
  O  O37  1  0.932599  0.215541  0.363978  1
  O  O38  1  0.996132  0.569184  0.637219  1
  O  O39  1  0.859087  0.357816  0.638605  1
  O  O40  1  0.741066  0.117587  0.634913  1
  O  O41  1  0.669436  0.404562  0.138395  1
  O  O42  1  0.931467  0.715733  0.863448  1
  O  O43  1  0.812731  0.477433  0.861890  1
  O  O44  1  0.598560  0.050322  0.862933  1
  O  O45  1  0.857866  0.858393  0.137653  1
  O  O46  1  0.739446  0.617982  0.135468  1
  O  O47  1  0.518045  0.188940  0.137300  1
  O  O48  1  0.660585  0.263610  0.862993  1
  O  O49  1  0.807198  0.973760  0.362924  1
  O  O50  1  0.597020  0.548061  0.363706  1
  O  O51  1  0.481426  0.308847  0.361473  1
  O  O52  1  0.662397  0.760073  0.362118  1
  O  O53  1  0.336418  0.096647  0.362630  1
  O  O54  1  0.664519  0.904705  0.638700  1
  O  O55  1  0.337964  0.235999  0.637463  1
  O  O56  1  0.519987  0.692164  0.638844  1
  O  O57  1  0.402042  0.450418  0.636995  1
  O  O58  1  0.188937  0.023479  0.638524  1
  O  O59  1  0.337752  0.737906  0.137361  1
  O  O60  1  0.483573  0.811765  0.862975  1
  O  O61  1  0.260644  0.382292  0.865162  1
  O  O62  1  0.137300  0.141468  0.861843  1
  O  O63  1  0.405922  0.951628  0.134392  1
  O  O64  1  0.189651  0.524832  0.139077  1
  O  O65  1  0.068342  0.284776  0.136573  1
  O  O66  1  0.330074  0.596284  0.861526  1
  O  O67  1  0.265197  0.884884  0.364435  1
  O  O68  1  0.137066  0.643079  0.362276  1
  O  O69  1  0.004300  0.430722  0.362840  1
  O  O70  1  0.068310  0.784738  0.636427  1
  O  O71  1  0.002093  0.928883  0.861305  1
