# generated using pymatgen
data_Li2Cr2H4O9
_symmetry_space_group_name_H-M   'P 1'
_cell_length_a   12.97302445
_cell_length_b   5.46645901
_cell_length_c   5.46645901
_cell_angle_alpha   88.28502544
_cell_angle_beta   85.57715605
_cell_angle_gamma   94.42284395
_symmetry_Int_Tables_number   1
_chemical_formula_structural   Li2Cr2H4O9
_chemical_formula_sum   'Li4 Cr4 H8 O18'
_cell_volume   385.10573315
_cell_formula_units_Z   2
loop_
 _symmetry_equiv_pos_site_id
 _symmetry_equiv_pos_as_xyz
  1  'x, y, z'
loop_
 _atom_site_type_symbol
 _atom_site_label
 _atom_site_symmetry_multiplicity
 _atom_site_fract_x
 _atom_site_fract_y
 _atom_site_fract_z
 _atom_site_occupancy
  Li  Li0  1  0.500000  0.000000  0.500000  1
  Li  Li1  1  0.000000  0.500000  0.000000  1
  Li  Li2  1  0.250000  0.777190  0.777190  1
  Li  Li3  1  0.750000  0.222810  0.222810  1
  Cr  Cr4  1  0.140107  0.011043  0.260913  1
  Cr  Cr5  1  0.640108  0.739087  0.988957  1
  Cr  Cr6  1  0.859892  0.988957  0.739087  1
  Cr  Cr7  1  0.359893  0.260913  0.011043  1
  H  H8  1  0.400972  0.578645  0.580794  1
  H  H9  1  0.900972  0.419206  0.421355  1
  H  H10  1  0.599028  0.421355  0.419206  1
  H  H11  1  0.099028  0.580794  0.578645  1
  H  H12  1  0.349536  0.701082  0.366132  1
  H  H13  1  0.849536  0.633868  0.298918  1
  H  H14  1  0.650464  0.298918  0.633868  1
  H  H15  1  0.150464  0.366132  0.701082  1
  O  O16  1  0.250000  0.034545  0.034545  1
  O  O17  1  0.750000  0.965455  0.965455  1
  O  O18  1  0.180984  0.058117  0.533220  1
  O  O19  1  0.680984  0.466780  0.941883  1
  O  O20  1  0.819016  0.941883  0.466780  1
  O  O21  1  0.319016  0.533220  0.058117  1
  O  O22  1  0.083425  0.734038  0.253852  1
  O  O23  1  0.583425  0.746148  0.265962  1
  O  O24  1  0.916575  0.265962  0.746148  1
  O  O25  1  0.416575  0.253852  0.734038  1
  O  O26  1  0.438802  0.191893  0.214073  1
  O  O27  1  0.938802  0.785927  0.808107  1
  O  O28  1  0.561198  0.808107  0.785927  1
  O  O29  1  0.061198  0.214073  0.191893  1
  O  O30  1  0.370408  0.731220  0.532447  1
  O  O31  1  0.870408  0.467553  0.268780  1
  O  O32  1  0.629592  0.268780  0.467553  1
  O  O33  1  0.129592  0.532447  0.731220  1
