# generated using pymatgen
data_Na5Bi2As(CO4)4
_symmetry_space_group_name_H-M   'P 1'
_cell_length_a   10.52013927
_cell_length_b   10.40925526
_cell_length_c   10.52013927
_cell_angle_alpha   60.18976643
_cell_angle_beta   89.07052116
_cell_angle_gamma   119.81023357
_symmetry_Int_Tables_number   1
_chemical_formula_structural   Na5Bi2As(CO4)4
_chemical_formula_sum   'Na10 Bi4 As2 C8 O32'
_cell_volume   812.52165827
_cell_formula_units_Z   2
loop_
 _symmetry_equiv_pos_site_id
 _symmetry_equiv_pos_as_xyz
  1  'x, y, z'
loop_
 _atom_site_type_symbol
 _atom_site_label
 _atom_site_symmetry_multiplicity
 _atom_site_fract_x
 _atom_site_fract_y
 _atom_site_fract_z
 _atom_site_occupancy
  Na  Na0  1  0.928808  0.250000  0.321192  1
  Na  Na1  1  0.680057  0.360114  0.069943  1
  Na  Na2  1  0.680551  0.750000  0.069449  1
  Na  Na3  1  0.321379  0.250000  0.321379  1
  Na  Na4  1  0.928621  0.250000  0.928621  1
  Na  Na5  1  0.928542  0.857083  0.321458  1
  Na  Na6  1  0.069943  0.139886  0.680057  1
  Na  Na7  1  0.321192  0.250000  0.928808  1
  Na  Na8  1  0.321458  0.642917  0.928542  1
  Na  Na9  1  0.069449  0.750000  0.680551  1
  Bi  Bi10  1  0.491683  0.995660  0.999093  1
  Bi  Bi11  1  0.503977  0.995660  0.505247  1
  Bi  Bi12  1  0.505247  0.504340  0.503977  1
  Bi  Bi13  1  0.999093  0.504340  0.491683  1
  As  As14  1  0.125000  0.250000  0.125000  1
  As  As15  1  0.875000  0.750000  0.875000  1
  C  C16  1  0.719508  0.059582  0.722587  1
  C  C17  1  0.717832  0.440418  0.340074  1
  C  C18  1  0.340074  0.059582  0.717832  1
  C  C19  1  0.722587  0.440418  0.719508  1
  C  C20  1  0.666088  0.948491  0.270249  1
  C  C21  1  0.281260  0.551509  0.282403  1
  C  C22  1  0.282403  0.948491  0.281260  1
  C  C23  1  0.270249  0.551509  0.666088  1
  O  O24  1  0.664557  0.063848  0.140250  1
  O  O25  1  0.850325  0.187322  0.602782  1
  O  O26  1  0.709896  0.312678  0.336997  1
  O  O27  1  0.399291  0.063848  0.295903  1
  O  O28  1  0.841095  0.554950  0.347664  1
  O  O29  1  0.326759  0.384729  0.057556  1
  O  O30  1  0.057715  0.115271  0.057971  1
  O  O31  1  0.599808  0.452272  0.336309  1
  O  O32  1  0.711419  0.047728  0.852464  1
  O  O33  1  0.336309  0.047728  0.599808  1
  O  O34  1  0.852464  0.452272  0.711419  1
  O  O35  1  0.057971  0.384729  0.057715  1
  O  O36  1  0.057556  0.115271  0.326759  1
  O  O37  1  0.667724  0.817538  0.283648  1
  O  O38  1  0.398813  0.682462  0.149814  1
  O  O39  1  0.713855  0.554950  0.597386  1
  O  O40  1  0.295903  0.436152  0.399291  1
  O  O41  1  0.602782  0.312678  0.850325  1
  O  O42  1  0.336997  0.187322  0.709896  1
  O  O43  1  0.934172  0.606658  0.934378  1
  O  O44  1  0.958964  0.893342  0.672486  1
  O  O45  1  0.150444  0.534730  0.295975  1
  O  O46  1  0.669295  0.965270  0.384286  1
  O  O47  1  0.295975  0.965270  0.150444  1
  O  O48  1  0.384286  0.534730  0.669295  1
  O  O49  1  0.934378  0.893342  0.934172  1
  O  O50  1  0.672486  0.606658  0.958964  1
  O  O51  1  0.140250  0.436152  0.664557  1
  O  O52  1  0.597386  0.945050  0.713855  1
  O  O53  1  0.283648  0.682462  0.667724  1
  O  O54  1  0.149814  0.817538  0.398813  1
  O  O55  1  0.347664  0.945050  0.841095  1
