# generated using pymatgen
data_Ti9SnO20
_symmetry_space_group_name_H-M   'P 1'
_cell_length_a   7.59857904
_cell_length_b   6.61005542
_cell_length_c   7.25883793
_cell_angle_alpha   90.00000000
_cell_angle_beta   85.96741149
_cell_angle_gamma   64.21767204
_symmetry_Int_Tables_number   1
_chemical_formula_structural   Ti9SnO20
_chemical_formula_sum   'Ti9 Sn1 O20'
_cell_volume   327.29329506
_cell_formula_units_Z   1
loop_
 _symmetry_equiv_pos_site_id
 _symmetry_equiv_pos_as_xyz
  1  'x, y, z'
loop_
 _atom_site_type_symbol
 _atom_site_label
 _atom_site_symmetry_multiplicity
 _atom_site_fract_x
 _atom_site_fract_y
 _atom_site_fract_z
 _atom_site_occupancy
  Ti  Ti0  1  0.004700  0.997650  0.001841  1
  Ti  Ti1  1  0.008782  0.995609  0.495840  1
  Ti  Ti2  1  0.195299  0.402350  0.398159  1
  Ti  Ti3  1  0.600000  0.200000  0.200000  1
  Ti  Ti4  1  0.191218  0.404391  0.904160  1
  Ti  Ti5  1  0.402024  0.798987  0.297626  1
  Ti  Ti6  1  0.797976  0.601013  0.102374  1
  Ti  Ti7  1  0.399511  0.800245  0.797917  1
  Ti  Ti8  1  0.800489  0.599755  0.602083  1
  Sn  Sn9  1  0.600000  0.200000  0.700000  1
  O  O10  1  0.997761  0.306694  0.000980  1
  O  O11  1  0.997761  0.695546  0.000980  1
  O  O12  1  0.202239  0.093306  0.399020  1
  O  O13  1  0.322137  0.338931  0.143681  1
  O  O14  1  0.079954  0.460023  0.653094  1
  O  O15  1  0.474562  0.262719  0.449776  1
  O  O16  1  0.276672  0.861664  0.059410  1
  O  O17  1  0.877863  0.061069  0.256319  1
  O  O18  1  0.202239  0.704454  0.399020  1
  O  O19  1  0.600000  0.505991  0.200000  1
  O  O20  1  0.388299  0.104605  0.806335  1
  O  O21  1  0.388299  0.507096  0.806335  1
  O  O22  1  0.600000  0.894009  0.200000  1
  O  O23  1  0.811701  0.295395  0.593665  1
  O  O24  1  0.120046  0.939977  0.746906  1
  O  O25  1  0.923328  0.538336  0.340590  1
  O  O26  1  0.725438  0.137281  0.950224  1
  O  O27  1  0.522115  0.738942  0.545255  1
  O  O28  1  0.677885  0.661058  0.854745  1
  O  O29  1  0.811701  0.892904  0.593665  1
