# generated using pymatgen
data_V2SiO4
_symmetry_space_group_name_H-M   'P 1'
_cell_length_a   4.88179430
_cell_length_b   10.68107898
_cell_length_c   6.27144531
_cell_angle_alpha   90.00000000
_cell_angle_beta   90.00000000
_cell_angle_gamma   90.00000000
_symmetry_Int_Tables_number   1
_chemical_formula_structural   V2SiO4
_chemical_formula_sum   'V8 Si4 O16'
_cell_volume   327.01090968
_cell_formula_units_Z   4
loop_
 _symmetry_equiv_pos_site_id
 _symmetry_equiv_pos_as_xyz
  1  'x, y, z'
loop_
 _atom_site_type_symbol
 _atom_site_label
 _atom_site_symmetry_multiplicity
 _atom_site_fract_x
 _atom_site_fract_y
 _atom_site_fract_z
 _atom_site_occupancy
  V  V0  1  0.000000  0.000000  0.000000  1
  V  V1  1  0.000000  0.000000  0.500000  1
  V  V2  1  0.004626  0.725012  0.750000  1
  V  V3  1  0.495374  0.225012  0.750000  1
  V  V4  1  0.500000  0.500000  0.500000  1
  V  V5  1  0.500000  0.500000  0.000000  1
  V  V6  1  0.504626  0.774988  0.250000  1
  V  V7  1  0.995374  0.274988  0.250000  1
  Si  Si8  1  0.071844  0.595596  0.250000  1
  Si  Si9  1  0.428156  0.095596  0.250000  1
  Si  Si10  1  0.571844  0.904404  0.750000  1
  Si  Si11  1  0.928156  0.404404  0.750000  1
  O  O12  1  0.209227  0.452144  0.250000  1
  O  O13  1  0.218539  0.662047  0.039232  1
  O  O14  1  0.218539  0.662047  0.460768  1
  O  O15  1  0.263298  0.404830  0.750000  1
  O  O16  1  0.236702  0.904830  0.750000  1
  O  O17  1  0.281461  0.162047  0.039232  1
  O  O18  1  0.281461  0.162047  0.460768  1
  O  O19  1  0.290773  0.952144  0.250000  1
  O  O20  1  0.709227  0.047856  0.750000  1
  O  O21  1  0.718539  0.837953  0.960768  1
  O  O22  1  0.718539  0.837953  0.539232  1
  O  O23  1  0.763298  0.095170  0.250000  1
  O  O24  1  0.736702  0.595170  0.250000  1
  O  O25  1  0.781461  0.337953  0.960768  1
  O  O26  1  0.781461  0.337953  0.539232  1
  O  O27  1  0.790773  0.547856  0.750000  1
