# generated using pymatgen
data_Li3Cu2(SO4)3
_symmetry_space_group_name_H-M   'P 1'
_cell_length_a   8.66466561
_cell_length_b   12.64368418
_cell_length_c   8.77893557
_cell_angle_alpha   90.00000000
_cell_angle_beta   90.00000000
_cell_angle_gamma   90.54637161
_symmetry_Int_Tables_number   1
_chemical_formula_structural   Li3Cu2(SO4)3
_chemical_formula_sum   'Li12 Cu8 S12 O48'
_cell_volume   961.71759371
_cell_formula_units_Z   4
loop_
 _symmetry_equiv_pos_site_id
 _symmetry_equiv_pos_as_xyz
  1  'x, y, z'
loop_
 _atom_site_type_symbol
 _atom_site_label
 _atom_site_symmetry_multiplicity
 _atom_site_fract_x
 _atom_site_fract_y
 _atom_site_fract_z
 _atom_site_occupancy
  Li  Li0  1  0.077004  0.698424  0.083003  1
  Li  Li1  1  0.088434  0.753317  0.696533  1
  Li  Li2  1  0.209658  0.178906  0.772883  1
  Li  Li3  1  0.290342  0.321094  0.272883  1
  Li  Li4  1  0.411566  0.746683  0.196533  1
  Li  Li5  1  0.422996  0.801576  0.583003  1
  Li  Li6  1  0.577004  0.198424  0.416997  1
  Li  Li7  1  0.588434  0.253317  0.803467  1
  Li  Li8  1  0.709658  0.678906  0.727117  1
  Li  Li9  1  0.790342  0.821094  0.227117  1
  Li  Li10  1  0.911566  0.246683  0.303467  1
  Li  Li11  1  0.922996  0.301576  0.916997  1
  Cu  Cu12  1  0.246620  0.598258  0.535717  1
  Cu  Cu13  1  0.253380  0.901742  0.035717  1
  Cu  Cu14  1  0.244096  0.099509  0.457794  1
  Cu  Cu15  1  0.255904  0.400491  0.957794  1
  Cu  Cu16  1  0.744096  0.599509  0.042206  1
  Cu  Cu17  1  0.755904  0.900491  0.542206  1
  Cu  Cu18  1  0.746620  0.098258  0.964283  1
  Cu  Cu19  1  0.753380  0.401742  0.464283  1
  S  S20  1  0.038904  0.493875  0.250351  1
  S  S21  1  0.100636  0.850557  0.383722  1
  S  S22  1  0.096963  0.153473  0.100105  1
  S  S23  1  0.399364  0.649443  0.883722  1
  S  S24  1  0.403037  0.346527  0.600105  1
  S  S25  1  0.461096  0.006125  0.750351  1
  S  S26  1  0.538904  0.993875  0.249649  1
  S  S27  1  0.596963  0.653473  0.399895  1
  S  S28  1  0.600636  0.350557  0.116278  1
  S  S29  1  0.903037  0.846527  0.899895  1
  S  S30  1  0.899364  0.149443  0.616278  1
  S  S31  1  0.961096  0.506125  0.749649  1
  O  O32  1  0.036343  0.438352  0.868085  1
  O  O33  1  0.076734  0.846161  0.881883  1
  O  O34  1  0.069824  0.590942  0.694622  1
  O  O35  1  0.068216  0.173075  0.595699  1
  O  O36  1  0.089077  0.565097  0.373283  1
  O  O37  1  0.147084  0.807868  0.229844  1
  O  O38  1  0.130713  0.963892  0.392607  1
  O  O39  1  0.134362  0.230598  0.973727  1
  O  O40  1  0.158187  0.195930  0.248568  1
  O  O41  1  0.173391  0.437838  0.182334  1
  O  O42  1  0.157153  0.050293  0.063872  1
  O  O43  1  0.188785  0.792743  0.504994  1
  O  O44  1  0.311215  0.707257  0.004994  1
  O  O45  1  0.342847  0.449707  0.563872  1
  O  O46  1  0.326609  0.062162  0.682334  1
  O  O47  1  0.341813  0.304070  0.748568  1
  O  O48  1  0.369287  0.536108  0.892607  1
  O  O49  1  0.365638  0.269402  0.473727  1
  O  O50  1  0.352916  0.692132  0.729844  1
  O  O51  1  0.410923  0.934903  0.873283  1
  O  O52  1  0.430176  0.909058  0.194622  1
  O  O53  1  0.423266  0.653839  0.381883  1
  O  O54  1  0.431784  0.326925  0.095699  1
  O  O55  1  0.463657  0.061648  0.368085  1
  O  O56  1  0.536343  0.938352  0.631915  1
  O  O57  1  0.568216  0.673075  0.904301  1
  O  O58  1  0.576734  0.346161  0.618117  1
  O  O59  1  0.569824  0.090942  0.805378  1
  O  O60  1  0.589077  0.065097  0.126717  1
  O  O61  1  0.647084  0.307868  0.270156  1
  O  O62  1  0.634362  0.730598  0.526273  1
  O  O63  1  0.630713  0.463892  0.107393  1
  O  O64  1  0.658187  0.695930  0.251432  1
  O  O65  1  0.673391  0.937838  0.317666  1
  O  O66  1  0.657153  0.550293  0.436128  1
  O  O67  1  0.688785  0.292743  0.995006  1
  O  O68  1  0.811215  0.207257  0.495006  1
  O  O69  1  0.842847  0.949707  0.936128  1
  O  O70  1  0.826609  0.562162  0.817666  1
  O  O71  1  0.841813  0.804070  0.751432  1
  O  O72  1  0.865638  0.769402  0.026273  1
  O  O73  1  0.869287  0.036108  0.607393  1
  O  O74  1  0.852916  0.192132  0.770156  1
  O  O75  1  0.910923  0.434903  0.626717  1
  O  O76  1  0.931784  0.826925  0.404301  1
  O  O77  1  0.930176  0.409058  0.305378  1
  O  O78  1  0.923266  0.153839  0.118117  1
  O  O79  1  0.963657  0.561648  0.131915  1
