# generated using pymatgen
data_Sb3O4F
_symmetry_space_group_name_H-M   'P 1'
_cell_length_a   5.45537549
_cell_length_b   9.90231512
_cell_length_c   5.66185790
_cell_angle_alpha   67.54334555
_cell_angle_beta   90.20832307
_cell_angle_gamma   106.65287637
_symmetry_Int_Tables_number   1
_chemical_formula_structural   Sb3O4F
_chemical_formula_sum   'Sb6 O8 F2'
_cell_volume   268.86791323
_cell_formula_units_Z   2
loop_
 _symmetry_equiv_pos_site_id
 _symmetry_equiv_pos_as_xyz
  1  'x, y, z'
loop_
 _atom_site_type_symbol
 _atom_site_label
 _atom_site_symmetry_multiplicity
 _atom_site_fract_x
 _atom_site_fract_y
 _atom_site_fract_z
 _atom_site_occupancy
  Sb  Sb0  1  0.366312  0.319377  0.965717  1
  Sb  Sb1  1  0.686212  0.000857  0.252326  1
  Sb  Sb2  1  0.959302  0.320798  0.464156  1
  Sb  Sb3  1  0.311342  0.998235  0.753051  1
  Sb  Sb4  1  0.038564  0.680548  0.535171  1
  Sb  Sb5  1  0.632988  0.681476  0.033067  1
  O  O6  1  0.477312  0.129554  0.002714  1
  O  O7  1  0.166051  0.225351  0.325027  1
  O  O8  1  0.939641  0.777884  0.171568  1
  O  O9  1  0.650148  0.131457  0.499427  1
  O  O10  1  0.348784  0.868633  0.504177  1
  O  O11  1  0.057947  0.225065  0.826307  1
  O  O12  1  0.834551  0.778860  0.671533  1
  O  O13  1  0.516394  0.868565  0.003074  1
  F  F14  1  0.000757  0.503207  0.994954  1
  F  F15  1  0.499392  0.503561  0.494172  1
