# generated using pymatgen
data_Na3Ni7O12
_symmetry_space_group_name_H-M   'P 1'
_cell_length_a   5.41486993
_cell_length_b   5.82384267
_cell_length_c   7.69484214
_cell_angle_alpha   99.57984022
_cell_angle_beta   84.20419429
_cell_angle_gamma   74.01705016
_symmetry_Int_Tables_number   1
_chemical_formula_structural   Na3Ni7O12
_chemical_formula_sum   'Na3 Ni7 O12'
_cell_volume   227.25072964
_cell_formula_units_Z   1
loop_
 _symmetry_equiv_pos_site_id
 _symmetry_equiv_pos_as_xyz
  1  'x, y, z'
loop_
 _atom_site_type_symbol
 _atom_site_label
 _atom_site_symmetry_multiplicity
 _atom_site_fract_x
 _atom_site_fract_y
 _atom_site_fract_z
 _atom_site_occupancy
  Na  Na0  1  0.495160  0.420621  0.165370  1
  Na  Na1  1  0.500712  0.916995  0.171017  1
  Na  Na2  1  0.503541  0.727768  0.516551  1
  Ni  Ni3  1  0.011829  0.997449  0.993822  1
  Ni  Ni4  1  0.998245  0.503042  0.996446  1
  Ni  Ni5  1  0.998949  0.331127  0.337921  1
  Ni  Ni6  1  0.992953  0.168452  0.670275  1
  Ni  Ni7  1  0.003577  0.665702  0.668598  1
  Ni  Ni8  1  0.991027  0.838377  0.333238  1
  Ni  Ni9  1  0.498102  0.095347  0.823169  1
  O  O10  1  0.222410  0.198315  0.063114  1
  O  O11  1  0.180197  0.053642  0.434215  1
  O  O12  1  0.204130  0.735225  0.080721  1
  O  O13  1  0.182824  0.575265  0.427434  1
  O  O14  1  0.199790  0.365103  0.750584  1
  O  O15  1  0.207635  0.914395  0.763343  1
  O  O16  1  0.816530  0.099295  0.225105  1
  O  O17  1  0.802817  0.430588  0.587475  1
  O  O18  1  0.806391  0.609928  0.248076  1
  O  O19  1  0.794230  0.255360  0.901833  1
  O  O20  1  0.785733  0.961088  0.602643  1
  O  O21  1  0.803219  0.803585  0.905715  1
