# generated using pymatgen
data_Li4Bi2C4SO16
_symmetry_space_group_name_H-M   'P 1'
_cell_length_a   10.05380534
_cell_length_b   9.59276980
_cell_length_c   10.05380509
_cell_angle_alpha   63.15678934
_cell_angle_beta   97.95018807
_cell_angle_gamma   63.15678342
_symmetry_Int_Tables_number   1
_chemical_formula_structural   Li4Bi2C4SO16
_chemical_formula_sum   'Li8 Bi4 C8 S2 O32'
_cell_volume   696.96645812
_cell_formula_units_Z   2
loop_
 _symmetry_equiv_pos_site_id
 _symmetry_equiv_pos_as_xyz
  1  'x, y, z'
loop_
 _atom_site_type_symbol
 _atom_site_label
 _atom_site_symmetry_multiplicity
 _atom_site_fract_x
 _atom_site_fract_y
 _atom_site_fract_z
 _atom_site_occupancy
  Li  Li0  1  0.064937  0.870125  0.814938  1
  Li  Li1  1  0.072855  0.250000  0.822855  1
  Li  Li2  1  0.322855  0.750000  0.572855  1
  Li  Li3  1  0.314937  0.370125  0.564938  1
  Li  Li4  1  0.685062  0.629875  0.435063  1
  Li  Li5  1  0.677145  0.250000  0.427145  1
  Li  Li6  1  0.927145  0.750000  0.177145  1
  Li  Li7  1  0.935062  0.129875  0.185062  1
  Bi  Bi8  1  0.000000  0.500000  0.000000  1
  Bi  Bi9  1  0.500000  0.000000  0.500000  1
  Bi  Bi10  1  0.500000  0.500000  0.000000  1
  Bi  Bi11  1  0.500000  0.000000  0.000000  1
  C  C12  1  0.319121  0.958333  0.749681  1
  C  C13  1  0.249681  0.458333  0.819121  1
  C  C14  1  0.722545  0.958333  0.791986  1
  C  C15  1  0.708014  0.541667  0.777455  1
  C  C16  1  0.291986  0.458333  0.222545  1
  C  C17  1  0.277455  0.041667  0.208014  1
  C  C18  1  0.750319  0.541667  0.180879  1
  C  C19  1  0.680879  0.041667  0.250319  1
  S  S20  1  0.125000  0.750000  0.375000  1
  S  S21  1  0.875000  0.250000  0.625000  1
  O  O22  1  0.312452  0.836828  0.873644  1
  O  O23  1  0.074620  0.877590  0.432066  1
  O  O24  1  0.331673  0.940337  0.631334  1
  O  O25  1  0.131334  0.440337  0.831673  1
  O  O26  1  0.727990  0.940337  0.928328  1
  O  O27  1  0.249514  0.595037  0.817807  1
  O  O28  1  0.047791  0.877590  0.190344  1
  O  O29  1  0.067934  0.622410  0.425380  1
  O  O30  1  0.412845  0.904963  0.344551  1
  O  O31  1  0.571672  0.559663  0.772010  1
  O  O32  1  0.373644  0.336828  0.812452  1
  O  O33  1  0.309656  0.622410  0.452209  1
  O  O34  1  0.850721  0.836828  0.789530  1
  O  O35  1  0.710470  0.663172  0.649279  1
  O  O36  1  0.317807  0.095037  0.749514  1
  O  O37  1  0.155449  0.595037  0.087155  1
  O  O38  1  0.844551  0.404963  0.912845  1
  O  O39  1  0.682193  0.904963  0.250486  1
  O  O40  1  0.289530  0.336828  0.350721  1
  O  O41  1  0.149279  0.163172  0.210470  1
  O  O42  1  0.690344  0.377590  0.547791  1
  O  O43  1  0.626356  0.663172  0.187548  1
  O  O44  1  0.428328  0.440337  0.227990  1
  O  O45  1  0.587155  0.095037  0.655449  1
  O  O46  1  0.932066  0.377590  0.574620  1
  O  O47  1  0.952209  0.122410  0.809656  1
  O  O48  1  0.750486  0.404963  0.182193  1
  O  O49  1  0.272010  0.059663  0.071672  1
  O  O50  1  0.868666  0.559663  0.168327  1
  O  O51  1  0.668327  0.059663  0.368666  1
  O  O52  1  0.925380  0.122410  0.567934  1
  O  O53  1  0.687548  0.163172  0.126356  1
