# generated using pymatgen
data_Li5Mn6(BO3)6
_symmetry_space_group_name_H-M   'P 1'
_cell_length_a   9.70024082
_cell_length_b   7.94921269
_cell_length_c   5.21694602
_cell_angle_alpha   88.12662283
_cell_angle_beta   103.60545434
_cell_angle_gamma   104.32918079
_symmetry_Int_Tables_number   1
_chemical_formula_structural   Li5Mn6(BO3)6
_chemical_formula_sum   'Li5 Mn6 B6 O18'
_cell_volume   378.68366064
_cell_formula_units_Z   1
loop_
 _symmetry_equiv_pos_site_id
 _symmetry_equiv_pos_as_xyz
  1  'x, y, z'
loop_
 _atom_site_type_symbol
 _atom_site_label
 _atom_site_symmetry_multiplicity
 _atom_site_fract_x
 _atom_site_fract_y
 _atom_site_fract_z
 _atom_site_occupancy
  Li  Li0  1  0.311875  0.001971  0.241962  1
  Li  Li1  1  0.353953  0.326635  0.086946  1
  Li  Li2  1  0.012492  0.644447  0.432067  1
  Li  Li3  1  0.648762  0.672107  0.911200  1
  Li  Li4  1  0.685237  0.993332  0.757893  1
  Mn  Mn5  1  0.155934  0.083503  0.672876  1
  Mn  Mn6  1  0.503935  0.255582  0.652886  1
  Mn  Mn7  1  0.168903  0.578940  0.980465  1
  Mn  Mn8  1  0.833229  0.407109  0.014898  1
  Mn  Mn9  1  0.493858  0.747458  0.348976  1
  Mn  Mn10  1  0.835385  0.921560  0.320609  1
  B  B11  1  0.072660  0.204646  0.135336  1
  B  B12  1  0.604557  0.133667  0.203598  1
  B  B13  1  0.271715  0.470501  0.537068  1
  B  B14  1  0.724605  0.535543  0.459011  1
  B  B15  1  0.387717  0.861164  0.792975  1
  B  B16  1  0.939931  0.798736  0.872508  1
  O  O17  1  0.028991  0.344866  0.998864  1
  O  O18  1  0.012924  0.142377  0.344540  1
  O  O19  1  0.176448  0.133202  0.068975  1
  O  O20  1  0.654947  0.173236  0.972402  1
  O  O21  1  0.656368  0.012005  0.372232  1
  O  O22  1  0.321271  0.342688  0.696996  1
  O  O23  1  0.496817  0.203781  0.253483  1
  O  O24  1  0.182418  0.561581  0.602875  1
  O  O25  1  0.318463  0.506176  0.300298  1
  O  O26  1  0.677382  0.492538  0.694472  1
  O  O27  1  0.826507  0.465824  0.395313  1
  O  O28  1  0.499320  0.795756  0.747723  1
  O  O29  1  0.667601  0.658859  0.296633  1
  O  O30  1  0.336178  0.985617  0.631327  1
  O  O31  1  0.333190  0.811718  0.021707  1
  O  O32  1  0.830636  0.866476  0.923182  1
  O  O33  1  0.989225  0.842822  0.641293  1
  O  O34  1  0.998070  0.680590  0.039639  1
