# generated using pymatgen
data_Na2NiPCO7
_symmetry_space_group_name_H-M   'P 1'
_cell_length_a   8.87990961
_cell_length_b   10.29322274
_cell_length_c   6.61745696
_cell_angle_alpha   90.28513196
_cell_angle_beta   90.45457513
_cell_angle_gamma   88.60854181
_symmetry_Int_Tables_number   1
_chemical_formula_structural   Na2NiPCO7
_chemical_formula_sum   'Na8 Ni4 P4 C4 O28'
_cell_volume   604.65036128
_cell_formula_units_Z   4
loop_
 _symmetry_equiv_pos_site_id
 _symmetry_equiv_pos_as_xyz
  1  'x, y, z'
loop_
 _atom_site_type_symbol
 _atom_site_label
 _atom_site_symmetry_multiplicity
 _atom_site_fract_x
 _atom_site_fract_y
 _atom_site_fract_z
 _atom_site_occupancy
  Na  Na0  1  0.248426  0.122265  0.010325  1
  Na  Na1  1  0.249044  0.119878  0.489040  1
  Na  Na2  1  0.264349  0.622786  0.014190  1
  Na  Na3  1  0.264819  0.623644  0.481787  1
  Na  Na4  1  0.737023  0.366388  0.977855  1
  Na  Na5  1  0.745180  0.882244  0.513352  1
  Na  Na6  1  0.747566  0.886302  0.991019  1
  Na  Na7  1  0.910318  0.595241  0.731391  1
  Ni  Ni8  1  0.351880  0.390276  0.748126  1
  Ni  Ni9  1  0.347617  0.889102  0.752790  1
  Ni  Ni10  1  0.649505  0.112259  0.256347  1
  Ni  Ni11  1  0.655154  0.606673  0.251921  1
  P  P12  1  0.425618  0.360555  0.249695  1
  P  P13  1  0.422769  0.857734  0.250535  1
  P  P14  1  0.574370  0.141373  0.751942  1
  P  P15  1  0.582149  0.646235  0.750530  1
  C  C16  1  0.076448  0.358511  0.753264  1
  C  C17  1  0.071224  0.851912  0.750150  1
  C  C18  1  0.923370  0.142899  0.251554  1
  C  C19  1  0.929379  0.644336  0.246293  1
  O  O20  1  0.064041  0.155953  0.248295  1
  O  O21  1  0.069806  0.661519  0.246454  1
  O  O22  1  0.140618  0.472739  0.747793  1
  O  O23  1  0.131142  0.965674  0.749671  1
  O  O24  1  0.170865  0.260146  0.747241  1
  O  O25  1  0.167360  0.753581  0.748398  1
  O  O26  1  0.325103  0.393782  0.062638  1
  O  O27  1  0.330279  0.397914  0.436745  1
  O  O28  1  0.323500  0.893194  0.064315  1
  O  O29  1  0.327311  0.892493  0.438846  1
  O  O30  1  0.421065  0.072895  0.753932  1
  O  O31  1  0.431502  0.574519  0.748025  1
  O  O32  1  0.458007  0.209510  0.250239  1
  O  O33  1  0.459201  0.707452  0.248040  1
  O  O34  1  0.539947  0.290935  0.755559  1
  O  O35  1  0.544812  0.796659  0.762315  1
  O  O36  1  0.576836  0.430043  0.241655  1
  O  O37  1  0.574459  0.929344  0.250124  1
  O  O38  1  0.668335  0.101165  0.565197  1
  O  O39  1  0.672984  0.107171  0.940294  1
  O  O40  1  0.679735  0.622980  0.560784  1
  O  O41  1  0.683656  0.607383  0.933724  1
  O  O42  1  0.826037  0.238946  0.250627  1
  O  O43  1  0.829403  0.739665  0.248926  1
  O  O44  1  0.861051  0.029213  0.256072  1
  O  O45  1  0.871363  0.529956  0.246003  1
  O  O46  1  0.935493  0.351852  0.764003  1
  O  O47  1  0.929559  0.834735  0.752136  1
