# generated using pymatgen
data_LiFe2F9
_symmetry_space_group_name_H-M   'P 1'
_cell_length_a   5.03604175
_cell_length_b   9.69707957
_cell_length_c   9.93431399
_cell_angle_alpha   124.77974017
_cell_angle_beta   105.28677073
_cell_angle_gamma   97.75380616
_symmetry_Int_Tables_number   1
_chemical_formula_structural   LiFe2F9
_chemical_formula_sum   'Li2 Fe4 F18'
_cell_volume   358.58548746
_cell_formula_units_Z   2
loop_
 _symmetry_equiv_pos_site_id
 _symmetry_equiv_pos_as_xyz
  1  'x, y, z'
loop_
 _atom_site_type_symbol
 _atom_site_label
 _atom_site_symmetry_multiplicity
 _atom_site_fract_x
 _atom_site_fract_y
 _atom_site_fract_z
 _atom_site_occupancy
  Li  Li0  1  0.292239  0.240845  0.409845  1
  Li  Li1  1  0.707761  0.759155  0.590155  1
  Fe  Fe2  1  0.016982  0.547493  0.762691  1
  Fe  Fe3  1  0.422217  0.097475  0.763386  1
  Fe  Fe4  1  0.577783  0.902525  0.236614  1
  Fe  Fe5  1  0.983018  0.452507  0.237309  1
  F  F6  1  0.050905  0.944196  0.659638  1
  F  F7  1  0.105333  0.296285  0.264330  1
  F  F8  1  0.284547  0.659365  0.429394  1
  F  F9  1  0.287325  0.253356  0.757091  1
  F  F10  1  0.238395  0.488923  0.637700  1
  F  F11  1  0.144093  0.435723  0.094468  1
  F  F12  1  0.317724  0.871824  0.314923  1
  F  F13  1  0.377332  0.717739  0.969534  1
  F  F14  1  0.563859  0.947912  0.784916  1
  F  F15  1  0.436141  0.052088  0.215084  1
  F  F16  1  0.622668  0.282261  0.030466  1
  F  F17  1  0.682276  0.128176  0.685077  1
  F  F18  1  0.855907  0.564277  0.905532  1
  F  F19  1  0.761605  0.511077  0.362300  1
  F  F20  1  0.712675  0.746644  0.242909  1
  F  F21  1  0.715453  0.340635  0.570606  1
  F  F22  1  0.894667  0.703715  0.735670  1
  F  F23  1  0.949095  0.055804  0.340362  1
