# generated using pymatgen
data_Li3Cr3(NiO6)2
_symmetry_space_group_name_H-M   'P 1'
_cell_length_a   8.78228874
_cell_length_b   12.39446566
_cell_length_c   9.22655841
_cell_angle_alpha   90.00000000
_cell_angle_beta   90.00000000
_cell_angle_gamma   91.39041114
_symmetry_Int_Tables_number   1
_chemical_formula_structural   Li3Cr3(NiO6)2
_chemical_formula_sum   'Li12 Cr12 Ni8 O48'
_cell_volume   1004.03156128
_cell_formula_units_Z   4
loop_
 _symmetry_equiv_pos_site_id
 _symmetry_equiv_pos_as_xyz
  1  'x, y, z'
loop_
 _atom_site_type_symbol
 _atom_site_label
 _atom_site_symmetry_multiplicity
 _atom_site_fract_x
 _atom_site_fract_y
 _atom_site_fract_z
 _atom_site_occupancy
  Li  Li0  1  0.078245  0.697802  0.087563  1
  Li  Li1  1  0.060710  0.341544  0.509710  1
  Li  Li2  1  0.166459  0.178940  0.770402  1
  Li  Li3  1  0.333541  0.321060  0.270402  1
  Li  Li4  1  0.421755  0.802198  0.587563  1
  Li  Li5  1  0.439290  0.158456  0.009710  1
  Li  Li6  1  0.560710  0.841544  0.990290  1
  Li  Li7  1  0.578245  0.197802  0.412437  1
  Li  Li8  1  0.666459  0.678940  0.729598  1
  Li  Li9  1  0.833541  0.821060  0.229598  1
  Li  Li10  1  0.939290  0.658456  0.490290  1
  Li  Li11  1  0.921755  0.302198  0.912437  1
  Cr  Cr12  1  0.041122  0.491412  0.247847  1
  Cr  Cr13  1  0.117066  0.852149  0.382190  1
  Cr  Cr14  1  0.116241  0.145106  0.112851  1
  Cr  Cr15  1  0.382934  0.647851  0.882190  1
  Cr  Cr16  1  0.383759  0.354894  0.612851  1
  Cr  Cr17  1  0.458878  0.008589  0.747847  1
  Cr  Cr18  1  0.541122  0.991412  0.252153  1
  Cr  Cr19  1  0.616241  0.645106  0.387149  1
  Cr  Cr20  1  0.617066  0.352149  0.117810  1
  Cr  Cr21  1  0.883759  0.854894  0.887149  1
  Cr  Cr22  1  0.882934  0.147851  0.617810  1
  Cr  Cr23  1  0.958878  0.508588  0.752153  1
  Ni  Ni24  1  0.244022  0.886956  0.030543  1
  Ni  Ni25  1  0.255978  0.613044  0.530543  1
  Ni  Ni26  1  0.262281  0.382177  0.968276  1
  Ni  Ni27  1  0.237719  0.117823  0.468276  1
  Ni  Ni28  1  0.762281  0.882177  0.531724  1
  Ni  Ni29  1  0.737719  0.617823  0.031724  1
  Ni  Ni30  1  0.744022  0.386956  0.469457  1
  Ni  Ni31  1  0.755978  0.113044  0.969457  1
  O  O32  1  0.056951  0.443766  0.877621  1
  O  O33  1  0.056513  0.906765  0.883309  1
  O  O34  1  0.058642  0.605094  0.665696  1
  O  O35  1  0.072576  0.194070  0.577313  1
  O  O36  1  0.097483  0.585516  0.367080  1
  O  O37  1  0.113034  0.832586  0.194050  1
  O  O38  1  0.130365  0.983120  0.414517  1
  O  O39  1  0.121765  0.245422  0.988510  1
  O  O40  1  0.173275  0.193612  0.273839  1
  O  O41  1  0.193623  0.434770  0.175907  1
  O  O42  1  0.243143  0.772187  0.471558  1
  O  O43  1  0.256857  0.727813  0.971558  1
  O  O44  1  0.243710  0.055600  0.056768  1
  O  O45  1  0.256290  0.444400  0.556768  1
  O  O46  1  0.306377  0.065230  0.675907  1
  O  O47  1  0.326725  0.306388  0.773839  1
  O  O48  1  0.369635  0.516880  0.914517  1
  O  O49  1  0.378235  0.254578  0.488510  1
  O  O50  1  0.386966  0.667414  0.694050  1
  O  O51  1  0.402517  0.914484  0.867080  1
  O  O52  1  0.441358  0.894906  0.165696  1
  O  O53  1  0.443487  0.593235  0.383309  1
  O  O54  1  0.427424  0.305930  0.077313  1
  O  O55  1  0.443049  0.056234  0.377621  1
  O  O56  1  0.556951  0.943766  0.622379  1
  O  O57  1  0.572576  0.694070  0.922687  1
  O  O58  1  0.556513  0.406765  0.616691  1
  O  O59  1  0.558642  0.105094  0.834304  1
  O  O60  1  0.597483  0.085516  0.132920  1
  O  O61  1  0.613034  0.332586  0.305950  1
  O  O62  1  0.621765  0.745422  0.511490  1
  O  O63  1  0.630365  0.483120  0.085483  1
  O  O64  1  0.673275  0.693612  0.226161  1
  O  O65  1  0.693623  0.934770  0.324093  1
  O  O66  1  0.743710  0.555600  0.443232  1
  O  O67  1  0.756290  0.944400  0.943232  1
  O  O68  1  0.743143  0.272187  0.028442  1
  O  O69  1  0.756857  0.227813  0.528442  1
  O  O70  1  0.806377  0.565230  0.824093  1
  O  O71  1  0.826725  0.806388  0.726161  1
  O  O72  1  0.878235  0.754578  0.011490  1
  O  O73  1  0.869635  0.016880  0.585483  1
  O  O74  1  0.886966  0.167414  0.805950  1
  O  O75  1  0.902517  0.414484  0.632920  1
  O  O76  1  0.927424  0.805930  0.422687  1
  O  O77  1  0.941358  0.394906  0.334304  1
  O  O78  1  0.943487  0.093235  0.116691  1
  O  O79  1  0.943049  0.556234  0.122379  1
