# generated using pymatgen
data_RbLi2Ni2(BO3)3
_symmetry_space_group_name_H-M   'P 1'
_cell_length_a   6.37065610
_cell_length_b   5.00429520
_cell_length_c   12.90653433
_cell_angle_alpha   90.00000000
_cell_angle_beta   91.65427513
_cell_angle_gamma   90.00000000
_symmetry_Int_Tables_number   1
_chemical_formula_structural   RbLi2Ni2(BO3)3
_chemical_formula_sum   'Rb2 Li4 Ni4 B6 O18'
_cell_volume   411.29712983
_cell_formula_units_Z   2
loop_
 _symmetry_equiv_pos_site_id
 _symmetry_equiv_pos_as_xyz
  1  'x, y, z'
loop_
 _atom_site_type_symbol
 _atom_site_label
 _atom_site_symmetry_multiplicity
 _atom_site_fract_x
 _atom_site_fract_y
 _atom_site_fract_z
 _atom_site_occupancy
  Rb  Rb0  1  0.000000  0.209511  0.750000  1
  Rb  Rb1  1  0.000000  0.790489  0.250000  1
  Li  Li2  1  0.496092  0.173146  0.867490  1
  Li  Li3  1  0.503908  0.173146  0.632510  1
  Li  Li4  1  0.496092  0.826854  0.367490  1
  Li  Li5  1  0.503908  0.826854  0.132510  1
  Ni  Ni6  1  0.231720  0.684416  0.565605  1
  Ni  Ni7  1  0.231720  0.315584  0.065605  1
  Ni  Ni8  1  0.768280  0.684416  0.934395  1
  Ni  Ni9  1  0.768280  0.315584  0.434395  1
  B  B10  1  0.193369  0.817222  0.958894  1
  B  B11  1  0.193369  0.182778  0.458894  1
  B  B12  1  0.500000  0.664722  0.750000  1
  B  B13  1  0.500000  0.335278  0.250000  1
  B  B14  1  0.806631  0.817222  0.541106  1
  B  B15  1  0.806631  0.182778  0.041106  1
  O  O16  1  0.042909  0.703519  0.893305  1
  O  O17  1  0.042909  0.296481  0.393305  1
  O  O18  1  0.241282  0.086626  0.949820  1
  O  O19  1  0.241282  0.913374  0.449820  1
  O  O20  1  0.299852  0.331991  0.533464  1
  O  O21  1  0.299852  0.668009  0.033464  1
  O  O22  1  0.403364  0.819539  0.671204  1
  O  O23  1  0.403364  0.180461  0.171204  1
  O  O24  1  0.500000  0.397558  0.750000  1
  O  O25  1  0.500000  0.602442  0.250000  1
  O  O26  1  0.596636  0.819539  0.828796  1
  O  O27  1  0.596636  0.180461  0.328796  1
  O  O28  1  0.700148  0.331991  0.966536  1
  O  O29  1  0.700148  0.668009  0.466536  1
  O  O30  1  0.758718  0.086626  0.550180  1
  O  O31  1  0.758718  0.913374  0.050180  1
  O  O32  1  0.957091  0.703519  0.606695  1
  O  O33  1  0.957091  0.296481  0.106695  1
