# generated using pymatgen
data_LiCoSiO4
_symmetry_space_group_name_H-M   'P 1'
_cell_length_a   4.77092603
_cell_length_b   5.79618306
_cell_length_c   10.15644328
_cell_angle_alpha   90.00074082
_cell_angle_beta   89.97814964
_cell_angle_gamma   89.99728827
_symmetry_Int_Tables_number   1
_chemical_formula_structural   LiCoSiO4
_chemical_formula_sum   'Li4 Co4 Si4 O16'
_cell_volume   280.85773714
_cell_formula_units_Z   4
loop_
 _symmetry_equiv_pos_site_id
 _symmetry_equiv_pos_as_xyz
  1  'x, y, z'
loop_
 _atom_site_type_symbol
 _atom_site_label
 _atom_site_symmetry_multiplicity
 _atom_site_fract_x
 _atom_site_fract_y
 _atom_site_fract_z
 _atom_site_occupancy
  Li  Li0  1  0.999610  0.256536  0.499928  1
  Li  Li1  1  0.500289  0.256318  0.000207  1
  Li  Li2  1  0.500375  0.756292  0.999834  1
  Li  Li3  1  0.999532  0.756070  0.499554  1
  Co  Co4  1  0.017249  0.006588  0.224306  1
  Co  Co5  1  0.482522  0.006574  0.724451  1
  Co  Co6  1  0.517424  0.506621  0.275509  1
  Co  Co7  1  0.982820  0.506617  0.775740  1
  Si  Si8  1  0.056137  0.506569  0.093440  1
  Si  Si9  1  0.444634  0.506572  0.593599  1
  Si  Si10  1  0.555414  0.006602  0.406411  1
  Si  Si11  1  0.944696  0.006606  0.906643  1
  O  O12  1  0.188853  0.506530  0.945070  1
  O  O13  1  0.212019  0.288174  0.172341  1
  O  O14  1  0.211985  0.725010  0.172337  1
  O  O15  1  0.215851  0.006509  0.399087  1
  O  O16  1  0.283443  0.006512  0.899438  1
  O  O17  1  0.288133  0.724979  0.672443  1
  O  O18  1  0.288093  0.288179  0.672443  1
  O  O19  1  0.311863  0.506518  0.445058  1
  O  O20  1  0.687587  0.006519  0.554756  1
  O  O21  1  0.711585  0.788247  0.327536  1
  O  O22  1  0.711549  0.224933  0.327538  1
  O  O23  1  0.716691  0.506520  0.100656  1
  O  O24  1  0.783356  0.506514  0.600833  1
  O  O25  1  0.788319  0.225028  0.827877  1
  O  O26  1  0.788284  0.788157  0.827861  1
  O  O27  1  0.811685  0.006504  0.055102  1
