# generated using pymatgen
data_CoH2(SN)4
_symmetry_space_group_name_H-M   'P 1'
_cell_length_a   8.81505446
_cell_length_b   16.94511868
_cell_length_c   13.02930713
_cell_angle_alpha   90.00000000
_cell_angle_beta   94.22086264
_cell_angle_gamma   90.00000000
_symmetry_Int_Tables_number   1
_chemical_formula_structural   CoH2(SN)4
_chemical_formula_sum   'Co8 H16 S32 N32'
_cell_volume   1940.93690561
_cell_formula_units_Z   8
loop_
 _symmetry_equiv_pos_site_id
 _symmetry_equiv_pos_as_xyz
  1  'x, y, z'
loop_
 _atom_site_type_symbol
 _atom_site_label
 _atom_site_symmetry_multiplicity
 _atom_site_fract_x
 _atom_site_fract_y
 _atom_site_fract_z
 _atom_site_occupancy
  Co  Co0  1  0.300334  0.378478  0.107243  1
  Co  Co1  1  0.199666  0.878478  0.892757  1
  Co  Co2  1  0.699666  0.621522  0.892757  1
  Co  Co3  1  0.800334  0.121522  0.107243  1
  Co  Co4  1  0.920352  0.365377  0.625938  1
  Co  Co5  1  0.579648  0.865377  0.374062  1
  Co  Co6  1  0.079648  0.634623  0.374062  1
  Co  Co7  1  0.420352  0.134623  0.625938  1
  H  H8  1  0.209608  0.353574  0.321878  1
  H  H9  1  0.290392  0.853574  0.678122  1
  H  H10  1  0.790392  0.646426  0.678122  1
  H  H11  1  0.709608  0.146426  0.321878  1
  H  H12  1  0.875064  0.315899  0.721169  1
  H  H13  1  0.624936  0.815899  0.278831  1
  H  H14  1  0.124936  0.684101  0.278831  1
  H  H15  1  0.375064  0.184101  0.721169  1
  H  H16  1  0.287941  0.463177  0.088073  1
  H  H17  1  0.212059  0.963177  0.911927  1
  H  H18  1  0.712059  0.536823  0.911927  1
  H  H19  1  0.787941  0.036823  0.088073  1
  H  H20  1  0.970458  0.319803  0.932444  1
  H  H21  1  0.529542  0.819803  0.067556  1
  H  H22  1  0.029542  0.680197  0.067556  1
  H  H23  1  0.470458  0.180197  0.932444  1
  S  S24  1  0.528911  0.392066  0.080261  1
  S  S25  1  0.971089  0.892066  0.919739  1
  S  S26  1  0.471089  0.607934  0.919739  1
  S  S27  1  0.028911  0.107934  0.080261  1
  S  S28  1  0.522746  0.375637  0.286245  1
  S  S29  1  0.977254  0.875637  0.713755  1
  S  S30  1  0.477254  0.624363  0.713755  1
  S  S31  1  0.022746  0.124363  0.286245  1
  S  S32  1  0.228554  0.362375  0.947238  1
  S  S33  1  0.271446  0.862375  0.052762  1
  S  S34  1  0.771446  0.637625  0.052762  1
  S  S35  1  0.728554  0.137625  0.947238  1
  S  S36  1  0.055059  0.348807  0.109104  1
  S  S37  1  0.444941  0.848807  0.890896  1
  S  S38  1  0.944941  0.651193  0.890896  1
  S  S39  1  0.555059  0.151193  0.109104  1
  S  S40  1  0.912651  0.302777  0.488190  1
  S  S41  1  0.587349  0.802777  0.511810  1
  S  S42  1  0.087349  0.697223  0.511810  1
  S  S43  1  0.412651  0.197223  0.488190  1
  S  S44  1  0.155239  0.389239  0.623237  1
  S  S45  1  0.344761  0.889239  0.376763  1
  S  S46  1  0.844761  0.610761  0.376763  1
  S  S47  1  0.655239  0.110761  0.623237  1
  S  S48  1  0.608867  0.427136  0.646297  1
  S  S49  1  0.891133  0.927136  0.353703  1
  S  S50  1  0.391133  0.572864  0.353703  1
  S  S51  1  0.108867  0.072864  0.646297  1
  S  S52  1  0.691181  0.319290  0.813581  1
  S  S53  1  0.808819  0.819290  0.186419  1
  S  S54  1  0.308819  0.680710  0.186419  1
  S  S55  1  0.191181  0.180710  0.813581  1
  N  N56  1  0.350150  0.370142  0.245581  1
  N  N57  1  0.149850  0.870142  0.754419  1
  N  N58  1  0.649850  0.629858  0.754419  1
  N  N59  1  0.850150  0.129858  0.245581  1
  N  N60  1  0.626848  0.389657  0.191752  1
  N  N61  1  0.873152  0.889657  0.808248  1
  N  N62  1  0.373152  0.610343  0.808248  1
  N  N63  1  0.126848  0.110343  0.191752  1
  N  N64  1  0.239613  0.464076  0.643778  1
  N  N65  1  0.260387  0.964076  0.356222  1
  N  N66  1  0.760387  0.535924  0.356222  1
  N  N67  1  0.739613  0.035924  0.643778  1
  N  N68  1  0.055299  0.343134  0.981702  1
  N  N69  1  0.444701  0.843134  0.018298  1
  N  N70  1  0.944701  0.656866  0.018298  1
  N  N71  1  0.555299  0.156866  0.981702  1
  N  N72  1  0.096754  0.337513  0.344310  1
  N  N73  1  0.403246  0.837513  0.655690  1
  N  N74  1  0.903246  0.662487  0.655690  1
  N  N75  1  0.596754  0.162487  0.344310  1
  N  N76  1  0.087797  0.336963  0.437243  1
  N  N77  1  0.412203  0.836963  0.562757  1
  N  N78  1  0.912203  0.663037  0.562757  1
  N  N79  1  0.587797  0.163037  0.437243  1
  N  N80  1  0.780482  0.435993  0.627625  1
  N  N81  1  0.719518  0.935993  0.372375  1
  N  N82  1  0.219518  0.564007  0.372375  1
  N  N83  1  0.280482  0.064007  0.627625  1
  N  N84  1  0.573719  0.374923  0.749848  1
  N  N85  1  0.926281  0.874923  0.250152  1
  N  N86  1  0.426281  0.625077  0.250152  1
  N  N87  1  0.073719  0.125077  0.749848  1
