# generated using pymatgen
data_Y(BO2)3
_symmetry_space_group_name_H-M   'P 1'
_cell_length_a   18.39919568
_cell_length_b   4.44450454
_cell_length_c   4.26953172
_cell_angle_alpha   90.00000000
_cell_angle_beta   90.00000000
_cell_angle_gamma   90.00000000
_symmetry_Int_Tables_number   1
_chemical_formula_structural   Y(BO2)3
_chemical_formula_sum   'Y4 B12 O24'
_cell_volume   349.14227454
_cell_formula_units_Z   4
loop_
 _symmetry_equiv_pos_site_id
 _symmetry_equiv_pos_as_xyz
  1  'x, y, z'
loop_
 _atom_site_type_symbol
 _atom_site_label
 _atom_site_symmetry_multiplicity
 _atom_site_fract_x
 _atom_site_fract_y
 _atom_site_fract_z
 _atom_site_occupancy
  Y  Y0  1  0.165348  0.821379  0.600866  1
  Y  Y1  1  0.334652  0.821379  0.100866  1
  Y  Y2  1  0.665348  0.178621  0.600866  1
  Y  Y3  1  0.834652  0.178621  0.100866  1
  B  B4  1  0.001266  0.174879  0.696989  1
  B  B5  1  0.073684  0.329458  0.169091  1
  B  B6  1  0.212589  0.354779  0.125981  1
  B  B7  1  0.287411  0.354779  0.625981  1
  B  B8  1  0.426316  0.329458  0.669091  1
  B  B9  1  0.498734  0.174879  0.196989  1
  B  B10  1  0.501266  0.825121  0.696989  1
  B  B11  1  0.573684  0.670542  0.169091  1
  B  B12  1  0.712589  0.645221  0.125981  1
  B  B13  1  0.787411  0.645221  0.625981  1
  B  B14  1  0.926316  0.670542  0.669091  1
  B  B15  1  0.998734  0.825121  0.196989  1
  O  O16  1  0.015967  0.133960  0.339165  1
  O  O17  1  0.062699  0.644282  0.255232  1
  O  O18  1  0.068614  0.269011  0.834275  1
  O  O19  1  0.145842  0.235448  0.275447  1
  O  O20  1  0.209587  0.681768  0.117757  1
  O  O21  1  0.223280  0.240543  0.806638  1
  O  O22  1  0.276720  0.240543  0.306638  1
  O  O23  1  0.290413  0.681768  0.617757  1
  O  O24  1  0.354158  0.235448  0.775447  1
  O  O25  1  0.431386  0.269011  0.334275  1
  O  O26  1  0.437301  0.644282  0.755232  1
  O  O27  1  0.484033  0.133960  0.839165  1
  O  O28  1  0.515967  0.866040  0.339165  1
  O  O29  1  0.562699  0.355718  0.255232  1
  O  O30  1  0.568614  0.730989  0.834275  1
  O  O31  1  0.645842  0.764552  0.275447  1
  O  O32  1  0.709587  0.318232  0.117757  1
  O  O33  1  0.723280  0.759457  0.806638  1
  O  O34  1  0.776720  0.759457  0.306638  1
  O  O35  1  0.790413  0.318232  0.617757  1
  O  O36  1  0.854158  0.764552  0.775447  1
  O  O37  1  0.931386  0.730989  0.334275  1
  O  O38  1  0.937301  0.355718  0.755232  1
  O  O39  1  0.984033  0.866040  0.839165  1
