# generated using pymatgen
data_Li32Ti13Cr3O48
_symmetry_space_group_name_H-M   'P 1'
_cell_length_a   5.08123461
_cell_length_b   8.82920098
_cell_length_c   19.60196177
_cell_angle_alpha   98.37144377
_cell_angle_beta   94.66808728
_cell_angle_gamma   89.96630210
_symmetry_Int_Tables_number   1
_chemical_formula_structural   Li32Ti13Cr3O48
_chemical_formula_sum   'Li32 Ti13 Cr3 O48'
_cell_volume   867.09490427
_cell_formula_units_Z   1
loop_
 _symmetry_equiv_pos_site_id
 _symmetry_equiv_pos_as_xyz
  1  'x, y, z'
loop_
 _atom_site_type_symbol
 _atom_site_label
 _atom_site_symmetry_multiplicity
 _atom_site_fract_x
 _atom_site_fract_y
 _atom_site_fract_z
 _atom_site_occupancy
  Li  Li0  1  0.990916  0.168645  0.249848  1
  Li  Li1  1  0.875400  0.377000  0.375134  1
  Li  Li2  1  0.751388  0.250135  0.000130  1
  Li  Li3  1  0.742901  0.921069  0.000396  1
  Li  Li4  1  0.988868  0.168815  0.749254  1
  Li  Li5  1  0.759527  0.580884  0.499043  1
  Li  Li6  1  0.874016  0.375771  0.875148  1
  Li  Li7  1  0.754596  0.248954  0.500045  1
  Li  Li8  1  0.741143  0.918945  0.499689  1
  Li  Li9  1  0.624927  0.124994  0.125005  1
  Li  Li10  1  0.754221  0.578471  0.999208  1
  Li  Li11  1  0.509070  0.330617  0.249946  1
  Li  Li12  1  0.626462  0.125398  0.624857  1
  Li  Li13  1  0.498738  0.999925  0.249780  1
  Li  Li14  1  0.495435  0.669816  0.250250  1
  Li  Li15  1  0.506379  0.332489  0.750619  1
  Li  Li16  1  0.376236  0.874520  0.374847  1
  Li  Li17  1  0.501023  0.999479  0.750674  1
  Li  Li18  1  0.251020  0.749186  0.999460  1
  Li  Li19  1  0.488854  0.668711  0.750745  1
  Li  Li20  1  0.243545  0.420810  0.999744  1
  Li  Li21  1  0.374511  0.873403  0.874849  1
  Li  Li22  1  0.258534  0.081408  0.500501  1
  Li  Li23  1  0.245734  0.750051  0.499879  1
  Li  Li24  1  0.124941  0.624999  0.124998  1
  Li  Li25  1  0.240721  0.419674  0.500665  1
  Li  Li26  1  0.007368  0.830523  0.250575  1
  Li  Li27  1  0.257339  0.079745  0.999734  1
  Li  Li28  1  0.125894  0.623558  0.625151  1
  Li  Li29  1  0.997344  0.500849  0.250407  1
  Li  Li30  1  0.009963  0.831692  0.749840  1
  Li  Li31  1  0.005942  0.498876  0.749622  1
  Ti  Ti32  1  0.872967  0.039241  0.373667  1
  Ti  Ti33  1  0.872788  0.707184  0.873419  1
  Ti  Ti34  1  0.879661  0.041031  0.874497  1
  Ti  Ti35  1  0.626352  0.790897  0.124969  1
  Ti  Ti36  1  0.623988  0.458852  0.125008  1
  Ti  Ti37  1  0.622055  0.791093  0.625163  1
  Ti  Ti38  1  0.626803  0.459166  0.626677  1
  Ti  Ti39  1  0.376141  0.541458  0.375998  1
  Ti  Ti40  1  0.372616  0.208582  0.375450  1
  Ti  Ti41  1  0.379195  0.211275  0.876818  1
  Ti  Ti42  1  0.124020  0.958466  0.124990  1
  Ti  Ti43  1  0.126449  0.291380  0.125070  1
  Ti  Ti44  1  0.118280  0.959651  0.623305  1
  Cr  Cr45  1  0.877484  0.709823  0.375093  1
  Cr  Cr46  1  0.371876  0.540708  0.875118  1
  Cr  Cr47  1  0.131057  0.290273  0.624834  1
  O  O48  1  0.962328  0.106423  0.068361  1
  O  O49  1  0.928623  0.784446  0.068089  1
  O  O50  1  0.928079  0.427433  0.067218  1
  O  O51  1  0.959942  0.105064  0.567996  1
  O  O52  1  0.821232  0.965368  0.181749  1
  O  O53  1  0.822002  0.322556  0.182992  1
  O  O54  1  0.929669  0.785283  0.568269  1
  O  O55  1  0.930664  0.425063  0.568245  1
  O  O56  1  0.787732  0.643437  0.181555  1
  O  O57  1  0.709850  0.857244  0.318429  1
  O  O58  1  0.821431  0.965858  0.681840  1
  O  O59  1  0.826068  0.320328  0.681820  1
  O  O60  1  0.680766  0.537127  0.319085  1
  O  O61  1  0.678082  0.176514  0.317107  1
  O  O62  1  0.786464  0.643172  0.682083  1
  O  O63  1  0.712779  0.855885  0.818059  1
  O  O64  1  0.462362  0.606364  0.068363  1
  O  O65  1  0.576799  0.716635  0.430574  1
  O  O66  1  0.572193  0.072377  0.433013  1
  O  O67  1  0.674878  0.533069  0.818964  1
  O  O68  1  0.677119  0.177658  0.816935  1
  O  O69  1  0.428039  0.927296  0.067013  1
  O  O70  1  0.428918  0.284571  0.068342  1
  O  O71  1  0.536298  0.393824  0.432081  1
  O  O72  1  0.465596  0.605940  0.568113  1
  O  O73  1  0.567131  0.712095  0.930617  1
  O  O74  1  0.571050  0.073472  0.932830  1
  O  O75  1  0.322066  0.822426  0.182813  1
  O  O76  1  0.321344  0.465673  0.181948  1
  O  O77  1  0.428215  0.927633  0.567009  1
  O  O78  1  0.419968  0.283126  0.568939  1
  O  O79  1  0.540311  0.393264  0.931820  1
  O  O80  1  0.287544  0.143402  0.181621  1
  O  O81  1  0.214863  0.357326  0.318241  1
  O  O82  1  0.323075  0.824204  0.682913  1
  O  O83  1  0.324578  0.466340  0.681863  1
  O  O84  1  0.168640  0.679371  0.318118  1
  O  O85  1  0.179083  0.034075  0.318278  1
  O  O86  1  0.285039  0.149015  0.681146  1
  O  O87  1  0.213913  0.362808  0.819485  1
  O  O88  1  0.074684  0.571589  0.432997  1
  O  O89  1  0.071489  0.214091  0.431583  1
  O  O90  1  0.176096  0.678366  0.817020  1
  O  O91  1  0.177701  0.036302  0.817976  1
  O  O92  1  0.036566  0.888511  0.430937  1
  O  O93  1  0.078821  0.570729  0.932225  1
  O  O94  1  0.070834  0.215778  0.931620  1
  O  O95  1  0.034390  0.892979  0.931585  1
