# generated using pymatgen
data_TiFe3Sb2(PO4)6
_symmetry_space_group_name_H-M   'P 1'
_cell_length_a   8.90544727
_cell_length_b   8.90544677
_cell_length_c   8.90544708
_cell_angle_alpha   58.80269916
_cell_angle_beta   58.80269953
_cell_angle_gamma   58.80270256
_symmetry_Int_Tables_number   1
_chemical_formula_structural   TiFe3Sb2(PO4)6
_chemical_formula_sum   'Ti1 Fe3 Sb2 P6 O24'
_cell_volume   485.74937583
_cell_formula_units_Z   1
loop_
 _symmetry_equiv_pos_site_id
 _symmetry_equiv_pos_as_xyz
  1  'x, y, z'
loop_
 _atom_site_type_symbol
 _atom_site_label
 _atom_site_symmetry_multiplicity
 _atom_site_fract_x
 _atom_site_fract_y
 _atom_site_fract_z
 _atom_site_occupancy
  Ti  Ti0  1  0.854789  0.854789  0.854789  1
  Fe  Fe1  1  0.155993  0.155993  0.155993  1
  Fe  Fe2  1  0.350950  0.350950  0.350950  1
  Fe  Fe3  1  0.648065  0.648065  0.648065  1
  Sb  Sb4  1  0.014085  0.014085  0.014085  1
  Sb  Sb5  1  0.500914  0.500914  0.500914  1
  P  P6  1  0.248903  0.546212  0.952635  1
  P  P7  1  0.546212  0.952635  0.248903  1
  P  P8  1  0.952635  0.248903  0.546212  1
  P  P9  1  0.035517  0.751865  0.460769  1
  P  P10  1  0.460769  0.035517  0.751865  1
  P  P11  1  0.751865  0.460769  0.035517  1
  O  O12  1  0.104863  0.294415  0.526728  1
  O  O13  1  0.294415  0.526728  0.104863  1
  O  O14  1  0.058268  0.922200  0.266030  1
  O  O15  1  0.526728  0.104863  0.294415  1
  O  O16  1  0.984589  0.818095  0.615373  1
  O  O17  1  0.228043  0.593362  0.444720  1
  O  O18  1  0.266030  0.058268  0.922200  1
  O  O19  1  0.444720  0.228043  0.593362  1
  O  O20  1  0.201164  0.384654  0.989306  1
  O  O21  1  0.593362  0.444720  0.228043  1
  O  O22  1  0.081465  0.733747  0.919859  1
  O  O23  1  0.384654  0.989306  0.201164  1
  O  O24  1  0.615373  0.984589  0.818095  1
  O  O25  1  0.922200  0.266030  0.058268  1
  O  O26  1  0.416830  0.564255  0.760736  1
  O  O27  1  0.818095  0.615373  0.984589  1
  O  O28  1  0.564255  0.760736  0.416830  1
  O  O29  1  0.733747  0.919859  0.081465  1
  O  O30  1  0.760736  0.416830  0.564255  1
  O  O31  1  0.989306  0.201164  0.384654  1
  O  O32  1  0.488904  0.883276  0.698420  1
  O  O33  1  0.919859  0.081465  0.733747  1
  O  O34  1  0.698420  0.488904  0.883276  1
  O  O35  1  0.883276  0.698420  0.488904  1
