# generated using pymatgen
data_Li8Mn7Fe(BO3)8
_symmetry_space_group_name_H-M   'P 1'
_cell_length_a   5.25732730
_cell_length_b   9.10981418
_cell_length_c   10.52142668
_cell_angle_alpha   91.59460831
_cell_angle_beta   91.07107032
_cell_angle_gamma   89.84107947
_symmetry_Int_Tables_number   1
_chemical_formula_structural   Li8Mn7Fe(BO3)8
_chemical_formula_sum   'Li8 Mn7 Fe1 B8 O24'
_cell_volume   503.62114652
_cell_formula_units_Z   1
loop_
 _symmetry_equiv_pos_site_id
 _symmetry_equiv_pos_as_xyz
  1  'x, y, z'
loop_
 _atom_site_type_symbol
 _atom_site_label
 _atom_site_symmetry_multiplicity
 _atom_site_fract_x
 _atom_site_fract_y
 _atom_site_fract_z
 _atom_site_occupancy
  Li  Li0  1  0.853442  0.825446  0.667808  1
  Li  Li1  1  0.813339  0.839291  0.167571  1
  Li  Li2  1  0.678882  0.668566  0.417793  1
  Li  Li3  1  0.663583  0.674229  0.917607  1
  Li  Li4  1  0.353385  0.325753  0.667932  1
  Li  Li5  1  0.311715  0.339661  0.167949  1
  Li  Li6  1  0.180400  0.168057  0.417998  1
  Li  Li7  1  0.164087  0.174088  0.918024  1
  Mn  Mn8  1  0.822047  0.501569  0.133218  1
  Mn  Mn9  1  0.841422  0.161729  0.633744  1
  Mn  Mn10  1  0.668740  0.336045  0.383572  1
  Mn  Mn11  1  0.668301  0.001819  0.883461  1
  Mn  Mn12  1  0.339323  0.662575  0.630703  1
  Mn  Mn13  1  0.321118  0.000303  0.134336  1
  Mn  Mn14  1  0.169090  0.502173  0.883196  1
  Fe  Fe15  1  0.164803  0.838095  0.382255  1
  B  B16  1  0.826286  0.170519  0.126248  1
  B  B17  1  0.842535  0.498616  0.625647  1
  B  B18  1  0.666164  0.000698  0.377341  1
  B  B19  1  0.671793  0.332863  0.875789  1
  B  B20  1  0.326650  0.670511  0.126726  1
  B  B21  1  0.342102  0.998702  0.624534  1
  B  B22  1  0.163321  0.504201  0.374926  1
  B  B23  1  0.171792  0.832824  0.875647  1
  O  O24  1  0.903080  0.518763  0.345148  1
  O  O25  1  0.910357  0.820834  0.861077  1
  O  O26  1  0.825943  0.211132  0.845394  1
  O  O27  1  0.805214  0.123892  0.416982  1
  O  O28  1  0.783097  0.864649  0.362851  1
  O  O29  1  0.782834  0.464830  0.917772  1
  O  O30  1  0.733588  0.635824  0.610971  1
  O  O31  1  0.710323  0.035028  0.096452  1
  O  O32  1  0.697089  0.373013  0.595720  1
  O  O33  1  0.677599  0.289381  0.166955  1
  O  O34  1  0.586556  0.685393  0.111854  1
  O  O35  1  0.594570  0.983439  0.666058  1
  O  O36  1  0.405177  0.012047  0.348233  1
  O  O37  1  0.410572  0.320697  0.861182  1
  O  O38  1  0.325800  0.711346  0.845004  1
  O  O39  1  0.303756  0.626979  0.415329  1
  O  O40  1  0.276606  0.367128  0.361777  1
  O  O41  1  0.282448  0.964871  0.917828  1
  O  O42  1  0.211417  0.535087  0.095947  1
  O  O43  1  0.234284  0.136460  0.610848  1
  O  O44  1  0.196339  0.873695  0.593779  1
  O  O45  1  0.177863  0.789112  0.167876  1
  O  O46  1  0.086535  0.184776  0.111976  1
  O  O47  1  0.095234  0.483888  0.666556  1
