# generated using pymatgen
data_Li3Mn2(CoO4)2
_symmetry_space_group_name_H-M   'P 1'
_cell_length_a   5.75903701
_cell_length_b   5.94249182
_cell_length_c   5.89901683
_cell_angle_alpha   58.51675087
_cell_angle_beta   61.20328472
_cell_angle_gamma   90.41302847
_symmetry_Int_Tables_number   1
_chemical_formula_structural   Li3Mn2(CoO4)2
_chemical_formula_sum   'Li3 Mn2 Co2 O8'
_cell_volume   141.53925608
_cell_formula_units_Z   1
loop_
 _symmetry_equiv_pos_site_id
 _symmetry_equiv_pos_as_xyz
  1  'x, y, z'
loop_
 _atom_site_type_symbol
 _atom_site_label
 _atom_site_symmetry_multiplicity
 _atom_site_fract_x
 _atom_site_fract_y
 _atom_site_fract_z
 _atom_site_occupancy
  Li  Li0  1  0.500000  0.500000  0.500000  1
  Li  Li1  1  0.500000  0.500000  0.000000  1
  Li  Li2  1  0.500000  0.000000  0.500000  1
  Mn  Mn3  1  0.000000  0.500000  0.500000  1
  Mn  Mn4  1  0.500000  0.000000  0.000000  1
  Co  Co5  1  0.000000  0.000000  0.500000  1
  Co  Co6  1  0.000000  0.000000  0.000000  1
  O  O7  1  0.745069  0.784710  0.997244  1
  O  O8  1  0.254397  0.751592  0.465552  1
  O  O9  1  0.223609  0.254907  0.525673  1
  O  O10  1  0.240691  0.765219  0.024530  1
  O  O11  1  0.759309  0.234781  0.975470  1
  O  O12  1  0.776391  0.745093  0.474327  1
  O  O13  1  0.745603  0.248408  0.534448  1
  O  O14  1  0.254931  0.215290  0.002756  1
