# generated using pymatgen
data_Ca4Ta2O9
_symmetry_space_group_name_H-M   'P 1'
_cell_length_a   5.76092640
_cell_length_b   14.87329634
_cell_length_c   5.76243511
_cell_angle_alpha   90.09521122
_cell_angle_beta   119.95415965
_cell_angle_gamma   89.80015421
_symmetry_Int_Tables_number   1
_chemical_formula_structural   Ca4Ta2O9
_chemical_formula_sum   'Ca8 Ta4 O18'
_cell_volume   427.79333781
_cell_formula_units_Z   2
loop_
 _symmetry_equiv_pos_site_id
 _symmetry_equiv_pos_as_xyz
  1  'x, y, z'
loop_
 _atom_site_type_symbol
 _atom_site_label
 _atom_site_symmetry_multiplicity
 _atom_site_fract_x
 _atom_site_fract_y
 _atom_site_fract_z
 _atom_site_occupancy
  Ca  Ca0  1  0.000742  0.744775  0.997997  1
  Ca  Ca1  1  0.000000  0.500000  0.000000  1
  Ca  Ca2  1  0.000000  0.000000  0.000000  1
  Ca  Ca3  1  0.334420  0.656208  0.666589  1
  Ca  Ca4  1  0.339936  0.905044  0.667278  1
  Ca  Ca5  1  0.660064  0.094956  0.332722  1
  Ca  Ca6  1  0.665580  0.343792  0.333411  1
  Ca  Ca7  1  0.999258  0.255225  0.002003  1
  Ta  Ta8  1  0.328480  0.150827  0.665007  1
  Ta  Ta9  1  0.332994  0.350745  0.667262  1
  Ta  Ta10  1  0.667006  0.649255  0.332738  1
  Ta  Ta11  1  0.671520  0.849173  0.334993  1
  O  O12  1  0.039057  0.247817  0.619410  1
  O  O13  1  0.293884  0.401156  0.948415  1
  O  O14  1  0.282612  0.089770  0.932254  1
  O  O15  1  0.051093  0.399685  0.344231  1
  O  O16  1  0.060329  0.089040  0.354158  1
  O  O17  1  0.575113  0.246927  0.956897  1
  O  O18  1  0.381544  0.246012  0.423349  1
  O  O19  1  0.366000  0.915361  0.291108  1
  O  O20  1  0.347182  0.599327  0.294290  1
  O  O21  1  0.652818  0.400673  0.705710  1
  O  O22  1  0.634000  0.084639  0.708892  1
  O  O23  1  0.618456  0.753988  0.576651  1
  O  O24  1  0.424887  0.753073  0.043104  1
  O  O25  1  0.939671  0.910960  0.645842  1
  O  O26  1  0.948907  0.600315  0.655769  1
  O  O27  1  0.717388  0.910230  0.067746  1
  O  O28  1  0.706116  0.598844  0.051584  1
  O  O29  1  0.960943  0.752183  0.380590  1
