# generated using pymatgen
data_SrNd7Fe8(AsO)8
_symmetry_space_group_name_H-M   'P 1'
_cell_length_a   8.19414477
_cell_length_b   8.19414532
_cell_length_c   11.01546644
_cell_angle_alpha   68.19275170
_cell_angle_beta   68.19273752
_cell_angle_gamma   90.06974700
_symmetry_Int_Tables_number   1
_chemical_formula_structural   SrNd7Fe8(AsO)8
_chemical_formula_sum   'Sr1 Nd7 Fe8 As8 O8'
_cell_volume   629.18358835
_cell_formula_units_Z   1
loop_
 _symmetry_equiv_pos_site_id
 _symmetry_equiv_pos_as_xyz
  1  'x, y, z'
loop_
 _atom_site_type_symbol
 _atom_site_label
 _atom_site_symmetry_multiplicity
 _atom_site_fract_x
 _atom_site_fract_y
 _atom_site_fract_z
 _atom_site_occupancy
  Sr  Sr0  1  0.691163  0.941163  0.867673  1
  Nd  Nd1  1  0.314904  0.564904  0.122218  1
  Nd  Nd2  1  0.315432  0.062680  0.121888  1
  Nd  Nd3  1  0.185596  0.935596  0.878808  1
  Nd  Nd4  1  0.187374  0.437374  0.875252  1
  Nd  Nd5  1  0.812680  0.565432  0.121888  1
  Nd  Nd6  1  0.812878  0.062878  0.122218  1
  Nd  Nd7  1  0.685596  0.435596  0.878808  1
  Fe  Fe8  1  0.125823  0.626427  0.498831  1
  Fe  Fe9  1  0.124684  0.125324  0.500274  1
  Fe  Fe10  1  0.374742  0.875345  0.498831  1
  Fe  Fe11  1  0.376427  0.375823  0.498831  1
  Fe  Fe12  1  0.625345  0.624742  0.498831  1
  Fe  Fe13  1  0.625042  0.124403  0.500274  1
  Fe  Fe14  1  0.874403  0.875042  0.500274  1
  Fe  Fe15  1  0.875324  0.374684  0.500274  1
  As  As16  1  0.038487  0.787014  0.674499  1
  As  As17  1  0.040446  0.290446  0.674009  1
  As  As18  1  0.463518  0.713518  0.322963  1
  As  As19  1  0.462396  0.212396  0.325208  1
  As  As20  1  0.535545  0.785545  0.674009  1
  As  As21  1  0.537014  0.288487  0.674499  1
  As  As22  1  0.962396  0.712396  0.325208  1
  As  As23  1  0.962810  0.212810  0.324380  1
  O  O24  1  0.125525  0.623174  0.998686  1
  O  O25  1  0.125789  0.128140  0.998686  1
  O  O26  1  0.362661  0.871587  0.006327  1
  O  O27  1  0.373174  0.375525  0.998686  1
  O  O28  1  0.621587  0.612661  0.006327  1
  O  O29  1  0.622086  0.131012  0.006327  1
  O  O30  1  0.881012  0.872086  0.006327  1
  O  O31  1  0.878140  0.375789  0.998686  1
