# generated using pymatgen
data_Li5MnO3F2
_symmetry_space_group_name_H-M   'P 1'
_cell_length_a   3.95583894
_cell_length_b   5.15763724
_cell_length_c   5.99605094
_cell_angle_alpha   73.16524488
_cell_angle_beta   89.93188785
_cell_angle_gamma   67.42220798
_symmetry_Int_Tables_number   1
_chemical_formula_structural   Li5MnO3F2
_chemical_formula_sum   'Li5 Mn1 O3 F2'
_cell_volume   107.27835913
_cell_formula_units_Z   1
loop_
 _symmetry_equiv_pos_site_id
 _symmetry_equiv_pos_as_xyz
  1  'x, y, z'
loop_
 _atom_site_type_symbol
 _atom_site_label
 _atom_site_symmetry_multiplicity
 _atom_site_fract_x
 _atom_site_fract_y
 _atom_site_fract_z
 _atom_site_occupancy
  Li  Li0  1  0.672326  0.654247  0.873260  1
  Li  Li1  1  0.699046  0.595833  0.307133  1
  Li  Li2  1  0.297049  0.405187  0.685817  1
  Li  Li3  1  0.324722  0.346965  0.118951  1
  Li  Li4  1  0.995217  0.000234  0.496173  1
  Mn  Mn5  1  0.998379  0.000791  0.996050  1
  O  O6  1  0.137316  0.723802  0.819628  1
  O  O7  1  0.859273  0.277710  0.173180  1
  O  O8  1  0.498029  0.001532  0.995411  1
  F  F9  1  0.176329  0.641939  0.350343  1
  F  F10  1  0.818157  0.360842  0.642119  1
