# generated using pymatgen
data_V5Sb(PO4)6
_symmetry_space_group_name_H-M   'P 1'
_cell_length_a   8.61523252
_cell_length_b   8.76816498
_cell_length_c   8.76816567
_cell_angle_alpha   59.99999574
_cell_angle_beta   59.41102941
_cell_angle_gamma   59.41102658
_symmetry_Int_Tables_number   1
_chemical_formula_structural   V5Sb(PO4)6
_chemical_formula_sum   'V5 Sb1 P6 O24'
_cell_volume   464.13606007
_cell_formula_units_Z   1
loop_
 _symmetry_equiv_pos_site_id
 _symmetry_equiv_pos_as_xyz
  1  'x, y, z'
loop_
 _atom_site_type_symbol
 _atom_site_label
 _atom_site_symmetry_multiplicity
 _atom_site_fract_x
 _atom_site_fract_y
 _atom_site_fract_z
 _atom_site_occupancy
  V  V0  1  0.001498  0.999501  0.999501  1
  V  V1  1  0.063652  0.645449  0.645449  1
  V  V2  1  0.496140  0.501287  0.501287  1
  V  V3  1  0.430932  0.856356  0.856356  1
  V  V4  1  0.927945  0.357352  0.357352  1
  Sb  Sb5  1  0.549601  0.150133  0.150133  1
  P  P6  1  0.241746  0.252291  0.559452  1
  P  P7  1  0.241746  0.946511  0.252291  1
  P  P8  1  0.241746  0.559452  0.946511  1
  P  P9  1  0.754102  0.460861  0.043218  1
  P  P10  1  0.754102  0.043218  0.741818  1
  P  P11  1  0.754102  0.741818  0.460861  1
  O  O12  1  0.075795  0.110382  0.313549  1
  O  O13  1  0.075795  0.500273  0.110382  1
  O  O14  1  0.075795  0.313549  0.500273  1
  O  O15  1  0.213747  0.096787  0.756668  1
  O  O16  1  0.439233  0.180533  0.420115  1
  O  O17  1  0.258439  0.412252  0.578548  1
  O  O18  1  0.213747  0.932798  0.096787  1
  O  O19  1  0.258439  0.750760  0.412252  1
  O  O20  1  0.571514  0.610354  0.002096  1
  O  O21  1  0.258439  0.578548  0.750760  1
  O  O22  1  0.797694  0.261783  0.047842  1
  O  O23  1  0.571514  0.002096  0.816034  1
  O  O24  1  0.439233  0.960119  0.180533  1
  O  O25  1  0.213747  0.756668  0.932798  1
  O  O26  1  0.726683  0.442430  0.241281  1
  O  O27  1  0.439233  0.420115  0.960119  1
  O  O28  1  0.726683  0.241281  0.589606  1
  O  O29  1  0.797694  0.047842  0.892683  1
  O  O30  1  0.726683  0.589606  0.442430  1
  O  O31  1  0.571514  0.816034  0.610354  1
  O  O32  1  0.797694  0.892683  0.261783  1
  O  O33  1  0.931125  0.663978  0.514956  1
  O  O34  1  0.931125  0.514956  0.889942  1
  O  O35  1  0.931125  0.889942  0.663978  1
