# generated using pymatgen
data_Li4Mn3Fe(BO3)4
_symmetry_space_group_name_H-M   'P 1'
_cell_length_a   5.24650923
_cell_length_b   5.24967041
_cell_length_c   20.95165765
_cell_angle_alpha   89.14433263
_cell_angle_beta   90.77882588
_cell_angle_gamma   60.20242276
_symmetry_Int_Tables_number   1
_chemical_formula_structural   Li4Mn3Fe(BO3)4
_chemical_formula_sum   'Li8 Mn6 Fe2 B8 O24'
_cell_volume   500.56204005
_cell_formula_units_Z   2
loop_
 _symmetry_equiv_pos_site_id
 _symmetry_equiv_pos_as_xyz
  1  'x, y, z'
loop_
 _atom_site_type_symbol
 _atom_site_label
 _atom_site_symmetry_multiplicity
 _atom_site_fract_x
 _atom_site_fract_y
 _atom_site_fract_z
 _atom_site_occupancy
  Li  Li0  1  0.321835  0.652042  0.665966  1
  Li  Li1  1  0.347517  0.678632  0.915742  1
  Li  Li2  1  0.320944  0.651400  0.165863  1
  Li  Li3  1  0.349179  0.679079  0.416080  1
  Li  Li4  1  0.653171  0.337863  0.791750  1
  Li  Li5  1  0.661973  0.348442  0.541514  1
  Li  Li6  1  0.651859  0.338074  0.291145  1
  Li  Li7  1  0.662142  0.346378  0.041389  1
  Mn  Mn8  1  0.324536  0.006577  0.559121  1
  Mn  Mn9  1  0.331176  0.003626  0.057217  1
  Mn  Mn10  1  0.677307  0.002969  0.433922  1
  Mn  Mn11  1  0.996759  0.322823  0.183124  1
  Mn  Mn12  1  0.992832  0.673144  0.807948  1
  Mn  Mn13  1  0.996911  0.670697  0.308362  1
  Fe  Fe14  1  0.683731  0.003293  0.933480  1
  Fe  Fe15  1  0.995902  0.317723  0.683955  1
  B  B16  1  0.002670  0.338780  0.936780  1
  B  B17  1  0.002581  0.341816  0.437213  1
  B  B18  1  0.333926  0.005031  0.812382  1
  B  B19  1  0.334928  0.004471  0.312098  1
  B  B20  1  0.661528  0.997153  0.686984  1
  B  B21  1  0.658128  0.997394  0.186953  1
  B  B22  1  0.993997  0.665758  0.563051  1
  B  B23  1  0.996769  0.665191  0.061411  1
  O  O24  1  0.071186  0.248034  0.791019  1
  O  O25  1  0.070800  0.247079  0.291016  1
  O  O26  1  0.258768  0.071226  0.950334  1
  O  O27  1  0.020085  0.585069  0.918043  1
  O  O28  1  0.253031  0.070685  0.452248  1
  O  O29  1  0.032930  0.579131  0.416634  1
  O  O30  1  0.577599  0.037108  0.827797  1
  O  O31  1  0.268086  0.642164  0.569980  1
  O  O32  1  0.578267  0.037344  0.327398  1
  O  O33  1  0.270203  0.641841  0.068864  1
  O  O34  1  0.356756  0.731587  0.819411  1
  O  O35  1  0.358838  0.731212  0.319361  1
  O  O36  1  0.640680  0.270193  0.693948  1
  O  O37  1  0.628973  0.272247  0.194273  1
  O  O38  1  0.728956  0.359454  0.943569  1
  O  O39  1  0.414464  0.979845  0.668200  1
  O  O40  1  0.727295  0.371023  0.444713  1
  O  O41  1  0.420666  0.967157  0.166234  1
  O  O42  1  0.961657  0.422742  0.578428  1
  O  O43  1  0.963827  0.421758  0.076572  1
  O  O44  1  0.750978  0.929244  0.541766  1
  O  O45  1  0.754451  0.928813  0.040405  1
  O  O46  1  0.928700  0.741381  0.700673  1
  O  O47  1  0.929307  0.746506  0.201863  1
