# generated using pymatgen
data_Cs3ScO3
_symmetry_space_group_name_H-M   'P 1'
_cell_length_a   11.92277037
_cell_length_b   7.41480653
_cell_length_c   8.21137728
_cell_angle_alpha   90.00000000
_cell_angle_beta   96.28956578
_cell_angle_gamma   90.00000000
_symmetry_Int_Tables_number   1
_chemical_formula_structural   Cs3ScO3
_chemical_formula_sum   'Cs12 Sc4 O12'
_cell_volume   721.55768948
_cell_formula_units_Z   4
loop_
 _symmetry_equiv_pos_site_id
 _symmetry_equiv_pos_as_xyz
  1  'x, y, z'
loop_
 _atom_site_type_symbol
 _atom_site_label
 _atom_site_symmetry_multiplicity
 _atom_site_fract_x
 _atom_site_fract_y
 _atom_site_fract_z
 _atom_site_occupancy
  Cs  Cs0  1  0.073176  0.331972  0.650809  1
  Cs  Cs1  1  0.155746  0.620259  0.047870  1
  Cs  Cs2  1  0.194345  0.821755  0.623602  1
  Cs  Cs3  1  0.305655  0.321755  0.376398  1
  Cs  Cs4  1  0.344254  0.120259  0.952130  1
  Cs  Cs5  1  0.426824  0.831972  0.349191  1
  Cs  Cs6  1  0.573176  0.168028  0.650809  1
  Cs  Cs7  1  0.655746  0.879741  0.047870  1
  Cs  Cs8  1  0.694345  0.678245  0.623602  1
  Cs  Cs9  1  0.805655  0.178245  0.376398  1
  Cs  Cs10  1  0.844254  0.379741  0.952130  1
  Cs  Cs11  1  0.926824  0.668028  0.349191  1
  Sc  Sc12  1  0.064851  0.081470  0.151442  1
  Sc  Sc13  1  0.435149  0.581470  0.848558  1
  Sc  Sc14  1  0.564851  0.418530  0.151442  1
  Sc  Sc15  1  0.935149  0.918530  0.848558  1
  O  O16  1  0.041930  0.326053  0.240754  1
  O  O17  1  0.085127  0.054383  0.904350  1
  O  O18  1  0.184171  0.949214  0.287162  1
  O  O19  1  0.315829  0.449214  0.712838  1
  O  O20  1  0.414873  0.554383  0.095650  1
  O  O21  1  0.458070  0.826053  0.759246  1
  O  O22  1  0.541930  0.173947  0.240754  1
  O  O23  1  0.585127  0.445617  0.904350  1
  O  O24  1  0.684171  0.550786  0.287162  1
  O  O25  1  0.815829  0.050786  0.712838  1
  O  O26  1  0.914873  0.945617  0.095650  1
  O  O27  1  0.958070  0.673947  0.759246  1
