# generated using pymatgen
data_Hf2N2O
_symmetry_space_group_name_H-M   'P 1'
_cell_length_a   8.73829808
_cell_length_b   8.74948141
_cell_length_c   8.71977818
_cell_angle_alpha   109.37744212
_cell_angle_beta   109.48809066
_cell_angle_gamma   109.58563092
_symmetry_Int_Tables_number   1
_chemical_formula_structural   Hf2N2O
_chemical_formula_sum   'Hf16 N16 O8'
_cell_volume   512.96823676
_cell_formula_units_Z   8
loop_
 _symmetry_equiv_pos_site_id
 _symmetry_equiv_pos_as_xyz
  1  'x, y, z'
loop_
 _atom_site_type_symbol
 _atom_site_label
 _atom_site_symmetry_multiplicity
 _atom_site_fract_x
 _atom_site_fract_y
 _atom_site_fract_z
 _atom_site_occupancy
  Hf  Hf0  1  0.496348  0.987736  0.986723  1
  Hf  Hf1  1  0.756637  0.294659  0.538897  1
  Hf  Hf2  1  0.213085  0.956962  0.250975  1
  Hf  Hf3  1  0.720741  0.473128  0.248819  1
  Hf  Hf4  1  0.250652  0.213596  0.957578  1
  Hf  Hf5  1  0.966598  0.259006  0.215445  1
  Hf  Hf6  1  0.501590  0.509500  0.511971  1
  Hf  Hf7  1  0.007716  0.996476  0.506615  1
  Hf  Hf8  1  0.026893  0.741965  0.775914  1
  Hf  Hf9  1  0.008301  0.518304  0.005756  1
  Hf  Hf10  1  0.536678  0.749958  0.283033  1
  Hf  Hf11  1  0.458556  0.250281  0.722548  1
  Hf  Hf12  1  0.743412  0.781691  0.031925  1
  Hf  Hf13  1  0.284302  0.535800  0.749623  1
  Hf  Hf14  1  0.780859  0.025168  0.749611  1
  Hf  Hf15  1  0.249620  0.712005  0.464429  1
  N  N16  1  0.731709  0.995306  0.958906  1
  N  N17  1  0.512575  0.240104  0.970438  1
  N  N18  1  0.771641  0.729453  0.264690  1
  N  N19  1  0.236463  0.967782  0.509023  1
  N  N20  1  0.767609  0.538176  0.525771  1
  N  N21  1  0.487924  0.763840  0.034749  1
  N  N22  1  0.961572  0.503772  0.232512  1
  N  N23  1  0.227002  0.448590  0.461216  1
  N  N24  1  0.538041  0.771544  0.544302  1
  N  N25  1  0.548908  0.532237  0.772231  1
  N  N26  1  0.959965  0.733047  0.993003  1
  N  N27  1  0.272824  0.739517  0.225865  1
  N  N28  1  0.988201  0.957603  0.731661  1
  N  N29  1  0.225596  0.271716  0.740326  1
  N  N30  1  0.259854  0.775694  0.727973  1
  N  N31  1  0.028567  0.481473  0.758148  1
  O  O32  1  0.743967  0.221966  0.279316  1
  O  O33  1  0.280971  0.019400  0.056170  1
  O  O34  1  0.758516  0.036393  0.485387  1
  O  O35  1  0.724213  0.253377  0.765000  1
  O  O36  1  0.050190  0.276832  0.014131  1
  O  O37  1  0.444349  0.464461  0.221793  1
  O  O38  1  0.010589  0.047270  0.275165  1
  O  O39  1  0.466766  0.224214  0.452363  1
