# generated using pymatgen
data_Li3V3(BO5)2
_symmetry_space_group_name_H-M   'P 1'
_cell_length_a   9.40369073
_cell_length_b   12.09988874
_cell_length_c   2.99452267
_cell_angle_alpha   90.00303443
_cell_angle_beta   91.30068354
_cell_angle_gamma   90.00067598
_symmetry_Int_Tables_number   1
_chemical_formula_structural   Li3V3(BO5)2
_chemical_formula_sum   'Li6 V6 B4 O20'
_cell_volume   340.63981096
_cell_formula_units_Z   2
loop_
 _symmetry_equiv_pos_site_id
 _symmetry_equiv_pos_as_xyz
  1  'x, y, z'
loop_
 _atom_site_type_symbol
 _atom_site_label
 _atom_site_symmetry_multiplicity
 _atom_site_fract_x
 _atom_site_fract_y
 _atom_site_fract_z
 _atom_site_occupancy
  Li  Li0  1  0.006859  0.999799  0.997910  1
  Li  Li1  1  0.988164  0.509991  0.500954  1
  Li  Li2  1  0.493098  0.499777  0.001796  1
  Li  Li3  1  0.511844  0.010019  0.499432  1
  Li  Li4  1  0.508558  0.213524  0.000727  1
  Li  Li5  1  0.991466  0.713493  0.999415  1
  V  V6  1  0.999603  0.285230  -0.000020  1
  V  V7  1  0.249811  0.110417  0.521962  1
  V  V8  1  0.250191  0.610378  0.478232  1
  V  V9  1  0.500405  0.785179  0.000222  1
  V  V10  1  0.731385  0.391201  0.483235  1
  V  V11  1  0.768578  0.891188  0.516034  1
  B  B12  1  0.230270  0.858711  0.497916  1
  B  B13  1  0.269757  0.358731  0.502877  1
  B  B14  1  0.732593  0.636067  0.501172  1
  B  B15  1  0.767424  0.136091  0.498080  1
  O  O16  1  0.114485  0.150606  0.007774  1
  O  O17  1  0.133029  0.573639  0.011477  1
  O  O18  1  0.117357  0.356222  0.500861  1
  O  O19  1  0.159404  0.760159  0.504560  1
  O  O20  1  0.159809  0.958176  0.497135  1
  O  O21  1  0.340253  0.458185  0.503390  1
  O  O22  1  0.340618  0.260193  0.496004  1
  O  O23  1  0.382673  0.856163  0.500136  1
  O  O24  1  0.366952  0.073724  0.989020  1
  O  O25  1  0.385502  0.650554  0.992544  1
  O  O26  1  0.619347  0.355073  0.014486  1
  O  O27  1  0.625642  0.920789  0.011548  1
  O  O28  1  0.626838  0.143094  0.508324  1
  O  O29  1  0.647291  0.737468  0.502842  1
  O  O30  1  0.651418  0.539876  0.516528  1
  O  O31  1  0.848539  0.039876  0.482227  1
  O  O32  1  0.852725  0.237493  0.496610  1
  O  O33  1  0.873182  0.643052  0.491469  1
  O  O34  1  0.874317  0.420811  0.988333  1
  O  O35  1  0.880614  0.855050  0.984786  1
