# generated using pymatgen
data_CsClO3
_symmetry_space_group_name_H-M   'P 1'
_cell_length_a   5.21269780
_cell_length_b   6.15097544
_cell_length_c   7.84300369
_cell_angle_alpha   90.00000000
_cell_angle_beta   110.10598981
_cell_angle_gamma   90.00000000
_symmetry_Int_Tables_number   1
_chemical_formula_structural   CsClO3
_chemical_formula_sum   'Cs2 Cl2 O6'
_cell_volume   236.14650666
_cell_formula_units_Z   2
loop_
 _symmetry_equiv_pos_site_id
 _symmetry_equiv_pos_as_xyz
  1  'x, y, z'
loop_
 _atom_site_type_symbol
 _atom_site_label
 _atom_site_symmetry_multiplicity
 _atom_site_fract_x
 _atom_site_fract_y
 _atom_site_fract_z
 _atom_site_occupancy
  Cs  Cs0  1  0.358472  0.250000  0.712544  1
  Cs  Cs1  1  0.641528  0.750000  0.287456  1
  Cl  Cl2  1  0.129297  0.250000  0.177600  1
  Cl  Cl3  1  0.870703  0.750000  0.822400  1
  O  O4  1  0.144209  0.052869  0.294980  1
  O  O5  1  0.144209  0.447131  0.294980  1
  O  O6  1  0.616144  0.750000  0.872436  1
  O  O7  1  0.383856  0.250000  0.127564  1
  O  O8  1  0.855791  0.552869  0.705020  1
  O  O9  1  0.855791  0.947131  0.705020  1
