# generated using pymatgen
data_Li3Co(NiO3)2
_symmetry_space_group_name_H-M   'P 1'
_cell_length_a   15.29950192
_cell_length_b   9.69278639
_cell_length_c   9.69278640
_cell_angle_alpha   16.87859429
_cell_angle_beta   16.57684405
_cell_angle_gamma   16.57684591
_symmetry_Int_Tables_number   1
_chemical_formula_structural   Li3Co(NiO3)2
_chemical_formula_sum   'Li3 Co1 Ni2 O6'
_cell_volume   103.22310692
_cell_formula_units_Z   1
loop_
 _symmetry_equiv_pos_site_id
 _symmetry_equiv_pos_as_xyz
  1  'x, y, z'
loop_
 _atom_site_type_symbol
 _atom_site_label
 _atom_site_symmetry_multiplicity
 _atom_site_fract_x
 _atom_site_fract_y
 _atom_site_fract_z
 _atom_site_occupancy
  Li  Li0  1  0.166667  0.500000  0.500000  1
  Li  Li1  1  0.512585  0.490265  0.490265  1
  Li  Li2  1  0.820749  0.509735  0.509735  1
  Co  Co3  1  0.666667  0.000000  0.000000  1
  Ni  Ni4  1  0.004942  0.997671  0.997671  1
  Ni  Ni5  1  0.328392  0.002329  0.002329  1
  O  O6  1  0.262681  0.250297  0.250297  1
  O  O7  1  0.070652  0.749703  0.749703  1
  O  O8  1  0.444518  0.723233  0.723233  1
  O  O9  1  0.569449  0.265867  0.265867  1
  O  O10  1  0.888815  0.276767  0.276767  1
  O  O11  1  0.763885  0.734133  0.734133  1
