# generated using pymatgen
data_V7O13
_symmetry_space_group_name_H-M   'P 1'
_cell_length_a   5.57402990
_cell_length_b   7.09021393
_cell_length_c   11.45292993
_cell_angle_alpha   83.42973465
_cell_angle_beta   90.02236989
_cell_angle_gamma   71.81432960
_symmetry_Int_Tables_number   1
_chemical_formula_structural   V7O13
_chemical_formula_sum   'V14 O26'
_cell_volume   426.88617513
_cell_formula_units_Z   2
loop_
 _symmetry_equiv_pos_site_id
 _symmetry_equiv_pos_as_xyz
  1  'x, y, z'
loop_
 _atom_site_type_symbol
 _atom_site_label
 _atom_site_symmetry_multiplicity
 _atom_site_fract_x
 _atom_site_fract_y
 _atom_site_fract_z
 _atom_site_occupancy
  V  V0  1  0.407100  0.754685  0.359540  1
  V  V1  1  0.610340  0.226955  0.639291  1
  V  V2  1  0.208726  0.491697  0.790404  1
  V  V3  1  0.790991  0.512986  0.201325  1
  V  V4  1  0.790209  0.717650  0.946292  1
  V  V5  1  0.214275  0.287262  0.051176  1
  V  V6  1  0.199593  0.788032  0.059610  1
  V  V7  1  0.795625  0.219134  0.940253  1
  V  V8  1  0.217285  0.978431  0.794502  1
  V  V9  1  0.799770  0.018024  0.214819  1
  V  V10  1  0.380324  0.267136  0.346324  1
  V  V11  1  0.613820  0.732862  0.645718  1
  V  V12  1  0.002771  0.996732  0.504560  1
  V  V13  1  -0.001040  0.497669  0.498642  1
  O  O14  1  0.867183  0.771369  0.120174  1
  O  O15  1  0.127748  0.243158  0.879139  1
  O  O16  1  0.410940  0.693419  0.179637  1
  O  O17  1  0.583590  0.298807  0.818689  1
  O  O18  1  0.048612  0.074221  0.090498  1
  O  O19  1  0.947367  0.932130  0.909958  1
  O  O20  1  0.151433  0.365779  0.204043  1
  O  O21  1  0.858460  0.634535  0.793098  1
  O  O22  1  0.894244  0.757239  0.550641  1
  O  O23  1  0.090811  0.244819  0.455485  1
  O  O24  1  0.674322  0.285267  0.249729  1
  O  O25  1  0.330040  0.696726  0.748399  1
  O  O26  1  0.805016  0.446613  0.022766  1
  O  O27  1  0.188184  0.559464  0.973489  1
  O  O28  1  0.963760  0.072874  0.670415  1
  O  O29  1  0.029409  0.934255  0.331201  1
  O  O30  1  0.248237  0.394534  0.644337  1
  O  O31  1  0.748870  0.597234  0.363918  1
  O  O32  1  0.504756  0.988174  0.293446  1
  O  O33  1  0.517858  0.989353  0.701058  1
  O  O34  1  0.542493  0.167805  0.053597  1
  O  O35  1  0.456943  0.832740  0.945512  1
  O  O36  1  0.714448  0.472989  0.606645  1
  O  O37  1  0.272037  0.546534  0.398699  1
  O  O38  1  0.371546  0.834830  0.511715  1
  O  O39  1  0.621903  0.175876  0.491256  1
