# generated using pymatgen
data_Li8Mn7Fe(BO3)8
_symmetry_space_group_name_H-M   'P 1'
_cell_length_a   5.26278892
_cell_length_b   9.11645462
_cell_length_c   11.62481487
_cell_angle_alpha   68.43311028
_cell_angle_beta   77.76755392
_cell_angle_gamma   89.79162804
_symmetry_Int_Tables_number   1
_chemical_formula_structural   Li8Mn7Fe(BO3)8
_chemical_formula_sum   'Li8 Mn7 Fe1 B8 O24'
_cell_volume   505.21703803
_cell_formula_units_Z   1
loop_
 _symmetry_equiv_pos_site_id
 _symmetry_equiv_pos_as_xyz
  1  'x, y, z'
loop_
 _atom_site_type_symbol
 _atom_site_label
 _atom_site_symmetry_multiplicity
 _atom_site_fract_x
 _atom_site_fract_y
 _atom_site_fract_z
 _atom_site_occupancy
  Li  Li0  1  0.968877  0.961032  0.416723  1
  Li  Li1  1  0.704865  0.715505  0.917142  1
  Li  Li2  1  0.518545  0.492379  0.667383  1
  Li  Li3  1  0.727552  0.755502  0.167999  1
  Li  Li4  1  0.470408  0.459271  0.417865  1
  Li  Li5  1  0.204739  0.215654  0.917943  1
  Li  Li6  1  0.019149  0.991085  0.668838  1
  Li  Li7  1  0.228178  0.255422  0.168363  1
  Mn  Mn8  1  0.976603  0.643459  0.383061  1
  Mn  Mn9  1  0.727254  0.059633  0.883640  1
  Mn  Mn10  1  0.755347  0.434691  0.133204  1
  Mn  Mn11  1  0.476242  0.141494  0.386233  1
  Mn  Mn12  1  0.229417  0.562788  0.881985  1
  Mn  Mn13  1  0.255309  0.934862  0.133240  1
  Mn  Mn14  1  0.024633  0.344223  0.633450  1
  Fe  Fe15  1  0.528611  0.842683  0.632697  1
  B  B16  1  0.975905  0.313953  0.375977  1
  B  B17  1  0.734825  0.395609  0.875049  1
  B  B18  1  0.763447  0.107966  0.125825  1
  B  B19  1  0.529797  0.183402  0.626793  1
  B  B20  1  0.475278  0.813203  0.376795  1
  B  B21  1  0.235158  0.895754  0.874544  1
  B  B22  1  0.263721  0.608067  0.125645  1
  B  B23  1  0.026616  0.688538  0.624943  1
  O  O24  1  0.980916  0.890696  0.860655  1
  O  O25  1  0.902568  0.288354  0.845123  1
  O  O26  1  0.826190  0.506031  0.917005  1
  O  O27  1  0.918151  0.830507  0.612195  1
  O  O28  1  0.900400  0.575139  0.596579  1
  O  O29  1  0.762846  0.150298  0.667076  1
  O  O30  1  0.731331  0.344633  0.345639  1
  O  O31  1  0.480701  0.392097  0.859998  1
  O  O32  1  0.404239  0.789770  0.843663  1
  O  O33  1  0.595941  0.913177  0.419036  1
  O  O34  1  0.595521  0.684634  0.361167  1
  O  O35  1  0.324126  0.005879  0.917634  1
  O  O36  1  0.662842  0.987522  0.095932  1
  O  O37  1  0.428055  0.328495  0.610943  1
  O  O38  1  0.400900  0.071081  0.598492  1
  O  O39  1  0.595043  0.206040  0.167075  1
  O  O40  1  0.531144  0.629838  0.110585  1
  O  O41  1  0.262403  0.658543  0.663466  1
  O  O42  1  0.230441  0.844789  0.346610  1
  O  O43  1  0.096133  0.414651  0.418088  1
  O  O44  1  0.097259  0.185245  0.361344  1
  O  O45  1  0.163072  0.487764  0.095682  1
  O  O46  1  0.095121  0.706051  0.167136  1
  O  O47  1  0.030982  0.129392  0.111140  1
