# generated using pymatgen
data_Li4MnO2F3
_symmetry_space_group_name_H-M   'P 1'
_cell_length_a   5.10701127
_cell_length_b   7.76686240
_cell_length_c   5.26303429
_cell_angle_alpha   105.30311331
_cell_angle_beta   97.18992774
_cell_angle_gamma   109.80264884
_symmetry_Int_Tables_number   1
_chemical_formula_structural   Li4MnO2F3
_chemical_formula_sum   'Li8 Mn2 O4 F6'
_cell_volume   184.07955630
_cell_formula_units_Z   2
loop_
 _symmetry_equiv_pos_site_id
 _symmetry_equiv_pos_as_xyz
  1  'x, y, z'
loop_
 _atom_site_type_symbol
 _atom_site_label
 _atom_site_symmetry_multiplicity
 _atom_site_fract_x
 _atom_site_fract_y
 _atom_site_fract_z
 _atom_site_occupancy
  Li  Li0  1  0.177529  0.682026  0.573434  1
  Li  Li1  1  0.000000  0.500000  0.000000  1
  Li  Li2  1  0.000000  0.000000  0.500000  1
  Li  Li3  1  0.419553  0.909232  0.204061  1
  Li  Li4  1  0.405531  0.408431  0.674546  1
  Li  Li5  1  0.594469  0.591569  0.325454  1
  Li  Li6  1  0.580447  0.090768  0.795939  1
  Li  Li7  1  0.822471  0.317974  0.426566  1
  Mn  Mn8  1  0.182507  0.201139  0.103891  1
  Mn  Mn9  1  0.817493  0.798861  0.896109  1
  O  O10  1  0.186347  0.960110  0.866284  1
  O  O11  1  0.191712  0.433189  0.327576  1
  O  O12  1  0.808288  0.566811  0.672424  1
  O  O13  1  0.813653  0.039890  0.133716  1
  F  F14  1  0.994009  0.252770  0.737765  1
  F  F15  1  0.424232  0.658857  0.949561  1
  F  F16  1  0.587771  0.849944  0.534952  1
  F  F17  1  0.412229  0.150056  0.465048  1
  F  F18  1  0.575768  0.341143  0.050439  1
  F  F19  1  0.005991  0.747230  0.262235  1
