# generated using pymatgen
data_Li5V(P2O7)2
_symmetry_space_group_name_H-M   'P 1'
_cell_length_a   8.82705667
_cell_length_b   9.14088169
_cell_length_c   7.08615038
_cell_angle_alpha   77.47006985
_cell_angle_beta   110.31702632
_cell_angle_gamma   103.03680700
_symmetry_Int_Tables_number   1
_chemical_formula_structural   Li5V(P2O7)2
_chemical_formula_sum   'Li10 V2 P8 O28'
_cell_volume   516.32077250
_cell_formula_units_Z   2
loop_
 _symmetry_equiv_pos_site_id
 _symmetry_equiv_pos_as_xyz
  1  'x, y, z'
loop_
 _atom_site_type_symbol
 _atom_site_label
 _atom_site_symmetry_multiplicity
 _atom_site_fract_x
 _atom_site_fract_y
 _atom_site_fract_z
 _atom_site_occupancy
  Li  Li0  1  0.183630  0.722456  0.694183  1
  Li  Li1  1  0.244265  0.407453  0.766520  1
  Li  Li2  1  0.259003  0.883897  0.242028  1
  Li  Li3  1  0.525189  0.865456  0.963698  1
  Li  Li4  1  0.478004  0.650463  0.582719  1
  Li  Li5  1  0.521996  0.349537  0.417281  1
  Li  Li6  1  0.474811  0.134544  0.036302  1
  Li  Li7  1  0.740997  0.116103  0.757972  1
  Li  Li8  1  0.755735  0.592547  0.233480  1
  Li  Li9  1  0.816370  0.277544  0.305817  1
  V  V10  1  0.125455  0.236094  0.129387  1
  V  V11  1  0.874545  0.763906  0.870613  1
  P  P12  1  0.118717  0.016603  0.831222  1
  P  P13  1  0.108616  0.549064  0.305556  1
  P  P14  1  0.337934  0.048835  0.586030  1
  P  P15  1  0.382539  0.571061  0.131834  1
  P  P16  1  0.617461  0.428939  0.868166  1
  P  P17  1  0.662066  0.951165  0.413970  1
  P  P18  1  0.891384  0.450936  0.694444  1
  P  P19  1  0.881283  0.983397  0.168778  1
  O  O20  1  0.020535  0.350469  0.824589  1
  O  O21  1  0.141334  0.850594  0.920725  1
  O  O22  1  0.065637  0.990111  0.222569  1
  O  O23  1  0.060756  0.382900  0.267628  1
  O  O24  1  0.228983  0.133746  0.970471  1
  O  O25  1  0.169404  0.567028  0.528926  1
  O  O26  1  0.170744  0.066690  0.629989  1
  O  O27  1  0.378416  0.672936  0.931603  1
  O  O28  1  0.312216  0.888399  0.539440  1
  O  O29  1  0.270677  0.627803  0.234387  1
  O  O30  1  0.338151  0.177467  0.404874  1
  O  O31  1  0.307939  0.405667  0.096070  1
  O  O32  1  0.483844  0.071626  0.780865  1
  O  O33  1  0.450867  0.425010  0.703784  1
  O  O34  1  0.549133  0.574990  0.296216  1
  O  O35  1  0.516156  0.928374  0.219135  1
  O  O36  1  0.692061  0.594333  0.903930  1
  O  O37  1  0.661849  0.822533  0.595125  1
  O  O38  1  0.729324  0.372197  0.765613  1
  O  O39  1  0.687784  0.111601  0.460560  1
  O  O40  1  0.621584  0.327064  0.068397  1
  O  O41  1  0.829256  0.933310  0.370011  1
  O  O42  1  0.830596  0.432972  0.471074  1
  O  O43  1  0.771017  0.866254  0.029530  1
  O  O44  1  0.939244  0.617101  0.732372  1
  O  O45  1  0.934363  0.009889  0.777431  1
  O  O46  1  0.858666  0.149406  0.079275  1
  O  O47  1  0.979465  0.649531  0.175411  1
