# generated using pymatgen
data_Li3Mn2Fe(BO3)3
_symmetry_space_group_name_H-M   'P 1'
_cell_length_a   8.27087402
_cell_length_b   14.32463894
_cell_length_c   3.17341844
_cell_angle_alpha   90.00000000
_cell_angle_beta   90.00000000
_cell_angle_gamma   89.83599911
_symmetry_Int_Tables_number   1
_chemical_formula_structural   Li3Mn2Fe(BO3)3
_chemical_formula_sum   'Li6 Mn4 Fe2 B6 O18'
_cell_volume   375.97645761
_cell_formula_units_Z   2
loop_
 _symmetry_equiv_pos_site_id
 _symmetry_equiv_pos_as_xyz
  1  'x, y, z'
loop_
 _atom_site_type_symbol
 _atom_site_label
 _atom_site_symmetry_multiplicity
 _atom_site_fract_x
 _atom_site_fract_y
 _atom_site_fract_z
 _atom_site_occupancy
  Li  Li0  1  0.292308  0.992504  0.500000  1
  Li  Li1  1  0.338385  0.358546  0.500000  1
  Li  Li2  1  0.365088  0.649873  0.500000  1
  Li  Li3  1  0.792865  0.490795  0.500000  1
  Li  Li4  1  0.841702  0.857898  0.500000  1
  Li  Li5  1  0.867998  0.151483  0.500000  1
  Mn  Mn6  1  0.174179  0.813908  0.000000  1
  Mn  Mn7  1  0.633838  0.005951  0.000000  1
  Mn  Mn8  1  0.673810  0.314277  0.000000  1
  Mn  Mn9  1  0.691348  0.679530  0.000000  1
  Fe  Fe10  1  0.137149  0.503672  0.000000  1
  Fe  Fe11  1  0.187309  0.179483  0.000000  1
  B  B12  1  0.000552  0.664888  0.500000  1
  B  B13  1  0.001962  0.000482  0.000000  1
  B  B14  1  0.002074  0.333304  0.500000  1
  B  B15  1  0.497816  0.167363  0.500000  1
  B  B16  1  0.498495  0.500784  0.000000  1
  B  B17  1  0.500139  0.833310  0.500000  1
  O  O18  1  0.014689  0.430267  0.500000  1
  O  O19  1  0.015185  0.761961  0.500000  1
  O  O20  1  0.137439  0.608247  0.500000  1
  O  O21  1  0.140695  0.277903  0.500000  1
  O  O22  1  0.155319  0.960353  0.000000  1
  O  O23  1  0.345017  0.127124  0.500000  1
  O  O24  1  0.350301  0.789738  0.500000  1
  O  O25  1  0.360932  0.444451  0.000000  1
  O  O26  1  0.481473  0.597432  0.000000  1
  O  O27  1  0.509563  0.930249  0.500000  1
  O  O28  1  0.513750  0.264250  0.500000  1
  O  O29  1  0.636608  0.111504  0.500000  1
  O  O30  1  0.640958  0.780202  0.500000  1
  O  O31  1  0.652153  0.460347  0.000000  1
  O  O32  1  0.847314  0.624687  0.500000  1
  O  O33  1  0.850562  0.291585  0.500000  1
  O  O34  1  0.864864  0.943990  0.000000  1
  O  O35  1  0.986158  0.097656  0.000000  1
