# generated using pymatgen
data_La4(B2O5)3
_symmetry_space_group_name_H-M   'P 1'
_cell_length_a   4.53172329
_cell_length_b   6.52669526
_cell_length_c   19.83799667
_cell_angle_alpha   82.93915780
_cell_angle_beta   90.00000000
_cell_angle_gamma   69.68578727
_symmetry_Int_Tables_number   1
_chemical_formula_structural   La4(B2O5)3
_chemical_formula_sum   'La8 B12 O30'
_cell_volume   545.51020566
_cell_formula_units_Z   2
loop_
 _symmetry_equiv_pos_site_id
 _symmetry_equiv_pos_as_xyz
  1  'x, y, z'
loop_
 _atom_site_type_symbol
 _atom_site_label
 _atom_site_symmetry_multiplicity
 _atom_site_fract_x
 _atom_site_fract_y
 _atom_site_fract_z
 _atom_site_occupancy
  La  La0  1  0.356467  0.718649  0.804214  1
  La  La1  1  0.338574  0.748759  0.594598  1
  La  La2  1  0.924885  0.718649  0.304214  1
  La  La3  1  0.912667  0.748759  0.094598  1
  La  La4  1  0.087333  0.251241  0.905402  1
  La  La5  1  0.075115  0.281351  0.695786  1
  La  La6  1  0.661426  0.251241  0.405402  1
  La  La7  1  0.643533  0.281351  0.195786  1
  B  B8  1  0.810757  0.797384  0.911748  1
  B  B9  1  0.786917  0.874726  0.694581  1
  B  B10  1  0.370725  0.656281  0.973389  1
  B  B11  1  0.391859  0.797384  0.411748  1
  B  B12  1  0.338357  0.874726  0.194581  1
  B  B13  1  0.972994  0.656281  0.473389  1
  B  B14  1  0.027006  0.343719  0.526611  1
  B  B15  1  0.661643  0.125274  0.805419  1
  B  B16  1  0.608141  0.202617  0.588252  1
  B  B17  1  0.629275  0.343719  0.026611  1
  B  B18  1  0.213083  0.125274  0.305419  1
  B  B19  1  0.189243  0.202617  0.088252  1
  O  O20  1  0.822984  0.986024  0.623881  1
  O  O21  1  0.480422  0.819955  0.933803  1
  O  O22  1  0.467956  0.875917  0.696564  1
  O  O23  1  0.025246  0.743066  0.973391  1
  O  O24  1  0.190992  0.986024  0.123881  1
  O  O25  1  0.699623  0.819955  0.433803  1
  O  O26  1  0.912931  0.634584  0.864470  1
  O  O27  1  0.656128  0.875917  0.196564  1
  O  O28  1  0.231687  0.743066  0.473391  1
  O  O29  1  0.031780  0.656087  0.702280  1
  O  O30  1  0.924618  0.578085  0.546870  1
  O  O31  1  0.502703  0.421915  0.953130  1
  O  O32  1  0.452484  0.634584  0.364470  1
  O  O33  1  0.312132  0.656087  0.202280  1
  O  O34  1  0.687868  0.343913  0.797720  1
  O  O35  1  0.547516  0.365416  0.635530  1
  O  O36  1  0.497297  0.578085  0.046870  1
  O  O37  1  0.075382  0.421915  0.453130  1
  O  O38  1  0.968220  0.343913  0.297720  1
  O  O39  1  0.768313  0.256934  0.526609  1
  O  O40  1  0.343872  0.124083  0.803436  1
  O  O41  1  0.087069  0.365416  0.135530  1
  O  O42  1  0.300377  0.180045  0.566197  1
  O  O43  1  0.809008  0.013976  0.876119  1
  O  O44  1  0.853061  0.000000  0.750000  1
  O  O45  1  0.974754  0.256934  0.026609  1
  O  O46  1  0.532044  0.124083  0.303436  1
  O  O47  1  0.519578  0.180045  0.066197  1
  O  O48  1  0.177016  0.013976  0.376119  1
  O  O49  1  0.146939  0.000000  0.250000  1
