# generated using pymatgen
data_Li2Mn3(BO3)3
_symmetry_space_group_name_H-M   'P 1'
_cell_length_a   6.14799029
_cell_length_b   11.99016161
_cell_length_c   5.22815375
_cell_angle_alpha   78.74787890
_cell_angle_beta   86.59314019
_cell_angle_gamma   84.17619125
_symmetry_Int_Tables_number   1
_chemical_formula_structural   Li2Mn3(BO3)3
_chemical_formula_sum   'Li4 Mn6 B6 O18'
_cell_volume   375.72620496
_cell_formula_units_Z   2
loop_
 _symmetry_equiv_pos_site_id
 _symmetry_equiv_pos_as_xyz
  1  'x, y, z'
loop_
 _atom_site_type_symbol
 _atom_site_label
 _atom_site_symmetry_multiplicity
 _atom_site_fract_x
 _atom_site_fract_y
 _atom_site_fract_z
 _atom_site_occupancy
  Li  Li0  1  0.411744  0.098958  0.041524  1
  Li  Li1  1  0.765841  0.423696  0.371555  1
  Li  Li2  1  0.591666  0.897919  0.962778  1
  Li  Li3  1  0.100988  0.756461  0.693265  1
  Mn  Mn4  1  0.249867  0.999796  0.597479  1
  Mn  Mn5  1  0.576518  0.325091  0.947039  1
  Mn  Mn6  1  0.912319  0.661203  0.269450  1
  Mn  Mn7  1  0.088158  0.334697  0.742693  1
  Mn  Mn8  1  0.423095  0.664752  0.067342  1
  Mn  Mn9  1  0.769101  0.008905  0.396671  1
  B  B10  1  0.836526  0.115110  0.840029  1
  B  B11  1  0.477836  0.224360  0.484129  1
  B  B12  1  0.806639  0.554082  0.820594  1
  B  B13  1  0.186248  0.445141  0.179994  1
  B  B14  1  0.538121  0.781740  0.515598  1
  B  B15  1  0.148930  0.884176  0.157656  1
  O  O16  1  0.942113  0.094360  0.613901  1
  O  O17  1  0.721101  0.033803  0.998781  1
  O  O18  1  0.449469  0.125362  0.396964  1
  O  O19  1  0.844902  0.223747  0.903234  1
  O  O20  1  0.577374  0.312896  0.331749  1
  O  O21  1  0.407995  0.232853  0.742966  1
  O  O22  1  0.738553  0.565092  0.078674  1
  O  O23  1  0.777625  0.452354  0.743645  1
  O  O24  1  0.906013  0.641294  0.661350  1
  O  O25  1  0.073636  0.367929  0.342437  1
  O  O26  1  0.181796  0.559077  0.214270  1
  O  O27  1  0.296448  0.419464  0.950642  1
  O  O28  1  0.626835  0.762690  0.263170  1
  O  O29  1  0.414769  0.703865  0.663169  1
  O  O30  1  0.108806  0.785801  0.067320  1
  O  O31  1  0.567145  0.884517  0.588477  1
  O  O32  1  0.273792  0.964133  0.008285  1
  O  O33  1  0.072682  0.896351  0.407383  1
