# generated using pymatgen
data_K2TbPCO7
_symmetry_space_group_name_H-M   'P 1'
_cell_length_a   10.02795377
_cell_length_b   7.17082933
_cell_length_c   5.85054295
_cell_angle_alpha   90.00000000
_cell_angle_beta   91.97332437
_cell_angle_gamma   90.00000000
_symmetry_Int_Tables_number   1
_chemical_formula_structural   K2TbPCO7
_chemical_formula_sum   'K4 Tb2 P2 C2 O14'
_cell_volume   420.45570888
_cell_formula_units_Z   2
loop_
 _symmetry_equiv_pos_site_id
 _symmetry_equiv_pos_as_xyz
  1  'x, y, z'
loop_
 _atom_site_type_symbol
 _atom_site_label
 _atom_site_symmetry_multiplicity
 _atom_site_fract_x
 _atom_site_fract_y
 _atom_site_fract_z
 _atom_site_occupancy
  Tb  Tb0  1  0.369598  0.750000  0.781915  1
  Tb  Tb1  1  0.630402  0.250000  0.218085  1
  K  K2  1  0.219356  0.489175  0.247219  1
  K  K3  1  0.219356  0.010825  0.247219  1
  K  K4  1  0.780644  0.510825  0.752781  1
  K  K5  1  0.780644  0.989175  0.752781  1
  P  P6  1  0.430871  0.250000  0.710403  1
  P  P7  1  0.569129  0.750000  0.289597  1
  C  C8  1  0.094329  0.750000  0.728665  1
  C  C9  1  0.905671  0.250000  0.271335  1
  O  O10  1  0.030722  0.250000  0.302024  1
  O  O11  1  0.154131  0.750000  0.932820  1
  O  O12  1  0.177013  0.750000  0.555753  1
  O  O13  1  0.353159  0.071002  0.772165  1
  O  O14  1  0.353159  0.428998  0.772165  1
  O  O15  1  0.430493  0.750000  0.156297  1
  O  O16  1  0.455750  0.250000  0.447626  1
  O  O17  1  0.544250  0.750000  0.552374  1
  O  O18  1  0.569507  0.250000  0.843703  1
  O  O19  1  0.646841  0.571002  0.227835  1
  O  O20  1  0.646841  0.928998  0.227835  1
  O  O21  1  0.822987  0.250000  0.444247  1
  O  O22  1  0.845869  0.250000  0.067180  1
  O  O23  1  0.969278  0.750000  0.697976  1
