# generated using pymatgen
data_Na2FeO2
_symmetry_space_group_name_H-M   'P 1'
_cell_length_a   8.00367423
_cell_length_b   6.21976899
_cell_length_c   5.74773668
_cell_angle_alpha   90.00000000
_cell_angle_beta   96.55175786
_cell_angle_gamma   90.00000000
_symmetry_Int_Tables_number   1
_chemical_formula_structural   Na2FeO2
_chemical_formula_sum   'Na8 Fe4 O8'
_cell_volume   284.25945838
_cell_formula_units_Z   4
loop_
 _symmetry_equiv_pos_site_id
 _symmetry_equiv_pos_as_xyz
  1  'x, y, z'
loop_
 _atom_site_type_symbol
 _atom_site_label
 _atom_site_symmetry_multiplicity
 _atom_site_fract_x
 _atom_site_fract_y
 _atom_site_fract_z
 _atom_site_occupancy
  Na  Na0  1  0.019005  0.244735  0.506704  1
  Na  Na1  1  0.019005  0.255265  0.006704  1
  Na  Na2  1  0.331029  0.858383  0.917047  1
  Na  Na3  1  0.331029  0.641617  0.417047  1
  Na  Na4  1  0.668971  0.358383  0.582953  1
  Na  Na5  1  0.668971  0.141617  0.082953  1
  Na  Na6  1  0.980995  0.744735  0.993296  1
  Na  Na7  1  0.980995  0.755265  0.493296  1
  Fe  Fe8  1  0.359336  0.387569  0.851022  1
  Fe  Fe9  1  0.359336  0.112431  0.351022  1
  Fe  Fe10  1  0.640664  0.887569  0.648978  1
  Fe  Fe11  1  0.640664  0.612431  0.148978  1
  O  O12  1  0.143462  0.530467  0.763299  1
  O  O13  1  0.143462  0.969533  0.263299  1
  O  O14  1  0.456221  0.126473  0.714055  1
  O  O15  1  0.456221  0.373527  0.214055  1
  O  O16  1  0.543779  0.626473  0.785945  1
  O  O17  1  0.543779  0.873527  0.285945  1
  O  O18  1  0.856538  0.030467  0.736701  1
  O  O19  1  0.856538  0.469533  0.236701  1
