# generated using pymatgen
data_LiSb(PO3)4
_symmetry_space_group_name_H-M   'P 1'
_cell_length_a   7.20640465
_cell_length_b   7.20640465
_cell_length_c   10.43126634
_cell_angle_alpha   78.12280411
_cell_angle_beta   101.87719589
_cell_angle_gamma   68.06297683
_symmetry_Int_Tables_number   1
_chemical_formula_structural   LiSb(PO3)4
_chemical_formula_sum   'Li2 Sb2 P8 O24'
_cell_volume   467.28216307
_cell_formula_units_Z   2
loop_
 _symmetry_equiv_pos_site_id
 _symmetry_equiv_pos_as_xyz
  1  'x, y, z'
loop_
 _atom_site_type_symbol
 _atom_site_label
 _atom_site_symmetry_multiplicity
 _atom_site_fract_x
 _atom_site_fract_y
 _atom_site_fract_z
 _atom_site_occupancy
  Li  Li0  1  0.140967  0.140967  0.750000  1
  Li  Li1  1  0.859033  0.859033  0.250000  1
  Sb  Sb2  1  0.867427  0.867427  0.750000  1
  Sb  Sb3  1  0.132573  0.132573  0.250000  1
  P  P4  1  0.237257  0.688274  0.551025  1
  P  P5  1  0.730480  0.621742  0.010792  1
  P  P6  1  0.621742  0.730480  0.489208  1
  P  P7  1  0.311726  0.762743  0.051025  1
  P  P8  1  0.688274  0.237257  0.948975  1
  P  P9  1  0.378258  0.269520  0.510792  1
  P  P10  1  0.269520  0.378258  0.989208  1
  P  P11  1  0.762743  0.311726  0.448975  1
  O  O12  1  0.190922  0.905864  0.905527  1
  O  O13  1  0.062739  0.495920  0.874706  1
  O  O14  1  0.189229  0.755512  0.670407  1
  O  O15  1  0.094136  0.809078  0.405527  1
  O  O16  1  0.704012  0.805793  0.896049  1
  O  O17  1  0.504080  0.937261  0.374706  1
  O  O18  1  0.660083  0.474837  0.939192  1
  O  O19  1  0.279369  0.443151  0.583308  1
  O  O20  1  0.244488  0.810771  0.170407  1
  O  O21  1  0.443151  0.279369  0.916692  1
  O  O22  1  0.474837  0.660083  0.560808  1
  O  O23  1  0.194207  0.295988  0.396049  1
  O  O24  1  0.805793  0.704012  0.603951  1
  O  O25  1  0.525163  0.339917  0.439192  1
  O  O26  1  0.556849  0.720631  0.083308  1
  O  O27  1  0.755512  0.189229  0.829593  1
  O  O28  1  0.720631  0.556849  0.416692  1
  O  O29  1  0.339917  0.525163  0.060808  1
  O  O30  1  0.495920  0.062739  0.625294  1
  O  O31  1  0.295988  0.194207  0.103951  1
  O  O32  1  0.905864  0.190922  0.594473  1
  O  O33  1  0.810771  0.244488  0.329593  1
  O  O34  1  0.937261  0.504080  0.125294  1
  O  O35  1  0.809078  0.094136  0.094473  1
