# generated using pymatgen
data_H4NF
_symmetry_space_group_name_H-M   'P 1'
_cell_length_a   7.38361613
_cell_length_b   7.38357176
_cell_length_c   7.38357171
_cell_angle_alpha   70.83973157
_cell_angle_beta   70.83952375
_cell_angle_gamma   70.83952466
_symmetry_Int_Tables_number   1
_chemical_formula_structural   H4NF
_chemical_formula_sum   'H32 N8 F8'
_cell_volume   348.03213703
_cell_formula_units_Z   8
loop_
 _symmetry_equiv_pos_site_id
 _symmetry_equiv_pos_as_xyz
  1  'x, y, z'
loop_
 _atom_site_type_symbol
 _atom_site_label
 _atom_site_symmetry_multiplicity
 _atom_site_fract_x
 _atom_site_fract_y
 _atom_site_fract_z
 _atom_site_occupancy
  H  H0  1  0.804197  0.804272  0.804272  1
  H  H1  1  0.304197  0.304272  0.304272  1
  H  H2  1  0.844689  0.624849  0.682279  1
  H  H3  1  0.624810  0.682263  0.844700  1
  H  H4  1  0.682246  0.844703  0.624835  1
  H  H5  1  0.344689  0.182279  0.124849  1
  H  H6  1  0.182246  0.124835  0.344703  1
  H  H7  1  0.124810  0.344700  0.182263  1
  H  H8  1  0.239751  0.656571  0.146574  1
  H  H9  1  0.656570  0.146576  0.239751  1
  H  H10  1  0.146573  0.239751  0.656573  1
  H  H11  1  0.739751  0.646574  0.156571  1
  H  H12  1  0.646573  0.156573  0.739751  1
  H  H13  1  0.156570  0.739751  0.646576  1
  H  H14  1  0.043255  0.607136  0.340238  1
  H  H15  1  0.607133  0.340239  0.043257  1
  H  H16  1  0.340236  0.043254  0.607135  1
  H  H17  1  0.543255  0.840238  0.107136  1
  H  H18  1  0.840236  0.107135  0.543254  1
  H  H19  1  0.107133  0.543257  0.840239  1
  H  H20  1  0.011515  0.788125  0.122161  1
  H  H21  1  0.788121  0.122155  0.011522  1
  H  H22  1  0.122157  0.011522  0.788123  1
  H  H23  1  0.511515  0.622161  0.288125  1
  H  H24  1  0.622157  0.288123  0.511522  1
  H  H25  1  0.288121  0.511522  0.622155  1
  H  H26  1  0.101606  0.819662  0.296093  1
  H  H27  1  0.819660  0.296094  0.101608  1
  H  H28  1  0.296092  0.101606  0.819664  1
  H  H29  1  0.601606  0.796093  0.319662  1
  H  H30  1  0.796092  0.319664  0.601606  1
  H  H31  1  0.319660  0.601608  0.796094  1
  N  N32  1  0.741158  0.741191  0.741191  1
  N  N33  1  0.241158  0.241191  0.241191  1
  N  N34  1  0.098623  0.718389  0.225563  1
  N  N35  1  0.718386  0.225568  0.098625  1
  N  N36  1  0.225563  0.098623  0.718390  1
  N  N37  1  0.598623  0.725563  0.218389  1
  N  N38  1  0.725563  0.218390  0.598623  1
  N  N39  1  0.218386  0.598625  0.725568  1
  F  F40  1  0.919564  0.919639  0.919638  1
  F  F41  1  0.419564  0.419638  0.419639  1
  F  F42  1  0.965530  0.445002  0.568371  1
  F  F43  1  0.444993  0.568367  0.965545  1
  F  F44  1  0.568372  0.965538  0.444999  1
  F  F45  1  0.465530  0.068371  0.945002  1
  F  F46  1  0.068372  0.944999  0.465538  1
  F  F47  1  0.944993  0.465545  0.068367  1
