# generated using pymatgen
data_Ho2Sb2O7
_symmetry_space_group_name_H-M   'P 1'
_cell_length_a   7.52875353
_cell_length_b   7.52892604
_cell_length_c   18.52611989
_cell_angle_alpha   90.00595922
_cell_angle_beta   89.99447157
_cell_angle_gamma   120.00389434
_symmetry_Int_Tables_number   1
_chemical_formula_structural   Ho2Sb2O7
_chemical_formula_sum   'Ho12 Sb12 O42'
_cell_volume   909.39835889
_cell_formula_units_Z   6
loop_
 _symmetry_equiv_pos_site_id
 _symmetry_equiv_pos_as_xyz
  1  'x, y, z'
loop_
 _atom_site_type_symbol
 _atom_site_label
 _atom_site_symmetry_multiplicity
 _atom_site_fract_x
 _atom_site_fract_y
 _atom_site_fract_z
 _atom_site_occupancy
  Ho  Ho0  1  0.999941  0.826046  0.666681  1
  Ho  Ho1  1  0.999699  0.836515  0.166703  1
  Ho  Ho2  1  0.182323  0.684023  0.011279  1
  Ho  Ho3  1  0.174616  0.174419  0.000024  1
  Ho  Ho4  1  0.501983  0.818145  0.677883  1
  Ho  Ho5  1  0.162797  0.163409  0.500029  1
  Ho  Ho6  1  0.316006  0.498473  0.344718  1
  Ho  Ho7  1  0.498543  0.315956  0.655236  1
  Ho  Ho8  1  0.684130  0.182563  0.988684  1
  Ho  Ho9  1  0.818017  0.501829  0.322084  1
  Ho  Ho10  1  0.836780  0.000121  0.833319  1
  Ho  Ho11  1  0.825998  0.999974  0.333272  1
  Sb  Sb12  1  0.999663  0.328655  0.166656  1
  Sb  Sb13  1  0.001384  0.301465  0.666941  1
  Sb  Sb14  1  0.167735  0.669559  0.501248  1
  Sb  Sb15  1  0.501852  0.831948  0.167969  1
  Sb  Sb16  1  0.330121  0.498059  0.834540  1
  Sb  Sb17  1  0.301101  0.000840  0.333258  1
  Sb  Sb18  1  0.671299  0.671135  0.499935  1
  Sb  Sb19  1  0.328758  0.999706  0.833290  1
  Sb  Sb20  1  0.699547  0.699932  0.000074  1
  Sb  Sb21  1  0.498009  0.330102  0.165489  1
  Sb  Sb22  1  0.669454  0.167627  0.498772  1
  Sb  Sb23  1  0.831921  0.501931  0.832049  1
  O  O24  1  0.016807  0.852067  0.284496  1
  O  O25  1  0.991631  0.800695  0.803027  1
  O  O26  1  0.106267  0.656804  0.394267  1
  O  O27  1  0.044783  0.426759  0.807442  1
  O  O28  1  0.329589  0.994004  0.956747  1
  O  O29  1  0.233460  0.692909  0.606341  1
  O  O30  1  0.006569  0.335600  0.289834  1
  O  O31  1  0.201491  0.676880  0.139144  1
  O  O32  1  0.381715  0.954765  0.474041  1
  O  O33  1  0.459514  0.766357  0.273011  1
  O  O34  1  0.475762  0.798356  0.805711  1
  O  O35  1  0.341602  0.448774  0.727382  1
  O  O36  1  0.148346  0.164581  0.617889  1
  O  O37  1  0.323051  0.524414  0.472475  1
  O  O38  1  0.199177  0.191483  0.136627  1
  O  O39  1  0.164425  0.148211  0.382171  1
  O  O40  1  0.306762  0.540237  0.939623  1
  O  O41  1  0.191465  0.199261  0.863450  1
  O  O42  1  0.551306  0.893315  0.060910  1
  O  O43  1  0.573280  0.618030  0.140884  1
  O  O44  1  0.808319  0.007628  0.469765  1
  O  O45  1  0.664604  0.670924  0.623350  1
  O  O46  1  0.448892  0.341841  0.272600  1
  O  O47  1  0.617824  0.572932  0.859162  1
  O  O48  1  0.335596  0.006549  0.710178  1
  O  O49  1  0.835552  0.983830  0.951189  1
  O  O50  1  0.539903  0.306593  0.060375  1
  O  O51  1  0.670896  0.664643  0.376594  1
  O  O52  1  0.524128  0.322698  0.527531  1
  O  O53  1  0.426836  0.044821  0.192520  1
  O  O54  1  0.693119  0.233518  0.393687  1
  O  O55  1  0.676948  0.201517  0.860823  1
  O  O56  1  0.893422  0.551108  0.939064  1
  O  O57  1  0.983775  0.835714  0.048815  1
  O  O58  1  0.798357  0.475734  0.194272  1
  O  O59  1  0.008076  0.808688  0.530296  1
  O  O60  1  0.766366  0.459711  0.726997  1
  O  O61  1  0.656699  0.106308  0.605728  1
  O  O62  1  0.955168  0.381346  0.525764  1
  O  O63  1  0.800597  0.991600  0.197036  1
  O  O64  1  0.994066  0.329484  0.043268  1
  O  O65  1  0.852176  0.016876  0.715515  1
