# generated using pymatgen
data_CsZrCuSe3
_symmetry_space_group_name_H-M   'P 1'
_cell_length_a   3.94636109
_cell_length_b   8.38487030
_cell_length_c   10.28629519
_cell_angle_alpha   90.00000000
_cell_angle_beta   90.00000000
_cell_angle_gamma   103.61085807
_symmetry_Int_Tables_number   1
_chemical_formula_structural   CsZrCuSe3
_chemical_formula_sum   'Cs2 Zr2 Cu2 Se6'
_cell_volume   330.81186152
_cell_formula_units_Z   2
loop_
 _symmetry_equiv_pos_site_id
 _symmetry_equiv_pos_as_xyz
  1  'x, y, z'
loop_
 _atom_site_type_symbol
 _atom_site_label
 _atom_site_symmetry_multiplicity
 _atom_site_fract_x
 _atom_site_fract_y
 _atom_site_fract_z
 _atom_site_occupancy
  Cu  Cu0  1  0.469435  0.938871  0.750000  1
  Cu  Cu1  1  0.530565  0.061129  0.250000  1
  Se  Se2  1  0.388095  0.776190  0.552428  1
  Se  Se3  1  0.611905  0.223810  0.447572  1
  Se  Se4  1  0.939862  0.879724  0.250000  1
  Se  Se5  1  0.060138  0.120276  0.750000  1
  Se  Se6  1  0.388095  0.776190  0.947572  1
  Se  Se7  1  0.611905  0.223810  0.052428  1
  Zr  Zr8  1  0.000000  0.000000  0.500000  1
  Zr  Zr9  1  0.000000  0.000000  0.000000  1
  Cs  Cs10  1  0.253849  0.507697  0.250000  1
  Cs  Cs11  1  0.746151  0.492303  0.750000  1
