# generated using pymatgen
data_LiFePO4
_symmetry_space_group_name_H-M   'P 1'
_cell_length_a   5.17344576
_cell_length_b   9.65496828
_cell_length_c   6.13193051
_cell_angle_alpha   90.00000000
_cell_angle_beta   90.00000000
_cell_angle_gamma   84.11863371
_symmetry_Int_Tables_number   1
_chemical_formula_structural   LiFePO4
_chemical_formula_sum   'Li4 Fe4 P4 O16'
_cell_volume   304.67435207
_cell_formula_units_Z   4
loop_
 _symmetry_equiv_pos_site_id
 _symmetry_equiv_pos_as_xyz
  1  'x, y, z'
loop_
 _atom_site_type_symbol
 _atom_site_label
 _atom_site_symmetry_multiplicity
 _atom_site_fract_x
 _atom_site_fract_y
 _atom_site_fract_z
 _atom_site_occupancy
  Li  Li0  1  0.157020  0.927735  0.639962  1
  Li  Li1  1  0.342980  0.572265  0.139962  1
  Li  Li2  1  0.657020  0.427735  0.860038  1
  Li  Li3  1  0.842980  0.072265  0.360038  1
  Fe  Fe4  1  0.205295  0.338532  0.613941  1
  Fe  Fe5  1  0.294705  0.161468  0.113941  1
  Fe  Fe6  1  0.705295  0.838532  0.886059  1
  Fe  Fe7  1  0.794705  0.661468  0.386059  1
  P  P8  1  0.257268  0.636492  0.648269  1
  P  P9  1  0.242732  0.863508  0.148269  1
  P  P10  1  0.757268  0.136492  0.851731  1
  P  P11  1  0.742732  0.363508  0.351731  1
  O  O12  1  0.007388  0.742690  0.666439  1
  O  O13  1  0.002047  0.779337  0.138773  1
  O  O14  1  0.218108  0.554545  0.433985  1
  O  O15  1  0.281832  0.526994  0.834027  1
  O  O16  1  0.218168  0.973006  0.334027  1
  O  O17  1  0.281892  0.945455  0.933985  1
  O  O18  1  0.507388  0.242690  0.833561  1
  O  O19  1  0.502047  0.279337  0.361227  1
  O  O20  1  0.497953  0.720663  0.638773  1
  O  O21  1  0.492612  0.757310  0.166439  1
  O  O22  1  0.718108  0.054545  0.066015  1
  O  O23  1  0.781832  0.026994  0.665973  1
  O  O24  1  0.718168  0.473006  0.165973  1
  O  O25  1  0.781892  0.445455  0.566015  1
  O  O26  1  0.997953  0.220663  0.861227  1
  O  O27  1  0.992612  0.257310  0.333561  1
