# generated using pymatgen
data_Na3MnO3
_symmetry_space_group_name_H-M   'P 1'
_cell_length_a   8.28661418
_cell_length_b   8.28661418
_cell_length_c   16.93741565
_cell_angle_alpha   90.00000000
_cell_angle_beta   90.00000000
_cell_angle_gamma   86.15405323
_symmetry_Int_Tables_number   1
_chemical_formula_structural   Na3MnO3
_chemical_formula_sum   'Na36 Mn12 O36'
_cell_volume   1160.43882089
_cell_formula_units_Z   12
loop_
 _symmetry_equiv_pos_site_id
 _symmetry_equiv_pos_as_xyz
  1  'x, y, z'
loop_
 _atom_site_type_symbol
 _atom_site_label
 _atom_site_symmetry_multiplicity
 _atom_site_fract_x
 _atom_site_fract_y
 _atom_site_fract_z
 _atom_site_occupancy
  Na  Na0  1  0.387661  0.971765  0.571182  1
  Na  Na1  1  0.028235  0.612339  0.428818  1
  Na  Na2  1  0.241908  0.817345  0.086633  1
  Na  Na3  1  0.182655  0.758092  0.913367  1
  Na  Na4  1  0.169775  0.669775  0.250000  1
  Na  Na5  1  0.330225  0.830225  0.750000  1
  Na  Na6  1  0.317345  0.741908  0.413367  1
  Na  Na7  1  0.258092  0.682655  0.586633  1
  Na  Na8  1  0.471765  0.887661  0.928818  1
  Na  Na9  1  0.112339  0.528235  0.071182  1
  Na  Na10  1  0.511770  0.844376  0.190802  1
  Na  Na11  1  0.011770  0.344376  0.309198  1
  Na  Na12  1  0.655624  0.988230  0.690802  1
  Na  Na13  1  0.155624  0.488230  0.809198  1
  Na  Na14  1  0.026794  0.026794  0.224084  1
  Na  Na15  1  0.326600  0.326600  0.224786  1
  Na  Na16  1  0.173400  0.173400  0.724786  1
  Na  Na17  1  0.526794  0.526794  0.275916  1
  Na  Na18  1  0.673400  0.673400  0.775214  1
  Na  Na19  1  0.973206  0.973206  0.775916  1
  Na  Na20  1  0.473206  0.473206  0.724084  1
  Na  Na21  1  0.826600  0.826600  0.275214  1
  Na  Na22  1  0.344376  0.011770  0.309198  1
  Na  Na23  1  0.988230  0.655624  0.690802  1
  Na  Na24  1  0.488230  0.155624  0.809198  1
  Na  Na25  1  0.844376  0.511770  0.190802  1
  Na  Na26  1  0.528235  0.112339  0.071182  1
  Na  Na27  1  0.887661  0.471765  0.928818  1
  Na  Na28  1  0.741908  0.317345  0.413367  1
  Na  Na29  1  0.682655  0.258092  0.586633  1
  Na  Na30  1  0.669775  0.169775  0.250000  1
  Na  Na31  1  0.830225  0.330225  0.750000  1
  Na  Na32  1  0.817345  0.241908  0.086633  1
  Na  Na33  1  0.758092  0.182655  0.913367  1
  Na  Na34  1  0.612339  0.028235  0.428818  1
  Na  Na35  1  0.971765  0.387661  0.571182  1
  Mn  Mn36  1  0.172844  0.172844  0.092283  1
  Mn  Mn37  1  0.001511  0.001511  0.414242  1
  Mn  Mn38  1  0.998489  0.998489  0.585758  1
  Mn  Mn39  1  0.327156  0.327156  0.592283  1
  Mn  Mn40  1  0.347315  0.347315  0.420305  1
  Mn  Mn41  1  0.672844  0.672844  0.407717  1
  Mn  Mn42  1  0.152685  0.152685  0.920305  1
  Mn  Mn43  1  0.501511  0.501511  0.085758  1
  Mn  Mn44  1  0.652685  0.652685  0.579695  1
  Mn  Mn45  1  0.498489  0.498489  0.914242  1
  Mn  Mn46  1  0.827156  0.827156  0.907717  1
  Mn  Mn47  1  0.847315  0.847315  0.079695  1
  O  O48  1  0.117056  0.882944  0.500000  1
  O  O49  1  0.114672  0.874362  0.337538  1
  O  O50  1  0.125638  0.885328  0.662462  1
  O  O51  1  0.555994  0.802847  0.331293  1
  O  O52  1  0.697153  0.944006  0.831293  1
  O  O53  1  0.055994  0.302847  0.168707  1
  O  O54  1  0.197153  0.444006  0.668707  1
  O  O55  1  0.239006  0.481433  0.344918  1
  O  O56  1  0.518567  0.760994  0.655082  1
  O  O57  1  0.018567  0.260994  0.844918  1
  O  O58  1  0.739006  0.981433  0.155082  1
  O  O59  1  0.374362  0.614672  0.162462  1
  O  O60  1  0.385328  0.625638  0.837538  1
  O  O61  1  0.382944  0.617056  0.000000  1
  O  O62  1  0.723028  0.952946  0.992868  1
  O  O63  1  0.547054  0.776972  0.492868  1
  O  O64  1  0.047054  0.276972  0.007132  1
  O  O65  1  0.223027  0.452946  0.507132  1
  O  O66  1  0.776972  0.547054  0.492868  1
  O  O67  1  0.452946  0.223027  0.507132  1
  O  O68  1  0.276972  0.047054  0.007132  1
  O  O69  1  0.952946  0.723028  0.992868  1
  O  O70  1  0.617056  0.382944  0.000000  1
  O  O71  1  0.625638  0.385328  0.837538  1
  O  O72  1  0.614672  0.374362  0.162462  1
  O  O73  1  0.260994  0.018567  0.844918  1
  O  O74  1  0.481433  0.239006  0.344918  1
  O  O75  1  0.981433  0.739006  0.155082  1
  O  O76  1  0.760994  0.518567  0.655082  1
  O  O77  1  0.302847  0.055994  0.168707  1
  O  O78  1  0.444006  0.197153  0.668707  1
  O  O79  1  0.802847  0.555994  0.331293  1
  O  O80  1  0.944006  0.697153  0.831293  1
  O  O81  1  0.874362  0.114672  0.337538  1
  O  O82  1  0.885328  0.125638  0.662462  1
  O  O83  1  0.882944  0.117056  0.500000  1
