# generated using pymatgen
data_LiSiPCO7
_symmetry_space_group_name_H-M   'P 1'
_cell_length_a   8.43761972
_cell_length_b   6.03012945
_cell_length_c   4.96868057
_cell_angle_alpha   90.00000000
_cell_angle_beta   85.27977476
_cell_angle_gamma   90.00000000
_symmetry_Int_Tables_number   1
_chemical_formula_structural   LiSiPCO7
_chemical_formula_sum   'Li2 Si2 P2 C2 O14'
_cell_volume   251.94874768
_cell_formula_units_Z   2
loop_
 _symmetry_equiv_pos_site_id
 _symmetry_equiv_pos_as_xyz
  1  'x, y, z'
loop_
 _atom_site_type_symbol
 _atom_site_label
 _atom_site_symmetry_multiplicity
 _atom_site_fract_x
 _atom_site_fract_y
 _atom_site_fract_z
 _atom_site_occupancy
  Li  Li0  1  0.194536  0.521766  0.231902  1
  Li  Li1  1  0.805464  0.021766  0.768098  1
  Si  Si2  1  0.333921  0.751898  0.788665  1
  Si  Si3  1  0.666079  0.251898  0.211335  1
  P  P4  1  0.432861  0.245738  0.736050  1
  P  P5  1  0.567139  0.745738  0.263950  1
  C  C6  1  0.068943  0.748456  0.726627  1
  C  C7  1  0.931057  0.248456  0.273373  1
  O  O8  1  0.072777  0.265335  0.313269  1
  O  O9  1  0.133133  0.746859  0.963676  1
  O  O10  1  0.191027  0.736490  0.534837  1
  O  O11  1  0.327210  0.043221  0.797097  1
  O  O12  1  0.327178  0.448082  0.807858  1
  O  O13  1  0.419232  0.741620  0.099596  1
  O  O14  1  0.492886  0.248387  0.431098  1
  O  O15  1  0.507114  0.748387  0.568902  1
  O  O16  1  0.580768  0.241620  0.900403  1
  O  O17  1  0.672822  0.948082  0.192142  1
  O  O18  1  0.672790  0.543221  0.202903  1
  O  O19  1  0.808973  0.236490  0.465163  1
  O  O20  1  0.866867  0.246859  0.036324  1
  O  O21  1  0.927223  0.765335  0.686731  1
