# generated using pymatgen
data_Li3VFe3O8
_symmetry_space_group_name_H-M   'P 1'
_cell_length_a   6.01208156
_cell_length_b   5.98585411
_cell_length_c   6.00051498
_cell_angle_alpha   120.00805224
_cell_angle_beta   120.98404515
_cell_angle_gamma   89.50810982
_symmetry_Int_Tables_number   1
_chemical_formula_structural   Li3VFe3O8
_chemical_formula_sum   'Li3 V1 Fe3 O8'
_cell_volume   151.03784028
_cell_formula_units_Z   1
loop_
 _symmetry_equiv_pos_site_id
 _symmetry_equiv_pos_as_xyz
  1  'x, y, z'
loop_
 _atom_site_type_symbol
 _atom_site_label
 _atom_site_symmetry_multiplicity
 _atom_site_fract_x
 _atom_site_fract_y
 _atom_site_fract_z
 _atom_site_occupancy
  Li  Li0  1  0.000000  0.000000  0.500000  1
  Li  Li1  1  0.500000  0.999999  0.000000  1
  Li  Li2  1  0.500000  0.500000  0.000000  1
  V  V3  1  0.000000  0.000001  0.000000  1
  Fe  Fe4  1  0.500000  0.000000  0.500000  1
  Fe  Fe5  1  0.500000  0.500000  0.500000  1
  Fe  Fe6  1  0.000001  0.500000  0.000001  1
  O  O7  1  0.761305  0.236123  0.980944  1
  O  O8  1  0.244225  0.228293  0.459579  1
  O  O9  1  0.268570  0.745900  0.483171  1
  O  O10  1  0.761464  0.750113  0.990242  1
  O  O11  1  0.238536  0.249887  0.009758  1
  O  O12  1  0.731429  0.254100  0.516828  1
  O  O13  1  0.755776  0.771708  0.540422  1
  O  O14  1  0.238694  0.763878  0.019056  1
