# generated using pymatgen
data_Na3SrPCO7
_symmetry_space_group_name_H-M   'P 1'
_cell_length_a   9.41329939
_cell_length_b   7.31761217
_cell_length_c   5.24345240
_cell_angle_alpha   90.00000000
_cell_angle_beta   89.55181701
_cell_angle_gamma   90.00000000
_symmetry_Int_Tables_number   1
_chemical_formula_structural   Na3SrPCO7
_chemical_formula_sum   'Na6 Sr2 P2 C2 O14'
_cell_volume   361.17302213
_cell_formula_units_Z   2
loop_
 _symmetry_equiv_pos_site_id
 _symmetry_equiv_pos_as_xyz
  1  'x, y, z'
loop_
 _atom_site_type_symbol
 _atom_site_label
 _atom_site_symmetry_multiplicity
 _atom_site_fract_x
 _atom_site_fract_y
 _atom_site_fract_z
 _atom_site_occupancy
  Na  Na0  1  0.082828  0.250000  0.758884  1
  Na  Na1  1  0.249587  0.012249  0.238010  1
  Na  Na2  1  0.249587  0.487751  0.238010  1
  Na  Na3  1  0.750413  0.512249  0.761990  1
  Na  Na4  1  0.750413  0.987751  0.761990  1
  Na  Na5  1  0.917172  0.750000  0.241116  1
  Sr  Sr6  1  0.368893  0.750000  0.760834  1
  Sr  Sr7  1  0.631107  0.250000  0.239166  1
  P  P8  1  0.399690  0.250000  0.700632  1
  P  P9  1  0.600310  0.750000  0.299368  1
  C  C10  1  0.051902  0.750000  0.733254  1
  C  C11  1  0.948098  0.250000  0.266746  1
  O  O12  1  0.086057  0.250000  0.283171  1
  O  O13  1  0.111933  0.750000  0.956820  1
  O  O14  1  0.129189  0.750000  0.525114  1
  O  O15  1  0.321726  0.079191  0.809866  1
  O  O16  1  0.321726  0.420809  0.809866  1
  O  O17  1  0.388598  0.250000  0.404315  1
  O  O18  1  0.437003  0.750000  0.236163  1
  O  O19  1  0.562997  0.250000  0.763837  1
  O  O20  1  0.611402  0.750000  0.595685  1
  O  O21  1  0.678274  0.579191  0.190134  1
  O  O22  1  0.678274  0.920809  0.190134  1
  O  O23  1  0.870811  0.250000  0.474886  1
  O  O24  1  0.888067  0.250000  0.043180  1
  O  O25  1  0.913943  0.750000  0.716829  1
