# generated using pymatgen
data_Bi3O2F5
_symmetry_space_group_name_H-M   'P 1'
_cell_length_a   5.73455124
_cell_length_b   18.11199312
_cell_length_c   5.90999299
_cell_angle_alpha   90.00000000
_cell_angle_beta   90.00000000
_cell_angle_gamma   90.00000000
_symmetry_Int_Tables_number   1
_chemical_formula_structural   Bi3O2F5
_chemical_formula_sum   'Bi12 O8 F20'
_cell_volume   613.83641381
_cell_formula_units_Z   4
loop_
 _symmetry_equiv_pos_site_id
 _symmetry_equiv_pos_as_xyz
  1  'x, y, z'
loop_
 _atom_site_type_symbol
 _atom_site_label
 _atom_site_symmetry_multiplicity
 _atom_site_fract_x
 _atom_site_fract_y
 _atom_site_fract_z
 _atom_site_occupancy
  Bi  Bi0  1  0.170342  0.599981  0.539247  1
  Bi  Bi1  1  0.170342  0.900019  0.539247  1
  Bi  Bi2  1  0.239568  0.750000  0.963038  1
  Bi  Bi3  1  0.260432  0.250000  0.463038  1
  Bi  Bi4  1  0.329658  0.099981  0.039247  1
  Bi  Bi5  1  0.329658  0.400019  0.039247  1
  Bi  Bi6  1  0.670342  0.900019  0.960753  1
  Bi  Bi7  1  0.670342  0.599981  0.960753  1
  Bi  Bi8  1  0.739568  0.750000  0.536962  1
  Bi  Bi9  1  0.760432  0.250000  0.036962  1
  Bi  Bi10  1  0.829658  0.400019  0.460753  1
  Bi  Bi11  1  0.829658  0.099981  0.460753  1
  O  O12  1  0.045243  0.171202  0.227003  1
  O  O13  1  0.045243  0.328798  0.227003  1
  O  O14  1  0.454757  0.828798  0.727003  1
  O  O15  1  0.454757  0.671202  0.727003  1
  O  O16  1  0.545243  0.171202  0.272997  1
  O  O17  1  0.545243  0.328798  0.272997  1
  O  O18  1  0.954757  0.671202  0.772997  1
  O  O19  1  0.954757  0.828798  0.772997  1
  F  F20  1  0.135154  0.750000  0.401658  1
  F  F21  1  0.108620  0.021680  0.290319  1
  F  F22  1  0.108620  0.478320  0.290319  1
  F  F23  1  0.168151  0.129800  0.667824  1
  F  F24  1  0.168151  0.370200  0.667824  1
  F  F25  1  0.331849  0.870200  0.167824  1
  F  F26  1  0.331849  0.629800  0.167824  1
  F  F27  1  0.391380  0.521680  0.790319  1
  F  F28  1  0.391380  0.978320  0.790319  1
  F  F29  1  0.364846  0.250000  0.901658  1
  F  F30  1  0.635154  0.750000  0.098342  1
  F  F31  1  0.608620  0.021680  0.209681  1
  F  F32  1  0.608620  0.478320  0.209681  1
  F  F33  1  0.668151  0.370200  0.832176  1
  F  F34  1  0.668151  0.129800  0.832176  1
  F  F35  1  0.831849  0.629800  0.332176  1
  F  F36  1  0.831849  0.870200  0.332176  1
  F  F37  1  0.891380  0.978320  0.709681  1
  F  F38  1  0.891380  0.521680  0.709681  1
  F  F39  1  0.864846  0.250000  0.598342  1
