# generated using pymatgen
data_CsB10H13C
_symmetry_space_group_name_H-M   'P 1'
_cell_length_a   12.42363353
_cell_length_b   10.78228275
_cell_length_c   8.10194595
_cell_angle_alpha   90.00000000
_cell_angle_beta   93.68889039
_cell_angle_gamma   90.00000000
_symmetry_Int_Tables_number   1
_chemical_formula_structural   CsB10H13C
_chemical_formula_sum   'Cs4 B40 H52 C4'
_cell_volume   1083.04860567
_cell_formula_units_Z   4
loop_
 _symmetry_equiv_pos_site_id
 _symmetry_equiv_pos_as_xyz
  1  'x, y, z'
loop_
 _atom_site_type_symbol
 _atom_site_label
 _atom_site_symmetry_multiplicity
 _atom_site_fract_x
 _atom_site_fract_y
 _atom_site_fract_z
 _atom_site_occupancy
  Cs  Cs0  1  0.011204  0.257150  0.156726  1
  Cs  Cs1  1  0.488796  0.757150  0.843274  1
  Cs  Cs2  1  0.511204  0.242850  0.156726  1
  Cs  Cs3  1  0.988796  0.742850  0.843274  1
  B  B4  1  0.134058  0.068528  0.807083  1
  B  B5  1  0.142804  0.635883  0.412546  1
  B  B6  1  0.138325  0.569695  0.214615  1
  B  B7  1  0.163152  0.984637  0.631067  1
  B  B8  1  0.176496  0.225234  0.769638  1
  B  B9  1  0.174733  0.726870  0.223137  1
  B  B10  1  0.195892  0.484345  0.387671  1
  B  B11  1  0.221823  0.094574  0.495896  1
  B  B12  1  0.249610  0.973505  0.811728  1
  B  B13  1  0.255867  0.124428  0.905843  1
  B  B14  1  0.244133  0.624428  0.094157  1
  B  B15  1  0.250390  0.473505  0.188272  1
  B  B16  1  0.278177  0.594574  0.504104  1
  B  B17  1  0.304108  0.984345  0.612329  1
  B  B18  1  0.325267  0.226870  0.776863  1
  B  B19  1  0.323504  0.725234  0.230362  1
  B  B20  1  0.336848  0.484637  0.368933  1
  B  B21  1  0.361675  0.069695  0.785385  1
  B  B22  1  0.357196  0.135883  0.587454  1
  B  B23  1  0.365942  0.568529  0.192918  1
  B  B24  1  0.634058  0.431472  0.807083  1
  B  B25  1  0.642804  0.864117  0.412546  1
  B  B26  1  0.638325  0.930305  0.214615  1
  B  B27  1  0.663152  0.515363  0.631067  1
  B  B28  1  0.676496  0.274766  0.769638  1
  B  B29  1  0.674733  0.773130  0.223137  1
  B  B30  1  0.695892  0.015655  0.387671  1
  B  B31  1  0.721823  0.405426  0.495896  1
  B  B32  1  0.749610  0.526495  0.811728  1
  B  B33  1  0.755867  0.375572  0.905843  1
  B  B34  1  0.744133  0.875572  0.094157  1
  B  B35  1  0.750390  0.026495  0.188272  1
  B  B36  1  0.778177  0.905426  0.504104  1
  B  B37  1  0.804108  0.515655  0.612329  1
  B  B38  1  0.825267  0.273130  0.776863  1
  B  B39  1  0.823504  0.774766  0.230362  1
  B  B40  1  0.836848  0.015363  0.368933  1
  B  B41  1  0.861675  0.430305  0.785385  1
  B  B42  1  0.857196  0.364117  0.587454  1
  B  B43  1  0.865942  0.931471  0.192918  1
  H  H44  1  0.045798  0.153551  0.566493  1
  H  H45  1  0.053543  0.049887  0.877244  1
  H  H46  1  0.062086  0.645842  0.484857  1
  H  H47  1  0.049400  0.547584  0.153802  1
  H  H48  1  0.104762  0.905712  0.572580  1
  H  H49  1  0.123526  0.308650  0.819691  1
  H  H50  1  0.117696  0.805210  0.159375  1
  H  H51  1  0.151973  0.396964  0.445962  1
  H  H52  1  0.201996  0.081341  0.349930  1
  H  H53  1  0.214892  0.699469  0.495510  1
  H  H54  1  0.233992  0.634043  0.946130  1
  H  H55  1  0.246672  0.787727  0.310930  1
  H  H56  1  0.256667  0.880423  0.892680  1
  H  H57  1  0.243333  0.380423  0.107320  1
  H  H58  1  0.253328  0.287727  0.689070  1
  H  H59  1  0.266008  0.134043  0.053870  1
  H  H60  1  0.285108  0.199468  0.504490  1
  H  H61  1  0.298004  0.581341  0.650070  1
  H  H62  1  0.348027  0.896964  0.554038  1
  H  H63  1  0.382304  0.305210  0.840625  1
  H  H64  1  0.376474  0.808650  0.180309  1
  H  H65  1  0.395238  0.405712  0.427420  1
  H  H66  1  0.450600  0.047584  0.846198  1
  H  H67  1  0.437914  0.145842  0.515143  1
  H  H68  1  0.446457  0.549887  0.122756  1
  H  H69  1  0.454202  0.653551  0.433507  1
  H  H70  1  0.545798  0.346449  0.566493  1
  H  H71  1  0.553543  0.450113  0.877244  1
  H  H72  1  0.562086  0.854158  0.484857  1
  H  H73  1  0.549400  0.952416  0.153802  1
  H  H74  1  0.604762  0.594288  0.572580  1
  H  H75  1  0.623526  0.191350  0.819691  1
  H  H76  1  0.617696  0.694790  0.159375  1
  H  H77  1  0.651973  0.103036  0.445962  1
  H  H78  1  0.701996  0.418659  0.349930  1
  H  H79  1  0.714892  0.800531  0.495510  1
  H  H80  1  0.733992  0.865957  0.946130  1
  H  H81  1  0.746672  0.712273  0.310930  1
  H  H82  1  0.756667  0.619577  0.892680  1
  H  H83  1  0.743333  0.119577  0.107320  1
  H  H84  1  0.753328  0.212273  0.689070  1
  H  H85  1  0.766008  0.365957  0.053870  1
  H  H86  1  0.785108  0.300532  0.504490  1
  H  H87  1  0.798004  0.918659  0.650070  1
  H  H88  1  0.848027  0.603036  0.554038  1
  H  H89  1  0.882304  0.194790  0.840625  1
  H  H90  1  0.876474  0.691350  0.180309  1
  H  H91  1  0.895238  0.094288  0.427420  1
  H  H92  1  0.950600  0.452416  0.846198  1
  H  H93  1  0.937914  0.354158  0.515143  1
  H  H94  1  0.946457  0.950113  0.122756  1
  H  H95  1  0.954202  0.846449  0.433507  1
  C  C96  1  0.126913  0.134672  0.618926  1
  C  C97  1  0.373087  0.634672  0.381074  1
  C  C98  1  0.626913  0.365328  0.618926  1
  C  C99  1  0.873087  0.865328  0.381074  1
