# generated using pymatgen
data_LiFeSi3O8
_symmetry_space_group_name_H-M   'P 1'
_cell_length_a   7.82257767
_cell_length_b   13.04974899
_cell_length_c   7.43968486
_cell_angle_alpha   90.00000000
_cell_angle_beta   63.40407943
_cell_angle_gamma   90.00000000
_symmetry_Int_Tables_number   1
_chemical_formula_structural   LiFeSi3O8
_chemical_formula_sum   'Li4 Fe4 Si12 O32'
_cell_volume   679.10120834
_cell_formula_units_Z   4
loop_
 _symmetry_equiv_pos_site_id
 _symmetry_equiv_pos_as_xyz
  1  'x, y, z'
loop_
 _atom_site_type_symbol
 _atom_site_label
 _atom_site_symmetry_multiplicity
 _atom_site_fract_x
 _atom_site_fract_y
 _atom_site_fract_z
 _atom_site_occupancy
  Li  Li0  1  0.264891  0.052330  0.885427  1
  Li  Li1  1  0.235109  0.552330  0.614573  1
  Li  Li2  1  0.764891  0.447670  0.385427  1
  Li  Li3  1  0.735109  0.947670  0.114573  1
  Fe  Fe4  1  0.976029  0.174152  0.202341  1
  Fe  Fe5  1  0.476029  0.325848  0.702341  1
  Fe  Fe6  1  0.523971  0.674152  0.297659  1
  Fe  Fe7  1  0.023970  0.825848  0.797659  1
  Si  Si8  1  0.012362  0.838376  0.244066  1
  Si  Si9  1  0.347500  0.896334  0.354449  1
  Si  Si10  1  0.324540  0.119560  0.318247  1
  Si  Si11  1  0.512362  0.661624  0.744066  1
  Si  Si12  1  0.152500  0.396334  0.145551  1
  Si  Si13  1  0.175460  0.619560  0.181753  1
  Si  Si14  1  0.824540  0.380440  0.818247  1
  Si  Si15  1  0.847500  0.603666  0.854449  1
  Si  Si16  1  0.487638  0.338376  0.255934  1
  Si  Si17  1  0.652500  0.103666  0.645551  1
  Si  Si18  1  0.675460  0.880440  0.681753  1
  Si  Si19  1  0.987638  0.161624  0.755934  1
  O  O20  1  0.265947  0.389323  0.903938  1
  O  O21  1  0.319320  0.625701  0.941417  1
  O  O22  1  0.180680  0.125701  0.558583  1
  O  O23  1  0.234053  0.889323  0.596062  1
  O  O24  1  0.021170  0.712832  0.243630  1
  O  O25  1  0.971424  0.317918  0.241702  1
  O  O26  1  0.004376  0.118084  0.952074  1
  O  O27  1  0.995624  0.881916  0.047926  1
  O  O28  1  0.203145  0.884366  0.250553  1
  O  O29  1  0.208163  0.119332  0.184236  1
  O  O30  1  0.050854  0.511585  0.219664  1
  O  O31  1  0.449146  0.011585  0.280336  1
  O  O32  1  0.471424  0.182082  0.741702  1
  O  O33  1  0.521170  0.787168  0.743630  1
  O  O34  1  0.291837  0.619332  0.315764  1
  O  O35  1  0.296855  0.384366  0.249447  1
  O  O36  1  0.495624  0.618084  0.547926  1
  O  O37  1  0.504376  0.381916  0.452074  1
  O  O38  1  0.708163  0.380668  0.684236  1
  O  O39  1  0.703145  0.615634  0.750553  1
  O  O40  1  0.478830  0.212832  0.256370  1
  O  O41  1  0.528576  0.817918  0.258298  1
  O  O42  1  0.550854  0.988415  0.719664  1
  O  O43  1  0.949146  0.488415  0.780336  1
  O  O44  1  0.796855  0.115634  0.749447  1
  O  O45  1  0.791837  0.880668  0.815764  1
  O  O46  1  0.978830  0.287168  0.756370  1
  O  O47  1  0.028576  0.682082  0.758298  1
  O  O48  1  0.765947  0.110677  0.403938  1
  O  O49  1  0.819320  0.874299  0.441417  1
  O  O50  1  0.680680  0.374299  0.058583  1
  O  O51  1  0.734053  0.610677  0.096062  1
