# generated using pymatgen
data_Bi4O5F2
_symmetry_space_group_name_H-M   'P 1'
_cell_length_a   9.21765645
_cell_length_b   8.50262315
_cell_length_c   9.09274909
_cell_angle_alpha   90.00000000
_cell_angle_beta   90.00000000
_cell_angle_gamma   90.00000000
_symmetry_Int_Tables_number   1
_chemical_formula_structural   Bi4O5F2
_chemical_formula_sum   'Bi16 O20 F8'
_cell_volume   712.63747330
_cell_formula_units_Z   4
loop_
 _symmetry_equiv_pos_site_id
 _symmetry_equiv_pos_as_xyz
  1  'x, y, z'
loop_
 _atom_site_type_symbol
 _atom_site_label
 _atom_site_symmetry_multiplicity
 _atom_site_fract_x
 _atom_site_fract_y
 _atom_site_fract_z
 _atom_site_occupancy
  Bi  Bi0  1  0.017025  0.750000  0.434607  1
  Bi  Bi1  1  0.044889  0.250000  0.999444  1
  Bi  Bi2  1  0.239512  0.966777  0.790386  1
  Bi  Bi3  1  0.239512  0.533223  0.790386  1
  Bi  Bi4  1  0.260488  0.033223  0.290386  1
  Bi  Bi5  1  0.260488  0.466777  0.290386  1
  Bi  Bi6  1  0.455111  0.750000  0.499444  1
  Bi  Bi7  1  0.482975  0.250000  0.934607  1
  Bi  Bi8  1  0.517025  0.750000  0.065393  1
  Bi  Bi9  1  0.544889  0.250000  0.500556  1
  Bi  Bi10  1  0.739512  0.533223  0.709614  1
  Bi  Bi11  1  0.739512  0.966777  0.709614  1
  Bi  Bi12  1  0.760488  0.033223  0.209614  1
  Bi  Bi13  1  0.760488  0.466777  0.209614  1
  Bi  Bi14  1  0.955111  0.750000  0.000556  1
  Bi  Bi15  1  0.982975  0.250000  0.565393  1
  O  O16  1  0.025112  0.064092  0.836177  1
  O  O17  1  0.025112  0.435908  0.836177  1
  O  O18  1  0.166048  0.561027  0.492521  1
  O  O19  1  0.166048  0.938973  0.492521  1
  O  O20  1  0.179499  0.750000  0.924641  1
  O  O21  1  0.320501  0.250000  0.424641  1
  O  O22  1  0.333952  0.061027  0.992521  1
  O  O23  1  0.333952  0.438973  0.992521  1
  O  O24  1  0.474888  0.564092  0.336177  1
  O  O25  1  0.474888  0.935908  0.336177  1
  O  O26  1  0.525112  0.064092  0.663823  1
  O  O27  1  0.525112  0.435908  0.663823  1
  O  O28  1  0.666048  0.561027  0.007479  1
  O  O29  1  0.666048  0.938973  0.007479  1
  O  O30  1  0.679499  0.750000  0.575359  1
  O  O31  1  0.820501  0.250000  0.075359  1
  O  O32  1  0.833952  0.061027  0.507479  1
  O  O33  1  0.833952  0.438973  0.507479  1
  O  O34  1  0.974888  0.564092  0.163823  1
  O  O35  1  0.974888  0.935908  0.163823  1
  F  F36  1  0.029851  0.250000  0.321359  1
  F  F37  1  0.219293  0.750000  0.253367  1
  F  F38  1  0.280707  0.250000  0.753367  1
  F  F39  1  0.470149  0.750000  0.821359  1
  F  F40  1  0.529851  0.250000  0.178641  1
  F  F41  1  0.719293  0.750000  0.246633  1
  F  F42  1  0.780707  0.250000  0.746633  1
  F  F43  1  0.970149  0.750000  0.678641  1
