# generated using pymatgen
data_Li9V12Cr7O48
_symmetry_space_group_name_H-M   'P 1'
_cell_length_a   5.04344133
_cell_length_b   10.25605069
_cell_length_c   17.17957228
_cell_angle_alpha   90.24726024
_cell_angle_beta   90.41818267
_cell_angle_gamma   89.91563725
_symmetry_Int_Tables_number   1
_chemical_formula_structural   Li9V12Cr7O48
_chemical_formula_sum   'Li9 V12 Cr7 O48'
_cell_volume   888.59408176
_cell_formula_units_Z   1
loop_
 _symmetry_equiv_pos_site_id
 _symmetry_equiv_pos_as_xyz
  1  'x, y, z'
loop_
 _atom_site_type_symbol
 _atom_site_label
 _atom_site_symmetry_multiplicity
 _atom_site_fract_x
 _atom_site_fract_y
 _atom_site_fract_z
 _atom_site_occupancy
  Li  Li0  1  0.246538  0.421445  0.967300  1
  Li  Li1  1  0.255859  0.745445  0.304255  1
  Li  Li2  1  0.253036  0.257233  0.798146  1
  Li  Li3  1  0.251353  0.581011  0.469517  1
  Li  Li4  1  0.398696  0.748516  0.749801  1
  Li  Li5  1  0.599521  0.249307  0.250331  1
  Li  Li6  1  0.748927  0.081225  0.530894  1
  Li  Li7  1  0.745786  0.747152  0.201586  1
  Li  Li8  1  0.745265  0.249454  0.696376  1
  V  V9  1  0.208524  0.748605  0.943606  1
  V  V10  1  0.215405  0.025473  0.658226  1
  V  V11  1  0.213359  0.473646  0.652657  1
  V  V12  1  0.277398  0.526429  0.155337  1
  V  V13  1  0.284220  0.971810  0.157085  1
  V  V14  1  0.276002  0.251607  0.444573  1
  V  V15  1  0.724232  0.752007  0.554971  1
  V  V16  1  0.710390  0.027862  0.843073  1
  V  V17  1  0.724972  0.474067  0.843291  1
  V  V18  1  0.784873  0.526808  0.342917  1
  V  V19  1  0.787356  0.974526  0.346464  1
  V  V20  1  0.788563  0.247884  0.057444  1
  Cr  Cr21  1  0.097558  0.250088  0.253422  1
  Cr  Cr22  1  0.245092  0.070948  0.973789  1
  Cr  Cr23  1  0.258652  0.932510  0.475750  1
  Cr  Cr24  1  0.740434  0.432616  0.524104  1
  Cr  Cr25  1  0.749989  0.566987  0.027163  1
  Cr  Cr26  1  0.745223  0.927346  0.027307  1
  Cr  Cr27  1  0.899349  0.748599  0.745943  1
  O  O28  1  0.066017  0.237639  0.996144  1
  O  O29  1  0.050969  0.614627  0.370979  1
  O  O30  1  0.082858  0.890253  0.380742  1
  O  O31  1  0.095082  0.625028  0.208529  1
  O  O32  1  0.097137  0.878022  0.211035  1
  O  O33  1  0.102233  0.108793  0.465897  1
  O  O34  1  0.059400  0.376202  0.467028  1
  O  O35  1  0.079770  0.002078  0.070413  1
  O  O36  1  0.070844  0.497857  0.073745  1
  O  O37  1  0.131429  0.748593  0.846589  1
  O  O38  1  0.131284  0.618738  0.703865  1
  O  O39  1  0.124669  0.876041  0.708888  1
  O  O40  1  0.331269  0.122567  0.205803  1
  O  O41  1  0.323668  0.377263  0.204967  1
  O  O42  1  0.334387  0.252448  0.343625  1
  O  O43  1  0.408325  0.988140  0.572139  1
  O  O44  1  0.425997  0.505976  0.574072  1
  O  O45  1  0.407888  0.889913  0.966244  1
  O  O46  1  0.428358  0.626115  0.966445  1
  O  O47  1  0.415593  0.116563  0.716346  1
  O  O48  1  0.396669  0.376127  0.708129  1
  O  O49  1  0.415278  0.110604  0.879065  1
  O  O50  1  0.449574  0.389831  0.870239  1
  O  O51  1  0.436444  0.764392  0.494672  1
  O  O52  1  0.562694  0.263902  0.504924  1
  O  O53  1  0.579987  0.609524  0.119628  1
  O  O54  1  0.569982  0.886967  0.125493  1
  O  O55  1  0.585780  0.619016  0.285891  1
  O  O56  1  0.608171  0.878479  0.288748  1
  O  O57  1  0.577496  0.109567  0.035707  1
  O  O58  1  0.605403  0.387371  0.035826  1
  O  O59  1  0.575216  0.005379  0.425128  1
  O  O60  1  0.590697  0.487191  0.428175  1
  O  O61  1  0.666921  0.753692  0.656206  1
  O  O62  1  0.672854  0.624843  0.791210  1
  O  O63  1  0.667657  0.878934  0.795361  1
  O  O64  1  0.874752  0.119778  0.295056  1
  O  O65  1  0.871623  0.376943  0.291788  1
  O  O66  1  0.871692  0.245449  0.154276  1
  O  O67  1  0.908550  0.519365  0.930148  1
  O  O68  1  0.915685  0.991607  0.928417  1
  O  O69  1  0.898229  0.609371  0.534087  1
  O  O70  1  0.940049  0.876380  0.533119  1
  O  O71  1  0.908301  0.123561  0.793374  1
  O  O72  1  0.917469  0.375737  0.788928  1
  O  O73  1  0.950560  0.114460  0.630516  1
  O  O74  1  0.916380  0.389687  0.618442  1
  O  O75  1  0.922137  0.748386  0.008625  1
