# generated using pymatgen
data_Li4Fe3(SiO4)3
_symmetry_space_group_name_H-M   'P 1'
_cell_length_a   4.35753543
_cell_length_b   11.93668160
_cell_length_c   5.50935720
_cell_angle_alpha   83.57321374
_cell_angle_beta   66.57342924
_cell_angle_gamma   79.59892495
_symmetry_Int_Tables_number   1
_chemical_formula_structural   Li4Fe3(SiO4)3
_chemical_formula_sum   'Li4 Fe3 Si3 O12'
_cell_volume   258.36812219
_cell_formula_units_Z   1
loop_
 _symmetry_equiv_pos_site_id
 _symmetry_equiv_pos_as_xyz
  1  'x, y, z'
loop_
 _atom_site_type_symbol
 _atom_site_label
 _atom_site_symmetry_multiplicity
 _atom_site_fract_x
 _atom_site_fract_y
 _atom_site_fract_z
 _atom_site_occupancy
  Li  Li0  1  0.325306  0.424532  0.914908  1
  Li  Li1  1  0.007628  0.249003  0.745356  1
  Li  Li2  1  0.328623  0.917727  0.424976  1
  Li  Li3  1  0.003514  0.744717  0.245777  1
  Fe  Fe4  1  0.667198  0.833279  0.835144  1
  Fe  Fe5  1  0.003107  0.505356  0.492025  1
  Fe  Fe6  1  0.331185  0.163715  0.172731  1
  Si  Si7  1  0.330572  0.668738  0.662851  1
  Si  Si8  1  0.674376  0.330717  0.334004  1
  Si  Si9  1  0.994689  0.999127  0.003857  1
  O  O10  1  0.192788  0.110831  0.917809  1
  O  O11  1  0.535689  0.558702  0.762306  1
  O  O12  1  0.975153  0.718706  0.916467  1
  O  O13  1  0.317327  0.363406  0.588076  1
  O  O14  1  0.937206  0.954824  0.752229  1
  O  O15  1  0.556999  0.780745  0.565310  1
  O  O16  1  0.234850  0.644222  0.419848  1
  O  O17  1  0.227168  0.891373  0.107281  1
  O  O18  1  0.909654  0.221813  0.432935  1
  O  O19  1  0.619224  0.031365  0.241262  1
  O  O20  1  0.900878  0.433122  0.213569  1
  O  O21  1  0.593530  0.287314  0.084614  1
