# generated using pymatgen
data_Li4NbCo3O8
_symmetry_space_group_name_H-M   'P 1'
_cell_length_a   10.43427188
_cell_length_b   10.41342718
_cell_length_c   14.74746985
_cell_angle_alpha   19.35712148
_cell_angle_beta   19.37078229
_cell_angle_gamma   33.38827562
_symmetry_Int_Tables_number   1
_chemical_formula_structural   Li4NbCo3O8
_chemical_formula_sum   'Li4 Nb1 Co3 O8'
_cell_volume   152.43858813
_cell_formula_units_Z   1
loop_
 _symmetry_equiv_pos_site_id
 _symmetry_equiv_pos_as_xyz
  1  'x, y, z'
loop_
 _atom_site_type_symbol
 _atom_site_label
 _atom_site_symmetry_multiplicity
 _atom_site_fract_x
 _atom_site_fract_y
 _atom_site_fract_z
 _atom_site_occupancy
  Li  Li0  1  0.999982  -0.000004  0.500017  1
  Li  Li1  1  0.999978  0.500011  0.500005  1
  Li  Li2  1  0.500015  0.999992  0.499989  1
  Li  Li3  1  0.499965  0.499975  0.500042  1
  Nb  Nb4  1  0.000058  0.000029  0.999939  1
  Co  Co5  1  -0.000006  0.499999  0.000007  1
  Co  Co6  1  0.499987  -0.000000  0.000012  1
  Co  Co7  1  0.499994  0.499996  0.000009  1
  O  O8  1  0.011528  -0.000496  0.258487  1
  O  O9  1  0.000932  0.524323  0.234996  1
  O  O10  1  0.519540  0.000423  0.240945  1
  O  O11  1  0.988459  0.000496  0.741524  1
  O  O12  1  0.476678  0.476386  0.283212  1
  O  O13  1  -0.000933  0.475672  0.765007  1
  O  O14  1  0.480474  -0.000423  0.759046  1
  O  O15  1  0.523350  0.523622  0.716762  1
