# generated using pymatgen
data_Mg2Cu5O7
_symmetry_space_group_name_H-M   'P 1'
_cell_length_a   4.03821183
_cell_length_b   9.43620326
_cell_length_c   22.72404812
_cell_angle_alpha   90.00000000
_cell_angle_beta   90.00000000
_cell_angle_gamma   90.00000000
_symmetry_Int_Tables_number   1
_chemical_formula_structural   Mg2Cu5O7
_chemical_formula_sum   'Mg12 Cu30 O42'
_cell_volume   865.90866224
_cell_formula_units_Z   6
loop_
 _symmetry_equiv_pos_site_id
 _symmetry_equiv_pos_as_xyz
  1  'x, y, z'
loop_
 _atom_site_type_symbol
 _atom_site_label
 _atom_site_symmetry_multiplicity
 _atom_site_fract_x
 _atom_site_fract_y
 _atom_site_fract_z
 _atom_site_occupancy
  Mg  Mg0  1  0.250000  0.750000  0.196236  1
  Mg  Mg1  1  0.250000  0.750000  0.338929  1
  Mg  Mg2  1  0.250000  0.750000  0.481586  1
  Mg  Mg3  1  0.250000  0.750000  0.624268  1
  Mg  Mg4  1  0.250000  0.750000  0.767150  1
  Mg  Mg5  1  0.250000  0.750000  0.910090  1
  Mg  Mg6  1  0.250000  0.750000  0.053351  1
  Mg  Mg7  1  0.750000  0.250000  0.089628  1
  Mg  Mg8  1  0.750000  0.250000  0.232280  1
  Mg  Mg9  1  0.750000  0.250000  0.374969  1
  Mg  Mg10  1  0.750000  0.250000  0.804750  1
  Mg  Mg11  1  0.750000  0.250000  0.518689  1
  Cu  Cu12  1  0.250000  0.084417  0.025863  1
  Cu  Cu13  1  0.250000  0.085434  0.167585  1
  Cu  Cu14  1  0.250000  0.415583  0.025863  1
  Cu  Cu15  1  0.250000  0.085553  0.310427  1
  Cu  Cu16  1  0.250000  0.414566  0.167585  1
  Cu  Cu17  1  0.250000  0.085873  0.453220  1
  Cu  Cu18  1  0.250000  0.414447  0.310427  1
  Cu  Cu19  1  0.250000  0.085434  0.596700  1
  Cu  Cu20  1  0.250000  0.414127  0.453220  1
  Cu  Cu21  1  0.250000  0.084489  0.740169  1
  Cu  Cu22  1  0.250000  0.414566  0.596700  1
  Cu  Cu23  1  0.250000  0.415511  0.740169  1
  Cu  Cu24  1  0.250000  0.085329  0.882590  1
  Cu  Cu25  1  0.250000  0.414671  0.882590  1
  Cu  Cu26  1  0.750000  0.585344  0.117780  1
  Cu  Cu27  1  0.750000  0.914656  0.117780  1
  Cu  Cu28  1  0.750000  0.250000  0.662946  1
  Cu  Cu29  1  0.750000  0.585475  0.260705  1
  Cu  Cu30  1  0.750000  0.585575  0.403571  1
  Cu  Cu31  1  0.750000  0.914425  0.403571  1
  Cu  Cu32  1  0.750000  0.914525  0.260705  1
  Cu  Cu33  1  0.750000  0.250000  0.948973  1
  Cu  Cu34  1  0.750000  0.585636  0.544970  1
  Cu  Cu35  1  0.750000  0.585933  0.689081  1
  Cu  Cu36  1  0.750000  0.914364  0.544970  1
  Cu  Cu37  1  0.750000  0.914067  0.689081  1
  Cu  Cu38  1  0.750000  0.585209  0.830455  1
  Cu  Cu39  1  0.750000  0.586455  0.975313  1
  Cu  Cu40  1  0.750000  0.914791  0.830455  1
  Cu  Cu41  1  0.750000  0.913545  0.975313  1
  O  O42  1  0.250000  0.250000  0.074694  1
  O  O43  1  0.250000  0.250000  0.217072  1
  O  O44  1  0.250000  0.250000  0.359944  1
  O  O45  1  0.250000  0.250000  0.502706  1
  O  O46  1  0.250000  0.596512  0.126828  1
  O  O47  1  0.250000  0.596304  0.269571  1
  O  O48  1  0.250000  0.250000  0.645256  1
  O  O49  1  0.250000  0.595888  0.412213  1
  O  O50  1  0.250000  0.250000  0.788980  1
  O  O51  1  0.250000  0.595395  0.555367  1
  O  O52  1  0.250000  0.250000  0.931197  1
  O  O53  1  0.250000  0.595823  0.698039  1
  O  O54  1  0.250000  0.595477  0.841215  1
  O  O55  1  0.250000  0.596130  0.984127  1
  O  O56  1  0.250000  0.903696  0.269571  1
  O  O57  1  0.250000  0.904112  0.412213  1
  O  O58  1  0.250000  0.903488  0.126828  1
  O  O59  1  0.250000  0.904605  0.555367  1
  O  O60  1  0.250000  0.904177  0.698039  1
  O  O61  1  0.250000  0.904523  0.841215  1
  O  O62  1  0.250000  0.903870  0.984127  1
  O  O63  1  0.750000  0.091798  0.018441  1
  O  O64  1  0.750000  0.095956  0.159181  1
  O  O65  1  0.750000  0.096222  0.444419  1
  O  O66  1  0.750000  0.096310  0.301677  1
  O  O67  1  0.750000  0.408202  0.018441  1
  O  O68  1  0.750000  0.404044  0.159181  1
  O  O69  1  0.750000  0.750000  0.068327  1
  O  O70  1  0.750000  0.093181  0.586738  1
  O  O71  1  0.750000  0.092680  0.731911  1
  O  O72  1  0.750000  0.403690  0.301677  1
  O  O73  1  0.750000  0.403778  0.444419  1
  O  O74  1  0.750000  0.750000  0.211203  1
  O  O75  1  0.750000  0.750000  0.354086  1
  O  O76  1  0.750000  0.092909  0.872700  1
  O  O77  1  0.750000  0.406819  0.586738  1
  O  O78  1  0.750000  0.407320  0.731911  1
  O  O79  1  0.750000  0.750000  0.495344  1
  O  O80  1  0.750000  0.750000  0.639313  1
  O  O81  1  0.750000  0.750000  0.781116  1
  O  O82  1  0.750000  0.407091  0.872700  1
  O  O83  1  0.750000  0.750000  0.925204  1
