# generated using pymatgen
data_CuP2(H2O3)2
_symmetry_space_group_name_H-M   'P 1'
_cell_length_a   8.27389379
_cell_length_b   9.48455765
_cell_length_c   8.85147243
_cell_angle_alpha   90.00000000
_cell_angle_beta   112.85235541
_cell_angle_gamma   90.00000000
_symmetry_Int_Tables_number   1
_chemical_formula_structural   CuP2(H2O3)2
_chemical_formula_sum   'Cu4 P8 H16 O24'
_cell_volume   640.09136287
_cell_formula_units_Z   4
loop_
 _symmetry_equiv_pos_site_id
 _symmetry_equiv_pos_as_xyz
  1  'x, y, z'
loop_
 _atom_site_type_symbol
 _atom_site_label
 _atom_site_symmetry_multiplicity
 _atom_site_fract_x
 _atom_site_fract_y
 _atom_site_fract_z
 _atom_site_occupancy
  Cu  Cu0  1  0.152925  0.102066  0.681248  1
  Cu  Cu1  1  0.347075  0.602066  0.318752  1
  Cu  Cu2  1  0.847075  0.897934  0.318752  1
  Cu  Cu3  1  0.652925  0.397934  0.681248  1
  P  P4  1  0.720637  0.151597  0.494705  1
  P  P5  1  0.779363  0.651597  0.505295  1
  P  P6  1  0.279363  0.848403  0.505295  1
  P  P7  1  0.220637  0.348403  0.494705  1
  P  P8  1  0.755210  0.017234  0.950352  1
  P  P9  1  0.744790  0.517234  0.049648  1
  P  P10  1  0.244790  0.982766  0.049648  1
  P  P11  1  0.255210  0.482766  0.950352  1
  H  H12  1  0.597166  0.081131  0.541697  1
  H  H13  1  0.902834  0.581131  0.458303  1
  H  H14  1  0.402834  0.918869  0.458303  1
  H  H15  1  0.097166  0.418869  0.541697  1
  H  H16  1  0.826232  0.149297  0.011530  1
  H  H17  1  0.673768  0.649297  0.988470  1
  H  H18  1  0.173768  0.850703  0.988470  1
  H  H19  1  0.326232  0.350703  0.011530  1
  H  H20  1  0.969588  0.520068  0.776490  1
  H  H21  1  0.530412  0.020068  0.223510  1
  H  H22  1  0.030412  0.479932  0.223510  1
  H  H23  1  0.469588  0.979932  0.776490  1
  H  H24  1  0.632857  0.510752  0.242676  1
  H  H25  1  0.867143  0.010752  0.757324  1
  H  H26  1  0.367143  0.489248  0.757324  1
  H  H27  1  0.132857  0.989248  0.242676  1
  O  O28  1  0.899702  0.106684  0.630510  1
  O  O29  1  0.600298  0.606684  0.369490  1
  O  O30  1  0.100298  0.893316  0.369490  1
  O  O31  1  0.399702  0.393316  0.630510  1
  O  O32  1  0.684279  0.310753  0.499215  1
  O  O33  1  0.815721  0.810753  0.500785  1
  O  O34  1  0.315721  0.689247  0.500785  1
  O  O35  1  0.184279  0.189247  0.499215  1
  O  O36  1  0.699059  0.097476  0.323357  1
  O  O37  1  0.800941  0.597476  0.676643  1
  O  O38  1  0.300941  0.902524  0.676643  1
  O  O39  1  0.199059  0.402524  0.323357  1
  O  O40  1  0.732129  0.413543  0.914138  1
  O  O41  1  0.767871  0.913543  0.085862  1
  O  O42  1  0.267871  0.586457  0.085862  1
  O  O43  1  0.232129  0.086457  0.914138  1
  O  O44  1  0.645472  0.450683  0.150922  1
  O  O45  1  0.854528  0.950683  0.849078  1
  O  O46  1  0.354528  0.549317  0.849078  1
  O  O47  1  0.145472  0.049317  0.150922  1
  O  O48  1  0.563767  0.055895  0.833798  1
  O  O49  1  0.936233  0.555895  0.166202  1
  O  O50  1  0.436233  0.944105  0.166202  1
  O  O51  1  0.063767  0.444105  0.833798  1
