# generated using pymatgen
data_Rb5(WO3)18
_symmetry_space_group_name_H-M   'P 1'
_cell_length_a   7.53089120
_cell_length_b   7.53089091
_cell_length_c   23.28823450
_cell_angle_alpha   90.00000000
_cell_angle_beta   90.00000000
_cell_angle_gamma   119.99999687
_symmetry_Int_Tables_number   1
_chemical_formula_structural   Rb5(WO3)18
_chemical_formula_sum   'Rb5 W18 O54'
_cell_volume   1143.82593926
_cell_formula_units_Z   1
loop_
 _symmetry_equiv_pos_site_id
 _symmetry_equiv_pos_as_xyz
  1  'x, y, z'
loop_
 _atom_site_type_symbol
 _atom_site_label
 _atom_site_symmetry_multiplicity
 _atom_site_fract_x
 _atom_site_fract_y
 _atom_site_fract_z
 _atom_site_occupancy
  Rb  Rb0  1  0.000000  0.000000  0.500000  1
  Rb  Rb1  1  0.000000  0.000000  0.153818  1
  Rb  Rb2  1  0.000000  0.000000  0.331060  1
  Rb  Rb3  1  0.000000  0.000000  0.668940  1
  Rb  Rb4  1  0.000000  0.000000  0.846182  1
  W  W5  1  1.000000  0.504935  0.917334  1
  W  W6  1  1.000000  0.500097  0.583240  1
  W  W7  1  1.000000  0.501912  0.249706  1
  W  W8  1  0.000000  0.498088  0.750294  1
  W  W9  1  0.000000  0.495065  0.082666  1
  W  W10  1  0.000000  0.499903  0.416760  1
  W  W11  1  0.498088  0.498088  0.249706  1
  W  W12  1  0.495065  0.495065  0.917334  1
  W  W13  1  0.499903  0.499903  0.583240  1
  W  W14  1  0.500097  0.500097  0.416760  1
  W  W15  1  0.504935  0.504935  0.082666  1
  W  W16  1  0.501912  0.501912  0.750294  1
  W  W17  1  0.495065  0.000000  0.082666  1
  W  W18  1  0.499903  0.000000  0.416760  1
  W  W19  1  0.498088  0.000000  0.750294  1
  W  W20  1  0.501912  1.000000  0.249706  1
  W  W21  1  0.500097  1.000000  0.583240  1
  W  W22  1  0.504935  1.000000  0.917334  1
  O  O23  1  0.000000  0.499756  0.666837  1
  O  O24  1  1.000000  0.500244  0.333163  1
  O  O25  1  0.000000  0.500000  0.000000  1
  O  O26  1  1.000000  0.499448  0.167200  1
  O  O27  1  0.000000  0.500552  0.832800  1
  O  O28  1  0.000000  0.500000  0.500000  1
  O  O29  1  0.210715  0.785969  0.084075  1
  O  O30  1  0.210452  0.788284  0.749672  1
  O  O31  1  0.210828  0.789070  0.416707  1
  O  O32  1  0.214031  0.789285  0.915925  1
  O  O33  1  0.210930  0.789172  0.583293  1
  O  O34  1  0.211716  0.789548  0.250328  1
  O  O35  1  0.210452  0.422169  0.250328  1
  O  O36  1  0.210828  0.421758  0.583293  1
  O  O37  1  0.210715  0.424746  0.915925  1
  O  O38  1  0.210930  0.421758  0.416707  1
  O  O39  1  0.214031  0.424746  0.084075  1
  O  O40  1  0.211716  0.422169  0.749672  1
  O  O41  1  0.578242  0.789172  0.416707  1
  O  O42  1  0.577831  0.789548  0.749672  1
  O  O43  1  0.575254  0.789285  0.084075  1
  O  O44  1  0.578242  0.789070  0.583293  1
  O  O45  1  0.577831  0.788284  0.250328  1
  O  O46  1  0.575254  0.785969  0.915925  1
  O  O47  1  0.500244  0.500244  0.666837  1
  O  O48  1  0.499448  0.499448  0.832800  1
  O  O49  1  0.500552  0.500552  0.167200  1
  O  O50  1  0.499756  0.499756  0.333163  1
  O  O51  1  0.500000  0.500000  0.000000  1
  O  O52  1  0.500000  0.500000  0.500000  1
  O  O53  1  0.424746  0.214031  0.084075  1
  O  O54  1  0.421758  0.210930  0.416707  1
  O  O55  1  0.422169  0.211716  0.749672  1
  O  O56  1  0.421758  0.210828  0.583293  1
  O  O57  1  0.422169  0.210452  0.250328  1
  O  O58  1  0.424746  0.210715  0.915925  1
  O  O59  1  0.785969  0.575254  0.915925  1
  O  O60  1  0.788284  0.577831  0.250328  1
  O  O61  1  0.789070  0.578242  0.583293  1
  O  O62  1  0.499756  0.000000  0.666837  1
  O  O63  1  0.500000  0.000000  0.000000  1
  O  O64  1  0.500552  0.000000  0.832800  1
  O  O65  1  0.499448  1.000000  0.167200  1
  O  O66  1  0.500244  1.000000  0.333163  1
  O  O67  1  0.500000  0.000000  0.500000  1
  O  O68  1  0.789548  0.577831  0.749672  1
  O  O69  1  0.789172  0.578242  0.416707  1
  O  O70  1  0.789285  0.575254  0.084075  1
  O  O71  1  0.788284  0.210452  0.749672  1
  O  O72  1  0.785969  0.210715  0.084075  1
  O  O73  1  0.789070  0.210828  0.416707  1
  O  O74  1  0.789548  0.211716  0.250328  1
  O  O75  1  0.789285  0.214031  0.915925  1
  O  O76  1  0.789172  0.210930  0.583293  1
