# generated using pymatgen
data_Ni(PO3)3
_symmetry_space_group_name_H-M   'P 1'
_cell_length_a   9.67741176
_cell_length_b   10.65837274
_cell_length_c   6.38122177
_cell_angle_alpha   90.00000000
_cell_angle_beta   90.00000000
_cell_angle_gamma   90.00000000
_symmetry_Int_Tables_number   1
_chemical_formula_structural   Ni(PO3)3
_chemical_formula_sum   'Ni4 P12 O36'
_cell_volume   658.19406565
_cell_formula_units_Z   4
loop_
 _symmetry_equiv_pos_site_id
 _symmetry_equiv_pos_as_xyz
  1  'x, y, z'
loop_
 _atom_site_type_symbol
 _atom_site_label
 _atom_site_symmetry_multiplicity
 _atom_site_fract_x
 _atom_site_fract_y
 _atom_site_fract_z
 _atom_site_occupancy
  Ni  Ni0  1  0.000000  0.000000  0.000000  1
  Ni  Ni1  1  0.000000  0.500000  0.500000  1
  Ni  Ni2  1  0.500000  0.500000  0.000000  1
  Ni  Ni3  1  0.500000  0.000000  0.500000  1
  P  P4  1  0.080582  0.750000  0.750000  1
  P  P5  1  0.215236  0.867318  0.365134  1
  P  P6  1  0.215236  0.632682  0.134866  1
  P  P7  1  0.284764  0.132682  0.865134  1
  P  P8  1  0.284764  0.367318  0.634866  1
  P  P9  1  0.419418  0.250000  0.250000  1
  P  P10  1  0.580582  0.750000  0.750000  1
  P  P11  1  0.715236  0.632682  0.365134  1
  P  P12  1  0.715236  0.867318  0.134866  1
  P  P13  1  0.784764  0.132682  0.634866  1
  P  P14  1  0.784764  0.367318  0.865134  1
  P  P15  1  0.919418  0.250000  0.250000  1
  O  O16  1  0.012762  0.154991  0.148820  1
  O  O17  1  0.012762  0.345009  0.351180  1
  O  O18  1  0.082426  0.596315  0.236966  1
  O  O19  1  0.082426  0.903685  0.263034  1
  O  O20  1  0.181999  0.473123  0.616388  1
  O  O21  1  0.181999  0.026877  0.883612  1
  O  O22  1  0.189051  0.810508  0.593781  1
  O  O23  1  0.189051  0.689492  0.906219  1
  O  O24  1  0.210659  0.250000  0.750000  1
  O  O25  1  0.289341  0.750000  0.250000  1
  O  O26  1  0.310949  0.189492  0.093781  1
  O  O27  1  0.310949  0.310508  0.406219  1
  O  O28  1  0.318001  0.526877  0.116388  1
  O  O29  1  0.318001  0.973123  0.383612  1
  O  O30  1  0.417574  0.096315  0.763034  1
  O  O31  1  0.417574  0.403685  0.736966  1
  O  O32  1  0.487238  0.654991  0.851180  1
  O  O33  1  0.487238  0.845009  0.648820  1
  O  O34  1  0.512762  0.154991  0.351180  1
  O  O35  1  0.512762  0.345009  0.148820  1
  O  O36  1  0.582426  0.596315  0.263034  1
  O  O37  1  0.582426  0.903685  0.236966  1
  O  O38  1  0.681999  0.026877  0.616388  1
  O  O39  1  0.681999  0.473123  0.883612  1
  O  O40  1  0.689051  0.689492  0.593781  1
  O  O41  1  0.689051  0.810508  0.906219  1
  O  O42  1  0.710659  0.250000  0.750000  1
  O  O43  1  0.789341  0.750000  0.250000  1
  O  O44  1  0.810949  0.189492  0.406219  1
  O  O45  1  0.810949  0.310508  0.093781  1
  O  O46  1  0.818001  0.526877  0.383612  1
  O  O47  1  0.818001  0.973123  0.116388  1
  O  O48  1  0.917574  0.096315  0.736966  1
  O  O49  1  0.917574  0.403685  0.763034  1
  O  O50  1  0.987238  0.654991  0.648820  1
  O  O51  1  0.987238  0.845009  0.851180  1
