# generated using pymatgen
data_Ho2Sb2O7
_symmetry_space_group_name_H-M   'P 1'
_cell_length_a   7.53854337
_cell_length_b   7.53854337
_cell_length_c   7.70627458
_cell_angle_alpha   59.26121160
_cell_angle_beta   120.73878840
_cell_angle_gamma   121.21489776
_symmetry_Int_Tables_number   1
_chemical_formula_structural   Ho2Sb2O7
_chemical_formula_sum   'Ho4 Sb4 O14'
_cell_volume   303.32352425
_cell_formula_units_Z   2
loop_
 _symmetry_equiv_pos_site_id
 _symmetry_equiv_pos_as_xyz
  1  'x, y, z'
loop_
 _atom_site_type_symbol
 _atom_site_label
 _atom_site_symmetry_multiplicity
 _atom_site_fract_x
 _atom_site_fract_y
 _atom_site_fract_z
 _atom_site_occupancy
  Ho  Ho0  1  0.000000  0.000000  0.000000  1
  Ho  Ho1  1  0.000000  0.500000  0.000000  1
  Ho  Ho2  1  0.500000  0.500000  0.500000  1
  Ho  Ho3  1  0.000000  0.500000  0.500000  1
  Sb  Sb4  1  0.500000  0.000000  0.000000  1
  Sb  Sb5  1  0.500000  0.500000  0.000000  1
  Sb  Sb6  1  0.500000  0.000000  0.500000  1
  Sb  Sb7  1  0.000000  0.000000  0.500000  1
  O  O8  1  0.828191  0.074285  0.128841  1
  O  O9  1  0.872165  0.634104  0.119030  1
  O  O10  1  0.574285  0.328191  0.371159  1
  O  O11  1  0.425715  0.671809  0.125066  1
  O  O12  1  0.828191  0.074285  0.625066  1
  O  O13  1  0.134104  0.372165  0.380970  1
  O  O14  1  0.531594  0.031594  0.750000  1
  O  O15  1  0.468406  0.968406  0.250000  1
  O  O16  1  0.865896  0.627835  0.619030  1
  O  O17  1  0.425715  0.671809  0.628841  1
  O  O18  1  0.574285  0.328191  0.874934  1
  O  O19  1  0.171809  0.925715  0.374934  1
  O  O20  1  0.127835  0.365896  0.880970  1
  O  O21  1  0.171809  0.925715  0.871159  1
