# generated using pymatgen
data_Li7Mn3(SiO6)2
_symmetry_space_group_name_H-M   'P 1'
_cell_length_a   5.08317547
_cell_length_b   4.93175369
_cell_length_c   9.78403993
_cell_angle_alpha   93.41512733
_cell_angle_beta   96.63770900
_cell_angle_gamma   58.97903368
_symmetry_Int_Tables_number   1
_chemical_formula_structural   Li7Mn3(SiO6)2
_chemical_formula_sum   'Li7 Mn3 Si2 O12'
_cell_volume   208.78718768
_cell_formula_units_Z   1
loop_
 _symmetry_equiv_pos_site_id
 _symmetry_equiv_pos_as_xyz
  1  'x, y, z'
loop_
 _atom_site_type_symbol
 _atom_site_label
 _atom_site_symmetry_multiplicity
 _atom_site_fract_x
 _atom_site_fract_y
 _atom_site_fract_z
 _atom_site_occupancy
  Li  Li0  1  0.665664  0.666667  0.989648  1
  Li  Li1  1  0.916667  0.666667  0.750000  1
  Li  Li2  1  0.832936  0.340710  0.504415  1
  Li  Li3  1  0.326354  0.340710  0.995585  1
  Li  Li4  1  0.167669  0.666667  0.510352  1
  Li  Li5  1  0.506979  0.992623  0.504415  1
  Li  Li6  1  0.000398  0.992623  0.995585  1
  Mn  Mn7  1  0.416667  0.666667  0.250000  1
  Mn  Mn8  1  0.750041  -0.000081  0.250000  1
  Mn  Mn9  1  0.083293  0.333414  0.250000  1
  Si  Si10  1  0.584801  0.330400  0.750000  1
  Si  Si11  1  0.248533  0.002934  0.750000  1
  O  O12  1  0.819545  0.666667  0.373415  1
  O  O13  1  0.940569  0.295038  0.851416  1
  O  O14  1  0.682657  0.332939  0.129103  1
  O  O15  1  0.511070  0.666667  0.645904  1
  O  O16  1  0.892764  0.038295  0.648584  1
  O  O17  1  0.484406  0.332939  0.370897  1
  O  O18  1  0.322263  0.666667  0.854096  1
  O  O19  1  0.013789  0.666667  0.126585  1
  O  O20  1  0.348928  0.000395  0.129103  1
  O  O21  1  0.568940  0.038295  0.851416  1
  O  O22  1  0.264394  0.295038  0.648584  1
  O  O23  1  0.150677  0.000395  0.370897  1
