# generated using pymatgen
data_Mn3(O2F)2
_symmetry_space_group_name_H-M   'P 1'
_cell_length_a   7.21038161
_cell_length_b   5.57439249
_cell_length_c   5.51845569
_cell_angle_alpha   72.09665172
_cell_angle_beta   72.53218602
_cell_angle_gamma   72.80694793
_symmetry_Int_Tables_number   1
_chemical_formula_structural   Mn3(O2F)2
_chemical_formula_sum   'Mn6 O8 F4'
_cell_volume   196.21662102
_cell_formula_units_Z   2
loop_
 _symmetry_equiv_pos_site_id
 _symmetry_equiv_pos_as_xyz
  1  'x, y, z'
loop_
 _atom_site_type_symbol
 _atom_site_label
 _atom_site_symmetry_multiplicity
 _atom_site_fract_x
 _atom_site_fract_y
 _atom_site_fract_z
 _atom_site_occupancy
  Mn  Mn0  1  0.833333  0.666667  0.666667  1
  Mn  Mn1  1  0.675680  0.364890  0.310741  1
  Mn  Mn2  1  0.333333  0.666667  0.666667  1
  Mn  Mn3  1  0.161380  0.319745  0.311270  1
  Mn  Mn4  1  0.505287  0.013588  0.022064  1
  Mn  Mn5  1  0.990987  0.968443  0.022592  1
  O  O6  1  0.334597  0.358875  0.972792  1
  O  O7  1  0.628643  0.569691  0.559621  1
  O  O8  1  0.962636  0.222510  0.224636  1
  O  O9  1  0.704030  0.110823  0.108697  1
  O  O10  1  0.038024  0.763642  0.773712  1
  O  O11  1  0.332070  0.974459  0.360541  1
  O  O12  1  0.659505  0.660216  0.021493  1
  O  O13  1  0.007161  0.673117  0.311840  1
  F  F14  1  0.651014  0.060989  0.639688  1
  F  F15  1  0.299642  0.908712  0.910441  1
  F  F16  1  0.367025  0.424621  0.422892  1
  F  F17  1  0.015652  0.272344  0.693645  1
