# generated using pymatgen
data_Li7MgNi7O16
_symmetry_space_group_name_H-M   'P 1'
_cell_length_a   4.99618963
_cell_length_b   7.57737226
_cell_length_c   7.57737194
_cell_angle_alpha   98.37072790
_cell_angle_beta   77.39396260
_cell_angle_gamma   77.39396174
_symmetry_Int_Tables_number   1
_chemical_formula_structural   Li7MgNi7O16
_chemical_formula_sum   'Li7 Mg1 Ni7 O16'
_cell_volume   267.51920827
_cell_formula_units_Z   1
loop_
 _symmetry_equiv_pos_site_id
 _symmetry_equiv_pos_as_xyz
  1  'x, y, z'
loop_
 _atom_site_type_symbol
 _atom_site_label
 _atom_site_symmetry_multiplicity
 _atom_site_fract_x
 _atom_site_fract_y
 _atom_site_fract_z
 _atom_site_occupancy
  Li  Li0  1  0.500980  0.002326  0.502620  1
  Li  Li1  1  0.527512  0.243520  0.239846  1
  Li  Li2  1  0.500000  0.119298  0.880702  1
  Li  Li3  1  0.499020  0.497380  0.997674  1
  Li  Li4  1  0.500000  0.378167  0.621833  1
  Li  Li5  1  0.500000  0.620836  0.379164  1
  Li  Li6  1  0.472488  0.760154  0.756480  1
  Mg  Mg7  1  0.500000  0.882149  0.117851  1
  Ni  Ni8  1  0.000985  0.123602  0.368645  1
  Ni  Ni9  1  1.000000  0.251103  0.748897  1
  Ni  Ni10  1  0.997983  0.369690  0.121518  1
  Ni  Ni11  1  0.000000  0.498881  0.501119  1
  Ni  Ni12  1  0.999015  0.631355  0.876398  1
  Ni  Ni13  1  1.000000  0.750329  0.249671  1
  Ni  Ni14  1  0.002017  0.878482  0.630310  1
  O  O15  1  0.226752  0.014602  0.732514  1
  O  O16  1  0.249801  0.134942  0.150048  1
  O  O17  1  0.786661  0.126597  0.619628  1
  O  O18  1  0.218223  0.262086  0.516274  1
  O  O19  1  0.208926  0.505782  0.255831  1
  O  O20  1  0.765204  0.364533  0.362769  1
  O  O21  1  0.213339  0.380372  0.873403  1
  O  O22  1  0.773248  0.267485  0.985398  1
  O  O23  1  0.234796  0.637231  0.635467  1
  O  O24  1  0.773806  0.636286  0.127452  1
  O  O25  1  0.239082  0.735551  0.023137  1
  O  O26  1  0.781777  0.483726  0.737914  1
  O  O27  1  0.226194  0.872548  0.363714  1
  O  O28  1  0.791074  0.744169  0.494218  1
  O  O29  1  0.760918  0.976863  0.264449  1
  O  O30  1  0.750199  0.849952  0.865058  1
