# generated using pymatgen
data_Mg2MnH24(ClO2)6
_symmetry_space_group_name_H-M   'P 1'
_cell_length_a   9.94779227
_cell_length_b   9.94779240
_cell_length_c   11.59577990
_cell_angle_alpha   90.00005766
_cell_angle_beta   90.00005765
_cell_angle_gamma   120.00084853
_symmetry_Int_Tables_number   1
_chemical_formula_structural   Mg2MnH24(ClO2)6
_chemical_formula_sum   'Mg4 Mn2 H48 Cl12 O24'
_cell_volume   993.75723363
_cell_formula_units_Z   2
loop_
 _symmetry_equiv_pos_site_id
 _symmetry_equiv_pos_as_xyz
  1  'x, y, z'
loop_
 _atom_site_type_symbol
 _atom_site_label
 _atom_site_symmetry_multiplicity
 _atom_site_fract_x
 _atom_site_fract_y
 _atom_site_fract_z
 _atom_site_occupancy
  Mg  Mg0  1  0.333329  0.666666  0.998560  1
  Mg  Mg1  1  0.666666  0.333329  0.498560  1
  Mg  Mg2  1  0.999998  -0.000000  0.601646  1
  Mg  Mg3  1  -0.000000  0.999998  0.101646  1
  Mn  Mn4  1  0.333319  0.666651  0.502579  1
  Mn  Mn5  1  0.666651  0.333319  0.002579  1
  H  H6  1  0.465226  0.503737  0.908421  1
  H  H7  1  0.496269  0.961489  0.908416  1
  H  H8  1  0.038506  0.534772  0.908421  1
  H  H9  1  0.503737  0.465226  0.408421  1
  H  H10  1  0.961489  0.496269  0.408416  1
  H  H11  1  0.534772  0.038506  0.408421  1
  H  H12  1  0.475456  0.618224  0.812882  1
  H  H13  1  0.381773  0.857230  0.812883  1
  H  H14  1  0.142766  0.524540  0.812884  1
  H  H15  1  0.618224  0.475456  0.312882  1
  H  H16  1  0.857230  0.381773  0.312883  1
  H  H17  1  0.524540  0.142766  0.312884  1
  H  H18  1  0.538145  0.916597  0.113434  1
  H  H19  1  0.083400  0.621543  0.113433  1
  H  H20  1  0.378454  0.461858  0.113433  1
  H  H21  1  0.916597  0.538145  0.613434  1
  H  H22  1  0.621543  0.083400  0.613433  1
  H  H23  1  0.461858  0.378454  0.613433  1
  H  H24  1  0.532617  0.783657  0.186980  1
  H  H25  1  0.216341  0.748958  0.186978  1
  H  H26  1  0.251037  0.467380  0.186978  1
  H  H27  1  0.783657  0.532617  0.686980  1
  H  H28  1  0.748958  0.216341  0.686978  1
  H  H29  1  0.467380  0.251037  0.686978  1
  H  H30  1  0.887617  0.180441  0.519116  1
  H  H31  1  0.819555  0.707175  0.519116  1
  H  H32  1  0.292824  0.112381  0.519116  1
  H  H33  1  0.180441  0.887617  0.019116  1
  H  H34  1  0.707175  0.819555  0.019116  1
  H  H35  1  0.112381  0.292824  0.019116  1
  H  H36  1  0.042723  0.223979  0.452109  1
  H  H37  1  0.776016  0.818743  0.452109  1
  H  H38  1  0.181255  0.957273  0.452109  1
  H  H39  1  0.223979  0.042723  0.952109  1
  H  H40  1  0.818743  0.776016  0.952109  1
  H  H41  1  0.957273  0.181255  0.952109  1
  H  H42  1  0.705768  0.834320  0.692418  1
  H  H43  1  0.165679  0.871449  0.692416  1
  H  H44  1  0.128551  0.294230  0.692417  1
  H  H45  1  0.834320  0.705768  0.192418  1
  H  H46  1  0.871449  0.165679  0.192416  1
  H  H47  1  0.294230  0.128551  0.192417  1
  H  H48  1  0.792886  0.986413  0.770828  1
  H  H49  1  0.013586  0.806472  0.770827  1
  H  H50  1  0.193527  0.207114  0.770828  1
  H  H51  1  0.986413  0.792886  0.270828  1
  H  H52  1  0.806472  0.013586  0.270827  1
  H  H53  1  0.207114  0.193527  0.270828  1
  Cl  Cl54  1  0.505264  0.611259  0.635257  1
  Cl  Cl55  1  0.388732  0.893997  0.635258  1
  Cl  Cl56  1  0.105981  0.494719  0.635260  1
  Cl  Cl57  1  0.611259  0.505264  0.135257  1
  Cl  Cl58  1  0.893997  0.388732  0.135258  1
  Cl  Cl59  1  0.494719  0.105981  0.135260  1
  Cl  Cl60  1  0.255719  0.426395  0.375178  1
  Cl  Cl61  1  0.573592  0.829320  0.375180  1
  Cl  Cl62  1  0.170669  0.744265  0.375181  1
  Cl  Cl63  1  0.426395  0.255719  0.875178  1
  Cl  Cl64  1  0.829320  0.573592  0.875180  1
  Cl  Cl65  1  0.744265  0.170669  0.875181  1
  O  O66  1  0.464275  0.601482  0.897734  1
  O  O67  1  0.398515  0.862792  0.897732  1
  O  O68  1  0.137201  0.535720  0.897734  1
  O  O69  1  0.601482  0.464275  0.397734  1
  O  O70  1  0.862792  0.398515  0.397732  1
  O  O71  1  0.535720  0.137201  0.397734  1
  O  O72  1  0.526071  0.811576  0.105781  1
  O  O73  1  0.188421  0.714492  0.105782  1
  O  O74  1  0.285508  0.473929  0.105781  1
  O  O75  1  0.811576  0.526071  0.605781  1
  O  O76  1  0.714492  0.188421  0.605782  1
  O  O77  1  0.473929  0.285508  0.605781  1
  O  O78  1  0.953593  0.138875  0.492541  1
  O  O79  1  0.861118  0.814718  0.492544  1
  O  O80  1  0.185281  0.046403  0.492542  1
  O  O81  1  0.138875  0.953593  0.992541  1
  O  O82  1  0.814718  0.861118  0.992544  1
  O  O83  1  0.046403  0.185281  0.992542  1
  O  O84  1  0.806321  0.928854  0.707696  1
  O  O85  1  0.071144  0.877463  0.707691  1
  O  O86  1  0.122541  0.193681  0.707688  1
  O  O87  1  0.928854  0.806321  0.207696  1
  O  O88  1  0.877463  0.071144  0.207691  1
  O  O89  1  0.193681  0.122541  0.207688  1
