# generated using pymatgen
data_U2AlCu3
_symmetry_space_group_name_H-M   'P 1'
_cell_length_a   5.45124377
_cell_length_b   5.45124378
_cell_length_c   7.67106094
_cell_angle_alpha   90.00000000
_cell_angle_beta   90.00000000
_cell_angle_gamma   120.00000003
_symmetry_Int_Tables_number   1
_chemical_formula_structural   U2AlCu3
_chemical_formula_sum   'U4 Al2 Cu6'
_cell_volume   197.41369237
_cell_formula_units_Z   2
loop_
 _symmetry_equiv_pos_site_id
 _symmetry_equiv_pos_as_xyz
  1  'x, y, z'
loop_
 _atom_site_type_symbol
 _atom_site_label
 _atom_site_symmetry_multiplicity
 _atom_site_fract_x
 _atom_site_fract_y
 _atom_site_fract_z
 _atom_site_occupancy
  Al  Al0  1  0.000000  0.000000  0.500000  1
  Al  Al1  1  0.000000  0.000000  0.000000  1
  Cu  Cu2  1  0.174809  0.825191  0.750000  1
  Cu  Cu3  1  0.349618  0.174809  0.250000  1
  Cu  Cu4  1  0.825191  0.174809  0.250000  1
  Cu  Cu5  1  0.650382  0.825191  0.750000  1
  Cu  Cu6  1  0.174809  0.349618  0.750000  1
  Cu  Cu7  1  0.825191  0.650382  0.250000  1
  U  U8  1  0.333333  0.666667  0.414294  1
  U  U9  1  0.666667  0.333333  0.914294  1
  U  U10  1  0.666667  0.333333  0.585706  1
  U  U11  1  0.333333  0.666667  0.085706  1
