# generated using pymatgen
data_Fe2Ni3P6WO24
_symmetry_space_group_name_H-M   'P 1'
_cell_length_a   8.44917907
_cell_length_b   8.68927820
_cell_length_c   8.68927801
_cell_angle_alpha   60.00000402
_cell_angle_beta   59.05543641
_cell_angle_gamma   59.05543811
_symmetry_Int_Tables_number   1
_chemical_formula_structural   Fe2Ni3P6WO24
_chemical_formula_sum   'Fe2 Ni3 P6 W1 O24'
_cell_volume   444.54592327
_cell_formula_units_Z   1
loop_
 _symmetry_equiv_pos_site_id
 _symmetry_equiv_pos_as_xyz
  1  'x, y, z'
loop_
 _atom_site_type_symbol
 _atom_site_label
 _atom_site_symmetry_multiplicity
 _atom_site_fract_x
 _atom_site_fract_y
 _atom_site_fract_z
 _atom_site_occupancy
  Fe  Fe0  1  0.035154  0.988282  0.988282  1
  Fe  Fe1  1  0.509873  0.496709  0.496709  1
  Ni  Ni2  1  0.069757  0.643415  0.643415  1
  Ni  Ni3  1  0.443982  0.852006  0.852006  1
  Ni  Ni4  1  0.927700  0.357433  0.357433  1
  P  P5  1  0.240484  0.258315  0.550301  1
  P  P6  1  0.240484  0.950900  0.258315  1
  P  P7  1  0.240484  0.550301  0.950900  1
  P  P8  1  0.747152  0.461763  0.046318  1
  P  P9  1  0.747152  0.046318  0.744767  1
  P  P10  1  0.747152  0.744767  0.461763  1
  W  W11  1  0.574178  0.141940  0.141940  1
  O  O12  1  0.064134  0.104296  0.327217  1
  O  O13  1  0.064134  0.504355  0.104296  1
  O  O14  1  0.064134  0.327217  0.504355  1
  O  O15  1  0.218618  0.099149  0.746250  1
  O  O16  1  0.427911  0.176502  0.382790  1
  O  O17  1  0.298674  0.401450  0.547113  1
  O  O18  1  0.218618  0.935983  0.099149  1
  O  O19  1  0.298674  0.752763  0.401450  1
  O  O20  1  0.560261  0.602130  0.008639  1
  O  O21  1  0.298674  0.547113  0.752763  1
  O  O22  1  0.771315  0.247913  0.072100  1
  O  O23  1  0.560261  0.008639  0.828970  1
  O  O24  1  0.427911  0.012798  0.176502  1
  O  O25  1  0.218618  0.746250  0.935983  1
  O  O26  1  0.714037  0.437869  0.250164  1
  O  O27  1  0.427911  0.382790  0.012798  1
  O  O28  1  0.714037  0.250164  0.597931  1
  O  O29  1  0.771315  0.072100  0.908673  1
  O  O30  1  0.714037  0.597931  0.437869  1
  O  O31  1  0.560261  0.828970  0.602130  1
  O  O32  1  0.771315  0.908673  0.247913  1
  O  O33  1  0.937202  0.688916  0.481091  1
  O  O34  1  0.937202  0.481091  0.892792  1
  O  O35  1  0.937202  0.892792  0.688916  1
