# generated using pymatgen
data_Mn12O7F17
_symmetry_space_group_name_H-M   'P 1'
_cell_length_a   4.78668219
_cell_length_b   5.78182968
_cell_length_c   15.88913817
_cell_angle_alpha   89.80440571
_cell_angle_beta   90.45232033
_cell_angle_gamma   87.26964529
_symmetry_Int_Tables_number   1
_chemical_formula_structural   Mn12O7F17
_chemical_formula_sum   'Mn12 O7 F17'
_cell_volume   439.22825456
_cell_formula_units_Z   1
loop_
 _symmetry_equiv_pos_site_id
 _symmetry_equiv_pos_as_xyz
  1  'x, y, z'
loop_
 _atom_site_type_symbol
 _atom_site_label
 _atom_site_symmetry_multiplicity
 _atom_site_fract_x
 _atom_site_fract_y
 _atom_site_fract_z
 _atom_site_occupancy
  Mn  Mn0  1  0.003324  0.163791  0.407274  1
  Mn  Mn1  1  0.030473  0.855458  0.243297  1
  Mn  Mn2  1  0.998515  0.156637  0.082168  1
  Mn  Mn3  1  0.028428  0.142485  0.746681  1
  Mn  Mn4  1  0.025889  0.844740  0.588093  1
  Mn  Mn5  1  0.009669  0.830975  0.908829  1
  Mn  Mn6  1  0.473695  0.327685  0.589732  1
  Mn  Mn7  1  0.527105  0.336415  0.926108  1
  Mn  Mn8  1  0.489210  0.323552  0.260600  1
  Mn  Mn9  1  0.507472  0.658319  0.087596  1
  Mn  Mn10  1  0.530529  0.649060  0.417012  1
  Mn  Mn11  1  0.470050  0.662742  0.745995  1
  O  O12  1  0.215049  0.116777  0.303858  1
  O  O13  1  0.206055  0.100699  0.640187  1
  O  O14  1  0.220332  0.889503  0.132759  1
  O  O15  1  0.222787  0.883255  0.798665  1
  O  O16  1  0.272149  0.615554  0.643367  1
  O  O17  1  0.734772  0.391814  0.036670  1
  O  O18  1  0.715380  0.366791  0.361298  1
  F  F19  1  0.215241  0.118754  0.973608  1
  F  F20  1  0.242930  0.901259  0.467165  1
  F  F21  1  0.266969  0.387062  0.150059  1
  F  F22  1  0.261225  0.614294  0.311813  1
  F  F23  1  0.266169  0.396830  0.474959  1
  F  F24  1  0.267407  0.383248  0.815910  1
  F  F25  1  0.274397  0.614575  0.979159  1
  F  F26  1  0.721862  0.617398  0.200219  1
  F  F27  1  0.761980  0.621722  0.532747  1
  F  F28  1  0.702549  0.627428  0.853497  1
  F  F29  1  0.734975  0.386624  0.701798  1
  F  F30  1  0.758347  0.118080  0.185190  1
  F  F31  1  0.779158  0.107701  0.522091  1
  F  F32  1  0.778259  0.874762  0.351507  1
  F  F33  1  0.753137  0.892090  0.017699  1
  F  F34  1  0.788652  0.127893  0.851871  1
  F  F35  1  0.745859  0.894027  0.690519  1
