# generated using pymatgen
data_Li3Mn4(BO3)4
_symmetry_space_group_name_H-M   'P 1'
_cell_length_a   6.17526177
_cell_length_b   7.89531700
_cell_length_c   5.22708622
_cell_angle_alpha   88.20467329
_cell_angle_beta   87.14104957
_cell_angle_gamma   80.34337131
_symmetry_Int_Tables_number   1
_chemical_formula_structural   Li3Mn4(BO3)4
_chemical_formula_sum   'Li3 Mn4 B4 O12'
_cell_volume   250.85799002
_cell_formula_units_Z   1
loop_
 _symmetry_equiv_pos_site_id
 _symmetry_equiv_pos_as_xyz
  1  'x, y, z'
loop_
 _atom_site_type_symbol
 _atom_site_label
 _atom_site_symmetry_multiplicity
 _atom_site_fract_x
 _atom_site_fract_y
 _atom_site_fract_z
 _atom_site_occupancy
  Li  Li0  1  0.534412  0.147889  0.910198  1
  Li  Li1  1  0.018961  0.638829  0.426781  1
  Li  Li2  1  0.466574  0.842391  0.088415  1
  Mn  Mn3  1  0.747462  0.001192  0.403567  1
  Mn  Mn4  1  0.257715  0.494266  0.895508  1
  Mn  Mn5  1  0.752338  0.491142  0.097633  1
  Mn  Mn6  1  0.227747  0.013201  0.599106  1
  B  B7  1  0.107189  0.167340  0.100018  1
  B  B8  1  0.407406  0.336636  0.401308  1
  B  B9  1  0.576411  0.672174  0.594775  1
  B  B10  1  0.910443  0.828948  0.902914  1
  O  O11  1  0.263055  0.043843  0.984407  1
  O  O12  1  0.041761  0.327962  0.982677  1
  O  O13  1  0.016228  0.136416  0.338872  1
  O  O14  1  0.475672  0.183715  0.538230  1
  O  O15  1  0.271330  0.471979  0.508525  1
  O  O16  1  0.480955  0.345252  0.141934  1
  O  O17  1  0.504149  0.643974  0.854857  1
  O  O18  1  0.735985  0.556263  0.480991  1
  O  O19  1  0.494560  0.827582  0.471649  1
  O  O20  1  0.984526  0.850935  0.647855  1
  O  O21  1  0.996841  0.680493  0.038666  1
  O  O22  1  0.745534  0.948838  0.008589  1
