# generated using pymatgen
data_Mg4N6O19
_symmetry_space_group_name_H-M   'P 1'
_cell_length_a   14.82682348
_cell_length_b   14.82681855
_cell_length_c   7.08602287
_cell_angle_alpha   89.99880319
_cell_angle_beta   89.99993711
_cell_angle_gamma   120.00157655
_symmetry_Int_Tables_number   1
_chemical_formula_structural   Mg4N6O19
_chemical_formula_sum   'Mg12 N18 O57'
_cell_volume   1349.03237253
_cell_formula_units_Z   3
loop_
 _symmetry_equiv_pos_site_id
 _symmetry_equiv_pos_as_xyz
  1  'x, y, z'
loop_
 _atom_site_type_symbol
 _atom_site_label
 _atom_site_symmetry_multiplicity
 _atom_site_fract_x
 _atom_site_fract_y
 _atom_site_fract_z
 _atom_site_occupancy
  Mg  Mg0  1  0.189101  0.612632  0.520839  1
  Mg  Mg1  1  0.333330  0.666692  0.161531  1
  Mg  Mg2  1  0.999997  0.999995  0.874803  1
  Mg  Mg3  1  0.423530  0.810902  0.520844  1
  Mg  Mg4  1  0.136516  0.109614  0.514119  1
  Mg  Mg5  1  0.387363  0.576494  0.520832  1
  Mg  Mg6  1  0.528599  0.225961  0.343573  1
  Mg  Mg7  1  0.697370  0.471394  0.343572  1
  Mg  Mg8  1  0.666678  0.333328  0.984270  1
  Mg  Mg9  1  0.973094  0.863482  0.514117  1
  Mg  Mg10  1  0.774034  0.302625  0.343574  1
  Mg  Mg11  1  0.890386  0.026899  0.514119  1
  N  N12  1  0.178861  0.954583  0.321176  1
  N  N13  1  0.109589  0.571793  0.129798  1
  N  N14  1  0.245008  0.809877  0.711201  1
  N  N15  1  0.045417  0.224282  0.321176  1
  N  N16  1  0.190121  0.435129  0.711207  1
  N  N17  1  0.462225  0.890446  0.129775  1
  N  N18  1  0.207492  0.182783  0.906986  1
  N  N19  1  0.428192  0.537805  0.129838  1
  N  N20  1  0.564868  0.754993  0.711207  1
  N  N21  1  0.491966  0.382964  0.538147  1
  N  N22  1  0.775716  0.821135  0.321173  1
  N  N23  1  0.456644  0.153525  0.951699  1
  N  N24  1  0.696892  0.543360  0.951678  1
  N  N25  1  0.617030  0.108997  0.538153  1
  N  N26  1  0.975285  0.792501  0.906989  1
  N  N27  1  0.890992  0.508027  0.538137  1
  N  N28  1  0.846479  0.303110  0.951715  1
  N  N29  1  0.817213  0.024708  0.906993  1
  O  O30  1  0.027141  0.888605  0.964274  1
  O  O31  1  0.107392  0.880197  0.420994  1
  O  O32  1  0.242495  0.942557  0.233538  1
  O  O33  1  0.027371  0.530588  0.044490  1
  O  O34  1  0.213321  0.857979  0.801689  1
  O  O35  1  0.122034  0.624700  0.282978  1
  O  O36  1  0.202386  0.709492  0.728423  1
  O  O37  1  0.321864  0.856126  0.594338  1
  O  O38  1  0.143875  0.465741  0.594343  1
  O  O39  1  0.057450  0.299942  0.233552  1
  O  O40  1  0.188989  0.565429  0.070657  1
  O  O41  1  0.142018  0.355344  0.801697  1
  O  O42  1  0.376451  0.811037  0.070625  1
  O  O43  1  0.333327  0.666681  0.435595  1
  O  O44  1  0.999998  0.999998  0.599285  1
  O  O45  1  0.503237  0.972644  0.044485  1
  O  O46  1  0.119799  0.227192  0.420996  1
  O  O47  1  0.111389  0.138532  0.964270  1
  O  O48  1  0.290508  0.492890  0.728408  1
  O  O49  1  0.502668  0.877980  0.282974  1
  O  O50  1  0.507108  0.797620  0.728413  1
  O  O51  1  0.434558  0.623564  0.070703  1
  O  O52  1  0.375293  0.497326  0.283003  1
  O  O53  1  0.224768  0.154242  0.744453  1
  O  O54  1  0.180335  0.043099  0.317547  1
  O  O55  1  0.277966  0.247477  0.003151  1
  O  O56  1  0.534251  0.678137  0.594339  1
  O  O57  1  0.469415  0.496798  0.044479  1
  O  O58  1  0.644649  0.786669  0.801698  1
  O  O59  1  0.431918  0.399453  0.629733  1
  O  O60  1  0.700059  0.757508  0.233537  1
  O  O61  1  0.772802  0.892601  0.421002  1
  O  O62  1  0.386163  0.089767  0.856194  1
  O  O63  1  0.561872  0.454053  0.431880  1
  O  O64  1  0.486947  0.293104  0.544913  1
  O  O65  1  0.440294  0.183461  0.113968  1
  O  O66  1  0.861465  0.972860  0.964286  1
  O  O67  1  0.703606  0.613803  0.856196  1
  O  O68  1  0.643277  0.446882  0.895177  1
  O  O69  1  0.553103  0.196366  0.895178  1
  O  O70  1  0.743171  0.559703  0.113979  1
  O  O71  1  0.862763  0.819664  0.317545  1
  O  O72  1  0.545940  0.107807  0.431892  1
  O  O73  1  0.666670  0.333331  0.260019  1
  O  O74  1  0.806162  0.513054  0.544911  1
  O  O75  1  0.929465  0.775231  0.744458  1
  O  O76  1  0.600543  0.032454  0.629730  1
  O  O77  1  0.969505  0.722029  0.003149  1
  O  O78  1  0.803650  0.356731  0.895183  1
  O  O79  1  0.706889  0.193838  0.544934  1
  O  O80  1  0.892185  0.438129  0.431879  1
  O  O81  1  0.967543  0.568087  0.629727  1
  O  O82  1  0.816540  0.256819  0.113972  1
  O  O83  1  0.752519  0.030489  0.003146  1
  O  O84  1  0.910246  0.296392  0.856186  1
  O  O85  1  0.845758  0.070525  0.744453  1
  O  O86  1  0.956897  0.137237  0.317551  1
