# generated using pymatgen
data_Na2LiMnPCO7
_symmetry_space_group_name_H-M   'P 1'
_cell_length_a   8.82981702
_cell_length_b   6.84843406
_cell_length_c   10.21140020
_cell_angle_alpha   89.97262236
_cell_angle_beta   88.91871465
_cell_angle_gamma   90.42050965
_symmetry_Int_Tables_number   1
_chemical_formula_structural   Na2LiMnPCO7
_chemical_formula_sum   'Na8 Li4 Mn4 P4 C4 O28'
_cell_volume   617.36095330
_cell_formula_units_Z   4
loop_
 _symmetry_equiv_pos_site_id
 _symmetry_equiv_pos_as_xyz
  1  'x, y, z'
loop_
 _atom_site_type_symbol
 _atom_site_label
 _atom_site_symmetry_multiplicity
 _atom_site_fract_x
 _atom_site_fract_y
 _atom_site_fract_z
 _atom_site_occupancy
  Na  Na0  1  0.083901  0.256006  0.877173  1
  Na  Na1  1  0.255227  0.999759  0.625015  1
  Na  Na2  1  0.256449  0.000295  0.125844  1
  Na  Na3  1  0.255747  0.500323  0.126181  1
  Na  Na4  1  0.744195  0.503168  0.876016  1
  Na  Na5  1  0.743710  0.996764  0.876052  1
  Na  Na6  1  0.743178  0.501523  0.375234  1
  Na  Na7  1  0.743375  0.999198  0.376014  1
  Li  Li8  1  0.087792  0.254644  0.378132  1
  Li  Li9  1  0.272480  0.472216  0.612912  1
  Li  Li10  1  0.913691  0.740754  0.625657  1
  Li  Li11  1  0.908545  0.749728  0.127275  1
  Mn  Mn12  1  0.360398  0.748015  0.886946  1
  Mn  Mn13  1  0.357107  0.746529  0.391652  1
  Mn  Mn14  1  0.643526  0.249516  0.612978  1
  Mn  Mn15  1  0.640402  0.250668  0.111775  1
  P  P16  1  0.408626  0.254129  0.852043  1
  P  P17  1  0.403662  0.248902  0.356464  1
  P  P18  1  0.593254  0.745366  0.647110  1
  P  P19  1  0.594394  0.750572  0.148085  1
  C  C20  1  0.050974  0.749326  0.863583  1
  C  C21  1  0.049821  0.749833  0.364623  1
  C  C22  1  0.955338  0.259610  0.626537  1
  C  C23  1  0.941159  0.250380  0.139738  1
  O  O24  1  0.099152  0.276325  0.646957  1
  O  O25  1  0.085682  0.248494  0.160164  1
  O  O26  1  0.087184  0.749243  0.987157  1
  O  O27  1  0.087863  0.751737  0.487452  1
  O  O28  1  0.156375  0.746978  0.772380  1
  O  O29  1  0.155216  0.745646  0.272748  1
  O  O30  1  0.316059  0.067525  0.889765  1
  O  O31  1  0.317165  0.432230  0.902591  1
  O  O32  1  0.308402  0.065045  0.395643  1
  O  O33  1  0.306166  0.426738  0.402702  1
  O  O34  1  0.424029  0.267517  0.698793  1
  O  O35  1  0.430565  0.732052  0.589800  1
  O  O36  1  0.425116  0.254591  0.204131  1
  O  O37  1  0.435183  0.751624  0.085753  1
  O  O38  1  0.570899  0.249012  0.908540  1
  O  O39  1  0.574921  0.747913  0.799365  1
  O  O40  1  0.563725  0.250346  0.416413  1
  O  O41  1  0.570505  0.749075  0.300151  1
  O  O42  1  0.694483  0.569207  0.605957  1
  O  O43  1  0.681913  0.931869  0.602834  1
  O  O44  1  0.690745  0.570295  0.106870  1
  O  O45  1  0.691696  0.932152  0.107724  1
  O  O46  1  0.859742  0.249875  0.726068  1
  O  O47  1  0.847070  0.251608  0.238727  1
  O  O48  1  0.904542  0.251374  0.507936  1
  O  O49  1  0.887518  0.251279  0.021556  1
  O  O50  1  0.910993  0.751461  0.828594  1
  O  O51  1  0.910136  0.751564  0.330192  1
