# generated using pymatgen
data_Li2VO2F
_symmetry_space_group_name_H-M   'P 1'
_cell_length_a   3.02449526
_cell_length_b   9.10033280
_cell_length_c   8.94934353
_cell_angle_alpha   109.64952963
_cell_angle_beta   89.92124162
_cell_angle_gamma   90.21367874
_symmetry_Int_Tables_number   1
_chemical_formula_structural   Li2VO2F
_chemical_formula_sum   'Li8 V4 O8 F4'
_cell_volume   231.97536247
_cell_formula_units_Z   4
loop_
 _symmetry_equiv_pos_site_id
 _symmetry_equiv_pos_as_xyz
  1  'x, y, z'
loop_
 _atom_site_type_symbol
 _atom_site_label
 _atom_site_symmetry_multiplicity
 _atom_site_fract_x
 _atom_site_fract_y
 _atom_site_fract_z
 _atom_site_occupancy
  Li  Li0  1  0.997459  0.119621  0.255661  1
  Li  Li1  1  0.999797  0.583060  0.736112  1
  Li  Li2  1  0.001389  0.378541  0.256029  1
  Li  Li3  1  0.001183  0.915354  0.750221  1
  Li  Li4  1  0.499923  0.328053  0.473493  1
  Li  Li5  1  0.500510  0.164066  0.026992  1
  Li  Li6  1  0.498658  0.659397  0.506048  1
  Li  Li7  1  0.500196  0.863427  0.002306  1
  V  V8  1  0.002575  0.754911  0.257042  1
  V  V9  1  0.990230  0.247864  0.747000  1
  V  V10  1  0.505020  0.479314  0.002237  1
  V  V11  1  0.505949  0.002824  0.498928  1
  O  O12  1  0.999501  0.158829  0.509405  1
  O  O13  1  0.992971  0.337482  0.991144  1
  O  O14  1  0.012143  0.842928  0.496487  1
  O  O15  1  0.510389  0.904122  0.254365  1
  O  O16  1  0.496946  0.601447  0.232706  1
  O  O17  1  0.495706  0.091657  0.740934  1
  O  O18  1  0.487912  0.412428  0.764794  1
  O  O19  1  0.499107  0.250027  0.249593  1
  F  F20  1  0.001874  0.656719  0.997390  1
  F  F21  1  0.001288  0.988784  0.987693  1
  F  F22  1  0.997865  0.511635  0.507671  1
  F  F23  1  0.501329  0.747511  0.755747  1
