# generated using pymatgen
data_K4Na2FeH3F12
_symmetry_space_group_name_H-M   'P 1'
_cell_length_a   6.13850625
_cell_length_b   11.76202536
_cell_length_c   10.52486164
_cell_angle_alpha   29.95117634
_cell_angle_beta   54.32134048
_cell_angle_gamma   58.54075293
_symmetry_Int_Tables_number   1
_chemical_formula_structural   K4Na2FeH3F12
_chemical_formula_sum   'K4 Na2 Fe1 H3 F12'
_cell_volume   307.92490076
_cell_formula_units_Z   1
loop_
 _symmetry_equiv_pos_site_id
 _symmetry_equiv_pos_as_xyz
  1  'x, y, z'
loop_
 _atom_site_type_symbol
 _atom_site_label
 _atom_site_symmetry_multiplicity
 _atom_site_fract_x
 _atom_site_fract_y
 _atom_site_fract_z
 _atom_site_occupancy
  K  K0  1  0.262605  0.951903  0.287719  1
  K  K1  1  0.256697  0.507292  0.229644  1
  K  K2  1  0.741849  0.048097  0.712281  1
  K  K3  1  0.730570  0.492708  0.770356  1
  Na  Na4  1  0.007798  0.000000  1.000000  1
  Na  Na5  1  0.991644  0.500000  0.000000  1
  Fe  Fe6  1  0.497139  1.000000  0.500000  1
  H  H7  1  0.506777  0.629207  0.243891  1
  H  H8  1  0.252973  0.370793  0.756109  1
  H  H9  1  0.753012  0.500000  0.500000  1
  F  F10  1  0.261150  0.237457  0.268637  1
  F  F11  1  0.724038  0.989922  0.279088  1
  F  F12  1  0.262057  0.010078  0.720912  1
  F  F13  1  0.716585  0.234307  0.272612  1
  F  F14  1  0.247404  0.256539  0.781573  1
  F  F15  1  0.323628  0.743461  0.218427  1
  F  F16  1  0.693844  0.528109  0.238411  1
  F  F17  1  0.226884  0.471891  0.761589  1
  F  F18  1  0.778684  0.304103  0.687006  1
  F  F19  1  0.760901  0.695897  0.312994  1
  F  F20  1  0.273338  0.762543  0.731363  1
  F  F21  1  0.730422  0.765693  0.727388  1
