# generated using pymatgen
data_Li3Fe2P2(CO7)2
_symmetry_space_group_name_H-M   'P 1'
_cell_length_a   8.39209600
_cell_length_b   8.26726234
_cell_length_c   8.25822409
_cell_angle_alpha   76.92022859
_cell_angle_beta   87.27725456
_cell_angle_gamma   93.78981453
_symmetry_Int_Tables_number   1
_chemical_formula_structural   Li3Fe2P2(CO7)2
_chemical_formula_sum   'Li6 Fe4 P4 C4 O28'
_cell_volume   555.71650596
_cell_formula_units_Z   2
loop_
 _symmetry_equiv_pos_site_id
 _symmetry_equiv_pos_as_xyz
  1  'x, y, z'
loop_
 _atom_site_type_symbol
 _atom_site_label
 _atom_site_symmetry_multiplicity
 _atom_site_fract_x
 _atom_site_fract_y
 _atom_site_fract_z
 _atom_site_occupancy
  Li  Li0  1  0.891000  0.256801  0.488251  1
  Li  Li1  1  0.896889  0.753145  0.986494  1
  Li  Li2  1  0.719007  0.112521  0.853844  1
  Li  Li3  1  0.280993  0.387479  0.646156  1
  Li  Li4  1  0.103111  0.746855  0.513506  1
  Li  Li5  1  0.109000  0.243199  0.011749  1
  Fe  Fe6  1  0.674628  0.530667  0.723168  1
  Fe  Fe7  1  0.660444  0.024431  0.229363  1
  Fe  Fe8  1  0.325372  0.969333  0.776832  1
  Fe  Fe9  1  0.339556  0.475569  0.270637  1
  P  P10  1  0.577229  0.240199  0.518124  1
  P  P11  1  0.579897  0.740604  0.009719  1
  P  P12  1  0.422771  0.259801  0.981876  1
  P  P13  1  0.420103  0.759396  0.490281  1
  C  C14  1  0.961700  0.467011  0.768092  1
  C  C15  1  0.955692  0.979111  0.269667  1
  C  C16  1  0.038300  0.032989  0.731908  1
  C  C17  1  0.044308  0.520889  0.230333  1
  O  O18  1  0.929771  0.597443  0.655692  1
  O  O19  1  0.926654  0.101712  0.148634  1
  O  O20  1  0.898334  0.078252  0.704958  1
  O  O21  1  0.836677  0.382354  0.854752  1
  O  O22  1  0.907800  0.564294  0.189982  1
  O  O23  1  0.829291  0.896420  0.356075  1
  O  O24  1  0.696732  0.367292  0.570494  1
  O  O25  1  0.675950  0.179291  0.383295  1
  O  O26  1  0.691271  0.672318  0.889697  1
  O  O27  1  0.693261  0.880337  0.054623  1
  O  O28  1  0.529569  0.096579  0.674300  1
  O  O29  1  0.578452  0.182465  0.042888  1
  O  O30  1  0.572546  0.692465  0.565662  1
  O  O31  1  0.530104  0.600496  0.166949  1
  O  O32  1  0.470431  0.403421  0.825700  1
  O  O33  1  0.421548  0.317535  0.457112  1
  O  O34  1  0.427454  0.807535  0.934338  1
  O  O35  1  0.469896  0.899504  0.333051  1
  O  O36  1  0.303268  0.132708  0.929506  1
  O  O37  1  0.308729  0.827682  0.610303  1
  O  O38  1  0.324050  0.320709  0.116705  1
  O  O39  1  0.306739  0.619663  0.445377  1
  O  O40  1  0.163323  0.117646  0.645248  1
  O  O41  1  0.101666  0.421748  0.795042  1
  O  O42  1  0.170709  0.603580  0.143925  1
  O  O43  1  0.092200  0.935706  0.310018  1
  O  O44  1  0.073346  0.398288  0.351366  1
  O  O45  1  0.070229  0.902557  0.844308  1
