# generated using pymatgen
data_Mn6O5F7
_symmetry_space_group_name_H-M   'P 1'
_cell_length_a   4.69007968
_cell_length_b   5.74141311
_cell_length_c   15.67634799
_cell_angle_alpha   90.98491190
_cell_angle_beta   91.15114041
_cell_angle_gamma   88.32423249
_symmetry_Int_Tables_number   1
_chemical_formula_structural   Mn6O5F7
_chemical_formula_sum   'Mn12 O10 F14'
_cell_volume   421.80385251
_cell_formula_units_Z   2
loop_
 _symmetry_equiv_pos_site_id
 _symmetry_equiv_pos_as_xyz
  1  'x, y, z'
loop_
 _atom_site_type_symbol
 _atom_site_label
 _atom_site_symmetry_multiplicity
 _atom_site_fract_x
 _atom_site_fract_y
 _atom_site_fract_z
 _atom_site_occupancy
  Mn  Mn0  1  0.015408  0.166425  0.417949  1
  Mn  Mn1  1  0.998173  0.835727  0.236838  1
  Mn  Mn2  1  0.999390  0.148829  0.075532  1
  Mn  Mn3  1  0.033445  0.160196  0.756882  1
  Mn  Mn4  1  0.039925  0.837341  0.580050  1
  Mn  Mn5  1  0.011694  0.859023  0.912755  1
  Mn  Mn6  1  0.486184  0.357033  0.581373  1
  Mn  Mn7  1  0.478797  0.335042  0.922451  1
  Mn  Mn8  1  0.528239  0.357966  0.255293  1
  Mn  Mn9  1  0.502886  0.644853  0.088553  1
  Mn  Mn10  1  0.488510  0.646746  0.420091  1
  Mn  Mn11  1  0.468740  0.653343  0.752742  1
  O  O12  1  0.203916  0.108913  0.970880  1
  O  O13  1  0.214209  0.878602  0.131716  1
  O  O14  1  0.231165  0.885332  0.472450  1
  O  O15  1  0.221057  0.897798  0.810540  1
  O  O16  1  0.274855  0.390022  0.475102  1
  O  O17  1  0.285134  0.610930  0.636865  1
  O  O18  1  0.276623  0.386966  0.814876  1
  O  O19  1  0.709224  0.374541  0.028387  1
  O  O20  1  0.715955  0.618290  0.195365  1
  O  O21  1  0.726693  0.395068  0.365247  1
  F  F22  1  0.236185  0.108133  0.297439  1
  F  F23  1  0.255431  0.110567  0.642907  1
  F  F24  1  0.259026  0.377558  0.150579  1
  F  F25  1  0.247788  0.615289  0.309196  1
  F  F26  1  0.262495  0.609668  0.980121  1
  F  F27  1  0.746138  0.615557  0.528403  1
  F  F28  1  0.740840  0.628491  0.861099  1
  F  F29  1  0.746856  0.378111  0.694139  1
  F  F30  1  0.765250  0.119181  0.181652  1
  F  F31  1  0.767579  0.112002  0.535309  1
  F  F32  1  0.768989  0.897324  0.355546  1
  F  F33  1  0.754819  0.868405  0.012837  1
  F  F34  1  0.741906  0.125228  0.857413  1
  F  F35  1  0.796478  0.885501  0.691424  1
