# generated using pymatgen
data_Li3P3(WO6)2
_symmetry_space_group_name_H-M   'P 1'
_cell_length_a   8.70716661
_cell_length_b   9.06925155
_cell_length_c   12.41174808
_cell_angle_alpha   90.00000000
_cell_angle_beta   90.29498903
_cell_angle_gamma   90.00000000
_symmetry_Int_Tables_number   1
_chemical_formula_structural   Li3P3(WO6)2
_chemical_formula_sum   'Li12 P12 W8 O48'
_cell_volume   980.11153072
_cell_formula_units_Z   4
loop_
 _symmetry_equiv_pos_site_id
 _symmetry_equiv_pos_as_xyz
  1  'x, y, z'
loop_
 _atom_site_type_symbol
 _atom_site_label
 _atom_site_symmetry_multiplicity
 _atom_site_fract_x
 _atom_site_fract_y
 _atom_site_fract_z
 _atom_site_occupancy
  Li  Li0  1  0.066519  0.513510  0.651889  1
  Li  Li1  1  0.085662  0.086754  0.314286  1
  Li  Li2  1  0.177281  0.782709  0.821477  1
  Li  Li3  1  0.322719  0.282709  0.678523  1
  Li  Li4  1  0.414338  0.586754  0.185714  1
  Li  Li5  1  0.433481  0.013510  0.848111  1
  Li  Li6  1  0.566519  0.986490  0.151889  1
  Li  Li7  1  0.585662  0.413246  0.814286  1
  Li  Li8  1  0.677281  0.717291  0.321477  1
  Li  Li9  1  0.822719  0.217291  0.178523  1
  Li  Li10  1  0.914338  0.913246  0.685714  1
  Li  Li11  1  0.933481  0.486490  0.348111  1
  P  P12  1  0.043942  0.251873  0.509874  1
  P  P13  1  0.110493  0.380257  0.155734  1
  P  P14  1  0.114888  0.109131  0.848624  1
  P  P15  1  0.385112  0.609131  0.651376  1
  P  P16  1  0.389507  0.880257  0.344266  1
  P  P17  1  0.456058  0.751873  0.990126  1
  P  P18  1  0.543942  0.248127  0.009874  1
  P  P19  1  0.610493  0.119743  0.655734  1
  P  P20  1  0.614888  0.390869  0.348624  1
  P  P21  1  0.885112  0.890869  0.151376  1
  P  P22  1  0.889507  0.619743  0.844266  1
  P  P23  1  0.956058  0.748127  0.490126  1
  W  W24  1  0.243547  0.030607  0.105701  1
  W  W25  1  0.243979  0.463651  0.891721  1
  W  W26  1  0.256021  0.963651  0.608279  1
  W  W27  1  0.256453  0.530607  0.394299  1
  W  W28  1  0.743547  0.469393  0.605701  1
  W  W29  1  0.743979  0.036349  0.391721  1
  W  W30  1  0.756021  0.536349  0.108279  1
  W  W31  1  0.756453  0.969393  0.894299  1
  O  O32  1  0.044223  0.869842  0.551243  1
  O  O33  1  0.046306  0.884626  0.104890  1
  O  O34  1  0.048946  0.668726  0.401030  1
  O  O35  1  0.057321  0.576806  0.807170  1
  O  O36  1  0.091169  0.361517  0.419974  1
  O  O37  1  0.117660  0.996599  0.751903  1
  O  O38  1  0.115708  0.211182  0.180250  1
  O  O39  1  0.130865  0.406216  0.036094  1
  O  O40  1  0.175771  0.260888  0.808967  1
  O  O41  1  0.191658  0.186549  0.561799  1
  O  O42  1  0.227837  0.472242  0.222317  1
  O  O43  1  0.235669  0.044791  0.930277  1
  O  O44  1  0.264331  0.544791  0.569723  1
  O  O45  1  0.272163  0.972242  0.277683  1
  O  O46  1  0.308342  0.686549  0.938201  1
  O  O47  1  0.324229  0.760888  0.691033  1
  O  O48  1  0.369135  0.906216  0.463906  1
  O  O49  1  0.384292  0.711182  0.319750  1
  O  O50  1  0.382340  0.496599  0.748097  1
  O  O51  1  0.408831  0.861517  0.080026  1
  O  O52  1  0.442679  0.076806  0.692830  1
  O  O53  1  0.451054  0.168726  0.098970  1
  O  O54  1  0.453694  0.384626  0.395110  1
  O  O55  1  0.455777  0.369841  0.948757  1
  O  O56  1  0.544223  0.630158  0.051243  1
  O  O57  1  0.546306  0.615374  0.604890  1
  O  O58  1  0.548946  0.831274  0.901030  1
  O  O59  1  0.557321  0.923194  0.307170  1
  O  O60  1  0.591169  0.138483  0.919974  1
  O  O61  1  0.617660  0.503401  0.251904  1
  O  O62  1  0.615708  0.288818  0.680250  1
  O  O63  1  0.630865  0.093784  0.536094  1
  O  O64  1  0.675771  0.239112  0.308967  1
  O  O65  1  0.691658  0.313451  0.061799  1
  O  O66  1  0.727837  0.027758  0.722317  1
  O  O67  1  0.735669  0.455209  0.430277  1
  O  O68  1  0.764331  0.955209  0.069723  1
  O  O69  1  0.772163  0.527758  0.777683  1
  O  O70  1  0.808342  0.813451  0.438201  1
  O  O71  1  0.824229  0.739112  0.191033  1
  O  O72  1  0.869135  0.593784  0.963906  1
  O  O73  1  0.884292  0.788818  0.819750  1
  O  O74  1  0.882340  0.003401  0.248096  1
  O  O75  1  0.908831  0.638483  0.580026  1
  O  O76  1  0.942679  0.423194  0.192830  1
  O  O77  1  0.951054  0.331274  0.598970  1
  O  O78  1  0.953694  0.115374  0.895110  1
  O  O79  1  0.955777  0.130159  0.448757  1
