# generated using pymatgen
data_Na2BiPCO7
_symmetry_space_group_name_H-M   'P 1'
_cell_length_a   9.42033950
_cell_length_b   6.99734826
_cell_length_c   5.30161853
_cell_angle_alpha   90.00000000
_cell_angle_beta   91.85852769
_cell_angle_gamma   90.00000000
_symmetry_Int_Tables_number   1
_chemical_formula_structural   Na2BiPCO7
_chemical_formula_sum   'Na4 Bi2 P2 C2 O14'
_cell_volume   349.28505196
_cell_formula_units_Z   2
loop_
 _symmetry_equiv_pos_site_id
 _symmetry_equiv_pos_as_xyz
  1  'x, y, z'
loop_
 _atom_site_type_symbol
 _atom_site_label
 _atom_site_symmetry_multiplicity
 _atom_site_fract_x
 _atom_site_fract_y
 _atom_site_fract_z
 _atom_site_occupancy
  Na  Na0  1  0.213236  0.489780  0.233208  1
  Na  Na1  1  0.213236  0.010220  0.233208  1
  Na  Na2  1  0.786764  0.510220  0.766792  1
  Na  Na3  1  0.786764  0.989780  0.766792  1
  Bi  Bi4  1  0.380587  0.750000  0.776036  1
  Bi  Bi5  1  0.619413  0.250000  0.223964  1
  P  P6  1  0.402585  0.250000  0.723407  1
  P  P7  1  0.597415  0.750000  0.276593  1
  C  C8  1  0.085390  0.750000  0.729011  1
  C  C9  1  0.914610  0.250000  0.270989  1
  O  O10  1  0.047369  0.250000  0.284876  1
  O  O11  1  0.157877  0.750000  0.948214  1
  O  O12  1  0.165964  0.750000  0.528273  1
  O  O13  1  0.339413  0.072188  0.856230  1
  O  O14  1  0.339413  0.427812  0.856230  1
  O  O15  1  0.430186  0.750000  0.232870  1
  O  O16  1  0.369941  0.250000  0.436410  1
  O  O17  1  0.630059  0.750000  0.563590  1
  O  O18  1  0.569814  0.250000  0.767130  1
  O  O19  1  0.660587  0.572188  0.143770  1
  O  O20  1  0.660587  0.927812  0.143770  1
  O  O21  1  0.834036  0.250000  0.471726  1
  O  O22  1  0.842123  0.250000  0.051786  1
  O  O23  1  0.952631  0.750000  0.715124  1
