# generated using pymatgen
data_LiFeF3
_symmetry_space_group_name_H-M   'P 1'
_cell_length_a   3.99799841
_cell_length_b   9.91315115
_cell_length_c   6.46731392
_cell_angle_alpha   90.00000000
_cell_angle_beta   89.34643171
_cell_angle_gamma   90.00000000
_symmetry_Int_Tables_number   1
_chemical_formula_structural   LiFeF3
_chemical_formula_sum   'Li4 Fe4 F12'
_cell_volume   256.30084119
_cell_formula_units_Z   4
loop_
 _symmetry_equiv_pos_site_id
 _symmetry_equiv_pos_as_xyz
  1  'x, y, z'
loop_
 _atom_site_type_symbol
 _atom_site_label
 _atom_site_symmetry_multiplicity
 _atom_site_fract_x
 _atom_site_fract_y
 _atom_site_fract_z
 _atom_site_occupancy
  Li  Li0  1  0.248656  0.441549  0.779453  1
  Li  Li1  1  0.248656  0.058451  0.279453  1
  Li  Li2  1  0.751344  0.941549  0.720547  1
  Li  Li3  1  0.751344  0.558451  0.220547  1
  Fe  Fe4  1  0.250237  0.758039  0.925354  1
  Fe  Fe5  1  0.250237  0.741961  0.425354  1
  Fe  Fe6  1  0.749763  0.258039  0.574646  1
  Fe  Fe7  1  0.749763  0.241961  0.074646  1
  F  F8  1  0.248233  0.896061  0.654894  1
  F  F9  1  0.248233  0.603939  0.154894  1
  F  F10  1  0.249706  0.618189  0.686909  1
  F  F11  1  0.250715  0.285266  0.597533  1
  F  F12  1  0.249706  0.881811  0.186909  1
  F  F13  1  0.250715  0.214734  0.097533  1
  F  F14  1  0.749285  0.785266  0.902467  1
  F  F15  1  0.750294  0.118189  0.813091  1
  F  F16  1  0.749285  0.714734  0.402467  1
  F  F17  1  0.750294  0.381811  0.313091  1
  F  F18  1  0.751767  0.396061  0.845106  1
  F  F19  1  0.751767  0.103939  0.345106  1
