# generated using pymatgen
data_H21C6N2Cl3
_symmetry_space_group_name_H-M   'P 1'
_cell_length_a   5.44407659
_cell_length_b   10.60139119
_cell_length_c   11.55399476
_cell_angle_alpha   90.00000000
_cell_angle_beta   92.39318884
_cell_angle_gamma   90.00000000
_symmetry_Int_Tables_number   1
_chemical_formula_structural   H21C6N2Cl3
_chemical_formula_sum   'H42 C12 N4 Cl6'
_cell_volume   666.25471695
_cell_formula_units_Z   2
loop_
 _symmetry_equiv_pos_site_id
 _symmetry_equiv_pos_as_xyz
  1  'x, y, z'
loop_
 _atom_site_type_symbol
 _atom_site_label
 _atom_site_symmetry_multiplicity
 _atom_site_fract_x
 _atom_site_fract_y
 _atom_site_fract_z
 _atom_site_occupancy
  H  H0  1  0.025440  0.267721  0.677981  1
  H  H1  1  0.020985  0.622006  0.102171  1
  H  H2  1  0.036292  0.327934  0.209412  1
  H  H3  1  0.065523  0.155229  0.392117  1
  H  H4  1  0.071200  0.427433  0.453568  1
  H  H5  1  0.118245  0.659760  0.908777  1
  H  H6  1  0.125476  0.482826  0.706324  1
  H  H7  1  0.201626  0.247128  0.905061  1
  H  H8  1  0.135139  0.895148  0.048116  1
  H  H9  1  0.247182  0.108351  0.992812  1
  H  H10  1  0.221488  0.811444  0.422977  1
  H  H11  1  0.233620  0.853952  0.272711  1
  H  H12  1  0.233218  0.376897  0.096164  1
  H  H13  1  0.284849  0.536112  0.523625  1
  H  H14  1  0.313756  0.862508  0.923933  1
  H  H15  1  0.271218  0.049233  0.469525  1
  H  H16  1  0.290671  0.067238  0.315573  1
  H  H17  1  0.309237  0.370255  0.551489  1
  H  H18  1  0.283733  0.228171  0.166806  1
  H  H19  1  0.349928  0.767014  0.052077  1
  H  H20  1  0.438895  0.961155  0.685583  1
  H  H21  1  0.561105  0.461155  0.314417  1
  H  H22  1  0.650072  0.267014  0.947923  1
  H  H23  1  0.716267  0.728171  0.833194  1
  H  H24  1  0.690763  0.870255  0.448511  1
  H  H25  1  0.709329  0.567238  0.684427  1
  H  H26  1  0.728782  0.549233  0.530475  1
  H  H27  1  0.686244  0.362508  0.076067  1
  H  H28  1  0.715151  0.036112  0.476375  1
  H  H29  1  0.766782  0.876897  0.903836  1
  H  H30  1  0.766380  0.353952  0.727289  1
  H  H31  1  0.778512  0.311444  0.577023  1
  H  H32  1  0.752818  0.608351  0.007188  1
  H  H33  1  0.864861  0.395148  0.951884  1
  H  H34  1  0.798374  0.747128  0.094939  1
  H  H35  1  0.874524  0.982826  0.293676  1
  H  H36  1  0.881755  0.159760  0.091223  1
  H  H37  1  0.928800  0.927433  0.546432  1
  H  H38  1  0.934477  0.655229  0.607883  1
  H  H39  1  0.963708  0.827934  0.790588  1
  H  H40  1  0.979015  0.122006  0.897829  1
  H  H41  1  0.974560  0.767721  0.322019  1
  C  C42  1  0.110716  0.173528  0.954391  1
  C  C43  1  0.112848  0.839550  0.344931  1
  C  C44  1  0.144485  0.296250  0.136703  1
  C  C45  1  0.166259  0.065943  0.387822  1
  C  C46  1  0.181913  0.448102  0.532846  1
  C  C47  1  0.220013  0.821228  0.996961  1
  C  C48  1  0.779987  0.321228  0.003039  1
  C  C49  1  0.818087  0.948102  0.467154  1
  C  C50  1  0.833741  0.565943  0.612178  1
  C  C51  1  0.855515  0.796250  0.863297  1
  C  C52  1  0.887152  0.339550  0.655069  1
  C  C53  1  0.889284  0.673528  0.045609  1
  N  N54  1  0.025422  0.733715  0.950477  1
  N  N55  1  0.014257  0.461102  0.631099  1
  N  N56  1  0.985743  0.961101  0.368901  1
  N  N57  1  0.974578  0.233715  0.049523  1
  Cl  Cl58  1  0.323790  0.504098  0.859163  1
  Cl  Cl59  1  0.363263  0.813340  0.648249  1
  Cl  Cl60  1  0.494204  0.091568  0.723674  1
  Cl  Cl61  1  0.505796  0.591568  0.276326  1
  Cl  Cl62  1  0.636737  0.313340  0.351751  1
  Cl  Cl63  1  0.676210  0.004098  0.140837  1
