# generated using pymatgen
data_KCuPH2O5
_symmetry_space_group_name_H-M   'P 1'
_cell_length_a   10.59877683
_cell_length_b   6.87778745
_cell_length_c   6.80910038
_cell_angle_alpha   90.00000000
_cell_angle_beta   92.79077000
_cell_angle_gamma   90.00000000
_symmetry_Int_Tables_number   1
_chemical_formula_structural   KCuPH2O5
_chemical_formula_sum   'K4 Cu4 P4 H8 O20'
_cell_volume   495.76841316
_cell_formula_units_Z   4
loop_
 _symmetry_equiv_pos_site_id
 _symmetry_equiv_pos_as_xyz
  1  'x, y, z'
loop_
 _atom_site_type_symbol
 _atom_site_label
 _atom_site_symmetry_multiplicity
 _atom_site_fract_x
 _atom_site_fract_y
 _atom_site_fract_z
 _atom_site_occupancy
  K  K0  1  0.315121  0.923920  0.035848  1
  K  K1  1  0.684879  0.423920  0.464152  1
  K  K2  1  0.684879  0.076080  0.964152  1
  K  K3  1  0.315121  0.576080  0.535848  1
  Cu  Cu4  1  0.992589  0.296360  0.720850  1
  Cu  Cu5  1  0.007411  0.796360  0.779150  1
  Cu  Cu6  1  0.007411  0.703640  0.279150  1
  Cu  Cu7  1  0.992589  0.203640  0.220850  1
  P  P8  1  0.176225  0.033984  0.499232  1
  P  P9  1  0.823775  0.533984  0.000768  1
  P  P10  1  0.823775  0.966016  0.500768  1
  P  P11  1  0.176225  0.466016  0.999232  1
  H  H12  1  0.420617  0.134758  0.658025  1
  H  H13  1  0.579383  0.634758  0.841975  1
  H  H14  1  0.579383  0.865242  0.341975  1
  H  H15  1  0.420617  0.365242  0.158025  1
  H  H16  1  0.409904  0.286303  0.831278  1
  H  H17  1  0.590096  0.786303  0.668722  1
  H  H18  1  0.590096  0.713697  0.168722  1
  H  H19  1  0.409904  0.213697  0.331278  1
  O  O20  1  0.313106  0.036424  0.440701  1
  O  O21  1  0.686894  0.536424  0.059299  1
  O  O22  1  0.686894  0.963576  0.559299  1
  O  O23  1  0.313106  0.463576  0.940701  1
  O  O24  1  0.163267  0.886296  0.670768  1
  O  O25  1  0.836733  0.386296  0.829232  1
  O  O26  1  0.836733  0.113704  0.329232  1
  O  O27  1  0.163267  0.613704  0.170768  1
  O  O28  1  0.085384  0.964326  0.317514  1
  O  O29  1  0.914616  0.464326  0.182486  1
  O  O30  1  0.914616  0.035674  0.682486  1
  O  O31  1  0.085384  0.535674  0.817514  1
  O  O32  1  0.129855  0.242729  0.549406  1
  O  O33  1  0.870145  0.742729  0.950594  1
  O  O34  1  0.870145  0.757271  0.450594  1
  O  O35  1  0.129855  0.257271  0.049406  1
  O  O36  1  0.461278  0.178018  0.783469  1
  O  O37  1  0.538722  0.678018  0.716531  1
  O  O38  1  0.538722  0.821982  0.216531  1
  O  O39  1  0.461278  0.321982  0.283469  1
