# generated using pymatgen
data_Mn12O7F17
_symmetry_space_group_name_H-M   'P 1'
_cell_length_a   4.80704405
_cell_length_b   5.82572786
_cell_length_c   15.85170913
_cell_angle_alpha   90.37405529
_cell_angle_beta   90.22906866
_cell_angle_gamma   87.46904592
_symmetry_Int_Tables_number   1
_chemical_formula_structural   Mn12O7F17
_chemical_formula_sum   'Mn12 O7 F17'
_cell_volume   443.47412311
_cell_formula_units_Z   1
loop_
 _symmetry_equiv_pos_site_id
 _symmetry_equiv_pos_as_xyz
  1  'x, y, z'
loop_
 _atom_site_type_symbol
 _atom_site_label
 _atom_site_symmetry_multiplicity
 _atom_site_fract_x
 _atom_site_fract_y
 _atom_site_fract_z
 _atom_site_occupancy
  Mn  Mn0  1  0.034427  0.149761  0.418510  1
  Mn  Mn1  1  0.042248  0.839043  0.245103  1
  Mn  Mn2  1  0.982910  0.151298  0.082281  1
  Mn  Mn3  1  0.045862  0.174765  0.757798  1
  Mn  Mn4  1  0.992559  0.838097  0.579548  1
  Mn  Mn5  1  0.009125  0.847691  0.910180  1
  Mn  Mn6  1  0.479193  0.337149  0.577391  1
  Mn  Mn7  1  0.503447  0.353380  0.921232  1
  Mn  Mn8  1  0.506168  0.355450  0.253413  1
  Mn  Mn9  1  0.490939  0.650739  0.084802  1
  Mn  Mn10  1  0.445453  0.653131  0.416880  1
  Mn  Mn11  1  0.478263  0.656032  0.756828  1
  O  O12  1  0.221931  0.877143  0.135965  1
  O  O13  1  0.222681  0.889645  0.471661  1
  O  O14  1  0.232914  0.885430  0.806178  1
  O  O15  1  0.295631  0.624491  0.305465  1
  O  O16  1  0.268235  0.376049  0.471581  1
  O  O17  1  0.300431  0.400131  0.814542  1
  O  O18  1  0.698731  0.381929  0.029287  1
  F  F19  1  0.251098  0.120888  0.302499  1
  F  F20  1  0.222738  0.108450  0.639942  1
  F  F21  1  0.222873  0.121625  0.971282  1
  F  F22  1  0.252978  0.385333  0.141639  1
  F  F23  1  0.255954  0.600189  0.640498  1
  F  F24  1  0.262434  0.617775  0.975520  1
  F  F25  1  0.736057  0.609895  0.191046  1
  F  F26  1  0.758211  0.386305  0.366979  1
  F  F27  1  0.698312  0.624077  0.521722  1
  F  F28  1  0.745360  0.607477  0.864701  1
  F  F29  1  0.728125  0.383626  0.693233  1
  F  F30  1  0.770328  0.107195  0.197527  1
  F  F31  1  0.759425  0.115493  0.528390  1
  F  F32  1  0.812016  0.902231  0.353026  1
  F  F33  1  0.763002  0.879420  0.017652  1
  F  F34  1  0.763859  0.124063  0.861454  1
  F  F35  1  0.746084  0.864607  0.694242  1
