# generated using pymatgen
data_K2Mn3V2(HO5)2
_symmetry_space_group_name_H-M   'P 1'
_cell_length_a   6.26615634
_cell_length_b   8.27389309
_cell_length_c   5.48154679
_cell_angle_alpha   75.82018498
_cell_angle_beta   90.00000000
_cell_angle_gamma   67.74864956
_symmetry_Int_Tables_number   1
_chemical_formula_structural   K2Mn3V2(HO5)2
_chemical_formula_sum   'K2 Mn3 V2 H2 O10'
_cell_volume   253.64980227
_cell_formula_units_Z   1
loop_
 _symmetry_equiv_pos_site_id
 _symmetry_equiv_pos_as_xyz
  1  'x, y, z'
loop_
 _atom_site_type_symbol
 _atom_site_label
 _atom_site_symmetry_multiplicity
 _atom_site_fract_x
 _atom_site_fract_y
 _atom_site_fract_z
 _atom_site_occupancy
  K  K0  1  0.762459  0.475082  0.701607  1
  K  K1  1  0.237541  0.524918  0.298392  1
  Mn  Mn2  1  0.262327  1.000000  0.500000  1
  Mn  Mn3  1  0.737673  0.000000  0.500000  1
  Mn  Mn4  1  0.000000  0.000000  0.000000  1
  V  V5  1  0.620766  0.758467  0.090699  1
  V  V6  1  0.379234  0.241533  0.909301  1
  H  H7  1  0.139066  0.721869  0.760039  1
  H  H8  1  0.860934  0.278131  0.239961  1
  O  O9  1  0.072196  0.855609  0.719151  1
  O  O10  1  0.583884  0.832233  0.754713  1
  O  O11  1  0.817210  0.829810  0.221730  1
  O  O12  1  0.352980  0.829810  0.221730  1
  O  O13  1  0.262997  0.474005  0.821533  1
  O  O14  1  0.737003  0.525995  0.178467  1
  O  O15  1  0.182790  0.170190  0.778270  1
  O  O16  1  0.647020  0.170190  0.778270  1
  O  O17  1  0.416116  0.167767  0.245287  1
  O  O18  1  0.927804  0.144391  0.280849  1
