# generated using pymatgen
data_Li2CoP2O7
_symmetry_space_group_name_H-M   'P 1'
_cell_length_a   8.25535980
_cell_length_b   18.12743407
_cell_length_c   7.89689361
_cell_angle_alpha   90.00000000
_cell_angle_beta   92.77798164
_cell_angle_gamma   90.00000000
_symmetry_Int_Tables_number   1
_chemical_formula_structural   Li2CoP2O7
_chemical_formula_sum   'Li16 Co8 P16 O56'
_cell_volume   1180.36944907
_cell_formula_units_Z   8
loop_
 _symmetry_equiv_pos_site_id
 _symmetry_equiv_pos_as_xyz
  1  'x, y, z'
loop_
 _atom_site_type_symbol
 _atom_site_label
 _atom_site_symmetry_multiplicity
 _atom_site_fract_x
 _atom_site_fract_y
 _atom_site_fract_z
 _atom_site_occupancy
  Li  Li0  1  0.010759  0.542885  0.647663  1
  Li  Li1  1  0.007543  0.303156  0.155008  1
  Li  Li2  1  0.058931  0.783630  0.382135  1
  Li  Li3  1  0.110174  0.103085  0.668203  1
  Li  Li4  1  0.126263  0.575199  0.093202  1
  Li  Li5  1  0.256342  0.367854  0.386054  1
  Li  Li6  1  0.266546  0.943937  0.114224  1
  Li  Li7  1  0.519105  0.184945  0.812843  1
  Li  Li8  1  0.480895  0.684945  0.187157  1
  Li  Li9  1  0.733454  0.443937  0.885776  1
  Li  Li10  1  0.743658  0.867854  0.613946  1
  Li  Li11  1  0.873737  0.075199  0.906798  1
  Li  Li12  1  0.889826  0.603085  0.331797  1
  Li  Li13  1  0.941068  0.283630  0.617865  1
  Li  Li14  1  0.992457  0.803156  0.844992  1
  Li  Li15  1  0.989241  0.042885  0.352337  1
  Co  Co16  1  0.424523  0.535780  0.888782  1
  Co  Co17  1  0.416227  0.790885  0.578074  1
  Co  Co18  1  0.406436  0.292639  0.092935  1
  Co  Co19  1  0.393903  0.041627  0.417360  1
  Co  Co20  1  0.606097  0.541627  0.582640  1
  Co  Co21  1  0.593564  0.792639  0.907065  1
  Co  Co22  1  0.583773  0.290885  0.421926  1
  Co  Co23  1  0.575477  0.035780  0.111218  1
  P  P24  1  0.139599  0.412798  0.934705  1
  P  P25  1  0.135209  0.919826  0.553145  1
  P  P26  1  0.251344  0.632202  0.553952  1
  P  P27  1  0.212256  0.200609  0.381459  1
  P  P28  1  0.246084  0.698456  0.897933  1
  P  P29  1  0.232771  0.130678  0.049028  1
  P  P30  1  0.427301  0.372073  0.737528  1
  P  P31  1  0.425317  0.952606  0.766018  1
  P  P32  1  0.574683  0.452606  0.233982  1
  P  P33  1  0.572699  0.872073  0.262472  1
  P  P34  1  0.767229  0.630678  0.950972  1
  P  P35  1  0.753916  0.198456  0.102067  1
  P  P36  1  0.787744  0.700609  0.618541  1
  P  P37  1  0.748656  0.132202  0.446048  1
  P  P38  1  0.864791  0.419826  0.446855  1
  P  P39  1  0.860401  0.912798  0.065295  1
  O  O40  1  0.960563  0.409708  0.885703  1
  O  O41  1  0.959269  0.910952  0.591243  1
  O  O42  1  0.111526  0.592843  0.456014  1
  O  O43  1  0.080737  0.248232  0.450440  1
  O  O44  1  0.105941  0.097485  0.923372  1
  O  O45  1  0.165550  0.658662  0.726705  1
  O  O46  1  0.113258  0.737393  0.986826  1
  O  O47  1  0.133636  0.166058  0.203305  1
  O  O48  1  0.202133  0.492911  0.964472  1
  O  O49  1  0.214311  0.849028  0.485636  1
  O  O50  1  0.168540  0.987835  0.440562  1
  O  O51  1  0.190703  0.357661  0.077619  1
  O  O52  1  0.235854  0.385418  0.770648  1
  O  O53  1  0.230808  0.936790  0.734790  1
  O  O54  1  0.331210  0.191187  0.964916  1
  O  O55  1  0.263885  0.135907  0.499106  1
  O  O56  1  0.322342  0.635689  0.010707  1
  O  O57  1  0.317482  0.697360  0.454351  1
  O  O58  1  0.381814  0.579944  0.633075  1
  O  O59  1  0.354897  0.245478  0.319796  1
  O  O60  1  0.370283  0.750988  0.824508  1
  O  O61  1  0.337457  0.072425  0.148547  1
  O  O62  1  0.412914  0.331147  0.570098  1
  O  O63  1  0.437751  0.971052  0.952548  1
  O  O64  1  0.526882  0.516782  0.345873  1
  O  O65  1  0.510462  0.447940  0.724806  1
  O  O66  1  0.485594  0.380068  0.270241  1
  O  O67  1  0.506351  0.324553  0.877650  1
  O  O68  1  0.493649  0.824553  0.122350  1
  O  O69  1  0.514406  0.880068  0.729759  1
  O  O70  1  0.489538  0.947940  0.275194  1
  O  O71  1  0.473118  0.016782  0.654127  1
  O  O72  1  0.562249  0.471052  0.047452  1
  O  O73  1  0.587086  0.831147  0.429902  1
  O  O74  1  0.662543  0.572425  0.851454  1
  O  O75  1  0.629717  0.250988  0.175492  1
  O  O76  1  0.645103  0.745478  0.680204  1
  O  O77  1  0.618186  0.079944  0.366925  1
  O  O78  1  0.682518  0.197360  0.545649  1
  O  O79  1  0.677658  0.135689  0.989293  1
  O  O80  1  0.736115  0.635907  0.500894  1
  O  O81  1  0.668790  0.691187  0.035084  1
  O  O82  1  0.769192  0.436790  0.265210  1
  O  O83  1  0.764146  0.885418  0.229352  1
  O  O84  1  0.809297  0.857661  0.922381  1
  O  O85  1  0.831460  0.487835  0.559438  1
  O  O86  1  0.785689  0.349028  0.514364  1
  O  O87  1  0.797867  0.992911  0.035528  1
  O  O88  1  0.866364  0.666058  0.796695  1
  O  O89  1  0.886742  0.237393  0.013174  1
  O  O90  1  0.834450  0.158662  0.273295  1
  O  O91  1  0.894059  0.597486  0.076628  1
  O  O92  1  0.919263  0.748232  0.549560  1
  O  O93  1  0.888474  0.092843  0.543986  1
  O  O94  1  0.040731  0.410952  0.408757  1
  O  O95  1  0.039437  0.909708  0.114297  1
