# generated using pymatgen
data_NbFe3Ni2(PO4)6
_symmetry_space_group_name_H-M   'P 1'
_cell_length_a   8.52372729
_cell_length_b   8.52372686
_cell_length_c   8.52372759
_cell_angle_alpha   61.01512702
_cell_angle_beta   61.01512772
_cell_angle_gamma   61.01512851
_symmetry_Int_Tables_number   1
_chemical_formula_structural   NbFe3Ni2(PO4)6
_chemical_formula_sum   'Nb1 Fe3 Ni2 P6 O24'
_cell_volume   447.91047978
_cell_formula_units_Z   1
loop_
 _symmetry_equiv_pos_site_id
 _symmetry_equiv_pos_as_xyz
  1  'x, y, z'
loop_
 _atom_site_type_symbol
 _atom_site_label
 _atom_site_symmetry_multiplicity
 _atom_site_fract_x
 _atom_site_fract_y
 _atom_site_fract_z
 _atom_site_occupancy
  Nb  Nb0  1  0.857250  0.857250  0.857250  1
  Fe  Fe1  1  0.146405  0.146405  0.146405  1
  Fe  Fe2  1  0.356138  0.356138  0.356138  1
  Fe  Fe3  1  0.643829  0.643829  0.643829  1
  Ni  Ni4  1  0.005979  0.005979  0.005979  1
  Ni  Ni5  1  0.500853  0.500853  0.500853  1
  P  P6  1  0.048387  0.746945  0.446966  1
  P  P7  1  0.446966  0.048387  0.746945  1
  P  P8  1  0.746945  0.446966  0.048387  1
  P  P9  1  0.256310  0.540489  0.953879  1
  P  P10  1  0.540489  0.953879  0.256310  1
  P  P11  1  0.953879  0.256310  0.540489  1
  O  O12  1  0.111276  0.317591  0.505387  1
  O  O13  1  0.317591  0.505387  0.111276  1
  O  O14  1  0.061606  0.909392  0.255210  1
  O  O15  1  0.505387  0.111276  0.317591  1
  O  O16  1  0.994170  0.819576  0.612010  1
  O  O17  1  0.243810  0.592112  0.443886  1
  O  O18  1  0.255210  0.061606  0.909392  1
  O  O19  1  0.443886  0.243810  0.592112  1
  O  O20  1  0.180389  0.390615  0.996424  1
  O  O21  1  0.592112  0.443886  0.243810  1
  O  O22  1  0.093002  0.742450  0.937266  1
  O  O23  1  0.390615  0.996424  0.180389  1
  O  O24  1  0.612010  0.994170  0.819576  1
  O  O25  1  0.909392  0.255210  0.061606  1
  O  O26  1  0.410190  0.558697  0.755594  1
  O  O27  1  0.819576  0.612010  0.994170  1
  O  O28  1  0.558697  0.755594  0.410190  1
  O  O29  1  0.742450  0.937266  0.093002  1
  O  O30  1  0.755594  0.410190  0.558697  1
  O  O31  1  0.996424  0.180389  0.390615  1
  O  O32  1  0.495105  0.890141  0.680670  1
  O  O33  1  0.937266  0.093002  0.742450  1
  O  O34  1  0.680670  0.495105  0.890141  1
  O  O35  1  0.890141  0.680670  0.495105  1
