# generated using pymatgen
data_La26B8O51
_symmetry_space_group_name_H-M   'P 1'
_cell_length_a   6.95586414
_cell_length_b   13.00753700
_cell_length_c   14.70877725
_cell_angle_alpha   89.93129636
_cell_angle_beta   99.36272064
_cell_angle_gamma   89.68779917
_symmetry_Int_Tables_number   1
_chemical_formula_structural   La26B8O51
_chemical_formula_sum   'La26 B8 O51'
_cell_volume   1313.07900057
_cell_formula_units_Z   1
loop_
 _symmetry_equiv_pos_site_id
 _symmetry_equiv_pos_as_xyz
  1  'x, y, z'
loop_
 _atom_site_type_symbol
 _atom_site_label
 _atom_site_symmetry_multiplicity
 _atom_site_fract_x
 _atom_site_fract_y
 _atom_site_fract_z
 _atom_site_occupancy
  La  La0  1  0.152028  0.308858  0.971111  1
  La  La1  1  0.065490  0.289537  0.702874  1
  La  La2  1  0.000005  0.502355  0.500809  1
  La  La3  1  0.144551  0.206236  0.462970  1
  La  La4  1  0.055080  0.212403  0.199249  1
  La  La5  1  0.323455  0.611574  0.941367  1
  La  La6  1  0.224489  0.989708  0.684153  1
  La  La7  1  0.999535  0.999378  0.001113  1
  La  La8  1  0.374755  0.697722  0.659551  1
  La  La9  1  0.316279  0.875182  0.431025  1
  La  La10  1  0.486721  0.888569  0.915265  1
  La  La11  1  0.231435  0.499722  0.167573  1
  La  La12  1  0.518247  0.388834  0.587578  1
  La  La13  1  0.373894  0.800987  0.155628  1
  La  La14  1  0.626664  0.200846  0.845486  1
  La  La15  1  0.485546  0.606442  0.413260  1
  La  La16  1  0.768271  0.500801  0.832325  1
  La  La17  1  0.515812  0.110219  0.086947  1
  La  La18  1  0.709382  0.117169  0.561892  1
  La  La19  1  0.623181  0.300754  0.336884  1
  La  La20  1  0.761504  0.000441  0.332061  1
  La  La21  1  0.677234  0.388363  0.059283  1
  La  La22  1  0.940604  0.784616  0.800433  1
  La  La23  1  0.843972  0.809283  0.529411  1
  La  La24  1  0.936627  0.711377  0.297560  1
  La  La25  1  0.848842  0.690993  0.029958  1
  B  B26  1  0.136748  0.098951  0.838723  1
  B  B27  1  0.137570  0.404660  0.337422  1
  B  B28  1  0.328935  0.449060  0.788880  1
  B  B29  1  0.330830  0.051326  0.292761  1
  B  B30  1  0.666021  0.948754  0.705420  1
  B  B31  1  0.671266  0.551189  0.210975  1
  B  B32  1  0.861802  0.597486  0.662131  1
  B  B33  1  0.862480  0.903342  0.163526  1
  O  O34  1  0.008685  0.651444  0.629925  1
  O  O35  1  0.062396  0.128121  0.599702  1
  O  O36  1  0.157142  0.991564  0.846327  1
  O  O37  1  0.157851  0.429875  0.824950  1
  O  O38  1  0.009517  0.850289  0.130725  1
  O  O39  1  0.161217  0.346239  0.568664  1
  O  O40  1  0.191951  0.855230  0.585842  1
  O  O41  1  0.271651  0.765482  0.817384  1
  O  O42  1  0.265363  0.151444  0.791916  1
  O  O43  1  0.029493  0.361934  0.107487  1
  O  O44  1  0.157276  0.510090  0.347204  1
  O  O45  1  0.167784  0.069274  0.335671  1
  O  O46  1  0.405028  0.547191  0.785582  1
  O  O47  1  0.163948  0.154480  0.068950  1
  O  O48  1  0.486346  0.250705  0.981344  1
  O  O49  1  0.342578  0.553142  0.549088  1
  O  O50  1  0.187857  0.655307  0.089717  1
  O  O51  1  0.270659  0.739312  0.325384  1
  O  O52  1  0.427983  0.367087  0.756419  1
  O  O53  1  0.266003  0.347627  0.293747  1
  O  O54  1  0.405339  0.952518  0.285640  1
  O  O55  1  0.572588  0.868853  0.741841  1
  O  O56  1  0.479823  0.238477  0.487028  1
  O  O57  1  0.663067  0.545432  0.966829  1
  O  O58  1  0.341795  0.945939  0.047440  1
  O  O59  1  0.657596  0.054272  0.951053  1
  O  O60  1  0.336762  0.454684  0.033125  1
  O  O61  1  0.515095  0.749227  0.516379  1
  O  O62  1  0.426631  0.132456  0.258862  1
  O  O63  1  0.573138  0.044777  0.696895  1
  O  O64  1  0.732007  0.651312  0.707593  1
  O  O65  1  0.572693  0.632964  0.243168  1
  O  O66  1  0.640108  0.961559  0.470656  1
  O  O67  1  0.740063  0.259854  0.675011  1
  O  O68  1  0.812157  0.344299  0.910280  1
  O  O69  1  0.655288  0.442343  0.452260  1
  O  O70  1  0.514167  0.748949  0.018645  1
  O  O71  1  0.836174  0.845130  0.931550  1
  O  O72  1  0.594491  0.452873  0.214759  1
  O  O73  1  0.845651  0.933236  0.675217  1
  O  O74  1  0.843746  0.491362  0.651920  1
  O  O75  1  0.971666  0.636846  0.893437  1
  O  O76  1  0.733917  0.849563  0.209245  1
  O  O77  1  0.726216  0.237841  0.180811  1
  O  O78  1  0.814151  0.157280  0.410917  1
  O  O79  1  0.835448  0.655387  0.430823  1
  O  O80  1  0.989328  0.150035  0.870177  1
  O  O81  1  0.842022  0.569366  0.174431  1
  O  O82  1  0.843001  0.009863  0.154084  1
  O  O83  1  0.961764  0.863320  0.394142  1
  O  O84  1  0.988906  0.352406  0.369977  1
