# generated using pymatgen
data_Li4V3OF11
_symmetry_space_group_name_H-M   'P 1'
_cell_length_a   5.67588471
_cell_length_b   6.34263551
_cell_length_c   6.13700183
_cell_angle_alpha   102.07880376
_cell_angle_beta   98.14984590
_cell_angle_gamma   100.69927555
_symmetry_Int_Tables_number   1
_chemical_formula_structural   Li4V3OF11
_chemical_formula_sum   'Li4 V3 O1 F11'
_cell_volume   208.50136260
_cell_formula_units_Z   1
loop_
 _symmetry_equiv_pos_site_id
 _symmetry_equiv_pos_as_xyz
  1  'x, y, z'
loop_
 _atom_site_type_symbol
 _atom_site_label
 _atom_site_symmetry_multiplicity
 _atom_site_fract_x
 _atom_site_fract_y
 _atom_site_fract_z
 _atom_site_occupancy
  Li  Li0  1  0.138702  0.565091  0.327386  1
  Li  Li1  1  0.389846  0.646669  0.851710  1
  Li  Li2  1  0.614191  0.350635  0.131384  1
  Li  Li3  1  0.867247  0.450493  0.676207  1
  V  V4  1  0.701971  0.861477  0.384279  1
  V  V5  1  0.009487  0.001337  0.024112  1
  V  V6  1  0.304996  0.131738  0.602731  1
  O  O7  1  0.055706  0.966966  0.330309  1
  F  F8  1  0.064762  0.710904  0.894510  1
  F  F9  1  0.434591  0.842699  0.591157  1
  F  F10  1  0.663513  0.873949  0.049060  1
  F  F11  1  0.170540  0.398725  0.580218  1
  F  F12  1  0.429759  0.601108  0.200287  1
  F  F13  1  0.578907  0.397199  0.792875  1
  F  F14  1  0.828250  0.596549  0.426128  1
  F  F15  1  0.329083  0.123608  0.940441  1
  F  F16  1  0.561529  0.148942  0.399083  1
  F  F17  1  0.943921  0.298355  0.101927  1
  F  F18  1  0.913001  0.033554  0.696195  1
