# generated using pymatgen
data_LiMnPO4
_symmetry_space_group_name_H-M   'P 1'
_cell_length_a   8.49363744
_cell_length_b   7.72862246
_cell_length_c   15.03949247
_cell_angle_alpha   90.00000000
_cell_angle_beta   89.37337625
_cell_angle_gamma   90.00000000
_symmetry_Int_Tables_number   1
_chemical_formula_structural   LiMnPO4
_chemical_formula_sum   'Li12 Mn12 P12 O48'
_cell_volume   987.19516247
_cell_formula_units_Z   12
loop_
 _symmetry_equiv_pos_site_id
 _symmetry_equiv_pos_as_xyz
  1  'x, y, z'
loop_
 _atom_site_type_symbol
 _atom_site_label
 _atom_site_symmetry_multiplicity
 _atom_site_fract_x
 _atom_site_fract_y
 _atom_site_fract_z
 _atom_site_occupancy
  Li  Li0  1  0.056606  0.730163  0.093595  1
  Li  Li1  1  0.087371  0.775845  0.732325  1
  Li  Li2  1  0.112984  0.723136  0.422476  1
  Li  Li3  1  0.387016  0.223136  0.077524  1
  Li  Li4  1  0.412629  0.275845  0.767675  1
  Li  Li5  1  0.443394  0.230163  0.406405  1
  Li  Li6  1  0.556606  0.769837  0.593595  1
  Li  Li7  1  0.587371  0.724155  0.232325  1
  Li  Li8  1  0.612984  0.776864  0.922476  1
  Li  Li9  1  0.887016  0.276864  0.577524  1
  Li  Li10  1  0.912629  0.224155  0.267675  1
  Li  Li11  1  0.943394  0.269837  0.906405  1
  Mn  Mn12  1  0.231688  0.025979  0.566673  1
  Mn  Mn13  1  0.241342  0.975717  0.908517  1
  Mn  Mn14  1  0.238080  0.068966  0.252008  1
  Mn  Mn15  1  0.261920  0.568966  0.247992  1
  Mn  Mn16  1  0.258658  0.475717  0.591483  1
  Mn  Mn17  1  0.268312  0.525979  0.933327  1
  Mn  Mn18  1  0.731688  0.474021  0.066673  1
  Mn  Mn19  1  0.741342  0.524283  0.408517  1
  Mn  Mn20  1  0.738080  0.431034  0.752008  1
  Mn  Mn21  1  0.761920  0.931034  0.747992  1
  Mn  Mn22  1  0.758658  0.024283  0.091483  1
  Mn  Mn23  1  0.768312  0.974021  0.433327  1
  P  P24  1  0.052950  0.321982  0.090809  1
  P  P25  1  0.080259  0.179456  0.731038  1
  P  P26  1  0.101827  0.322571  0.424310  1
  P  P27  1  0.398173  0.822571  0.075690  1
  P  P28  1  0.419741  0.679456  0.768962  1
  P  P29  1  0.447050  0.821982  0.409191  1
  P  P30  1  0.552950  0.178018  0.590809  1
  P  P31  1  0.580259  0.320544  0.231038  1
  P  P32  1  0.601827  0.177429  0.924310  1
  P  P33  1  0.898173  0.677429  0.575690  1
  P  P34  1  0.919741  0.820544  0.268962  1
  P  P35  1  0.947050  0.678018  0.909191  1
  O  O36  1  0.029358  0.504214  0.885377  1
  O  O37  1  0.053583  0.640050  0.624659  1
  O  O38  1  0.064777  0.786948  0.965074  1
  O  O39  1  0.075163  0.723765  0.290505  1
  O  O40  1  0.072938  0.206441  0.507993  1
  O  O41  1  0.073543  0.005057  0.678440  1
  O  O42  1  0.092125  0.141836  0.831930  1
  O  O43  1  0.091155  0.228049  0.179626  1
  O  O44  1  0.181233  0.493204  0.454992  1
  O  O45  1  0.208573  0.356576  0.038490  1
  O  O46  1  0.222401  0.231040  0.360734  1
  O  O47  1  0.224024  0.283714  0.695669  1
  O  O48  1  0.277599  0.731040  0.139266  1
  O  O49  1  0.275976  0.783714  0.804331  1
  O  O50  1  0.291427  0.856576  0.461510  1
  O  O51  1  0.318767  0.993204  0.045008  1
  O  O52  1  0.408845  0.728049  0.320374  1
  O  O53  1  0.407875  0.641836  0.668070  1
  O  O54  1  0.426457  0.505057  0.821560  1
  O  O55  1  0.424837  0.223765  0.209495  1
  O  O56  1  0.427062  0.706441  0.992007  1
  O  O57  1  0.435223  0.286948  0.534926  1
  O  O58  1  0.446417  0.140050  0.875341  1
  O  O59  1  0.470642  0.004214  0.614623  1
  O  O60  1  0.529358  0.995786  0.385377  1
  O  O61  1  0.553583  0.859950  0.124659  1
  O  O62  1  0.564777  0.713052  0.465074  1
  O  O63  1  0.572938  0.293559  0.007993  1
  O  O64  1  0.575163  0.776235  0.790505  1
  O  O65  1  0.573543  0.494943  0.178440  1
  O  O66  1  0.592125  0.358164  0.331930  1
  O  O67  1  0.591155  0.271951  0.679626  1
  O  O68  1  0.681233  0.006796  0.954992  1
  O  O69  1  0.708573  0.143424  0.538490  1
  O  O70  1  0.724024  0.216286  0.195669  1
  O  O71  1  0.722401  0.268960  0.860734  1
  O  O72  1  0.775976  0.716286  0.304331  1
  O  O73  1  0.777599  0.768960  0.639266  1
  O  O74  1  0.791427  0.643424  0.961510  1
  O  O75  1  0.818767  0.506796  0.545008  1
  O  O76  1  0.908845  0.771951  0.820374  1
  O  O77  1  0.907875  0.858164  0.168070  1
  O  O78  1  0.926457  0.994943  0.321560  1
  O  O79  1  0.927062  0.793559  0.492007  1
  O  O80  1  0.924837  0.276235  0.709495  1
  O  O81  1  0.935223  0.213052  0.034926  1
  O  O82  1  0.946417  0.359950  0.375341  1
  O  O83  1  0.970642  0.495786  0.114623  1
