# generated using pymatgen
data_Li3Ni2(CO3)4
_symmetry_space_group_name_H-M   'P 1'
_cell_length_a   6.28012435
_cell_length_b   7.70789439
_cell_length_c   5.22867198
_cell_angle_alpha   89.75939225
_cell_angle_beta   114.72292668
_cell_angle_gamma   90.47408285
_symmetry_Int_Tables_number   1
_chemical_formula_structural   Li3Ni2(CO3)4
_chemical_formula_sum   'Li3 Ni2 C4 O12'
_cell_volume   229.89485600
_cell_formula_units_Z   1
loop_
 _symmetry_equiv_pos_site_id
 _symmetry_equiv_pos_as_xyz
  1  'x, y, z'
loop_
 _atom_site_type_symbol
 _atom_site_label
 _atom_site_symmetry_multiplicity
 _atom_site_fract_x
 _atom_site_fract_y
 _atom_site_fract_z
 _atom_site_occupancy
  Li  Li0  1  0.311745  0.938972  0.614782  1
  Li  Li1  1  0.684749  0.065662  0.379630  1
  Li  Li2  1  0.810153  0.555917  0.615598  1
  Ni  Ni3  1  0.001665  0.996157  0.996171  1
  Ni  Ni4  1  0.492301  0.500812  0.991030  1
  C  C5  1  0.117089  0.258973  0.855137  1
  C  C6  1  0.625830  0.236869  0.852480  1
  C  C7  1  0.384523  0.766908  0.149749  1
  C  C8  1  0.877732  0.738482  0.150057  1
  O  O9  1  0.084284  0.117595  0.704390  1
  O  O10  1  0.151906  0.406841  0.774350  1
  O  O11  1  0.385068  0.756991  0.901930  1
  O  O12  1  0.098611  0.233765  0.089927  1
  O  O13  1  0.344285  0.913730  0.244599  1
  O  O14  1  0.430552  0.628540  0.298755  1
  O  O15  1  0.607555  0.379927  0.717820  1
  O  O16  1  0.659311  0.088990  0.754922  1
  O  O17  1  0.896719  0.752675  0.911504  1
  O  O18  1  0.599078  0.244443  0.085094  1
  O  O19  1  0.827070  0.598811  0.237637  1
  O  O20  1  0.919531  0.883718  0.293228  1
