# generated using pymatgen
data_Mn9Al2Si8(HO4)8
_symmetry_space_group_name_H-M   'P 1'
_cell_length_a   8.43478777
_cell_length_b   10.46796865
_cell_length_c   7.74564145
_cell_angle_alpha   104.53412806
_cell_angle_beta   94.01498617
_cell_angle_gamma   103.78222390
_symmetry_Int_Tables_number   1
_chemical_formula_structural   Mn9Al2Si8(HO4)8
_chemical_formula_sum   'Mn9 Al2 Si8 H8 O32'
_cell_volume   636.79760718
_cell_formula_units_Z   1
loop_
 _symmetry_equiv_pos_site_id
 _symmetry_equiv_pos_as_xyz
  1  'x, y, z'
loop_
 _atom_site_type_symbol
 _atom_site_label
 _atom_site_symmetry_multiplicity
 _atom_site_fract_x
 _atom_site_fract_y
 _atom_site_fract_z
 _atom_site_occupancy
  Mn  Mn0  1  0.000000  0.500000  0.500000  1
  Mn  Mn1  1  0.390547  0.568289  0.640312  1
  Mn  Mn2  1  0.609453  0.431711  0.359688  1
  Mn  Mn3  1  0.162776  0.701393  0.919174  1
  Mn  Mn4  1  0.837224  0.298607  0.080826  1
  Mn  Mn5  1  0.431283  0.228119  0.947132  1
  Mn  Mn6  1  0.568717  0.771881  0.052868  1
  Mn  Mn7  1  0.164460  0.056805  0.621111  1
  Mn  Mn8  1  0.835540  0.943195  0.378889  1
  Al  Al9  1  0.778768  0.630789  0.768078  1
  Al  Al10  1  0.221232  0.369211  0.231922  1
  Si  Si11  1  0.884838  0.642350  0.185653  1
  Si  Si12  1  0.115162  0.357650  0.814347  1
  Si  Si13  1  0.430634  0.897313  0.705697  1
  Si  Si14  1  0.569366  0.102687  0.294303  1
  Si  Si15  1  0.256059  0.701294  0.320806  1
  Si  Si16  1  0.743941  0.298706  0.679194  1
  Si  Si17  1  0.808971  0.951995  0.800374  1
  Si  Si18  1  0.191029  0.048005  0.199626  1
  H  H19  1  0.978893  0.768623  0.633266  1
  H  H20  1  0.021107  0.231377  0.366734  1
  H  H21  1  0.668462  0.701456  0.491408  1
  H  H22  1  0.331538  0.298544  0.508592  1
  H  H23  1  0.015042  0.124572  0.000250  1
  H  H24  1  0.984958  0.875428  0.999750  1
  H  H25  1  0.573722  0.486666  0.886050  1
  H  H26  1  0.426278  0.513334  0.113950  1
  O  O27  1  0.833602  0.501174  0.251843  1
  O  O28  1  0.166398  0.498826  0.748157  1
  O  O29  1  0.905504  0.615663  0.971163  1
  O  O30  1  0.094496  0.384337  0.028837  1
  O  O31  1  0.233993  0.557127  0.379965  1
  O  O32  1  0.766007  0.442873  0.620035  1
  O  O33  1  0.336652  0.695196  0.135779  1
  O  O34  1  0.663348  0.304804  0.864221  1
  O  O35  1  0.756956  0.737141  0.242656  1
  O  O36  1  0.243044  0.262859  0.757344  1
  O  O37  1  0.394279  0.778476  0.813020  1
  O  O38  1  0.605721  0.221524  0.186980  1
  O  O39  1  0.345591  0.021466  0.774553  1
  O  O40  1  0.654409  0.978534  0.225447  1
  O  O41  1  0.368556  0.825554  0.489151  1
  O  O42  1  0.631444  0.174446  0.510849  1
  O  O43  1  0.071413  0.729542  0.300165  1
  O  O44  1  0.928587  0.270458  0.699835  1
  O  O45  1  0.924404  0.941448  0.637624  1
  O  O46  1  0.075596  0.058552  0.362376  1
  O  O47  1  0.630658  0.964956  0.723876  1
  O  O48  1  0.369342  0.035044  0.276124  1
  O  O49  1  0.788162  0.820836  0.885107  1
  O  O50  1  0.211838  0.179164  0.114893  1
  O  O51  1  0.978494  0.686898  0.674975  1
  O  O52  1  0.021506  0.313102  0.325025  1
  O  O53  1  0.636144  0.632628  0.556758  1
  O  O54  1  0.363856  0.367372  0.443242  1
  O  O55  1  0.892244  0.096156  0.963742  1
  O  O56  1  0.107756  0.903844  0.036258  1
  O  O57  1  0.576174  0.572870  0.855572  1
  O  O58  1  0.423826  0.427130  0.144428  1
