# generated using pymatgen
data_ZrH12C2(NF)6
_symmetry_space_group_name_H-M   'P 1'
_cell_length_a   8.29086927
_cell_length_b   10.06212875
_cell_length_c   8.39229358
_cell_angle_alpha   100.47051775
_cell_angle_beta   115.66450783
_cell_angle_gamma   102.47003299
_symmetry_Int_Tables_number   1
_chemical_formula_structural   ZrH12C2(NF)6
_chemical_formula_sum   'Zr2 H24 C4 N12 F12'
_cell_volume   585.25021489
_cell_formula_units_Z   2
loop_
 _symmetry_equiv_pos_site_id
 _symmetry_equiv_pos_as_xyz
  1  'x, y, z'
loop_
 _atom_site_type_symbol
 _atom_site_label
 _atom_site_symmetry_multiplicity
 _atom_site_fract_x
 _atom_site_fract_y
 _atom_site_fract_z
 _atom_site_occupancy
  Zr  Zr0  1  0.520503  0.845255  0.857309  1
  Zr  Zr1  1  0.479497  0.154745  0.142691  1
  H  H2  1  0.719760  0.584205  0.987989  1
  H  H3  1  0.280240  0.415795  0.012011  1
  H  H4  1  0.750550  0.439876  0.076781  1
  H  H5  1  0.249450  0.560124  0.923219  1
  H  H6  1  0.722284  0.223954  0.679023  1
  H  H7  1  0.277716  0.776046  0.320977  1
  H  H8  1  0.747152  0.231164  0.899538  1
  H  H9  1  0.252848  0.768836  0.100462  1
  H  H10  1  0.653986  0.883729  0.336047  1
  H  H11  1  0.346014  0.116271  0.663953  1
  H  H12  1  0.644643  0.884114  0.539582  1
  H  H13  1  0.355357  0.115886  0.460418  1
  H  H14  1  0.915231  0.891089  0.802957  1
  H  H15  1  0.084769  0.108911  0.197043  1
  H  H16  1  0.079999  0.823246  0.767585  1
  H  H17  1  0.920001  0.176754  0.232415  1
  H  H18  1  0.672461  0.558639  0.689863  1
  H  H19  1  0.327539  0.441361  0.310137  1
  H  H20  1  0.686775  0.409527  0.564077  1
  H  H21  1  0.313225  0.590473  0.435923  1
  H  H22  1  0.909805  0.181359  0.514888  1
  H  H23  1  0.090195  0.818641  0.485112  1
  H  H24  1  0.874527  0.803687  0.291378  1
  H  H25  1  0.125473  0.196313  0.708622  1
  C  C26  1  0.872911  0.842257  0.536268  1
  C  C27  1  0.127089  0.157743  0.463732  1
  C  C28  1  0.735522  0.413560  0.824604  1
  C  C29  1  0.264478  0.586440  0.175396  1
  N  N30  1  0.258119  0.512775  0.022333  1
  N  N31  1  0.741881  0.487225  0.977667  1
  N  N32  1  0.752865  0.282586  0.807579  1
  N  N33  1  0.247135  0.717414  0.192421  1
  N  N34  1  0.295331  0.137407  0.540288  1
  N  N35  1  0.704669  0.862593  0.459712  1
  N  N36  1  0.957714  0.847399  0.714661  1
  N  N37  1  0.042286  0.152601  0.285339  1
  N  N38  1  0.721936  0.473426  0.691054  1
  N  N39  1  0.278064  0.526574  0.308946  1
  N  N40  1  0.050116  0.188831  0.571231  1
  N  N41  1  0.949884  0.811169  0.428769  1
  F  F42  1  0.253832  0.015055  0.129952  1
  F  F43  1  0.746168  0.984945  0.870048  1
  F  F44  1  0.589544  0.972403  0.137600  1
  F  F45  1  0.410456  0.027597  0.862400  1
  F  F46  1  0.539223  0.674014  0.701046  1
  F  F47  1  0.460777  0.325986  0.298954  1
  F  F48  1  0.351961  0.835363  0.578520  1
  F  F49  1  0.648039  0.164637  0.421480  1
  F  F50  1  0.274807  0.735474  0.846904  1
  F  F51  1  0.725193  0.264526  0.153096  1
  F  F52  1  0.688509  0.762950  0.051209  1
  F  F53  1  0.311491  0.237050  0.948791  1
