# generated using pymatgen
data_Li2MnP2O7
_symmetry_space_group_name_H-M   'P 1'
_cell_length_a   6.08100930
_cell_length_b   8.09678008
_cell_length_c   8.09678008
_cell_angle_alpha   74.68082866
_cell_angle_beta   112.05646935
_cell_angle_gamma   67.94353065
_symmetry_Int_Tables_number   1
_chemical_formula_structural   Li2MnP2O7
_chemical_formula_sum   'Li4 Mn2 P4 O14'
_cell_volume   301.94442432
_cell_formula_units_Z   2
loop_
 _symmetry_equiv_pos_site_id
 _symmetry_equiv_pos_as_xyz
  1  'x, y, z'
loop_
 _atom_site_type_symbol
 _atom_site_label
 _atom_site_symmetry_multiplicity
 _atom_site_fract_x
 _atom_site_fract_y
 _atom_site_fract_z
 _atom_site_occupancy
  Li  Li0  1  0.000000  0.237079  0.237079  1
  Li  Li1  1  0.500000  0.262921  0.262921  1
  Li  Li2  1  0.500000  0.737079  0.737079  1
  Li  Li3  1  0.000000  0.762921  0.762921  1
  Mn  Mn4  1  0.000000  0.000000  0.000000  1
  Mn  Mn5  1  0.500000  0.500000  0.500000  1
  P  P6  1  0.601232  0.636085  0.136085  1
  P  P7  1  0.398768  0.136085  0.636085  1
  P  P8  1  0.601232  0.863915  0.363915  1
  P  P9  1  0.398768  0.363915  0.863915  1
  O  O10  1  0.291100  0.032861  0.202242  1
  O  O11  1  0.708900  0.202242  0.032861  1
  O  O12  1  0.222511  0.053900  0.553900  1
  O  O13  1  0.777489  0.553900  0.053900  1
  O  O14  1  0.621720  0.467139  0.297758  1
  O  O15  1  0.378280  0.297758  0.467139  1
  O  O16  1  0.722710  0.750000  0.250000  1
  O  O17  1  0.277290  0.250000  0.750000  1
  O  O18  1  0.621720  0.702242  0.532861  1
  O  O19  1  0.378280  0.532861  0.702242  1
  O  O20  1  0.222511  0.446100  0.946100  1
  O  O21  1  0.777489  0.946100  0.446100  1
  O  O22  1  0.708900  0.967139  0.797758  1
  O  O23  1  0.291100  0.797758  0.967139  1
