# generated using pymatgen
data_Li2Fe3P9O28
_symmetry_space_group_name_H-M   'P 1'
_cell_length_a   7.10128157
_cell_length_b   9.25100607
_cell_length_c   9.03706821
_cell_angle_alpha   68.56038106
_cell_angle_beta   98.43862527
_cell_angle_gamma   70.69618303
_symmetry_Int_Tables_number   1
_chemical_formula_structural   Li2Fe3P9O28
_chemical_formula_sum   'Li2 Fe3 P9 O28'
_cell_volume   496.74955451
_cell_formula_units_Z   1
loop_
 _symmetry_equiv_pos_site_id
 _symmetry_equiv_pos_as_xyz
  1  'x, y, z'
loop_
 _atom_site_type_symbol
 _atom_site_label
 _atom_site_symmetry_multiplicity
 _atom_site_fract_x
 _atom_site_fract_y
 _atom_site_fract_z
 _atom_site_occupancy
  Li  Li0  1  0.950617  0.515712  0.922882  1
  Li  Li1  1  0.549383  0.984288  0.077118  1
  Fe  Fe2  1  0.750000  0.750000  0.500000  1
  Fe  Fe3  1  0.480740  0.512392  0.977575  1
  Fe  Fe4  1  0.019260  0.987608  0.022425  1
  P  P5  1  0.564109  0.288361  0.759336  1
  P  P6  1  0.034962  0.816563  0.758888  1
  P  P7  1  0.939704  0.326806  0.705609  1
  P  P8  1  0.390612  0.860871  0.667254  1
  P  P9  1  0.250000  0.250000  0.500000  1
  P  P10  1  0.560296  0.173194  0.294391  1
  P  P11  1  0.109388  0.639129  0.332746  1
  P  P12  1  0.935891  0.211639  0.240664  1
  P  P13  1  0.465038  0.683437  0.241112  1
  O  O14  1  0.672711  0.115686  0.914814  1
  O  O15  1  0.164291  0.629705  0.892018  1
  O  O16  1  0.512915  0.730430  0.848792  1
  O  O17  1  0.065796  0.193156  0.884109  1
  O  O18  1  0.999555  0.945430  0.828304  1
  O  O19  1  0.491886  0.441038  0.796684  1
  O  O20  1  0.885921  0.503728  0.698303  1
  O  O21  1  0.359201  0.043161  0.654812  1
  O  O22  1  0.831661  0.832469  0.659730  1
  O  O23  1  0.371415  0.304526  0.635761  1
  O  O24  1  0.723338  0.309519  0.651342  1
  O  O25  1  0.160596  0.865572  0.627002  1
  O  O26  1  0.474602  0.820961  0.537133  1
  O  O27  1  0.033568  0.296432  0.568420  1
  O  O28  1  0.025398  0.679039  0.462867  1
  O  O29  1  0.466432  0.203568  0.431580  1
  O  O30  1  0.776662  0.190481  0.348658  1
  O  O31  1  0.339404  0.634428  0.372998  1
  O  O32  1  0.668339  0.667531  0.340270  1
  O  O33  1  0.128585  0.195474  0.364239  1
  O  O34  1  0.614079  0.996272  0.301697  1
  O  O35  1  0.140799  0.456839  0.345188  1
  O  O36  1  0.500445  0.554570  0.171696  1
  O  O37  1  0.008114  0.058962  0.203316  1
  O  O38  1  0.987085  0.769570  0.151208  1
  O  O39  1  0.434204  0.306844  0.115891  1
  O  O40  1  0.827289  0.384314  0.085186  1
  O  O41  1  0.335709  0.870295  0.107982  1
