# generated using pymatgen
data_Ti11O18
_symmetry_space_group_name_H-M   'P 1'
_cell_length_a   5.52417654
_cell_length_b   8.80694120
_cell_length_c   7.50849095
_cell_angle_alpha   66.92172968
_cell_angle_beta   96.34025774
_cell_angle_gamma   74.47551467
_symmetry_Int_Tables_number   1
_chemical_formula_structural   Ti11O18
_chemical_formula_sum   'Ti11 O18'
_cell_volume   314.09982898
_cell_formula_units_Z   1
loop_
 _symmetry_equiv_pos_site_id
 _symmetry_equiv_pos_as_xyz
  1  'x, y, z'
loop_
 _atom_site_type_symbol
 _atom_site_label
 _atom_site_symmetry_multiplicity
 _atom_site_fract_x
 _atom_site_fract_y
 _atom_site_fract_z
 _atom_site_occupancy
  Ti  Ti0  1  0.302579  0.002188  0.344683  1
  Ti  Ti1  1  0.678978  0.999168  0.139635  1
  Ti  Ti2  1  0.043527  0.317603  0.503161  1
  Ti  Ti3  1  0.641500  0.333157  0.181046  1
  Ti  Ti4  1  0.689405  0.996069  0.666815  1
  Ti  Ti5  1  0.358418  0.673674  0.315112  1
  Ti  Ti6  1  0.972205  0.662972  0.016142  1
  Ti  Ti7  1  0.027159  0.329313  0.982008  1
  Ti  Ti8  1  0.639054  0.336104  0.681358  1
  Ti  Ti9  1  0.967184  0.667522  0.515428  1
  Ti  Ti10  1  0.353406  0.683338  0.818675  1
  O  O11  1  0.396796  0.208747  0.141292  1
  O  O12  1  0.933473  0.123820  0.187331  1
  O  O13  1  0.298057  0.109530  0.525945  1
  O  O14  1  0.376013  0.563324  0.125815  1
  O  O15  1  0.032862  0.251161  0.780921  1
  O  O16  1  0.729424  0.226839  0.483297  1
  O  O17  1  0.937512  0.433892  0.191850  1
  O  O18  1  0.622014  0.108339  0.852622  1
  O  O19  1  0.268734  0.460258  0.518856  1
  O  O20  1  0.726519  0.542382  0.476495  1
  O  O21  1  0.414940  0.886382  0.166079  1
  O  O22  1  0.069245  0.558910  0.816018  1
  O  O23  1  0.266660  0.770838  0.520429  1
  O  O24  1  0.959264  0.770084  0.210688  1
  O  O25  1  0.621873  0.440128  0.875493  1
  O  O26  1  0.704507  0.897088  0.462046  1
  O  O27  1  0.042372  0.864986  0.802895  1
  O  O28  1  0.617310  0.782182  0.852371  1
