# generated using pymatgen
data_Li2Mn4OF8
_symmetry_space_group_name_H-M   'P 1'
_cell_length_a   5.46299988
_cell_length_b   9.45643945
_cell_length_c   14.59456776
_cell_angle_alpha   90.00000000
_cell_angle_beta   90.00000000
_cell_angle_gamma   90.00000000
_symmetry_Int_Tables_number   1
_chemical_formula_structural   Li2Mn4OF8
_chemical_formula_sum   'Li8 Mn16 O4 F32'
_cell_volume   753.96307029
_cell_formula_units_Z   4
loop_
 _symmetry_equiv_pos_site_id
 _symmetry_equiv_pos_as_xyz
  1  'x, y, z'
loop_
 _atom_site_type_symbol
 _atom_site_label
 _atom_site_symmetry_multiplicity
 _atom_site_fract_x
 _atom_site_fract_y
 _atom_site_fract_z
 _atom_site_occupancy
  Li  Li0  1  0.002467  0.004137  0.148022  1
  Li  Li1  1  0.002467  0.995863  0.351978  1
  Li  Li2  1  0.497533  0.495863  0.648022  1
  Li  Li3  1  0.497533  0.504137  0.851978  1
  Li  Li4  1  0.516841  0.524186  0.347494  1
  Li  Li5  1  0.516841  0.475814  0.152506  1
  Li  Li6  1  0.983159  0.024186  0.652506  1
  Li  Li7  1  0.983159  0.975814  0.847494  1
  Mn  Mn8  1  0.021155  0.330584  0.308834  1
  Mn  Mn9  1  0.021155  0.669416  0.191166  1
  Mn  Mn10  1  0.019212  0.666143  0.488208  1
  Mn  Mn11  1  0.019212  0.333857  0.011792  1
  Mn  Mn12  1  0.480788  0.166143  0.511792  1
  Mn  Mn13  1  0.480788  0.833857  0.988208  1
  Mn  Mn14  1  0.478845  0.830584  0.691166  1
  Mn  Mn15  1  0.478845  0.169416  0.808834  1
  Mn  Mn16  1  0.488082  0.839890  0.186985  1
  Mn  Mn17  1  0.488082  0.160110  0.313015  1
  Mn  Mn18  1  0.484546  0.174042  0.009166  1
  Mn  Mn19  1  0.484546  0.825958  0.490834  1
  Mn  Mn20  1  0.015454  0.674042  0.990834  1
  Mn  Mn21  1  0.015454  0.325958  0.509166  1
  Mn  Mn22  1  0.011918  0.660110  0.686985  1
  Mn  Mn23  1  0.011918  0.339890  0.813015  1
  O  O24  1  0.202877  0.194156  0.409107  1
  O  O25  1  0.202877  0.805844  0.090893  1
  O  O26  1  0.297123  0.305844  0.909107  1
  O  O27  1  0.297123  0.694156  0.590893  1
  F  F28  1  0.130875  0.149081  0.746742  1
  F  F29  1  0.130875  0.850919  0.753258  1
  F  F30  1  0.157972  0.838855  0.414579  1
  F  F31  1  0.157972  0.161145  0.085421  1
  F  F32  1  0.162301  0.495737  0.410453  1
  F  F33  1  0.162301  0.504263  0.089547  1
  F  F34  1  0.218646  0.500000  0.750000  1
  F  F35  1  0.281354  0.000000  0.250000  1
  F  F36  1  0.337699  0.995737  0.589547  1
  F  F37  1  0.337699  0.004263  0.910453  1
  F  F38  1  0.342028  0.338855  0.585421  1
  F  F39  1  0.342028  0.661145  0.914579  1
  F  F40  1  0.369125  0.350919  0.246742  1
  F  F41  1  0.369125  0.649081  0.253258  1
  F  F42  1  0.662942  0.649314  0.745072  1
  F  F43  1  0.662942  0.350686  0.754928  1
  F  F44  1  0.676629  0.665542  0.422938  1
  F  F45  1  0.676629  0.334458  0.077062  1
  F  F46  1  0.644702  0.004711  0.416872  1
  F  F47  1  0.644702  0.995289  0.083128  1
  F  F48  1  0.703674  0.325995  0.408461  1
  F  F49  1  0.703674  0.674005  0.091540  1
  F  F50  1  0.680606  0.000000  0.750000  1
  F  F51  1  0.819394  0.500000  0.250000  1
  F  F52  1  0.796326  0.174005  0.908460  1
  F  F53  1  0.796326  0.825995  0.591540  1
  F  F54  1  0.855298  0.495289  0.916872  1
  F  F55  1  0.855298  0.504711  0.583128  1
  F  F56  1  0.823371  0.165542  0.577062  1
  F  F57  1  0.823371  0.834458  0.922938  1
  F  F58  1  0.837058  0.149314  0.254928  1
  F  F59  1  0.837058  0.850686  0.245072  1
