# generated using pymatgen
data_LiV4(PO4)3
_symmetry_space_group_name_H-M   'P 1'
_cell_length_a   6.82829665
_cell_length_b   10.72735261
_cell_length_c   6.82829665
_cell_angle_alpha   71.44192336
_cell_angle_beta   90.00000000
_cell_angle_gamma   108.55807664
_symmetry_Int_Tables_number   1
_chemical_formula_structural   LiV4(PO4)3
_chemical_formula_sum   'Li2 V8 P6 O24'
_cell_volume   446.64163070
_cell_formula_units_Z   2
loop_
 _symmetry_equiv_pos_site_id
 _symmetry_equiv_pos_as_xyz
  1  'x, y, z'
loop_
 _atom_site_type_symbol
 _atom_site_label
 _atom_site_symmetry_multiplicity
 _atom_site_fract_x
 _atom_site_fract_y
 _atom_site_fract_z
 _atom_site_occupancy
  Li  Li0  1  0.250000  0.500000  0.250000  1
  Li  Li1  1  0.500000  0.000000  0.500000  1
  V  V2  1  0.375000  0.250000  0.120006  1
  V  V3  1  0.772938  0.545876  0.227062  1
  V  V4  1  0.629994  0.750000  0.375000  1
  V  V5  1  0.875000  0.250000  0.629994  1
  V  V6  1  0.227062  0.454124  0.772938  1
  V  V7  1  0.977062  0.954124  0.522938  1
  V  V8  1  0.522938  0.045876  0.977062  1
  V  V9  1  0.120006  0.750000  0.875000  1
  P  P10  1  0.000000  0.000000  0.000000  1
  P  P11  1  0.875000  0.250000  0.227599  1
  P  P12  1  0.375000  0.250000  0.522401  1
  P  P13  1  0.227599  0.750000  0.375000  1
  P  P14  1  0.750000  0.500000  0.750000  1
  P  P15  1  0.522401  0.750000  0.875000  1
  O  O16  1  0.231072  0.084793  0.004683  1
  O  O17  1  0.669311  0.210283  0.130515  1
  O  O18  1  0.080689  0.289717  0.090798  1
  O  O19  1  0.619485  0.710283  0.080689  1
  O  O20  1  0.276893  0.121568  0.443915  1
  O  O21  1  0.473107  0.378432  0.315482  1
  O  O22  1  0.905326  0.378432  0.306085  1
  O  O23  1  0.844674  0.121568  0.434518  1
  O  O24  1  0.090798  0.710283  0.209028  1
  O  O25  1  0.910524  0.915207  0.231072  1
  O  O26  1  0.434518  0.878432  0.276893  1
  O  O27  1  0.209028  0.289717  0.619485  1
  O  O28  1  0.540972  0.210283  0.659202  1
  O  O29  1  0.306085  0.621568  0.473107  1
  O  O30  1  0.745317  0.584793  0.518928  1
  O  O31  1  0.896280  0.415207  0.745317  1
  O  O32  1  0.853720  0.084793  0.910524  1
  O  O33  1  0.130515  0.789717  0.540972  1
  O  O34  1  0.659202  0.789717  0.669311  1
  O  O35  1  0.518928  0.415207  0.839476  1
  O  O36  1  0.839476  0.584793  0.896280  1
  O  O37  1  0.315482  0.621568  0.905326  1
  O  O38  1  0.443915  0.878432  0.844674  1
  O  O39  1  0.004683  0.915207  0.853720  1
