# generated using pymatgen
data_Li4Nb3Fe5O16
_symmetry_space_group_name_H-M   'P 1'
_cell_length_a   6.12379928
_cell_length_b   6.10472263
_cell_length_c   9.84656574
_cell_angle_alpha   90.04353938
_cell_angle_beta   89.55742844
_cell_angle_gamma   119.89704489
_symmetry_Int_Tables_number   1
_chemical_formula_structural   Li4Nb3Fe5O16
_chemical_formula_sum   'Li4 Nb3 Fe5 O16'
_cell_volume   319.10690896
_cell_formula_units_Z   1
loop_
 _symmetry_equiv_pos_site_id
 _symmetry_equiv_pos_as_xyz
  1  'x, y, z'
loop_
 _atom_site_type_symbol
 _atom_site_label
 _atom_site_symmetry_multiplicity
 _atom_site_fract_x
 _atom_site_fract_y
 _atom_site_fract_z
 _atom_site_occupancy
  Li  Li0  1  0.343043  0.671342  0.900004  1
  Li  Li1  1  0.010608  0.005339  0.001796  1
  Li  Li2  1  0.025013  0.012449  0.491766  1
  Li  Li3  1  0.672208  0.336307  0.382783  1
  Nb  Nb4  1  0.654583  0.827249  0.217804  1
  Nb  Nb5  1  0.832289  0.663536  0.715418  1
  Nb  Nb6  1  0.827945  0.166032  0.712160  1
  Fe  Fe7  1  0.164703  0.824165  0.213143  1
  Fe  Fe8  1  0.309608  0.654586  0.486626  1
  Fe  Fe9  1  0.164752  0.340351  0.213251  1
  Fe  Fe10  1  0.341562  0.170272  0.718903  1
  Fe  Fe11  1  0.646562  0.322582  0.002741  1
  O  O12  1  0.143248  0.830049  0.604675  1
  O  O13  1  0.031336  0.515756  0.327110  1
  O  O14  1  0.341647  0.670660  0.101233  1
  O  O15  1  0.994633  0.997295  0.308428  1
  O  O16  1  0.979623  0.990388  0.819591  1
  O  O17  1  0.141726  0.313813  0.604896  1
  O  O18  1  0.488051  0.966694  0.332380  1
  O  O19  1  0.488208  0.521095  0.332247  1
  O  O20  1  0.321785  0.160637  0.100186  1
  O  O21  1  0.678321  0.839374  0.604934  1
  O  O22  1  0.538595  0.490787  0.844860  1
  O  O23  1  0.540957  0.048589  0.846201  1
  O  O24  1  0.692590  0.347291  0.598810  1
  O  O25  1  0.826445  0.669913  0.097433  1
  O  O26  1  0.973248  0.487446  0.830716  1
  O  O27  1  0.826709  0.156305  0.097745  1
