# generated using pymatgen
data_Li6CoCu3(PO4)4
_symmetry_space_group_name_H-M   'P 1'
_cell_length_a   5.07791608
_cell_length_b   6.26020455
_cell_length_c   10.45222691
_cell_angle_alpha   89.98179893
_cell_angle_beta   90.92786824
_cell_angle_gamma   89.86443538
_symmetry_Int_Tables_number   1
_chemical_formula_structural   Li6CoCu3(PO4)4
_chemical_formula_sum   'Li6 Co1 Cu3 P4 O16'
_cell_volume   332.21916180
_cell_formula_units_Z   1
loop_
 _symmetry_equiv_pos_site_id
 _symmetry_equiv_pos_as_xyz
  1  'x, y, z'
loop_
 _atom_site_type_symbol
 _atom_site_label
 _atom_site_symmetry_multiplicity
 _atom_site_fract_x
 _atom_site_fract_y
 _atom_site_fract_z
 _atom_site_occupancy
  Li  Li0  1  0.103296  0.488968  0.114640  1
  Li  Li1  1  0.103082  0.011053  0.114826  1
  Li  Li2  1  0.380210  0.494005  0.632898  1
  Li  Li3  1  0.379719  0.005950  0.632441  1
  Li  Li4  1  0.642136  0.996499  0.358141  1
  Li  Li5  1  0.642040  0.503859  0.358272  1
  Co  Co6  1  0.921462  0.243027  0.723808  1
  Cu  Cu7  1  0.144421  0.750125  0.341138  1
  Cu  Cu8  1  0.338285  0.751082  0.835776  1
  Cu  Cu9  1  0.647408  0.250127  0.138878  1
  P  P10  1  0.130589  0.250022  0.411408  1
  P  P11  1  0.385419  0.251344  0.888395  1
  P  P12  1  0.598303  0.750136  0.102606  1
  P  P13  1  0.871777  0.749540  0.598627  1
  O  O14  1  0.209634  0.250126  0.556227  1
  O  O15  1  0.176060  0.750615  0.617504  1
  O  O16  1  0.255104  0.051696  0.343521  1
  O  O17  1  0.254808  0.448083  0.343535  1
  O  O18  1  0.256892  0.059384  0.812519  1
  O  O19  1  0.256968  0.445248  0.815438  1
  O  O20  1  0.299135  0.750009  0.134436  1
  O  O21  1  0.285368  0.248846  0.029456  1
  O  O22  1  0.642380  0.750515  0.959599  1
  O  O23  1  0.686522  0.250051  0.884751  1
  O  O24  1  0.734683  0.550773  0.169507  1
  O  O25  1  0.734414  0.948952  0.169555  1
  O  O26  1  0.750894  0.956236  0.656815  1
  O  O27  1  0.753824  0.542905  0.656266  1
  O  O28  1  0.829573  0.250046  0.395008  1
  O  O29  1  0.800859  0.750777  0.450548  1
