# generated using pymatgen
data_Li6Cr5CuO12
_symmetry_space_group_name_H-M   'P 1'
_cell_length_a   5.09468784
_cell_length_b   5.09468800
_cell_length_c   9.99949180
_cell_angle_alpha   85.71621937
_cell_angle_beta   94.28442786
_cell_angle_gamma   59.93795144
_symmetry_Int_Tables_number   1
_chemical_formula_structural   Li6Cr5CuO12
_chemical_formula_sum   'Li6 Cr5 Cu1 O12'
_cell_volume   222.10613280
_cell_formula_units_Z   1
loop_
 _symmetry_equiv_pos_site_id
 _symmetry_equiv_pos_as_xyz
  1  'x, y, z'
loop_
 _atom_site_type_symbol
 _atom_site_label
 _atom_site_symmetry_multiplicity
 _atom_site_fract_x
 _atom_site_fract_y
 _atom_site_fract_z
 _atom_site_occupancy
  Li  Li0  1  0.114344  0.885633  0.251288  1
  Li  Li1  1  0.220704  0.448234  0.742188  1
  Li  Li2  1  0.551730  0.779323  0.742154  1
  Li  Li3  1  0.448224  0.220704  0.257802  1
  Li  Li4  1  0.779309  0.551730  0.257828  1
  Li  Li5  1  0.885642  0.114345  0.748708  1
  Cr  Cr6  1  0.833412  0.833428  0.500008  1
  Cr  Cr7  1  0.499991  0.499982  0.500017  1
  Cr  Cr8  1  0.166559  0.166563  0.500005  1
  Cr  Cr9  1  0.666717  0.666703  0.000004  1
  Cr  Cr10  1  0.333304  0.333332  0.999994  1
  Cu  Cu11  1  0.000087  0.000079  0.999986  1
  O  O12  1  0.198526  0.801459  0.610474  1
  O  O13  1  0.698423  0.964459  0.111844  1
  O  O14  1  0.035558  0.301587  0.111859  1
  O  O15  1  0.134995  0.531476  0.389319  1
  O  O16  1  0.468501  0.864991  0.389317  1
  O  O17  1  0.377458  0.622529  0.113839  1
  O  O18  1  0.622533  0.377449  0.886151  1
  O  O19  1  0.531467  0.134993  0.610702  1
  O  O20  1  0.864999  0.468511  0.610706  1
  O  O21  1  0.964462  0.698419  0.888145  1
  O  O22  1  0.301601  0.035548  0.888126  1
  O  O23  1  0.801457  0.198522  0.389534  1
