# generated using pymatgen
data_H3PbS2N3
_symmetry_space_group_name_H-M   'P 1'
_cell_length_a   5.89749264
_cell_length_b   16.72274888
_cell_length_c   6.23977837
_cell_angle_alpha   90.00000000
_cell_angle_beta   91.48536231
_cell_angle_gamma   90.00000000
_symmetry_Int_Tables_number   1
_chemical_formula_structural   H3PbS2N3
_chemical_formula_sum   'H12 Pb4 S8 N12'
_cell_volume   615.17444152
_cell_formula_units_Z   4
loop_
 _symmetry_equiv_pos_site_id
 _symmetry_equiv_pos_as_xyz
  1  'x, y, z'
loop_
 _atom_site_type_symbol
 _atom_site_label
 _atom_site_symmetry_multiplicity
 _atom_site_fract_x
 _atom_site_fract_y
 _atom_site_fract_z
 _atom_site_occupancy
  H  H0  1  0.943991  0.281233  0.825191  1
  H  H1  1  0.556009  0.781233  0.174809  1
  H  H2  1  0.056009  0.718767  0.174809  1
  H  H3  1  0.443991  0.218767  0.825191  1
  H  H4  1  0.145433  0.347315  0.782590  1
  H  H5  1  0.354567  0.847315  0.217410  1
  H  H6  1  0.854567  0.652685  0.217410  1
  H  H7  1  0.645433  0.152685  0.782590  1
  H  H8  1  0.029218  0.341319  0.022053  1
  H  H9  1  0.470782  0.841319  0.977947  1
  H  H10  1  0.970782  0.658681  0.977947  1
  H  H11  1  0.529218  0.158681  0.022053  1
  Pb  Pb12  1  0.687521  0.441855  0.776908  1
  Pb  Pb13  1  0.812479  0.941855  0.223092  1
  Pb  Pb14  1  0.312479  0.558145  0.223092  1
  Pb  Pb15  1  0.187521  0.058145  0.776908  1
  S  S16  1  0.786270  0.455586  0.345882  1
  S  S17  1  0.713730  0.955586  0.654118  1
  S  S18  1  0.213730  0.544414  0.654118  1
  S  S19  1  0.286270  0.044414  0.345882  1
  S  S20  1  0.475763  0.325553  0.379637  1
  S  S21  1  0.024237  0.825553  0.620363  1
  S  S22  1  0.524237  0.674447  0.620363  1
  S  S23  1  0.975763  0.174447  0.379637  1
  N  N24  1  0.627978  0.380905  0.233762  1
  N  N25  1  0.872022  0.880905  0.766238  1
  N  N26  1  0.372022  0.619095  0.766238  1
  N  N27  1  0.127978  0.119095  0.233762  1
  N  N28  1  0.475262  0.338780  0.621789  1
  N  N29  1  0.024738  0.838780  0.378211  1
  N  N30  1  0.524738  0.661220  0.378211  1
  N  N31  1  0.975262  0.161220  0.621789  1
  N  N32  1  0.996003  0.338498  0.861008  1
  N  N33  1  0.503997  0.838498  0.138992  1
  N  N34  1  0.003997  0.661502  0.138992  1
  N  N35  1  0.496003  0.161502  0.861008  1
