# generated using pymatgen
data_Ho2P4O13
_symmetry_space_group_name_H-M   'P 1'
_cell_length_a   9.46645896
_cell_length_b   9.46645896
_cell_length_c   8.60552172
_cell_angle_alpha   90.00000000
_cell_angle_beta   90.00000000
_cell_angle_gamma   136.26050696
_symmetry_Int_Tables_number   1
_chemical_formula_structural   Ho2P4O13
_chemical_formula_sum   'Ho4 P8 O26'
_cell_volume   533.17465002
_cell_formula_units_Z   2
loop_
 _symmetry_equiv_pos_site_id
 _symmetry_equiv_pos_as_xyz
  1  'x, y, z'
loop_
 _atom_site_type_symbol
 _atom_site_label
 _atom_site_symmetry_multiplicity
 _atom_site_fract_x
 _atom_site_fract_y
 _atom_site_fract_z
 _atom_site_occupancy
  Ho  Ho0  1  0.106656  0.400636  0.102758  1
  Ho  Ho1  1  0.599364  0.893344  0.897242  1
  Ho  Ho2  1  0.400636  0.106656  0.397242  1
  Ho  Ho3  1  0.893344  0.599364  0.602758  1
  P  P4  1  0.584611  0.904477  0.252572  1
  P  P5  1  0.095523  0.415388  0.747428  1
  P  P6  1  0.720215  0.836525  0.524545  1
  P  P7  1  0.163475  0.279785  0.475455  1
  P  P8  1  0.279785  0.163475  0.024545  1
  P  P9  1  0.836525  0.720215  0.975455  1
  P  P10  1  0.904477  0.584611  0.247428  1
  P  P11  1  0.415388  0.095523  0.752572  1
  O  O12  1  0.061815  0.938185  0.000000  1
  O  O13  1  0.068304  0.777617  0.348425  1
  O  O14  1  0.222383  0.931696  0.651575  1
  O  O15  1  0.527093  0.983408  0.358530  1
  O  O16  1  0.016592  0.472907  0.641470  1
  O  O17  1  0.418405  0.739955  0.135920  1
  O  O18  1  0.260045  0.581595  0.864080  1
  O  O19  1  0.158658  0.387144  0.351124  1
  O  O20  1  0.612856  0.841342  0.648876  1
  O  O21  1  0.616967  0.787316  0.358483  1
  O  O22  1  0.212684  0.383033  0.641517  1
  O  O23  1  0.697101  0.743409  0.953563  1
  O  O24  1  0.256591  0.302899  0.046437  1
  O  O25  1  0.743409  0.697101  0.546437  1
  O  O26  1  0.302899  0.256591  0.453563  1
  O  O27  1  0.787316  0.616967  0.141517  1
  O  O28  1  0.383033  0.212684  0.858483  1
  O  O29  1  0.841342  0.612856  0.851124  1
  O  O30  1  0.387144  0.158658  0.148876  1
  O  O31  1  0.739955  0.418405  0.364080  1
  O  O32  1  0.581595  0.260045  0.635920  1
  O  O33  1  0.472907  0.016592  0.858530  1
  O  O34  1  0.983408  0.527093  0.141470  1
  O  O35  1  0.931696  0.222383  0.848425  1
  O  O36  1  0.777617  0.068304  0.151575  1
  O  O37  1  0.938185  0.061815  0.500000  1
