# generated using pymatgen
data_Li2Cr3WO8
_symmetry_space_group_name_H-M   'P 1'
_cell_length_a   8.55303385
_cell_length_b   8.53284827
_cell_length_c   8.54068080
_cell_angle_alpha   90.13261254
_cell_angle_beta   90.01964028
_cell_angle_gamma   90.06631522
_symmetry_Int_Tables_number   1
_chemical_formula_structural   Li2Cr3WO8
_chemical_formula_sum   'Li8 Cr12 W4 O32'
_cell_volume   623.31162194
_cell_formula_units_Z   4
loop_
 _symmetry_equiv_pos_site_id
 _symmetry_equiv_pos_as_xyz
  1  'x, y, z'
loop_
 _atom_site_type_symbol
 _atom_site_label
 _atom_site_symmetry_multiplicity
 _atom_site_fract_x
 _atom_site_fract_y
 _atom_site_fract_z
 _atom_site_occupancy
  Li  Li0  1  0.994700  0.993838  0.993643  1
  Li  Li1  1  0.255306  0.256517  0.255540  1
  Li  Li2  1  0.243154  0.743488  0.756388  1
  Li  Li3  1  0.506243  0.006045  0.493990  1
  Li  Li4  1  0.493936  0.506293  0.006148  1
  Li  Li5  1  0.756109  0.243666  0.744503  1
  Li  Li6  1  0.743533  0.755665  0.243357  1
  Li  Li7  1  0.006796  0.494304  0.506655  1
  Cr  Cr8  1  0.122939  0.125657  0.625602  1
  Cr  Cr9  1  0.125583  0.375755  0.874591  1
  Cr  Cr10  1  0.126510  0.624965  0.123460  1
  Cr  Cr11  1  0.371932  0.376389  0.623468  1
  Cr  Cr12  1  0.375850  0.622781  0.373930  1
  Cr  Cr13  1  0.375913  0.872409  0.124584  1
  Cr  Cr14  1  0.622920  0.373634  0.372925  1
  Cr  Cr15  1  0.625636  0.124455  0.125492  1
  Cr  Cr16  1  0.626516  0.876033  0.877651  1
  Cr  Cr17  1  0.873069  0.125249  0.377097  1
  Cr  Cr18  1  0.876698  0.875863  0.627413  1
  Cr  Cr19  1  0.876691  0.627060  0.873687  1
  W  W20  1  0.124856  0.874548  0.374816  1
  W  W21  1  0.374634  0.124885  0.875066  1
  W  W22  1  0.624934  0.624805  0.625574  1
  W  W23  1  0.875306  0.375528  0.124779  1
  O  O24  1  0.113830  0.110404  0.385582  1
  O  O25  1  0.112456  0.885026  0.613725  1
  O  O26  1  0.109058  0.609264  0.890914  1
  O  O27  1  0.136718  0.135165  0.862789  1
  O  O28  1  0.113355  0.386459  0.114601  1
  O  O29  1  0.140787  0.359212  0.640561  1
  O  O30  1  0.137695  0.639393  0.366289  1
  O  O31  1  0.136157  0.863689  0.136599  1
  O  O32  1  0.366545  0.136335  0.642235  1
  O  O33  1  0.364386  0.360887  0.863893  1
  O  O34  1  0.359068  0.640412  0.140655  1
  O  O35  1  0.386987  0.612933  0.614955  1
  O  O36  1  0.357831  0.865569  0.364699  1
  O  O37  1  0.390709  0.389963  0.390501  1
  O  O38  1  0.385794  0.115017  0.107672  1
  O  O39  1  0.384530  0.889175  0.887247  1
  O  O40  1  0.616155  0.392994  0.613432  1
  O  O41  1  0.613992  0.614311  0.388051  1
  O  O42  1  0.609255  0.890677  0.109663  1
  O  O43  1  0.636433  0.364706  0.137081  1
  O  O44  1  0.613388  0.113712  0.885420  1
  O  O45  1  0.640489  0.140180  0.359637  1
  O  O46  1  0.635749  0.857255  0.634057  1
  O  O47  1  0.634516  0.637574  0.861545  1
  O  O48  1  0.865887  0.363126  0.358643  1
  O  O49  1  0.864118  0.140380  0.136036  1
  O  O50  1  0.859034  0.859744  0.859515  1
  O  O51  1  0.892289  0.886495  0.383785  1
  O  O52  1  0.863205  0.635549  0.636100  1
  O  O53  1  0.890585  0.109762  0.609529  1
  O  O54  1  0.885391  0.385194  0.891284  1
  O  O55  1  0.883841  0.609741  0.113085  1
