# generated using pymatgen
data_Li10Zn3(GeO4)4
_symmetry_space_group_name_H-M   'P 1'
_cell_length_a   10.99876996
_cell_length_b   6.39117048
_cell_length_c   5.23128469
_cell_angle_alpha   89.57667937
_cell_angle_beta   90.37444918
_cell_angle_gamma   89.78523801
_symmetry_Int_Tables_number   1
_chemical_formula_structural   Li10Zn3(GeO4)4
_chemical_formula_sum   'Li10 Zn3 Ge4 O16'
_cell_volume   367.71269012
_cell_formula_units_Z   1
loop_
 _symmetry_equiv_pos_site_id
 _symmetry_equiv_pos_as_xyz
  1  'x, y, z'
loop_
 _atom_site_type_symbol
 _atom_site_label
 _atom_site_symmetry_multiplicity
 _atom_site_fract_x
 _atom_site_fract_y
 _atom_site_fract_z
 _atom_site_occupancy
  Li  Li0  1  0.072000  0.254666  0.690897  1
  Li  Li1  1  0.164252  0.502810  0.322782  1
  Li  Li2  1  0.331545  0.003838  0.821809  1
  Li  Li3  1  0.424589  0.756622  0.192606  1
  Li  Li4  1  0.581059  0.235829  0.806350  1
  Li  Li5  1  0.662293  0.001549  0.192008  1
  Li  Li6  1  0.808353  0.778247  0.983057  1
  Li  Li7  1  0.832611  0.026485  0.643994  1
  Li  Li8  1  0.836269  0.479295  0.658943  1
  Li  Li9  1  0.935269  0.750086  0.358927  1
  Zn  Zn10  1  0.165523  0.998176  0.323704  1
  Zn  Zn11  1  0.330562  0.497618  0.819465  1
  Zn  Zn12  1  0.661411  0.492968  0.195142  1
  Ge  Ge13  1  0.081430  0.750685  0.829895  1
  Ge  Ge14  1  0.411114  0.251179  0.324568  1
  Ge  Ge15  1  0.586998  0.750720  0.685136  1
  Ge  Ge16  1  0.913022  0.242332  0.158333  1
  O  O17  1  0.061999  0.252897  0.296120  1
  O  O18  1  0.087887  0.749803  0.171790  1
  O  O19  1  0.159573  0.524944  0.711225  1
  O  O20  1  0.160228  0.975695  0.712173  1
  O  O21  1  0.335689  0.023523  0.210835  1
  O  O22  1  0.335953  0.480606  0.210279  1
  O  O23  1  0.412906  0.250537  0.666224  1
  O  O24  1  0.434493  0.753286  0.796214  1
  O  O25  1  0.561766  0.241716  0.205639  1
  O  O26  1  0.588559  0.748563  0.342086  1
  O  O27  1  0.668201  0.524554  0.801504  1
  O  O28  1  0.671855  0.964830  0.804622  1
  O  O29  1  0.838082  0.009188  0.265691  1
  O  O30  1  0.837921  0.480597  0.271480  1
  O  O31  1  0.912308  0.247859  0.821801  1
  O  O32  1  0.927881  0.748295  0.725799  1
