# generated using pymatgen
data_Li6CuS4
_symmetry_space_group_name_H-M   'P 1'
_cell_length_a   7.99077701
_cell_length_b   7.99117151
_cell_length_c   5.67824387
_cell_angle_alpha   90.00423786
_cell_angle_beta   89.99918961
_cell_angle_gamma   90.00079661
_symmetry_Int_Tables_number   1
_chemical_formula_structural   Li6CuS4
_chemical_formula_sum   'Li12 Cu2 S8'
_cell_volume   362.58806340
_cell_formula_units_Z   2
loop_
 _symmetry_equiv_pos_site_id
 _symmetry_equiv_pos_as_xyz
  1  'x, y, z'
loop_
 _atom_site_type_symbol
 _atom_site_label
 _atom_site_symmetry_multiplicity
 _atom_site_fract_x
 _atom_site_fract_y
 _atom_site_fract_z
 _atom_site_occupancy
  Li  Li0  1  0.026650  0.526663  0.750006  1
  Li  Li1  1  0.026672  0.973377  0.750016  1
  Li  Li2  1  0.250012  0.250008  0.703670  1
  Li  Li3  1  0.250003  0.250006  0.203593  1
  Li  Li4  1  0.473357  0.526659  0.750000  1
  Li  Li5  1  0.473361  0.973343  0.749994  1
  Li  Li6  1  0.526717  0.026697  0.249996  1
  Li  Li7  1  0.526699  0.473305  0.249993  1
  Li  Li8  1  0.750007  0.750005  0.296441  1
  Li  Li9  1  0.750019  0.750008  0.796361  1
  Li  Li10  1  0.973306  0.026695  0.249997  1
  Li  Li11  1  0.973303  0.473316  0.249988  1
  Cu  Cu12  1  0.249991  0.750000  0.249991  1
  Cu  Cu13  1  0.750017  0.250019  0.749924  1
  S  S14  1  0.005222  0.250026  0.953412  1
  S  S15  1  0.250017  0.005172  0.453343  1
  S  S16  1  0.250008  0.494832  0.453362  1
  S  S17  1  0.494797  0.250007  0.953401  1
  S  S18  1  0.505191  0.749991  0.046670  1
  S  S19  1  0.750015  0.994776  0.546602  1
  S  S20  1  0.749992  0.505265  0.546576  1
  S  S21  1  0.994823  0.750011  0.046658  1
