# generated using pymatgen
data_LiCo2(PO4)2
_symmetry_space_group_name_H-M   'P 1'
_cell_length_a   8.43344418
_cell_length_b   5.28068647
_cell_length_c   16.56874366
_cell_angle_alpha   90.00000000
_cell_angle_beta   105.26015907
_cell_angle_gamma   90.00000000
_symmetry_Int_Tables_number   1
_chemical_formula_structural   LiCo2(PO4)2
_chemical_formula_sum   'Li4 Co8 P8 O32'
_cell_volume   711.86153080
_cell_formula_units_Z   4
loop_
 _symmetry_equiv_pos_site_id
 _symmetry_equiv_pos_as_xyz
  1  'x, y, z'
loop_
 _atom_site_type_symbol
 _atom_site_label
 _atom_site_symmetry_multiplicity
 _atom_site_fract_x
 _atom_site_fract_y
 _atom_site_fract_z
 _atom_site_occupancy
  Li  Li0  1  0.080321  0.852441  0.484341  1
  Li  Li1  1  0.580321  0.147559  0.984341  1
  Li  Li2  1  0.280598  0.339298  0.250368  1
  Li  Li3  1  0.780598  0.660702  0.750368  1
  Co  Co4  1  0.205496  0.314572  0.937704  1
  Co  Co5  1  0.221597  0.335823  0.433507  1
  Co  Co6  1  0.377377  0.816081  0.687576  1
  Co  Co7  1  0.721597  0.664177  0.933507  1
  Co  Co8  1  0.378431  0.825524  0.180052  1
  Co  Co9  1  0.705496  0.685428  0.437704  1
  Co  Co10  1  0.878431  0.174476  0.680052  1
  Co  Co11  1  0.877377  0.183919  0.187576  1
  P  P12  1  0.002122  0.669570  0.620395  1
  P  P13  1  0.338098  0.816640  0.874391  1
  P  P14  1  0.005768  0.677509  0.121314  1
  P  P15  1  0.331938  0.830844  0.367844  1
  P  P16  1  0.505768  0.322491  0.621314  1
  P  P17  1  0.831938  0.169156  0.867844  1
  P  P18  1  0.502122  0.330430  0.120395  1
  P  P19  1  0.838098  0.183360  0.374391  1
  O  O20  1  0.000993  0.192006  0.935977  1
  O  O21  1  0.030785  0.391232  0.643944  1
  O  O22  1  0.213696  0.651668  0.905666  1
  O  O23  1  0.009164  0.189428  0.438581  1
  O  O24  1  0.164918  0.794591  0.610965  1
  O  O25  1  0.274301  0.093913  0.862436  1
  O  O26  1  0.038657  0.411144  0.167423  1
  O  O27  1  0.351441  0.707519  0.789728  1
  O  O28  1  0.202262  0.704703  0.406509  1
  O  O29  1  0.509164  0.810572  0.938581  1
  O  O30  1  0.165583  0.767734  0.104010  1
  O  O31  1  0.454561  0.140934  0.685643  1
  O  O32  1  0.288070  0.115495  0.349364  1
  O  O33  1  0.365031  0.335265  0.542638  1
  O  O34  1  0.344480  0.690342  0.288021  1
  O  O35  1  0.538657  0.588856  0.667423  1
  O  O36  1  0.702262  0.295297  0.906509  1
  O  O37  1  0.500993  0.807994  0.435977  1
  O  O38  1  0.427876  0.190923  0.184312  1
  O  O39  1  0.390794  0.288501  0.029087  1
  O  O40  1  0.665583  0.232266  0.604010  1
  O  O41  1  0.788070  0.884505  0.849364  1
  O  O42  1  0.530785  0.608768  0.143944  1
  O  O43  1  0.844480  0.309658  0.788021  1
  O  O44  1  0.713696  0.348332  0.405666  1
  O  O45  1  0.664918  0.205409  0.110965  1
  O  O46  1  0.927876  0.809077  0.684312  1
  O  O47  1  0.774301  0.906087  0.362436  1
  O  O48  1  0.890794  0.711499  0.529087  1
  O  O49  1  0.851441  0.292481  0.289728  1
  O  O50  1  0.954561  0.859066  0.185643  1
  O  O51  1  0.865031  0.664735  0.042638  1
