# generated using pymatgen
data_LiCuBO3
_symmetry_space_group_name_H-M   'P 1'
_cell_length_a   14.13012031
_cell_length_b   14.07991060
_cell_length_c   3.14218548
_cell_angle_alpha   88.59013802
_cell_angle_beta   91.07711745
_cell_angle_gamma   120.16954206
_symmetry_Int_Tables_number   1
_chemical_formula_structural   LiCuBO3
_chemical_formula_sum   'Li9 Cu9 B9 O27'
_cell_volume   540.28161054
_cell_formula_units_Z   9
loop_
 _symmetry_equiv_pos_site_id
 _symmetry_equiv_pos_as_xyz
  1  'x, y, z'
loop_
 _atom_site_type_symbol
 _atom_site_label
 _atom_site_symmetry_multiplicity
 _atom_site_fract_x
 _atom_site_fract_y
 _atom_site_fract_z
 _atom_site_occupancy
  Li  Li0  1  0.097820  0.876039  0.515882  1
  Li  Li1  1  0.108592  0.561176  0.484280  1
  Li  Li2  1  0.452684  0.891678  0.556197  1
  Li  Li3  1  0.123326  0.220567  0.506387  1
  Li  Li4  1  0.437905  0.547788  0.452273  1
  Li  Li5  1  0.447789  0.249763  0.501984  1
  Li  Li6  1  0.778658  0.903585  0.487840  1
  Li  Li7  1  0.801212  0.551769  0.490267  1
  Li  Li8  1  0.749158  0.197715  0.502980  1
  Cu  Cu9  1  0.244681  0.788581  0.063851  1
  Cu  Cu10  1  0.206465  0.452797  0.009337  1
  Cu  Cu11  1  0.214863  0.097751  0.996031  1
  Cu  Cu12  1  0.546516  0.755446  0.939792  1
  Cu  Cu13  1  0.580021  0.466920  0.968524  1
  Cu  Cu14  1  0.532536  0.113987  0.039807  1
  Cu  Cu15  1  0.881496  0.783785  0.967567  1
  Cu  Cu16  1  0.883258  0.418931  0.968093  1
  Cu  Cu17  1  0.900499  0.118214  0.027749  1
  B  B18  1  0.006610  0.665594  0.996904  1
  B  B19  1  0.333148  0.667120  0.998326  1
  B  B20  1  0.333288  0.341678  0.989685  1
  B  B21  1  0.657847  0.992610  0.013898  1
  B  B22  1  0.330418  0.007381  0.532014  1
  B  B23  1  0.677211  0.669232  0.463341  1
  B  B24  1  0.666372  0.333135  0.001049  1
  B  B25  1  0.999931  0.000117  0.008128  1
  B  B26  1  0.990791  0.322054  0.508749  1
  O  O27  1  0.028007  0.918930  0.014240  1
  O  O28  1  0.009845  0.568863  0.961212  1
  O  O29  1  0.100057  0.764724  0.087566  1
  O  O30  1  0.317558  0.903952  0.553165  1
  O  O31  1  0.094161  0.412291  0.510894  1
  O  O32  1  0.220832  0.600159  0.998512  1
  O  O33  1  0.377301  0.778064  0.056818  1
  O  O34  1  0.081630  0.109329  0.029506  1
  O  O35  1  0.557969  0.987475  0.061629  1
  O  O36  1  0.234316  0.334609  0.078255  1
  O  O37  1  0.399992  0.623717  0.940075  1
  O  O38  1  0.665411  0.901681  0.903141  1
  O  O39  1  0.337556  0.246098  0.942475  1
  O  O40  1  0.429766  0.442395  0.952691  1
  O  O41  1  0.240304  0.022523  0.518612  1
  O  O42  1  0.587504  0.683066  0.452530  1
  O  O43  1  0.663938  0.563848  0.470149  1
  O  O44  1  0.435504  0.099973  0.523073  1
  O  O45  1  0.891315  0.972331  0.978935  1
  O  O46  1  0.782996  0.760054  0.468901  1
  O  O47  1  0.561560  0.317784  0.013259  1
  O  O48  1  0.681928  0.244130  0.978890  1
  O  O49  1  0.756052  0.438547  0.010382  1
  O  O50  1  0.906641  0.661094  0.944731  1
  O  O51  1  0.753176  0.092475  0.072163  1
  O  O52  1  0.899371  0.335060  0.496437  1
  O  O53  1  0.976681  0.216329  0.516641  1
