# generated using pymatgen
data_Li7VO5F
_symmetry_space_group_name_H-M   'P 1'
_cell_length_a   5.55790409
_cell_length_b   6.07376141
_cell_length_c   5.37102552
_cell_angle_alpha   118.48532363
_cell_angle_beta   122.51103427
_cell_angle_gamma   59.92948336
_symmetry_Int_Tables_number   1
_chemical_formula_structural   Li7VO5F
_chemical_formula_sum   'Li7 V1 O5 F1'
_cell_volume   126.85116300
_cell_formula_units_Z   1
loop_
 _symmetry_equiv_pos_site_id
 _symmetry_equiv_pos_as_xyz
  1  'x, y, z'
loop_
 _atom_site_type_symbol
 _atom_site_label
 _atom_site_symmetry_multiplicity
 _atom_site_fract_x
 _atom_site_fract_y
 _atom_site_fract_z
 _atom_site_occupancy
  Li  Li0  1  0.252954  0.383651  0.533615  1
  Li  Li1  1  0.106718  0.632597  0.229346  1
  Li  Li2  1  0.668649  0.009249  0.335594  1
  Li  Li3  1  0.301901  0.981069  0.655123  1
  Li  Li4  1  0.523735  0.363165  0.092870  1
  Li  Li5  1  0.847395  0.369929  0.752284  1
  Li  Li6  1  0.763138  0.657854  0.507071  1
  V  V7  1  0.041846  0.010087  0.008503  1
  O  O8  1  0.074684  0.772576  0.603699  1
  O  O9  1  0.242522  0.234970  0.087553  1
  O  O10  1  0.648000  0.188600  0.764231  1
  O  O11  1  0.351226  0.764303  0.223368  1
  O  O12  1  0.925776  0.252401  0.392200  1
  F  F13  1  0.753886  0.745381  0.899945  1
