# generated using pymatgen
data_Na2NiPCO7
_symmetry_space_group_name_H-M   'P 1'
_cell_length_a   10.25018152
_cell_length_b   10.48491138
_cell_length_c   6.52318740
_cell_angle_alpha   90.00000000
_cell_angle_beta   90.00000000
_cell_angle_gamma   60.09488064
_symmetry_Int_Tables_number   1
_chemical_formula_structural   Na2NiPCO7
_chemical_formula_sum   'Na8 Ni4 P4 C4 O28'
_cell_volume   607.71678889
_cell_formula_units_Z   4
loop_
 _symmetry_equiv_pos_site_id
 _symmetry_equiv_pos_as_xyz
  1  'x, y, z'
loop_
 _atom_site_type_symbol
 _atom_site_label
 _atom_site_symmetry_multiplicity
 _atom_site_fract_x
 _atom_site_fract_y
 _atom_site_fract_z
 _atom_site_occupancy
  Na  Na0  1  0.005386  0.258426  0.482448  1
  Na  Na1  1  0.006912  0.257009  0.016237  1
  Na  Na2  1  0.493188  0.238341  0.980961  1
  Na  Na3  1  0.849055  0.062069  0.752832  1
  Na  Na4  1  0.349055  0.562069  0.747168  1
  Na  Na5  1  0.505386  0.758426  0.017552  1
  Na  Na6  1  0.506912  0.757009  0.483763  1
  Na  Na7  1  0.993188  0.738341  0.519039  1
  Ni  Ni8  1  0.285413  0.061979  0.750189  1
  Ni  Ni9  1  0.216676  0.438402  0.247833  1
  Ni  Ni10  1  0.785413  0.561979  0.749811  1
  Ni  Ni11  1  0.716676  0.938402  0.252167  1
  P  P12  1  0.352980  0.073219  0.252150  1
  P  P13  1  0.146332  0.431232  0.749300  1
  P  P14  1  0.852980  0.573219  0.247850  1
  P  P15  1  0.646332  0.931232  0.750700  1
  C  C16  1  0.822905  0.108723  0.252322  1
  C  C17  1  0.322905  0.608723  0.247678  1
  C  C18  1  0.680135  0.390552  0.754337  1
  C  C19  1  0.180135  0.890552  0.745663  1
  O  O20  1  0.097814  0.034303  0.750064  1
  O  O21  1  0.268744  0.058146  0.063482  1
  O  O22  1  0.268384  0.058613  0.439863  1
  O  O23  1  0.145420  0.284498  0.745839  1
  O  O24  1  0.018742  0.441693  0.247587  1
  O  O25  1  0.478502  0.058513  0.751188  1
  O  O26  1  0.352410  0.219954  0.247930  1
  O  O27  1  0.235042  0.440905  0.935778  1
  O  O28  1  0.221525  0.457947  0.560426  1
  O  O29  1  0.678998  0.152626  0.244872  1
  O  O30  1  0.178998  0.652626  0.255128  1
  O  O31  1  0.406698  0.466421  0.239042  1
  O  O32  1  0.621897  0.309047  0.762893  1
  O  O33  1  0.121898  0.809047  0.737107  1
  O  O34  1  0.874185  0.195683  0.250349  1
  O  O35  1  0.374185  0.695683  0.249651  1
  O  O36  1  0.597814  0.534303  0.749936  1
  O  O37  1  0.825465  0.338571  0.749589  1
  O  O38  1  0.325465  0.838571  0.750411  1
  O  O39  1  0.768384  0.558613  0.060137  1
  O  O40  1  0.768744  0.558146  0.436518  1
  O  O41  1  0.645420  0.784498  0.754161  1
  O  O42  1  0.518742  0.941693  0.252413  1
  O  O43  1  0.978502  0.558513  0.748812  1
  O  O44  1  0.852410  0.719954  0.252070  1
  O  O45  1  0.735042  0.940905  0.564222  1
  O  O46  1  0.721525  0.957947  0.939574  1
  O  O47  1  0.906698  0.966421  0.260958  1
