# generated using pymatgen
data_Li8V3P8O29
_symmetry_space_group_name_H-M   'P 1'
_cell_length_a   9.90819642
_cell_length_b   9.91427807
_cell_length_c   13.90040604
_cell_angle_alpha   89.95959861
_cell_angle_beta   89.52630032
_cell_angle_gamma   59.95762561
_symmetry_Int_Tables_number   1
_chemical_formula_structural   Li8V3P8O29
_chemical_formula_sum   'Li16 V6 P16 O58'
_cell_volume   1181.97954904
_cell_formula_units_Z   2
loop_
 _symmetry_equiv_pos_site_id
 _symmetry_equiv_pos_as_xyz
  1  'x, y, z'
loop_
 _atom_site_type_symbol
 _atom_site_label
 _atom_site_symmetry_multiplicity
 _atom_site_fract_x
 _atom_site_fract_y
 _atom_site_fract_z
 _atom_site_occupancy
  Li  Li0  1  0.909322  0.763137  0.065290  1
  Li  Li1  1  0.766251  0.896612  0.567129  1
  Li  Li2  1  0.909300  0.327769  0.565606  1
  Li  Li3  1  0.671463  0.668977  0.382343  1
  Li  Li4  1  0.671492  0.659594  0.882191  1
  Li  Li5  1  0.766592  0.337203  0.066904  1
  Li  Li6  1  0.322536  0.906541  0.061603  1
  Li  Li7  1  0.322721  0.770839  0.561761  1
  Li  Li8  1  0.226865  0.681144  0.934427  1
  Li  Li9  1  0.350298  0.332048  0.615690  1
  Li  Li10  1  0.350311  0.317711  0.115374  1
  Li  Li11  1  0.092056  0.675881  0.435517  1
  Li  Li12  1  0.226769  0.092008  0.434437  1
  Li  Li13  1  0.091986  0.232262  0.935319  1
  Li  Li14  1  0.905113  0.022285  0.981278  1
  Li  Li15  1  0.905369  0.072142  0.481562  1
  V  V16  1  0.565326  0.430534  0.253589  1
  V  V17  1  0.438095  0.564081  0.749349  1
  V  V18  1  0.565383  0.003804  0.753492  1
  V  V19  1  0.438091  0.997837  0.249178  1
  V  V20  1  0.000110  0.565066  0.247280  1
  V  V21  1  0.000229  0.434907  0.747259  1
  P  P22  1  0.906708  0.774114  0.842548  1
  P  P23  1  0.772305  0.910486  0.349114  1
  P  P24  1  0.906560  0.319101  0.342628  1
  P  P25  1  0.666023  0.661361  0.124327  1
  P  P26  1  0.665865  0.672488  0.624346  1
  P  P27  1  0.772387  0.316927  0.849085  1
  P  P28  1  0.693628  0.219462  0.663692  1
  P  P29  1  0.318014  0.911597  0.841487  1
  P  P30  1  0.693542  0.087010  0.163718  1
  P  P31  1  0.318014  0.770320  0.341328  1
  P  P32  1  0.233341  0.678045  0.153722  1
  P  P33  1  0.329519  0.336561  0.374833  1
  P  P34  1  0.329724  0.333726  0.874733  1
  P  P35  1  0.093094  0.678616  0.656327  1
  P  P36  1  0.233388  0.088797  0.653768  1
  P  P37  1  0.092979  0.228566  0.156399  1
  O  O38  1  0.998499  0.761271  0.568807  1
  O  O39  1  0.921626  0.750903  0.337814  1
  O  O40  1  0.802858  0.984619  0.085442  1
  O  O41  1  0.745272  0.920313  0.840478  1
  O  O42  1  0.890534  0.628313  0.834472  1
  O  O43  1  0.814939  0.664852  0.157077  1
  O  O44  1  0.890203  0.481086  0.334574  1
  O  O45  1  0.998319  0.241042  0.068753  1
  O  O46  1  0.921603  0.327462  0.837797  1
  O  O47  1  0.668639  0.817386  0.671620  1
  O  O48  1  0.630134  0.889040  0.333050  1
  O  O49  1  0.814787  0.520030  0.657353  1
  O  O50  1  0.664087  0.645831  0.016407  1
  O  O51  1  0.663719  0.689968  0.516624  1
  O  O52  1  0.668712  0.513758  0.171647  1
  O  O53  1  0.484591  0.888947  0.830024  1
  O  O54  1  0.517124  0.809673  0.160967  1
  O  O55  1  0.745422  0.333789  0.340530  1
  O  O56  1  0.777489  0.201923  0.765534  1
  O  O57  1  0.802951  0.212496  0.585532  1
  O  O58  1  0.773599  0.240199  0.942610  1
  O  O59  1  0.630124  0.480817  0.832741  1
  O  O60  1  0.516954  0.673336  0.661262  1
  O  O61  1  0.669642  0.253179  0.158336  1
  O  O62  1  0.484404  0.626265  0.329928  1
  O  O63  1  0.328647  0.919290  0.341299  1
  O  O64  1  0.777293  0.020591  0.265553  1
  O  O65  1  0.773848  0.985984  0.442748  1
  O  O66  1  0.241369  0.996526  0.565279  1
  O  O67  1  0.669666  0.077183  0.658446  1
  O  O68  1  0.532171  0.368121  0.666518  1
  O  O69  1  0.328543  0.751993  0.841446  1
  O  O70  1  0.473865  0.340736  0.324642  1
  O  O71  1  0.379402  0.514895  0.166514  1
  O  O72  1  0.241581  0.762284  0.065034  1
  O  O73  1  0.233248  0.762014  0.430105  1
  O  O74  1  0.218116  0.781172  0.247674  1
  O  O75  1  0.252791  0.668845  0.655965  1
  O  O76  1  0.474064  0.185216  0.824469  1
  O  O77  1  0.532183  0.099747  0.166552  1
  O  O78  1  0.331287  0.481626  0.838324  1
  O  O79  1  0.339245  0.319925  0.981918  1
  O  O80  1  0.339697  0.340752  0.482303  1
  O  O81  1  0.182889  0.485379  0.338491  1
  O  O82  1  0.379450  0.105910  0.666444  1
  O  O83  1  0.331170  0.187193  0.338641  1
  O  O84  1  0.086192  0.664415  0.153012  1
  O  O85  1  0.002398  0.782127  0.750273  1
  O  O86  1  0.993894  0.779204  0.931400  1
  O  O87  1  0.118827  0.512654  0.669815  1
  O  O88  1  0.183038  0.331750  0.838150  1
  O  O89  1  0.118622  0.368736  0.170037  1
  O  O90  1  0.252675  0.078556  0.155736  1
  O  O91  1  0.233256  0.004687  0.930029  1
  O  O92  1  0.218305  0.000873  0.747791  1
  O  O93  1  0.086206  0.249780  0.653179  1
  O  O94  1  0.993860  0.226611  0.431600  1
  O  O95  1  0.002520  0.215364  0.250398  1
