# generated using pymatgen
data_Fe3(O2F)2
_symmetry_space_group_name_H-M   'P 1'
_cell_length_a   4.77142700
_cell_length_b   7.69707619
_cell_length_c   5.64156600
_cell_angle_alpha   96.07058040
_cell_angle_beta   94.77267687
_cell_angle_gamma   86.48396371
_symmetry_Int_Tables_number   1
_chemical_formula_structural   Fe3(O2F)2
_chemical_formula_sum   'Fe6 O8 F4'
_cell_volume   205.02745893
_cell_formula_units_Z   2
loop_
 _symmetry_equiv_pos_site_id
 _symmetry_equiv_pos_as_xyz
  1  'x, y, z'
loop_
 _atom_site_type_symbol
 _atom_site_label
 _atom_site_symmetry_multiplicity
 _atom_site_fract_x
 _atom_site_fract_y
 _atom_site_fract_z
 _atom_site_occupancy
  Fe  Fe0  1  0.492715  0.663993  0.170777  1
  Fe  Fe1  1  0.530780  0.010094  0.479743  1
  Fe  Fe2  1  0.527873  0.342360  0.815174  1
  Fe  Fe3  1  0.988171  0.657451  0.669368  1
  Fe  Fe4  1  0.980551  0.325098  0.345815  1
  Fe  Fe5  1  0.993689  0.005163  0.010402  1
  O  O6  1  0.812011  0.438534  0.625154  1
  O  O7  1  0.810949  0.102029  0.288532  1
  O  O8  1  0.695701  0.100151  0.793230  1
  O  O9  1  0.691313  0.768290  0.463298  1
  O  O10  1  0.696503  0.438991  0.128955  1
  O  O11  1  0.306680  0.567987  0.871878  1
  O  O12  1  0.307934  0.230078  0.535942  1
  O  O13  1  0.305588  0.895664  0.204172  1
  F  F14  1  0.803038  0.768174  0.967643  1
  F  F15  1  0.191114  0.232577  0.042679  1
  F  F16  1  0.192568  0.562952  0.370035  1
  F  F17  1  0.172820  0.890411  0.717203  1
