# generated using pymatgen
data_CoPH3O5
_symmetry_space_group_name_H-M   'P 1'
_cell_length_a   10.39608932
_cell_length_b   9.91867574
_cell_length_c   9.79151434
_cell_angle_alpha   109.30932168
_cell_angle_beta   110.17716896
_cell_angle_gamma   118.42991620
_symmetry_Int_Tables_number   1
_chemical_formula_structural   CoPH3O5
_chemical_formula_sum   'Co6 P6 H18 O30'
_cell_volume   667.00833657
_cell_formula_units_Z   6
loop_
 _symmetry_equiv_pos_site_id
 _symmetry_equiv_pos_as_xyz
  1  'x, y, z'
loop_
 _atom_site_type_symbol
 _atom_site_label
 _atom_site_symmetry_multiplicity
 _atom_site_fract_x
 _atom_site_fract_y
 _atom_site_fract_z
 _atom_site_occupancy
  Co  Co0  1  0.700372  0.999897  0.453031  1
  Co  Co1  1  0.012205  0.459518  0.805276  1
  Co  Co2  1  0.532800  0.725908  0.789698  1
  Co  Co3  1  0.184812  0.894873  0.469271  1
  Co  Co4  1  0.810097  0.421909  0.111207  1
  Co  Co5  1  0.413287  0.157662  0.832838  1
  P  P6  1  0.668900  0.290248  0.731645  1
  P  P7  1  0.228129  0.722841  0.718504  1
  P  P8  1  0.778894  0.724175  0.310896  1
  P  P9  1  0.265273  0.620977  0.229059  1
  P  P10  1  0.620917  0.172029  0.236626  1
  P  P11  1  0.230667  0.311559  0.646161  1
  H  H12  1  0.655511  0.518631  0.940891  1
  H  H13  1  0.586109  0.862300  0.622048  1
  H  H14  1  0.807817  0.673261  0.646952  1
  H  H15  1  0.502215  0.480390  0.188119  1
  H  H16  1  0.516018  0.249269  0.472902  1
  H  H17  1  0.091272  0.429828  0.484062  1
  H  H18  1  0.260218  0.114943  0.917393  1
  H  H19  1  0.178976  0.936640  0.336860  1
  H  H20  1  0.143309  0.588908  0.374672  1
  H  H21  1  0.745402  0.842478  0.168961  1
  H  H22  1  0.673173  0.049728  0.809101  1
  H  H23  1  0.815224  0.407257  0.524870  1
  H  H24  1  0.870904  0.907582  0.587443  1
  H  H25  1  0.854442  0.668496  0.811329  1
  H  H26  1  0.722260  0.809159  0.913372  1
  H  H27  1  0.110111  0.117304  0.356013  1
  H  H28  1  0.133179  0.322919  0.091487  1
  H  H29  1  0.327163  0.127135  0.998215  1
  O  O30  1  0.456209  0.082662  0.632258  1
  O  O31  1  0.160007  0.561194  0.520341  1
  O  O32  1  0.602119  0.495736  0.187047  1
  O  O33  1  0.450830  0.805456  0.397667  1
  O  O34  1  0.785555  0.392091  0.411677  1
  O  O35  1  0.434893  0.497898  0.760225  1
  O  O36  1  0.757865  0.253022  0.880447  1
  O  O37  1  0.241291  0.868927  0.686033  1
  O  O38  1  0.918560  0.678095  0.307202  1
  O  O39  1  0.204387  0.593102  0.051349  1
  O  O40  1  0.672485  0.056571  0.274896  1
  O  O41  1  0.118077  0.348925  0.688848  1
  O  O42  1  0.743430  0.226151  0.609817  1
  O  O43  1  0.083344  0.636689  0.748442  1
  O  O44  1  0.816479  0.802920  0.190975  1
  O  O45  1  0.121067  0.604281  0.271541  1
  O  O46  1  0.640029  0.195080  0.090680  1
  O  O47  1  0.228902  0.159805  0.660167  1
  O  O48  1  0.873651  0.512047  0.861811  1
  O  O49  1  0.615222  0.907870  0.743064  1
  O  O50  1  0.893547  0.824633  0.523540  1
  O  O51  1  0.246375  0.444166  0.209099  1
  O  O52  1  0.439102  0.100927  0.198119  1
  O  O53  1  0.136698  0.232915  0.435487  1
  O  O54  1  0.830727  0.032466  0.640450  1
  O  O55  1  0.840814  0.741393  0.768602  1
  O  O56  1  0.637036  0.402535  0.908782  1
  O  O57  1  0.571083  0.336870  0.601800  1
  O  O58  1  0.407117  0.789651  0.863069  1
  O  O59  1  0.646788  0.776785  0.301796  1
