# generated using pymatgen
data_Li2VO2F
_symmetry_space_group_name_H-M   'P 1'
_cell_length_a   2.94682192
_cell_length_b   7.93122852
_cell_length_c   5.16786370
_cell_angle_alpha   96.28804952
_cell_angle_beta   73.44297702
_cell_angle_gamma   79.29379865
_symmetry_Int_Tables_number   1
_chemical_formula_structural   Li2VO2F
_chemical_formula_sum   'Li4 V2 O4 F2'
_cell_volume   112.05423751
_cell_formula_units_Z   2
loop_
 _symmetry_equiv_pos_site_id
 _symmetry_equiv_pos_as_xyz
  1  'x, y, z'
loop_
 _atom_site_type_symbol
 _atom_site_label
 _atom_site_symmetry_multiplicity
 _atom_site_fract_x
 _atom_site_fract_y
 _atom_site_fract_z
 _atom_site_occupancy
  Li  Li0  1  0.833398  0.833266  0.499894  1
  Li  Li1  1  0.505941  0.506917  0.481039  1
  Li  Li2  1  0.160555  0.159830  0.518997  1
  Li  Li3  1  0.333250  0.333368  0.000032  1
  V  V4  1  0.662662  0.665442  0.009208  1
  V  V5  1  0.004077  0.001215  0.990754  1
  O  O6  1  0.239486  0.748302  0.772432  1
  O  O7  1  0.427245  0.918337  0.227512  1
  O  O8  1  0.095483  0.581660  0.227469  1
  O  O9  1  0.571217  0.085023  0.772542  1
  F  F10  1  0.917380  0.419058  0.745876  1
  F  F11  1  0.749304  0.247582  0.254245  1
