# generated using pymatgen
data_Na5Bi2P(CO4)4
_symmetry_space_group_name_H-M   'P 1'
_cell_length_a   10.39163578
_cell_length_b   10.37307009
_cell_length_c   17.96776416
_cell_angle_alpha   106.71395055
_cell_angle_beta   74.09231855
_cell_angle_gamma   119.72033569
_symmetry_Int_Tables_number   1
_chemical_formula_structural   Na5Bi2P(CO4)4
_chemical_formula_sum   'Na20 Bi8 P4 C16 O64'
_cell_volume   1590.70232537
_cell_formula_units_Z   4
loop_
 _symmetry_equiv_pos_site_id
 _symmetry_equiv_pos_as_xyz
  1  'x, y, z'
loop_
 _atom_site_type_symbol
 _atom_site_label
 _atom_site_symmetry_multiplicity
 _atom_site_fract_x
 _atom_site_fract_y
 _atom_site_fract_z
 _atom_site_occupancy
  Na  Na0  1  0.284556  0.601105  0.033996  1
  Na  Na1  1  0.284271  0.218482  0.032728  1
  Na  Na2  1  0.215905  0.898897  0.466175  1
  Na  Na3  1  0.522302  0.590465  0.158870  1
  Na  Na4  1  0.592466  0.908239  0.342120  1
  Na  Na5  1  0.908738  0.590749  0.159306  1
  Na  Na6  1  0.592592  0.527364  0.342509  1
  Na  Na7  1  0.215035  0.283212  0.465922  1
  Na  Na8  1  0.783267  0.717334  0.532848  1
  Na  Na9  1  0.602740  0.284077  0.466019  1
  Na  Na10  1  0.908218  0.975910  0.159346  1
  Na  Na11  1  0.100325  0.789866  0.964531  1
  Na  Na12  1  0.410448  0.483596  0.655826  1
  Na  Na13  1  0.092379  0.407585  0.841913  1
  Na  Na14  1  0.404113  0.084972  0.658674  1
  Na  Na15  1  0.474125  0.409149  0.843047  1
  Na  Na16  1  0.782844  0.097459  0.532227  1
  Na  Na17  1  0.730361  0.798604  0.965537  1
  Na  Na18  1  0.029257  0.093108  0.661720  1
  Na  Na19  1  0.721083  0.395955  0.967483  1
  Bi  Bi20  1  0.242698  0.751736  0.252969  1
  Bi  Bi21  1  0.009060  0.503695  0.499197  1
  Bi  Bi22  1  0.242544  0.243612  0.252028  1
  Bi  Bi23  1  0.510290  0.004922  0.999227  1
  Bi  Bi24  1  0.755302  0.249895  0.245652  1
  Bi  Bi25  1  0.250429  0.754566  0.748193  1
  Bi  Bi26  1  0.754866  0.755752  0.751931  1
  Bi  Bi27  1  0.746558  0.246317  0.750810  1
  P  P28  1  0.812178  0.686881  0.062396  1
  P  P29  1  0.687153  0.812274  0.437629  1
  P  P30  1  0.314584  0.189550  0.562596  1
  P  P31  1  0.190733  0.316075  0.937114  1
  C  C32  1  0.196203  0.915036  0.134948  1
  C  C33  1  0.579095  0.910074  0.140123  1
  C  C34  1  0.113255  0.389758  0.167783  1
  C  C35  1  0.304000  0.582705  0.359725  1
  C  C36  1  0.079458  0.807492  0.637042  1
  C  C37  1  0.579204  0.309069  0.140348  1
  C  C38  1  0.395089  0.115370  0.334472  1
  C  C39  1  0.079034  0.410369  0.640419  1
  C  C40  1  0.916880  0.580660  0.361568  1
  C  C41  1  0.611218  0.888542  0.668124  1
  C  C42  1  0.915848  0.196357  0.360728  1
  C  C43  1  0.418249  0.695396  0.860881  1
  C  C44  1  0.694326  0.416340  0.638116  1
  C  C45  1  0.887729  0.606303  0.834339  1
  C  C46  1  0.420671  0.084992  0.860624  1
  C  C47  1  0.802244  0.083739  0.860778  1
  O  O48  1  0.262426  0.863392  0.069972  1
  O  O49  1  0.135057  0.841994  0.193192  1
  O  O50  1  0.633334  0.961620  0.074741  1
  O  O51  1  0.120513  0.518320  0.166679  1
  O  O52  1  0.454490  0.786314  0.146179  1
  O  O53  1  0.045212  0.700595  0.357962  1
  O  O54  1  0.382622  0.983920  0.334868  1
  O  O55  1  0.660587  0.595960  0.029680  1
  O  O56  1  0.904884  0.841499  0.033801  1
  O  O57  1  0.235115  0.380431  0.165083  1
  O  O58  1  0.367975  0.653809  0.300368  1
  O  O59  1  0.905753  0.596796  0.032167  1
  O  O60  1  0.779386  0.715343  0.154223  1
  O  O61  1  0.188587  0.039882  0.141368  1
  O  O62  1  0.525694  0.243933  0.074339  1
  O  O63  1  0.026538  0.741509  0.570612  1
  O  O64  1  0.233262  0.636416  0.421476  1
  O  O65  1  0.985519  0.143030  0.298267  1
  O  O66  1  0.507854  0.367578  0.199582  1
  O  O67  1  0.309660  0.458332  0.356359  1
  O  O68  1  0.600099  0.909880  0.466143  1
  O  O69  1  0.710228  0.777636  0.345300  1
  O  O70  1  0.705216  0.317571  0.146101  1
  O  O71  1  0.204173  0.815397  0.643841  1
  O  O72  1  0.276391  0.128172  0.335726  1
  O  O73  1  0.132513  0.459901  0.574464  1
  O  O74  1  0.600424  0.657093  0.466608  1
  O  O75  1  0.837716  0.904388  0.472253  1
  O  O76  1  0.360446  0.013167  0.797197  1
  O  O77  1  0.847404  0.513402  0.300638  1
  O  O78  1  0.017710  0.722621  0.833798  1
  O  O79  1  0.525798  0.233106  0.334236  1
  O  O80  1  0.482804  0.770582  0.674974  1
  O  O81  1  0.985011  0.269787  0.172654  1
  O  O82  1  0.150357  0.482628  0.700126  1
  O  O83  1  0.651784  0.981988  0.199927  1
  O  O84  1  0.159695  0.096879  0.533126  1
  O  O85  1  0.405418  0.340682  0.530578  1
  O  O86  1  0.858729  0.526721  0.426669  1
  O  O87  1  0.733762  0.880049  0.665504  1
  O  O88  1  0.293673  0.690130  0.854724  1
  O  O89  1  0.788376  0.188805  0.357449  1
  O  O90  1  0.405241  0.096462  0.532158  1
  O  O91  1  0.288013  0.224036  0.654404  1
  O  O92  1  0.687327  0.540517  0.643676  1
  O  O93  1  0.488673  0.635499  0.801869  1
  O  O94  1  0.759844  0.362178  0.573834  1
  O  O95  1  0.008028  0.867346  0.694942  1
  O  O96  1  0.796050  0.955193  0.859071  1
  O  O97  1  0.972839  0.258557  0.425700  1
  O  O98  1  0.472453  0.760197  0.926800  1
  O  O99  1  0.107024  0.416482  0.965801  1
  O  O100  1  0.227175  0.293778  0.845182  1
  O  O101  1  0.633208  0.344820  0.697717  1
  O  O102  1  0.768656  0.618494  0.834581  1
  O  O103  1  0.104718  0.166713  0.968558  1
  O  O104  1  0.347772  0.411060  0.969337  1
  O  O105  1  0.620266  0.017100  0.664946  1
  O  O106  1  0.954090  0.285207  0.646120  1
  O  O107  1  0.541502  0.214276  0.858466  1
  O  O108  1  0.873921  0.474448  0.836025  1
  O  O109  1  0.364441  0.029784  0.925065  1
  O  O110  1  0.871175  0.152971  0.800554  1
  O  O111  1  0.735008  0.143559  0.921685  1
