# generated using pymatgen
data_PH18C6N3O
_symmetry_space_group_name_H-M   'P 1'
_cell_length_a   6.62527758
_cell_length_b   12.95889112
_cell_length_c   6.63766195
_cell_angle_alpha   90.00000000
_cell_angle_beta   104.77695678
_cell_angle_gamma   90.00000000
_symmetry_Int_Tables_number   1
_chemical_formula_structural   PH18C6N3O
_chemical_formula_sum   'P2 H36 C12 N6 O2'
_cell_volume   551.03642603
_cell_formula_units_Z   2
loop_
 _symmetry_equiv_pos_site_id
 _symmetry_equiv_pos_as_xyz
  1  'x, y, z'
loop_
 _atom_site_type_symbol
 _atom_site_label
 _atom_site_symmetry_multiplicity
 _atom_site_fract_x
 _atom_site_fract_y
 _atom_site_fract_z
 _atom_site_occupancy
  P  P0  1  0.129919  0.250000  0.482419  1
  P  P1  1  0.870081  0.750000  0.517581  1
  H  H2  1  0.093667  0.509387  0.723551  1
  H  H3  1  0.093667  0.990613  0.723551  1
  H  H4  1  0.207639  0.621099  0.865903  1
  H  H5  1  0.207639  0.878901  0.865903  1
  H  H6  1  0.192503  0.611162  0.593281  1
  H  H7  1  0.192503  0.888838  0.593281  1
  H  H8  1  0.122759  0.152476  0.025201  1
  H  H9  1  0.122759  0.347524  0.025201  1
  H  H10  1  0.231512  0.039515  0.165948  1
  H  H11  1  0.231512  0.460485  0.165948  1
  H  H12  1  0.470478  0.154074  0.850691  1
  H  H13  1  0.470478  0.345926  0.850691  1
  H  H14  1  0.419645  0.087211  0.607488  1
  H  H15  1  0.419645  0.412789  0.607488  1
  H  H16  1  0.343848  0.839608  0.303014  1
  H  H17  1  0.343848  0.660392  0.303014  1
  H  H18  1  0.362150  0.160282  0.224615  1
  H  H19  1  0.362150  0.339718  0.224615  1
  H  H20  1  0.637850  0.839718  0.775385  1
  H  H21  1  0.637850  0.660282  0.775385  1
  H  H22  1  0.656152  0.160392  0.696986  1
  H  H23  1  0.656152  0.339608  0.696986  1
  H  H24  1  0.580355  0.587211  0.392512  1
  H  H25  1  0.580355  0.912789  0.392512  1
  H  H26  1  0.529522  0.845926  0.149309  1
  H  H27  1  0.529522  0.654074  0.149309  1
  H  H28  1  0.768488  0.539515  0.834052  1
  H  H29  1  0.768488  0.960485  0.834052  1
  H  H30  1  0.877241  0.652476  0.974799  1
  H  H31  1  0.877241  0.847524  0.974799  1
  H  H32  1  0.807497  0.111162  0.406719  1
  H  H33  1  0.807497  0.388838  0.406719  1
  H  H34  1  0.792361  0.121099  0.134097  1
  H  H35  1  0.792361  0.378901  0.134097  1
  H  H36  1  0.906333  0.490613  0.276449  1
  H  H37  1  0.906333  0.009387  0.276449  1
  C  C38  1  0.111376  0.593648  0.713746  1
  C  C39  1  0.111376  0.906352  0.713746  1
  C  C40  1  0.208433  0.123223  0.179813  1
  C  C41  1  0.208433  0.376777  0.179813  1
  C  C42  1  0.488368  0.157213  0.689560  1
  C  C43  1  0.488368  0.342787  0.689560  1
  C  C44  1  0.511632  0.657213  0.310440  1
  C  C45  1  0.511632  0.842787  0.310440  1
  C  C46  1  0.791566  0.623223  0.820187  1
  C  C47  1  0.791566  0.876777  0.820187  1
  C  C48  1  0.888624  0.093648  0.286254  1
  C  C49  1  0.888624  0.406352  0.286254  1
  N  N50  1  0.094721  0.141810  0.338296  1
  N  N51  1  0.094721  0.358190  0.338296  1
  N  N52  1  0.389352  0.250000  0.581740  1
  N  N53  1  0.610648  0.750000  0.418260  1
  N  N54  1  0.905279  0.641810  0.661704  1
  N  N55  1  0.905279  0.858190  0.661704  1
  O  O56  1  0.009978  0.750000  0.373322  1
  O  O57  1  0.990022  0.250000  0.626678  1
