# generated using pymatgen
data_Li10Cr(SiO5)2
_symmetry_space_group_name_H-M   'P 1'
_cell_length_a   6.13186919
_cell_length_b   15.39878268
_cell_length_c   5.16146571
_cell_angle_alpha   79.78907346
_cell_angle_beta   90.02375385
_cell_angle_gamma   78.57482874
_symmetry_Int_Tables_number   1
_chemical_formula_structural   Li10Cr(SiO5)2
_chemical_formula_sum   'Li20 Cr2 Si4 O20'
_cell_volume   469.82029234
_cell_formula_units_Z   2
loop_
 _symmetry_equiv_pos_site_id
 _symmetry_equiv_pos_as_xyz
  1  'x, y, z'
loop_
 _atom_site_type_symbol
 _atom_site_label
 _atom_site_symmetry_multiplicity
 _atom_site_fract_x
 _atom_site_fract_y
 _atom_site_fract_z
 _atom_site_occupancy
  Li  Li0  1  0.509344  0.981214  0.759156  1
  Li  Li1  1  0.351845  0.868376  0.237844  1
  Li  Li2  1  0.777662  0.867354  0.237014  1
  Li  Li3  1  0.130251  0.736853  0.482268  1
  Li  Li4  1  0.346145  0.738557  0.026395  1
  Li  Li5  1  0.915580  0.738415  0.024058  1
  Li  Li6  1  0.672375  0.650170  0.417183  1
  Li  Li7  1  0.438336  0.610622  0.788926  1
  Li  Li8  1  0.952754  0.610881  0.785996  1
  Li  Li9  1  0.732193  0.540513  0.133345  1
  Li  Li10  1  0.269330  0.459996  0.861228  1
  Li  Li11  1  0.562685  0.389670  0.210058  1
  Li  Li12  1  0.047652  0.389805  0.210935  1
  Li  Li13  1  0.326225  0.348825  0.578978  1
  Li  Li14  1  0.082775  0.262114  0.975936  1
  Li  Li15  1  0.649097  0.261782  0.974962  1
  Li  Li16  1  0.866706  0.262141  0.519556  1
  Li  Li17  1  0.644484  0.131710  0.765446  1
  Li  Li18  1  0.219644  0.131165  0.766375  1
  Li  Li19  1  0.489999  0.017393  0.246374  1
  Cr  Cr20  1  0.033802  0.929631  0.871209  1
  Cr  Cr21  1  0.960945  0.072443  0.134743  1
  Si  Si22  1  0.600254  0.799650  0.692578  1
  Si  Si23  1  0.220346  0.562562  0.307407  1
  Si  Si24  1  0.781235  0.437810  0.689988  1
  Si  Si25  1  0.398631  0.199626  0.309159  1
  O  O26  1  0.550281  0.899629  0.498397  1
  O  O27  1  0.088355  0.816262  0.132273  1
  O  O28  1  0.594504  0.809737  0.007255  1
  O  O29  1  0.410177  0.742630  0.634780  1
  O  O30  1  0.844819  0.741959  0.633831  1
  O  O31  1  0.970219  0.613784  0.168477  1
  O  O32  1  0.420501  0.613764  0.170696  1
  O  O33  1  0.214889  0.572847  0.618618  1
  O  O34  1  0.728998  0.543658  0.736015  1
  O  O35  1  0.272283  0.456784  0.261069  1
  O  O36  1  0.785912  0.428099  0.377872  1
  O  O37  1  0.031911  0.386544  0.827610  1
  O  O38  1  0.582193  0.386559  0.828016  1
  O  O39  1  0.151765  0.257153  0.366873  1
  O  O40  1  0.585220  0.257412  0.367968  1
  O  O41  1  0.402308  0.189907  0.994683  1
  O  O42  1  0.903173  0.183236  0.871429  1
  O  O43  1  0.446945  0.099523  0.504478  1
  O  O44  1  0.249420  0.999897  0.003546  1
  O  O45  1  0.760240  0.000557  0.000057  1
