# generated using pymatgen
data_V2Co3Te3O16
_symmetry_space_group_name_H-M   'P 1'
_cell_length_a   6.16928772
_cell_length_b   6.12232511
_cell_length_c   9.21539550
_cell_angle_alpha   89.98511295
_cell_angle_beta   91.28015569
_cell_angle_gamma   119.75517716
_symmetry_Int_Tables_number   1
_chemical_formula_structural   V2Co3Te3O16
_chemical_formula_sum   'V2 Co3 Te3 O16'
_cell_volume   302.07858608
_cell_formula_units_Z   1
loop_
 _symmetry_equiv_pos_site_id
 _symmetry_equiv_pos_as_xyz
  1  'x, y, z'
loop_
 _atom_site_type_symbol
 _atom_site_label
 _atom_site_symmetry_multiplicity
 _atom_site_fract_x
 _atom_site_fract_y
 _atom_site_fract_z
 _atom_site_occupancy
  V  V0  1  0.362622  0.681355  0.505706  1
  V  V1  1  0.715854  0.357975  0.962387  1
  Co  Co2  1  0.653593  0.826792  0.204978  1
  Co  Co3  1  0.841626  0.670433  0.699447  1
  Co  Co4  1  0.841723  0.171268  0.699531  1
  Te  Te5  1  0.154529  0.826038  0.214683  1
  Te  Te6  1  0.154516  0.328529  0.214751  1
  Te  Te7  1  0.343080  0.171493  0.711593  1
  O  O8  1  0.194682  0.842222  0.601422  1
  O  O9  1  0.028630  0.514294  0.340760  1
  O  O10  1  0.293959  0.647030  0.095123  1
  O  O11  1  0.005241  0.002546  0.324896  1
  O  O12  1  0.020295  0.010073  0.800708  1
  O  O13  1  0.194689  0.352401  0.601397  1
  O  O14  1  0.451470  0.944651  0.334549  1
  O  O15  1  0.451487  0.506877  0.334595  1
  O  O16  1  0.309620  0.154922  0.107017  1
  O  O17  1  0.648716  0.824428  0.593720  1
  O  O18  1  0.517261  0.464550  0.850701  1
  O  O19  1  0.517192  0.052670  0.850853  1
  O  O20  1  0.651255  0.325613  0.602295  1
  O  O21  1  0.841701  0.669296  0.106712  1
  O  O22  1  0.964556  0.482279  0.851123  1
  O  O23  1  0.841704  0.172465  0.106773  1
