# generated using pymatgen
data_Li2Si2Ni2O7
_symmetry_space_group_name_H-M   'P 1'
_cell_length_a   8.05990117
_cell_length_b   13.02112676
_cell_length_c   5.48445839
_cell_angle_alpha   90.00000000
_cell_angle_beta   88.76116962
_cell_angle_gamma   90.00000000
_symmetry_Int_Tables_number   1
_chemical_formula_structural   Li2Si2Ni2O7
_chemical_formula_sum   'Li8 Si8 Ni8 O28'
_cell_volume   575.45385741
_cell_formula_units_Z   4
loop_
 _symmetry_equiv_pos_site_id
 _symmetry_equiv_pos_as_xyz
  1  'x, y, z'
loop_
 _atom_site_type_symbol
 _atom_site_label
 _atom_site_symmetry_multiplicity
 _atom_site_fract_x
 _atom_site_fract_y
 _atom_site_fract_z
 _atom_site_occupancy
  Li  Li0  1  0.119444  0.358474  0.151118  1
  Li  Li1  1  0.174577  0.749080  0.797440  1
  Li  Li2  1  0.325423  0.249080  0.702560  1
  Li  Li3  1  0.380556  0.858474  0.348882  1
  Li  Li4  1  0.619444  0.141526  0.651118  1
  Li  Li5  1  0.674577  0.750920  0.297440  1
  Li  Li6  1  0.825423  0.250920  0.202560  1
  Li  Li7  1  0.880556  0.641526  0.848882  1
  Si  Si8  1  0.032432  0.890276  0.179917  1
  Si  Si9  1  0.044890  0.676864  0.319744  1
  Si  Si10  1  0.455110  0.176864  0.180256  1
  Si  Si11  1  0.467568  0.390276  0.320083  1
  Si  Si12  1  0.532432  0.609724  0.679917  1
  Si  Si13  1  0.544890  0.823136  0.819744  1
  Si  Si14  1  0.955110  0.323136  0.680256  1
  Si  Si15  1  0.967568  0.109724  0.820083  1
  Ni  Ni16  1  0.104998  0.085608  0.346458  1
  Ni  Ni17  1  0.190686  0.491138  0.639854  1
  Ni  Ni18  1  0.309314  0.991138  0.860146  1
  Ni  Ni19  1  0.395002  0.585608  0.153542  1
  Ni  Ni20  1  0.604998  0.414392  0.846458  1
  Ni  Ni21  1  0.690686  0.008862  0.139854  1
  Ni  Ni22  1  0.809314  0.508862  0.360146  1
  Ni  Ni23  1  0.895002  0.914392  0.653542  1
  O  O24  1  0.039734  0.801951  0.400492  1
  O  O25  1  0.018476  0.165465  0.068390  1
  O  O26  1  0.098797  0.024723  0.700929  1
  O  O27  1  0.071597  0.621903  0.586291  1
  O  O28  1  0.137448  0.355674  0.786542  1
  O  O29  1  0.187483  0.663259  0.110352  1
  O  O30  1  0.211558  0.950887  0.182971  1
  O  O31  1  0.288442  0.450887  0.317029  1
  O  O32  1  0.312517  0.163259  0.389648  1
  O  O33  1  0.362552  0.855674  0.713458  1
  O  O34  1  0.428403  0.121903  0.913709  1
  O  O35  1  0.401203  0.524723  0.799071  1
  O  O36  1  0.481524  0.665465  0.431610  1
  O  O37  1  0.460266  0.301951  0.099508  1
  O  O38  1  0.539734  0.698049  0.900492  1
  O  O39  1  0.518476  0.334535  0.568390  1
  O  O40  1  0.598797  0.475277  0.200929  1
  O  O41  1  0.571597  0.878097  0.086291  1
  O  O42  1  0.637448  0.144326  0.286542  1
  O  O43  1  0.687483  0.836741  0.610352  1
  O  O44  1  0.711558  0.549113  0.682971  1
  O  O45  1  0.788442  0.049113  0.817029  1
  O  O46  1  0.812517  0.336741  0.889648  1
  O  O47  1  0.862552  0.644326  0.213458  1
  O  O48  1  0.928403  0.378097  0.413709  1
  O  O49  1  0.901203  0.975277  0.299071  1
  O  O50  1  0.981524  0.834535  0.931610  1
  O  O51  1  0.960266  0.198049  0.599508  1
