# generated using pymatgen
data_TaIn3O7
_symmetry_space_group_name_H-M   'P 1'
_cell_length_a   7.31930955
_cell_length_b   10.51179597
_cell_length_c   7.49386270
_cell_angle_alpha   89.99980218
_cell_angle_beta   89.99993858
_cell_angle_gamma   90.00009533
_symmetry_Int_Tables_number   1
_chemical_formula_structural   TaIn3O7
_chemical_formula_sum   'Ta4 In12 O28'
_cell_volume   576.57096646
_cell_formula_units_Z   4
loop_
 _symmetry_equiv_pos_site_id
 _symmetry_equiv_pos_as_xyz
  1  'x, y, z'
loop_
 _atom_site_type_symbol
 _atom_site_label
 _atom_site_symmetry_multiplicity
 _atom_site_fract_x
 _atom_site_fract_y
 _atom_site_fract_z
 _atom_site_occupancy
  Ta  Ta0  1  0.000757  0.749996  0.742192  1
  Ta  Ta1  1  0.499241  0.250003  0.242193  1
  Ta  Ta2  1  0.500756  0.749997  0.757808  1
  Ta  Ta3  1  0.999245  0.250003  0.257808  1
  In  In4  1  0.007516  0.250000  0.797863  1
  In  In5  1  0.250553  0.508639  0.984519  1
  In  In6  1  0.250553  0.991362  0.984518  1
  In  In7  1  0.249442  0.008636  0.484519  1
  In  In8  1  0.249443  0.491362  0.484518  1
  In  In9  1  0.492484  0.750000  0.297871  1
  In  In10  1  0.507519  0.250001  0.702133  1
  In  In11  1  0.750556  0.508636  0.515480  1
  In  In12  1  0.750558  0.991363  0.515480  1
  In  In13  1  0.749448  0.008636  0.015481  1
  In  In14  1  0.749447  0.491363  0.015480  1
  In  In15  1  0.992481  0.750001  0.202132  1
  O  O16  1  0.024647  0.122866  0.043927  1
  O  O17  1  0.024647  0.377135  0.043928  1
  O  O18  1  0.024441  0.609750  0.576881  1
  O  O19  1  0.024441  0.890249  0.576883  1
  O  O20  1  0.251044  0.250000  0.316923  1
  O  O21  1  0.253737  0.115976  0.738121  1
  O  O22  1  0.253738  0.384023  0.738122  1
  O  O23  1  0.246264  0.615978  0.238121  1
  O  O24  1  0.246265  0.884022  0.238121  1
  O  O25  1  0.248974  0.750003  0.816924  1
  O  O26  1  0.475557  0.109753  0.076883  1
  O  O27  1  0.475558  0.390248  0.076885  1
  O  O28  1  0.475354  0.622864  0.543929  1
  O  O29  1  0.475352  0.877135  0.543930  1
  O  O30  1  0.524648  0.122868  0.456070  1
  O  O31  1  0.524649  0.377133  0.456069  1
  O  O32  1  0.524441  0.609749  0.923120  1
  O  O33  1  0.524442  0.890252  0.923119  1
  O  O34  1  0.751004  0.250000  0.183073  1
  O  O35  1  0.753735  0.115976  0.761879  1
  O  O36  1  0.753734  0.384023  0.761879  1
  O  O37  1  0.746265  0.615976  0.261879  1
  O  O38  1  0.746264  0.884023  0.261880  1
  O  O39  1  0.748982  0.750001  0.683075  1
  O  O40  1  0.975559  0.109749  0.423122  1
  O  O41  1  0.975556  0.390252  0.423121  1
  O  O42  1  0.975353  0.622866  0.956070  1
  O  O43  1  0.975353  0.877134  0.956070  1
