# generated using pymatgen
data_Li3Ni4O4F3
_symmetry_space_group_name_H-M   'P 1'
_cell_length_a   2.95588722
_cell_length_b   2.95588722
_cell_length_c   14.75760007
_cell_angle_alpha   95.74769101
_cell_angle_beta   95.74769101
_cell_angle_gamma   90.00000000
_symmetry_Int_Tables_number   1
_chemical_formula_structural   Li3Ni4O4F3
_chemical_formula_sum   'Li3 Ni4 O4 F3'
_cell_volume   127.64134470
_cell_formula_units_Z   1
loop_
 _symmetry_equiv_pos_site_id
 _symmetry_equiv_pos_as_xyz
  1  'x, y, z'
loop_
 _atom_site_type_symbol
 _atom_site_label
 _atom_site_symmetry_multiplicity
 _atom_site_fract_x
 _atom_site_fract_y
 _atom_site_fract_z
 _atom_site_occupancy
  Li  Li0  1  0.498812  0.498812  0.997624  1
  Li  Li1  1  0.358331  0.358331  0.716661  1
  Li  Li2  1  0.928571  0.928571  0.857143  1
  Ni  Ni3  1  0.070913  0.070913  0.141825  1
  Ni  Ni4  1  0.642164  0.642164  0.284328  1
  Ni  Ni5  1  0.214979  0.214979  0.429957  1
  Ni  Ni6  1  0.786230  0.786230  0.572460  1
  O  O7  1  0.569740  0.569740  0.139481  1
  O  O8  1  0.142467  0.142467  0.284933  1
  O  O9  1  0.714676  0.714676  0.429353  1
  O  O10  1  0.287403  0.287403  0.574805  1
  F  F11  1  0.996915  0.996915  0.993831  1
  F  F12  1  0.860227  0.860227  0.720455  1
  F  F13  1  0.428571  0.428571  0.857143  1
