# generated using pymatgen
data_Cr2P2O7
_symmetry_space_group_name_H-M   'P 1'
_cell_length_a   8.53805377
_cell_length_b   9.42802683
_cell_length_c   11.10417366
_cell_angle_alpha   95.94744670
_cell_angle_beta   112.63923790
_cell_angle_gamma   90.03869754
_symmetry_Int_Tables_number   1
_chemical_formula_structural   Cr2P2O7
_chemical_formula_sum   'Cr12 P12 O42'
_cell_volume   819.73657717
_cell_formula_units_Z   6
loop_
 _symmetry_equiv_pos_site_id
 _symmetry_equiv_pos_as_xyz
  1  'x, y, z'
loop_
 _atom_site_type_symbol
 _atom_site_label
 _atom_site_symmetry_multiplicity
 _atom_site_fract_x
 _atom_site_fract_y
 _atom_site_fract_z
 _atom_site_occupancy
  Cr  Cr0  1  0.988899  0.690148  0.356719  1
  Cr  Cr1  1  0.321441  0.523719  0.020417  1
  Cr  Cr2  1  0.650451  0.339660  0.671626  1
  Cr  Cr3  1  0.368073  0.190978  0.356500  1
  Cr  Cr4  1  0.631712  0.810999  0.643002  1
  Cr  Cr5  1  0.677948  0.477288  0.978661  1
  Cr  Cr6  1  0.699151  0.023490  0.020564  1
  Cr  Cr7  1  0.021473  0.840539  0.671847  1
  Cr  Cr8  1  0.010749  0.309624  0.641951  1
  Cr  Cr9  1  0.349884  0.661477  0.328101  1
  Cr  Cr10  1  0.301026  0.977422  0.979459  1
  Cr  Cr11  1  0.978684  0.161481  0.327931  1
  P  P12  1  0.406851  0.177469  0.787894  1
  P  P13  1  0.593454  0.823538  0.211895  1
  P  P14  1  0.283044  0.970012  0.533763  1
  P  P15  1  0.381061  0.677984  0.787977  1
  P  P16  1  0.251337  0.469847  0.533841  1
  P  P17  1  0.717166  0.031948  0.465984  1
  P  P18  1  0.918702  0.647947  0.873969  1
  P  P19  1  0.080825  0.354084  0.125582  1
  P  P20  1  0.748945  0.531635  0.465761  1
  P  P21  1  0.954790  0.147759  0.873936  1
  P  P22  1  0.618621  0.323578  0.211270  1
  P  P23  1  0.044750  0.853385  0.125707  1
  O  O24  1  0.915589  0.750873  0.999674  1
  O  O25  1  0.220391  0.078746  0.431071  1
  O  O26  1  0.598433  0.943246  0.328918  1
  O  O27  1  0.729887  0.444093  0.327988  1
  O  O28  1  0.091949  0.589108  0.902696  1
  O  O29  1  0.788619  0.422322  0.567878  1
  O  O30  1  0.908201  0.413960  0.097681  1
  O  O31  1  0.132191  0.895493  0.545386  1
  O  O32  1  0.593731  0.134411  0.494739  1
  O  O33  1  0.268813  0.558364  0.670756  1
  O  O34  1  0.776437  0.535473  0.847572  1
  O  O35  1  0.546755  0.407367  0.089185  1
  O  O36  1  0.451888  0.715078  0.196332  1
  O  O37  1  0.780024  0.923622  0.569047  1
  O  O38  1  0.867848  0.107215  0.454671  1
  O  O39  1  0.809868  0.088792  0.902165  1
  O  O40  1  0.255045  0.786356  0.803512  1
  O  O41  1  0.457210  0.093147  0.909663  1
  O  O42  1  0.888094  0.241985  0.758688  1
  O  O43  1  0.071307  0.035429  0.848579  1
  O  O44  1  0.478209  0.260242  0.241721  1
  O  O45  1  0.235024  0.239070  0.756742  1
  O  O46  1  0.745288  0.215701  0.196092  1
  O  O47  1  0.764742  0.761079  0.242510  1
  O  O48  1  0.403042  0.058112  0.670917  1
  O  O49  1  0.901666  0.633973  0.495140  1
  O  O50  1  0.521870  0.740797  0.757694  1
  O  O51  1  0.870923  0.742967  0.759319  1
  O  O52  1  0.928876  0.965792  0.151940  1
  O  O53  1  0.128644  0.258596  0.239890  1
  O  O54  1  0.587329  0.607164  0.454905  1
  O  O55  1  0.405745  0.867085  0.504472  1
  O  O56  1  0.543032  0.907887  0.090155  1
  O  O57  1  0.211234  0.578313  0.430910  1
  O  O58  1  0.223853  0.465845  0.152004  1
  O  O59  1  0.099296  0.366818  0.504518  1
  O  O60  1  0.082845  0.251605  0.999317  1
  O  O61  1  0.452258  0.593470  0.909593  1
  O  O62  1  0.111312  0.758073  0.240132  1
  O  O63  1  0.413726  0.395336  0.545478  1
  O  O64  1  0.547940  0.286533  0.803579  1
  O  O65  1  0.189793  0.912397  0.097642  1
