# generated using pymatgen
data_NaLi2MnPCO7
_symmetry_space_group_name_H-M   'P 1'
_cell_length_a   8.68655445
_cell_length_b   6.69945266
_cell_length_c   10.09877143
_cell_angle_alpha   90.00367986
_cell_angle_beta   88.48119143
_cell_angle_gamma   90.67218375
_symmetry_Int_Tables_number   1
_chemical_formula_structural   NaLi2MnPCO7
_chemical_formula_sum   'Na4 Li8 Mn4 P4 C4 O28'
_cell_volume   587.45270263
_cell_formula_units_Z   4
loop_
 _symmetry_equiv_pos_site_id
 _symmetry_equiv_pos_as_xyz
  1  'x, y, z'
loop_
 _atom_site_type_symbol
 _atom_site_label
 _atom_site_symmetry_multiplicity
 _atom_site_fract_x
 _atom_site_fract_y
 _atom_site_fract_z
 _atom_site_occupancy
  Na  Na0  1  0.084803  0.256631  0.377137  1
  Na  Na1  1  0.249807  0.998708  0.627229  1
  Na  Na2  1  0.251652  0.997478  0.123828  1
  Na  Na3  1  0.749977  0.500485  0.374713  1
  Li  Li4  1  0.078387  0.265054  0.872742  1
  Li  Li5  1  0.272096  0.473196  0.615285  1
  Li  Li6  1  0.272380  0.473859  0.111402  1
  Li  Li7  1  0.736168  0.521206  0.881064  1
  Li  Li8  1  0.736725  0.976378  0.884205  1
  Li  Li9  1  0.728525  0.975287  0.387509  1
  Li  Li10  1  0.912944  0.742832  0.630111  1
  Li  Li11  1  0.909994  0.749310  0.124477  1
  Mn  Mn12  1  0.354270  0.745218  0.886123  1
  Mn  Mn13  1  0.360139  0.742703  0.388820  1
  Mn  Mn14  1  0.645654  0.246038  0.616206  1
  Mn  Mn15  1  0.648246  0.249197  0.107165  1
  P  P16  1  0.406891  0.254353  0.851947  1
  P  P17  1  0.414933  0.246296  0.353683  1
  P  P18  1  0.594641  0.744975  0.649752  1
  P  P19  1  0.594239  0.750144  0.141886  1
  C  C20  1  0.039093  0.748813  0.866433  1
  C  C21  1  0.044776  0.758068  0.364506  1
  C  C22  1  0.948123  0.259225  0.643185  1
  C  C23  1  0.956442  0.260700  0.128417  1
  O  O24  1  0.095766  0.276837  0.660991  1
  O  O25  1  0.102859  0.277555  0.148875  1
  O  O26  1  0.082653  0.753526  0.988379  1
  O  O27  1  0.082506  0.752254  0.488163  1
  O  O28  1  0.141503  0.743143  0.769750  1
  O  O29  1  0.150570  0.736662  0.271414  1
  O  O30  1  0.313985  0.062410  0.890360  1
  O  O31  1  0.308816  0.429513  0.908777  1
  O  O32  1  0.315093  0.059044  0.390407  1
  O  O33  1  0.326827  0.427266  0.414355  1
  O  O34  1  0.418963  0.271986  0.697615  1
  O  O35  1  0.427292  0.734306  0.597794  1
  O  O36  1  0.425438  0.270178  0.199550  1
  O  O37  1  0.427044  0.731931  0.091293  1
  O  O38  1  0.574544  0.255561  0.902789  1
  O  O39  1  0.582311  0.753227  0.804880  1
  O  O40  1  0.580705  0.229498  0.405441  1
  O  O41  1  0.582292  0.765977  0.296440  1
  O  O42  1  0.694238  0.564302  0.606995  1
  O  O43  1  0.685855  0.929784  0.595786  1
  O  O44  1  0.696288  0.569404  0.100387  1
  O  O45  1  0.683828  0.934041  0.084431  1
  O  O46  1  0.855308  0.243622  0.745812  1
  O  O47  1  0.859385  0.250340  0.229212  1
  O  O48  1  0.892122  0.256384  0.525483  1
  O  O49  1  0.905612  0.253061  0.009057  1
  O  O50  1  0.894066  0.748819  0.837397  1
  O  O51  1  0.903231  0.783213  0.330345  1
