# generated using pymatgen
data_Li6V3P8O29
_symmetry_space_group_name_H-M   'P 1'
_cell_length_a   9.82060732
_cell_length_b   9.81570272
_cell_length_c   13.94560174
_cell_angle_alpha   90.05016576
_cell_angle_beta   89.99996578
_cell_angle_gamma   59.81177246
_symmetry_Int_Tables_number   1
_chemical_formula_structural   Li6V3P8O29
_chemical_formula_sum   'Li12 V6 P16 O58'
_cell_volume   1161.98508259
_cell_formula_units_Z   2
loop_
 _symmetry_equiv_pos_site_id
 _symmetry_equiv_pos_as_xyz
  1  'x, y, z'
loop_
 _atom_site_type_symbol
 _atom_site_label
 _atom_site_symmetry_multiplicity
 _atom_site_fract_x
 _atom_site_fract_y
 _atom_site_fract_z
 _atom_site_occupancy
  Li  Li0  1  0.903738  0.774464  0.057415  1
  Li  Li1  1  0.767121  0.896145  0.563273  1
  Li  Li2  1  0.902330  0.332347  0.561638  1
  Li  Li3  1  0.775663  0.308829  0.057570  1
  Li  Li4  1  0.317572  0.907262  0.057758  1
  Li  Li5  1  0.667029  0.234912  0.442300  1
  Li  Li6  1  0.337274  0.758910  0.561618  1
  Li  Li7  1  0.219805  0.688966  0.937631  1
  Li  Li8  1  0.339677  0.328877  0.111412  1
  Li  Li9  1  0.238605  0.094736  0.440913  1
  Li  Li10  1  0.082149  0.224860  0.937799  1
  Li  Li11  1  0.014482  0.954549  0.499718  1
  V  V12  1  0.564999  0.435577  0.251904  1
  V  V13  1  0.434187  0.566500  0.751913  1
  V  V14  1  0.568868  0.000402  0.751700  1
  V  V15  1  0.437019  0.001272  0.248664  1
  V  V16  1  0.000320  0.569432  0.254753  1
  V  V17  1  0.998036  0.439748  0.746910  1
  P  P18  1  0.909982  0.770316  0.842643  1
  P  P19  1  0.770763  0.916176  0.343620  1
  P  P20  1  0.915513  0.313073  0.343139  1
  P  P21  1  0.666347  0.666241  0.129495  1
  P  P22  1  0.666744  0.667414  0.627620  1
  P  P23  1  0.770566  0.317734  0.842249  1
  P  P24  1  0.685651  0.227284  0.658223  1
  P  P25  1  0.321268  0.911573  0.841946  1
  P  P26  1  0.685074  0.088912  0.157752  1
  P  P27  1  0.312257  0.775598  0.344448  1
  P  P28  1  0.228352  0.680251  0.159854  1
  P  P29  1  0.336250  0.331799  0.370444  1
  P  P30  1  0.329256  0.336073  0.870623  1
  P  P31  1  0.085553  0.694046  0.659745  1
  P  P32  1  0.229427  0.084857  0.657709  1
  P  P33  1  0.089089  0.232690  0.157169  1
  O  O34  1  0.994485  0.802013  0.578330  1
  O  O35  1  0.912967  0.747299  0.336636  1
  O  O36  1  0.768357  0.987351  0.074417  1
  O  O37  1  0.744557  0.917334  0.836441  1
  O  O38  1  0.896713  0.623250  0.823484  1
  O  O39  1  0.814116  0.667092  0.169269  1
  O  O40  1  0.909405  0.470666  0.328281  1
  O  O41  1  0.993898  0.251058  0.068545  1
  O  O42  1  0.916649  0.336790  0.839050  1
  O  O43  1  0.679344  0.811342  0.665918  1
  O  O44  1  0.616660  0.913643  0.332200  1
  O  O45  1  0.813638  0.510204  0.669818  1
  O  O46  1  0.660009  0.661917  0.022817  1
  O  O47  1  0.675003  0.659410  0.520155  1
  O  O48  1  0.661537  0.519694  0.174903  1
  O  O49  1  0.482142  0.894120  0.822906  1
  O  O50  1  0.515499  0.818610  0.170666  1
  O  O51  1  0.750510  0.331540  0.343135  1
  O  O52  1  0.792041  0.206534  0.751165  1
  O  O53  1  0.777161  0.224274  0.569294  1
  O  O54  1  0.755383  0.247336  0.933025  1
  O  O55  1  0.618928  0.479165  0.820112  1
  O  O56  1  0.512357  0.678220  0.666905  1
  O  O57  1  0.667283  0.254336  0.155562  1
  O  O58  1  0.468631  0.619048  0.333063  1
  O  O59  1  0.335392  0.919458  0.337475  1
  O  O60  1  0.785997  0.011873  0.255309  1
  O  O61  1  0.778301  0.996348  0.434845  1
  O  O62  1  0.228831  0.994435  0.569297  1
  O  O63  1  0.665078  0.081220  0.658211  1
  O  O64  1  0.528609  0.380160  0.670144  1
  O  O65  1  0.332844  0.748409  0.843234  1
  O  O66  1  0.493352  0.321343  0.329973  1
  O  O67  1  0.371954  0.511902  0.175607  1
  O  O68  1  0.246968  0.754905  0.070144  1
  O  O69  1  0.223130  0.787283  0.434694  1
  O  O70  1  0.207019  0.789071  0.250963  1
  O  O71  1  0.257294  0.662367  0.660856  1
  O  O72  1  0.475049  0.193160  0.826174  1
  O  O73  1  0.516051  0.113905  0.173474  1
  O  O74  1  0.322525  0.492124  0.835985  1
  O  O75  1  0.320669  0.334877  0.978435  1
  O  O76  1  0.344753  0.318675  0.477135  1
  O  O77  1  0.195373  0.481988  0.326844  1
  O  O78  1  0.385198  0.084205  0.670748  1
  O  O79  1  0.328878  0.185250  0.326805  1
  O  O80  1  0.077660  0.667473  0.157763  1
  O  O81  1  0.010871  0.789573  0.758195  1
  O  O82  1  0.996950  0.755974  0.934256  1
  O  O83  1  0.084125  0.538711  0.665284  1
  O  O84  1  0.178493  0.337028  0.828241  1
  O  O85  1  0.109092  0.377731  0.175320  1
  O  O86  1  0.253816  0.084250  0.153021  1
  O  O87  1  0.241530  0.003789  0.931622  1
  O  O88  1  0.207480  0.001280  0.751507  1
  O  O89  1  0.086405  0.252542  0.656032  1
  O  O90  1  0.005986  0.224739  0.431719  1
  O  O91  1  0.003847  0.207867  0.248962  1
