# generated using pymatgen
data_Li2VFeP2(O4F)2
_symmetry_space_group_name_H-M   'P 1'
_cell_length_a   7.56959768
_cell_length_b   6.96443062
_cell_length_c   7.79007424
_cell_angle_alpha   91.18874507
_cell_angle_beta   117.28124763
_cell_angle_gamma   90.49437100
_symmetry_Int_Tables_number   1
_chemical_formula_structural   Li2VFeP2(O4F)2
_chemical_formula_sum   'Li4 V2 Fe2 P4 O16 F4'
_cell_volume   364.84139348
_cell_formula_units_Z   2
loop_
 _symmetry_equiv_pos_site_id
 _symmetry_equiv_pos_as_xyz
  1  'x, y, z'
loop_
 _atom_site_type_symbol
 _atom_site_label
 _atom_site_symmetry_multiplicity
 _atom_site_fract_x
 _atom_site_fract_y
 _atom_site_fract_z
 _atom_site_occupancy
  Li  Li0  1  0.079323  0.651805  0.267335  1
  Li  Li1  1  0.578492  0.152023  0.767043  1
  Li  Li2  1  0.421143  0.847300  0.232872  1
  Li  Li3  1  0.920994  0.348788  0.732686  1
  V  V4  1  0.999644  -0.000028  0.000223  1
  V  V5  1  0.750010  0.250089  0.249757  1
  Fe  Fe6  1  0.500843  0.499847  0.499699  1
  Fe  Fe7  1  0.250002  0.750104  0.750645  1
  P  P8  1  0.222616  0.100555  0.460086  1
  P  P9  1  0.277676  0.399673  0.039828  1
  P  P10  1  0.721757  0.600611  0.959741  1
  P  P11  1  0.777966  0.899177  0.540397  1
  O  O12  1  0.103935  0.264765  0.018118  1
  O  O13  1  0.037658  0.214202  0.427908  1
  O  O14  1  0.462545  0.285988  0.072183  1
  O  O15  1  0.688977  0.003539  0.345089  1
  O  O16  1  0.396172  0.236454  0.480983  1
  O  O17  1  0.325110  0.547409  0.211629  1
  O  O18  1  0.824578  0.046763  0.711787  1
  O  O19  1  0.811524  0.496918  0.155656  1
  O  O20  1  0.187296  0.503740  0.844222  1
  O  O21  1  0.175334  0.953108  0.288394  1
  O  O22  1  0.675127  0.452874  0.788199  1
  O  O23  1  0.602936  0.764258  0.517640  1
  O  O24  1  0.312142  0.995514  0.654899  1
  O  O25  1  0.536363  0.713645  0.926596  1
  O  O26  1  0.963521  0.786228  0.573584  1
  O  O27  1  0.896880  0.734705  0.983190  1
  F  F28  1  0.766890  0.103019  0.030141  1
  F  F29  1  0.267583  0.602653  0.530619  1
  F  F30  1  0.731785  0.397607  0.469863  1
  F  F31  1  0.233182  0.896667  0.968986  1
