# generated using pymatgen
data_CrO
_symmetry_space_group_name_H-M   'P 1'
_cell_length_a   3.15568982
_cell_length_b   4.32214674
_cell_length_c   16.47629134
_cell_angle_alpha   90.11596460
_cell_angle_beta   89.82638651
_cell_angle_gamma   135.96567155
_symmetry_Int_Tables_number   1
_chemical_formula_structural   CrO
_chemical_formula_sum   'Cr6 O6'
_cell_volume   156.20388686
_cell_formula_units_Z   6
loop_
 _symmetry_equiv_pos_site_id
 _symmetry_equiv_pos_as_xyz
  1  'x, y, z'
loop_
 _atom_site_type_symbol
 _atom_site_label
 _atom_site_symmetry_multiplicity
 _atom_site_fract_x
 _atom_site_fract_y
 _atom_site_fract_z
 _atom_site_occupancy
  Cr  Cr0  1  0.395955  0.503611  0.085190  1
  Cr  Cr1  1  0.642063  0.994376  0.749910  1
  Cr  Cr2  1  0.394559  0.504032  0.415023  1
  Cr  Cr3  1  0.326832  0.005900  0.250159  1
  Cr  Cr4  1  0.611671  0.496121  0.584915  1
  Cr  Cr5  1  0.608135  0.496486  0.914891  1
  O  O6  1  0.039284  0.999273  0.001389  1
  O  O7  1  0.825790  0.005161  0.168303  1
  O  O8  1  0.823476  0.005866  0.332008  1
  O  O9  1  0.044090  0.999209  0.498404  1
  O  O10  1  0.145171  0.994784  0.668456  1
  O  O11  1  0.142975  0.995380  0.831351  1
