# generated using pymatgen
data_BeH4NF3
_symmetry_space_group_name_H-M   'P 1'
_cell_length_a   6.01780276
_cell_length_b   4.37137690
_cell_length_c   13.95821049
_cell_angle_alpha   90.00000000
_cell_angle_beta   90.00000000
_cell_angle_gamma   90.00000000
_symmetry_Int_Tables_number   1
_chemical_formula_structural   BeH4NF3
_chemical_formula_sum   'Be4 H16 N4 F12'
_cell_volume   367.18585727
_cell_formula_units_Z   4
loop_
 _symmetry_equiv_pos_site_id
 _symmetry_equiv_pos_as_xyz
  1  'x, y, z'
loop_
 _atom_site_type_symbol
 _atom_site_label
 _atom_site_symmetry_multiplicity
 _atom_site_fract_x
 _atom_site_fract_y
 _atom_site_fract_z
 _atom_site_occupancy
  Be  Be0  1  0.778611  0.658454  0.368368  1
  Be  Be1  1  0.721389  0.341546  0.868368  1
  Be  Be2  1  0.278611  0.841546  0.631632  1
  Be  Be3  1  0.221389  0.158454  0.131632  1
  H  H4  1  0.306590  0.244927  0.466383  1
  H  H5  1  0.193410  0.755073  0.966383  1
  H  H6  1  0.806590  0.255073  0.533617  1
  H  H7  1  0.693410  0.744927  0.033617  1
  H  H8  1  0.201610  0.039535  0.374634  1
  H  H9  1  0.298390  0.960465  0.874634  1
  H  H10  1  0.701610  0.460465  0.625366  1
  H  H11  1  0.798390  0.539535  0.125366  1
  H  H12  1  0.197760  0.429724  0.372983  1
  H  H13  1  0.302240  0.570276  0.872983  1
  H  H14  1  0.697760  0.070276  0.627017  1
  H  H15  1  0.802240  0.929724  0.127017  1
  H  H16  1  0.447380  0.242534  0.362064  1
  H  H17  1  0.052620  0.757466  0.862064  1
  H  H18  1  0.947380  0.257466  0.637936  1
  H  H19  1  0.552620  0.742534  0.137936  1
  N  N20  1  0.287815  0.237474  0.393261  1
  N  N21  1  0.212185  0.762526  0.893261  1
  N  N22  1  0.787815  0.262526  0.606739  1
  N  N23  1  0.712185  0.737474  0.106739  1
  F  F24  1  0.698567  0.382700  0.316865  1
  F  F25  1  0.801433  0.617300  0.816865  1
  F  F26  1  0.198567  0.117300  0.683135  1
  F  F27  1  0.301433  0.882700  0.183135  1
  F  F28  1  0.630294  0.817656  0.435334  1
  F  F29  1  0.869706  0.182344  0.935334  1
  F  F30  1  0.130294  0.682344  0.564666  1
  F  F31  1  0.369706  0.317656  0.064666  1
  F  F32  1  0.018812  0.736715  0.358351  1
  F  F33  1  0.481188  0.263285  0.858351  1
  F  F34  1  0.518812  0.763285  0.641649  1
  F  F35  1  0.981188  0.236715  0.141649  1
