# generated using pymatgen
data_Li32Mn5Cr11O48
_symmetry_space_group_name_H-M   'P 1'
_cell_length_a   5.01568798
_cell_length_b   5.01568634
_cell_length_c   38.45336405
_cell_angle_alpha   89.00862840
_cell_angle_beta   90.99136490
_cell_angle_gamma   60.39414501
_symmetry_Int_Tables_number   1
_chemical_formula_structural   Li32Mn5Cr11O48
_chemical_formula_sum   'Li32 Mn5 Cr11 O48'
_cell_volume   840.58176173
_cell_formula_units_Z   1
loop_
 _symmetry_equiv_pos_site_id
 _symmetry_equiv_pos_as_xyz
  1  'x, y, z'
loop_
 _atom_site_type_symbol
 _atom_site_label
 _atom_site_symmetry_multiplicity
 _atom_site_fract_x
 _atom_site_fract_y
 _atom_site_fract_z
 _atom_site_occupancy
  Li  Li0  1  0.091100  0.091573  0.250000  1
  Li  Li1  1  0.993994  0.503828  0.000103  1
  Li  Li2  1  0.064920  0.431666  0.187510  1
  Li  Li3  1  0.122779  0.371583  0.375036  1
  Li  Li4  1  0.181154  0.317183  0.562466  1
  Li  Li5  1  0.248794  0.250673  0.750072  1
  Li  Li6  1  0.312711  0.187512  0.937560  1
  Li  Li7  1  0.040760  0.785100  0.124905  1
  Li  Li8  1  0.365822  0.125289  0.125017  1
  Li  Li9  1  0.160100  0.665760  0.500095  1
  Li  Li10  1  0.279768  0.538573  0.874872  1
  Li  Li11  1  0.437486  0.062487  0.312500  1
  Li  Li12  1  0.500290  0.990822  0.499983  1
  Li  Li13  1  0.411984  0.409712  0.249871  1
  Li  Li14  1  0.532412  0.291634  0.624837  1
  Li  Li15  1  0.214488  0.964383  0.624968  1
  Li  Li16  1  0.339383  0.839488  0.000032  1
  Li  Li17  1  0.666634  0.157412  0.000163  1
  Li  Li18  1  0.784712  0.036984  0.375129  1
  Li  Li19  1  0.466574  0.716100  0.375000  1
  Li  Li20  1  0.586907  0.593428  0.749989  1
  Li  Li21  1  0.562512  0.937711  0.687440  1
  Li  Li22  1  0.717013  0.464480  0.125101  1
  Li  Li23  1  0.839480  0.342012  0.499899  1
  Li  Li24  1  0.625673  0.873794  0.874928  1
  Li  Li25  1  0.968427  0.211907  0.875011  1
  Li  Li26  1  0.692183  0.806155  0.062534  1
  Li  Li27  1  0.746584  0.747778  0.249964  1
  Li  Li28  1  0.806666  0.689920  0.437490  1
  Li  Li29  1  0.878828  0.618994  0.624897  1
  Li  Li30  1  0.939839  0.564839  0.812500  1
  Li  Li31  1  0.913573  0.904768  0.750128  1
  Mn  Mn32  1  0.021174  0.145845  0.062420  1
  Mn  Mn33  1  0.145293  0.019984  0.437469  1
  Mn  Mn34  1  0.270172  0.895174  0.812500  1
  Mn  Mn35  1  0.394986  0.770293  0.187531  1
  Mn  Mn36  1  0.520847  0.646171  0.562581  1
  Cr  Cr37  1  0.107831  0.732830  0.312500  1
  Cr  Cr38  1  0.233367  0.608569  0.687485  1
  Cr  Cr39  1  0.360656  0.473086  0.062567  1
  Cr  Cr40  1  0.473205  0.357966  0.437503  1
  Cr  Cr41  1  0.608565  0.233562  0.812500  1
  Cr  Cr42  1  0.732967  0.098210  0.187496  1
  Cr  Cr43  1  0.641432  0.516170  0.937506  1
  Cr  Cr44  1  0.766596  0.391611  0.312500  1
  Cr  Cr45  1  0.891188  0.266434  0.687494  1
  Cr  Cr46  1  0.848105  0.985649  0.562432  1
  Cr  Cr47  1  0.983561  0.858389  0.937515  1
  O  O48  1  0.092944  0.043874  0.340729  1
  O  O49  1  0.061522  0.086335  0.159186  1
  O  O50  1  0.069936  0.430014  0.284001  1
  O  O51  1  0.196326  0.304065  0.659171  1
  O  O52  1  0.048746  0.445183  0.091461  1
  O  O53  1  0.183794  0.318550  0.465977  1
  O  O54  1  0.305588  0.194436  0.840914  1
  O  O55  1  0.318687  0.185665  0.034076  1
  O  O56  1  0.444627  0.048576  0.408587  1
  O  O57  1  0.066620  0.792032  0.215419  1
  O  O58  1  0.423576  0.069628  0.216412  1
  O  O59  1  0.196649  0.661908  0.590455  1
  O  O60  1  0.332626  0.530745  0.965982  1
  O  O61  1  0.036910  0.821649  0.034545  1
  O  O62  1  0.167034  0.691620  0.409581  1
  O  O63  1  0.281137  0.577348  0.784188  1
  O  O64  1  0.218845  0.917990  0.715842  1
  O  O65  1  0.178844  0.962012  0.534707  1
  O  O66  1  0.292991  0.843846  0.909158  1
  O  O67  1  0.456111  0.406995  0.340819  1
  O  O68  1  0.582837  0.280603  0.715887  1
  O  O69  1  0.414261  0.445093  0.159497  1
  O  O70  1  0.539919  0.318555  0.534643  1
  O  O71  1  0.655604  0.207835  0.909113  1
  O  O72  1  0.337010  0.803846  0.090293  1
  O  O73  1  0.461332  0.686523  0.465814  1
  O  O74  1  0.585985  0.552467  0.840413  1
  O  O75  1  0.418874  0.717944  0.284270  1
  O  O76  1  0.542366  0.595353  0.659164  1
  O  O77  1  0.693557  0.164919  0.090357  1
  O  O78  1  0.820094  0.039260  0.465503  1
  O  O79  1  0.781995  0.081111  0.284181  1
  O  O80  1  0.711447  0.430127  0.215456  1
  O  O81  1  0.836584  0.312398  0.590812  1
  O  O82  1  0.970352  0.167368  0.965836  1
  O  O83  1  0.687396  0.461584  0.034188  1
  O  O84  1  0.805128  0.336447  0.409544  1
  O  O85  1  0.569435  0.930590  0.784086  1
  O  O86  1  0.927468  0.210984  0.784588  1
  O  O87  1  0.560665  0.943687  0.590924  1
  O  O88  1  0.679065  0.821325  0.965829  1
  O  O89  1  0.693551  0.808793  0.159024  1
  O  O90  1  0.820183  0.673747  0.533540  1
  O  O91  1  0.945303  0.554471  0.909192  1
  O  O92  1  0.805014  0.694936  0.340999  1
  O  O93  1  0.929473  0.570305  0.715808  1
  O  O94  1  0.952347  0.906138  0.840812  1
  O  O95  1  0.905745  0.957628  0.659018  1
