# generated using pymatgen
data_CoH9C4NO6
_symmetry_space_group_name_H-M   'P 1'
_cell_length_a   8.46925512
_cell_length_b   11.81090937
_cell_length_c   8.19455830
_cell_angle_alpha   90.00000000
_cell_angle_beta   90.00000000
_cell_angle_gamma   90.00000000
_symmetry_Int_Tables_number   1
_chemical_formula_structural   CoH9C4NO6
_chemical_formula_sum   'Co4 H36 C16 N4 O24'
_cell_volume   819.69842706
_cell_formula_units_Z   4
loop_
 _symmetry_equiv_pos_site_id
 _symmetry_equiv_pos_as_xyz
  1  'x, y, z'
loop_
 _atom_site_type_symbol
 _atom_site_label
 _atom_site_symmetry_multiplicity
 _atom_site_fract_x
 _atom_site_fract_y
 _atom_site_fract_z
 _atom_site_occupancy
  Co  Co0  1  0.500000  0.500000  0.500000  1
  Co  Co1  1  0.000000  0.000000  0.000000  1
  Co  Co2  1  0.500000  0.000000  0.500000  1
  Co  Co3  1  0.000000  0.500000  0.000000  1
  H  H4  1  0.148018  0.178749  0.511968  1
  H  H5  1  0.648018  0.321251  0.988032  1
  H  H6  1  0.851982  0.678749  0.488032  1
  H  H7  1  0.351982  0.821251  0.011968  1
  H  H8  1  0.851982  0.821251  0.488032  1
  H  H9  1  0.351982  0.678749  0.011968  1
  H  H10  1  0.148018  0.321251  0.511968  1
  H  H11  1  0.648018  0.178749  0.988032  1
  H  H12  1  0.090029  0.250000  0.341244  1
  H  H13  1  0.590029  0.250000  0.158756  1
  H  H14  1  0.909971  0.750000  0.658756  1
  H  H15  1  0.409971  0.750000  0.841244  1
  H  H16  1  0.724418  0.455994  0.222738  1
  H  H17  1  0.224418  0.044006  0.277262  1
  H  H18  1  0.275582  0.955994  0.777262  1
  H  H19  1  0.775582  0.544006  0.722738  1
  H  H20  1  0.275582  0.544006  0.777262  1
  H  H21  1  0.775582  0.955994  0.722738  1
  H  H22  1  0.724418  0.044006  0.222738  1
  H  H23  1  0.224418  0.455994  0.277262  1
  H  H24  1  0.487875  0.250000  0.576811  1
  H  H25  1  0.987875  0.250000  0.923189  1
  H  H26  1  0.512125  0.750000  0.423189  1
  H  H27  1  0.012125  0.750000  0.076811  1
  H  H28  1  0.861791  0.174215  0.471350  1
  H  H29  1  0.361791  0.325785  0.028650  1
  H  H30  1  0.138209  0.674215  0.528650  1
  H  H31  1  0.638209  0.825785  0.971350  1
  H  H32  1  0.138209  0.825785  0.528650  1
  H  H33  1  0.638209  0.674215  0.971350  1
  H  H34  1  0.861791  0.325785  0.471350  1
  H  H35  1  0.361791  0.174215  0.028650  1
  H  H36  1  0.913667  0.250000  0.652793  1
  H  H37  1  0.413667  0.250000  0.847207  1
  H  H38  1  0.086333  0.750000  0.347207  1
  H  H39  1  0.586333  0.750000  0.152793  1
  C  C40  1  0.784039  0.527955  0.282641  1
  C  C41  1  0.284039  0.972045  0.217359  1
  C  C42  1  0.215961  0.027955  0.717359  1
  C  C43  1  0.715961  0.472045  0.782641  1
  C  C44  1  0.215961  0.472045  0.717359  1
  C  C45  1  0.715961  0.027955  0.782641  1
  C  C46  1  0.784039  0.972045  0.282641  1
  C  C47  1  0.284039  0.527955  0.217359  1
  C  C48  1  0.513645  0.250000  0.444779  1
  C  C49  1  0.013645  0.250000  0.055221  1
  C  C50  1  0.486355  0.750000  0.555221  1
  C  C51  1  0.986355  0.750000  0.944779  1
  C  C52  1  0.919424  0.250000  0.519770  1
  C  C53  1  0.419424  0.250000  0.980230  1
  C  C54  1  0.080576  0.750000  0.480230  1
  C  C55  1  0.580576  0.750000  0.019770  1
  N  N56  1  0.087236  0.250000  0.467837  1
  N  N57  1  0.587236  0.250000  0.032163  1
  N  N58  1  0.912764  0.750000  0.532163  1
  N  N59  1  0.412764  0.750000  0.967837  1
  O  O60  1  0.725867  0.563179  0.417347  1
  O  O61  1  0.225867  0.936821  0.082653  1
  O  O62  1  0.274133  0.063179  0.582653  1
  O  O63  1  0.774133  0.436821  0.917347  1
  O  O64  1  0.274133  0.436821  0.582653  1
  O  O65  1  0.774133  0.063179  0.917347  1
  O  O66  1  0.725867  0.936821  0.417347  1
  O  O67  1  0.225867  0.563179  0.082653  1
  O  O68  1  0.904959  0.570549  0.215457  1
  O  O69  1  0.404959  0.929451  0.284543  1
  O  O70  1  0.095041  0.070549  0.784543  1
  O  O71  1  0.595041  0.429451  0.715457  1
  O  O72  1  0.095041  0.429451  0.784543  1
  O  O73  1  0.595041  0.070549  0.715457  1
  O  O74  1  0.904959  0.929451  0.215457  1
  O  O75  1  0.404959  0.570549  0.284543  1
  O  O76  1  0.528690  0.344662  0.372252  1
  O  O77  1  0.028690  0.155338  0.127748  1
  O  O78  1  0.471310  0.844662  0.627748  1
  O  O79  1  0.971310  0.655338  0.872252  1
  O  O80  1  0.471310  0.655338  0.627748  1
  O  O81  1  0.971310  0.844662  0.872252  1
  O  O82  1  0.528690  0.155338  0.372252  1
  O  O83  1  0.028690  0.344662  0.127748  1
