# generated using pymatgen
data_Fe4O3F5
_symmetry_space_group_name_H-M   'P 1'
_cell_length_a   4.82237228
_cell_length_b   10.13301036
_cell_length_c   6.13450844
_cell_angle_alpha   72.23163537
_cell_angle_beta   90.11948184
_cell_angle_gamma   89.73896064
_symmetry_Int_Tables_number   1
_chemical_formula_structural   Fe4O3F5
_chemical_formula_sum   'Fe8 O6 F10'
_cell_volume   285.45948422
_cell_formula_units_Z   2
loop_
 _symmetry_equiv_pos_site_id
 _symmetry_equiv_pos_as_xyz
  1  'x, y, z'
loop_
 _atom_site_type_symbol
 _atom_site_label
 _atom_site_symmetry_multiplicity
 _atom_site_fract_x
 _atom_site_fract_y
 _atom_site_fract_z
 _atom_site_occupancy
  Fe  Fe0  1  0.457317  0.237894  0.633079  1
  Fe  Fe1  1  0.527865  0.728483  0.876465  1
  Fe  Fe2  1  0.563415  0.750879  0.380915  1
  Fe  Fe3  1  0.496372  0.258667  0.117264  1
  Fe  Fe4  1  0.951005  0.022260  0.489728  1
  Fe  Fe5  1  0.012205  0.494705  0.742887  1
  Fe  Fe6  1  0.010617  0.992280  0.004889  1
  Fe  Fe7  1  0.979789  0.512287  0.254480  1
  O  O8  1  0.823126  0.913355  0.293738  1
  O  O9  1  0.661813  0.159613  0.416616  1
  O  O10  1  0.696961  0.663071  0.166643  1
  O  O11  1  0.714908  0.651134  0.674623  1
  O  O12  1  0.310631  0.336393  0.833384  1
  O  O13  1  0.170878  0.090532  0.706185  1
  F  F14  1  0.780802  0.387483  0.552286  1
  F  F15  1  0.798352  0.395803  0.055521  1
  F  F16  1  0.795590  0.901854  0.799904  1
  F  F17  1  0.694006  0.145930  0.929156  1
  F  F18  1  0.309300  0.849077  0.071922  1
  F  F19  1  0.326756  0.844155  0.582704  1
  F  F20  1  0.287525  0.352362  0.322365  1
  F  F21  1  0.211422  0.598418  0.953367  1
  F  F22  1  0.193955  0.102661  0.199066  1
  F  F23  1  0.225386  0.610705  0.442811  1
