# generated using pymatgen
data_Li2FeF4
_symmetry_space_group_name_H-M   'P 1'
_cell_length_a   9.46873412
_cell_length_b   10.26799660
_cell_length_c   2.88914782
_cell_angle_alpha   90.00063566
_cell_angle_beta   89.99895115
_cell_angle_gamma   89.99796351
_symmetry_Int_Tables_number   1
_chemical_formula_structural   Li2FeF4
_chemical_formula_sum   'Li8 Fe4 F16'
_cell_volume   280.89719372
_cell_formula_units_Z   4
loop_
 _symmetry_equiv_pos_site_id
 _symmetry_equiv_pos_as_xyz
  1  'x, y, z'
loop_
 _atom_site_type_symbol
 _atom_site_label
 _atom_site_symmetry_multiplicity
 _atom_site_fract_x
 _atom_site_fract_y
 _atom_site_fract_z
 _atom_site_occupancy
  Li  Li0  1  0.080504  0.602685  0.749999  1
  Li  Li1  1  0.062121  0.121733  0.750001  1
  Li  Li2  1  0.437909  0.621726  0.250001  1
  Li  Li3  1  0.419471  0.102686  0.250001  1
  Li  Li4  1  0.580524  0.897338  0.750000  1
  Li  Li5  1  0.562042  0.378247  0.749998  1
  Li  Li6  1  0.937893  0.878267  0.250004  1
  Li  Li7  1  0.919517  0.397329  0.250002  1
  Fe  Fe8  1  0.260410  0.342869  0.750030  1
  Fe  Fe9  1  0.239587  0.842848  0.250009  1
  Fe  Fe10  1  0.760452  0.157166  0.749997  1
  Fe  Fe11  1  0.739552  0.657126  0.249982  1
  F  F12  1  0.061298  0.723533  0.250001  1
  F  F13  1  0.101303  0.936717  0.750006  1
  F  F14  1  0.125750  0.453737  0.249996  1
  F  F15  1  0.194871  0.193216  0.250006  1
  F  F16  1  0.305186  0.693213  0.749997  1
  F  F17  1  0.374248  0.953716  0.749990  1
  F  F18  1  0.398656  0.436736  0.250006  1
  F  F19  1  0.438698  0.223531  0.750001  1
  F  F20  1  0.561270  0.776470  0.249999  1
  F  F21  1  0.601305  0.563245  0.749982  1
  F  F22  1  0.625755  0.046290  0.249995  1
  F  F23  1  0.694832  0.306772  0.249980  1
  F  F24  1  0.805149  0.806760  0.750005  1
  F  F25  1  0.874248  0.546276  0.750009  1
  F  F26  1  0.898692  0.063287  0.250005  1
  F  F27  1  0.938755  0.276481  0.749998  1
