# generated using pymatgen
data_LiCu4(PO4)3
_symmetry_space_group_name_H-M   'P 1'
_cell_length_a   8.93328842
_cell_length_b   6.40294541
_cell_length_c   14.89811207
_cell_angle_alpha   90.00000000
_cell_angle_beta   89.89261415
_cell_angle_gamma   90.00000000
_symmetry_Int_Tables_number   1
_chemical_formula_structural   LiCu4(PO4)3
_chemical_formula_sum   'Li4 Cu16 P12 O48'
_cell_volume   852.16095087
_cell_formula_units_Z   4
loop_
 _symmetry_equiv_pos_site_id
 _symmetry_equiv_pos_as_xyz
  1  'x, y, z'
loop_
 _atom_site_type_symbol
 _atom_site_label
 _atom_site_symmetry_multiplicity
 _atom_site_fract_x
 _atom_site_fract_y
 _atom_site_fract_z
 _atom_site_occupancy
  Li  Li0  1  0.160581  0.750000  0.483606  1
  Li  Li1  1  0.338960  0.250000  0.320610  1
  Li  Li2  1  0.333380  0.250000  0.987117  1
  Li  Li3  1  0.643395  0.750000  0.016048  1
  Cu  Cu4  1  0.017975  0.500925  0.663914  1
  Cu  Cu5  1  0.008167  0.992043  0.002202  1
  Cu  Cu6  1  0.003326  0.993822  0.331338  1
  Cu  Cu7  1  0.017975  0.999075  0.663914  1
  Cu  Cu8  1  0.008167  0.507957  0.002202  1
  Cu  Cu9  1  0.003326  0.506178  0.331338  1
  Cu  Cu10  1  0.491311  0.993552  0.164330  1
  Cu  Cu11  1  0.481031  0.994735  0.829554  1
  Cu  Cu12  1  0.491311  0.506448  0.164330  1
  Cu  Cu13  1  0.481031  0.505265  0.829554  1
  Cu  Cu14  1  0.490150  0.994921  0.493216  1
  Cu  Cu15  1  0.490150  0.505079  0.493216  1
  Cu  Cu16  1  0.640610  0.750000  0.681812  1
  Cu  Cu17  1  0.862878  0.250000  0.854131  1
  Cu  Cu18  1  0.850940  0.250000  0.185448  1
  Cu  Cu19  1  0.859383  0.250000  0.517172  1
  P  P20  1  0.180011  0.250000  0.152508  1
  P  P21  1  0.177640  0.250000  0.485565  1
  P  P22  1  0.179494  0.250000  0.816410  1
  P  P23  1  0.319157  0.750000  0.318149  1
  P  P24  1  0.326807  0.750000  0.647820  1
  P  P25  1  0.317070  0.750000  0.987116  1
  P  P26  1  0.683504  0.250000  0.353840  1
  P  P27  1  0.684622  0.250000  0.682295  1
  P  P28  1  0.685267  0.250000  0.017442  1
  P  P29  1  0.812784  0.750000  0.175159  1
  P  P30  1  0.812045  0.750000  0.846960  1
  P  P31  1  0.818849  0.750000  0.510475  1
  O  O32  1  0.121929  0.049895  0.108259  1
  O  O33  1  0.120569  0.048813  0.773160  1
  O  O34  1  0.117723  0.048376  0.440761  1
  O  O35  1  0.120569  0.451187  0.773160  1
  O  O36  1  0.117723  0.451624  0.440761  1
  O  O37  1  0.121929  0.450105  0.108259  1
  O  O38  1  0.139941  0.250000  0.253865  1
  O  O39  1  0.126035  0.250000  0.584143  1
  O  O40  1  0.130767  0.250000  0.917283  1
  O  O41  1  0.141897  0.750000  0.974160  1
  O  O42  1  0.142025  0.750000  0.306608  1
  O  O43  1  0.149194  0.750000  0.632758  1
  O  O44  1  0.358285  0.250000  0.136760  1
  O  O45  1  0.352226  0.250000  0.465916  1
  O  O46  1  0.356648  0.250000  0.809404  1
  O  O47  1  0.371960  0.750000  0.084526  1
  O  O48  1  0.355920  0.750000  0.419643  1
  O  O49  1  0.377702  0.750000  0.746514  1
  O  O50  1  0.379309  0.952083  0.274826  1
  O  O51  1  0.382469  0.950354  0.601838  1
  O  O52  1  0.376483  0.951960  0.941720  1
  O  O53  1  0.382469  0.549646  0.601838  1
  O  O54  1  0.376483  0.548040  0.941720  1
  O  O55  1  0.379309  0.547917  0.274826  1
  O  O56  1  0.616029  0.051692  0.057734  1
  O  O57  1  0.619382  0.050687  0.394517  1
  O  O58  1  0.616029  0.448308  0.057734  1
  O  O59  1  0.619382  0.449313  0.394517  1
  O  O60  1  0.613765  0.051469  0.724289  1
  O  O61  1  0.613765  0.448531  0.724289  1
  O  O62  1  0.659720  0.250000  0.249952  1
  O  O63  1  0.665226  0.250000  0.914093  1
  O  O64  1  0.663443  0.250000  0.579711  1
  O  O65  1  0.638432  0.750000  0.190007  1
  O  O66  1  0.639326  0.750000  0.869570  1
  O  O67  1  0.645239  0.750000  0.534264  1
  O  O68  1  0.857517  0.250000  0.706998  1
  O  O69  1  0.861426  0.250000  0.039364  1
  O  O70  1  0.862067  0.250000  0.371148  1
  O  O71  1  0.862448  0.750000  0.412433  1
  O  O72  1  0.850409  0.750000  0.074471  1
  O  O73  1  0.836845  0.750000  0.744033  1
  O  O74  1  0.879153  0.551382  0.221582  1
  O  O75  1  0.883879  0.553118  0.890274  1
  O  O76  1  0.879153  0.948618  0.221582  1
  O  O77  1  0.883879  0.946882  0.890274  1
  O  O78  1  0.884673  0.552233  0.559286  1
  O  O79  1  0.884673  0.947767  0.559286  1
