# generated using pymatgen
data_Ce4ThO9
_symmetry_space_group_name_H-M   'P 1'
_cell_length_a   6.79341202
_cell_length_b   5.60736154
_cell_length_c   6.79341202
_cell_angle_alpha   114.37492474
_cell_angle_beta   80.19321998
_cell_angle_gamma   114.37492474
_symmetry_Int_Tables_number   1
_chemical_formula_structural   Ce4ThO9
_chemical_formula_sum   'Ce4 Th1 O9'
_cell_volume   214.70486997
_cell_formula_units_Z   1
loop_
 _symmetry_equiv_pos_site_id
 _symmetry_equiv_pos_as_xyz
  1  'x, y, z'
loop_
 _atom_site_type_symbol
 _atom_site_label
 _atom_site_symmetry_multiplicity
 _atom_site_fract_x
 _atom_site_fract_y
 _atom_site_fract_z
 _atom_site_occupancy
  Ce  Ce0  1  0.999313  0.985432  0.020878  1
  Ce  Ce1  1  0.420878  0.635446  0.800687  1
  Ce  Ce2  1  0.200687  0.765241  0.379122  1
  Ce  Ce3  1  0.779122  0.213882  0.599313  1
  Th  Th4  1  0.600000  0.400000  0.200000  1
  O  O5  1  0.100000  0.650000  0.700000  1
  O  O6  1  0.317744  0.952420  0.099429  1
  O  O7  1  0.700571  0.565323  0.917744  1
  O  O8  1  0.468712  0.249281  0.520603  1
  O  O9  1  0.731288  0.059966  0.879397  1
  O  O10  1  0.499429  0.747009  0.482256  1
  O  O11  1  0.279397  0.419431  0.068712  1
  O  O12  1  0.920603  0.871322  0.331288  1
  O  O13  1  0.882256  0.335248  0.300571  1
