# generated using pymatgen
data_Na5V2P(CO4)4
_symmetry_space_group_name_H-M   'P 1'
_cell_length_a   9.94322927
_cell_length_b   10.01624435
_cell_length_c   9.94322927
_cell_angle_alpha   59.41788135
_cell_angle_beta   91.43355034
_cell_angle_gamma   120.58211865
_symmetry_Int_Tables_number   1
_chemical_formula_structural   Na5V2P(CO4)4
_chemical_formula_sum   'Na10 V4 P2 C8 O32'
_cell_volume   696.46356060
_cell_formula_units_Z   2
loop_
 _symmetry_equiv_pos_site_id
 _symmetry_equiv_pos_as_xyz
  1  'x, y, z'
loop_
 _atom_site_type_symbol
 _atom_site_label
 _atom_site_symmetry_multiplicity
 _atom_site_fract_x
 _atom_site_fract_y
 _atom_site_fract_z
 _atom_site_occupancy
  Na  Na0  1  0.684324  0.345129  0.082226  1
  Na  Na1  1  0.917774  0.845129  0.315676  1
  Na  Na2  1  0.338114  0.267681  0.314825  1
  Na  Na3  1  0.917494  0.232319  0.929567  1
  Na  Na4  1  0.070433  0.732319  0.082506  1
  Na  Na5  1  0.072645  0.154871  0.660805  1
  Na  Na6  1  0.685175  0.767681  0.661886  1
  Na  Na7  1  0.328124  0.250000  0.921876  1
  Na  Na8  1  0.339195  0.654871  0.927355  1
  Na  Na9  1  0.078124  0.750000  0.671876  1
  V  V10  1  0.500285  0.997459  0.002934  1
  V  V11  1  0.502827  0.002541  0.500393  1
  V  V12  1  0.499607  0.502541  0.497173  1
  V  V13  1  0.997066  0.497459  0.499715  1
  P  P14  1  0.127316  0.250000  0.122684  1
  P  P15  1  0.877316  0.750000  0.872684  1
  C  C16  1  0.712314  0.073697  0.718700  1
  C  C17  1  0.707603  0.426303  0.361383  1
  C  C18  1  0.359824  0.073811  0.711860  1
  C  C19  1  0.714327  0.426189  0.713988  1
  C  C20  1  0.638617  0.926303  0.292397  1
  C  C21  1  0.281300  0.573697  0.287686  1
  C  C22  1  0.286012  0.926189  0.285673  1
  C  C23  1  0.288140  0.573811  0.640175  1
  O  O24  1  0.640698  0.042646  0.147081  1
  O  O25  1  0.854853  0.210049  0.608712  1
  O  O26  1  0.681239  0.289951  0.355196  1
  O  O27  1  0.400191  0.042199  0.313845  1
  O  O28  1  0.852919  0.542646  0.359302  1
  O  O29  1  0.320648  0.378138  0.057303  1
  O  O30  1  0.064558  0.121862  0.057491  1
  O  O31  1  0.681859  0.046282  0.859022  1
  O  O32  1  0.594695  0.453718  0.364423  1
  O  O33  1  0.357752  0.043088  0.599386  1
  O  O34  1  0.857526  0.456912  0.685337  1
  O  O35  1  0.068657  0.382035  0.049699  1
  O  O36  1  0.068266  0.117965  0.313378  1
  O  O37  1  0.644804  0.789951  0.318761  1
  O  O38  1  0.391288  0.710049  0.145147  1
  O  O39  1  0.686155  0.542199  0.599809  1
  O  O40  1  0.310272  0.457354  0.401947  1
  O  O41  1  0.357332  0.212786  0.684921  1
  O  O42  1  0.602293  0.287214  0.855455  1
  O  O43  1  0.942509  0.621862  0.935442  1
  O  O44  1  0.942697  0.878138  0.679352  1
  O  O45  1  0.140978  0.546282  0.318141  1
  O  O46  1  0.635577  0.953718  0.405305  1
  O  O47  1  0.314663  0.956912  0.142474  1
  O  O48  1  0.400614  0.543088  0.642248  1
  O  O49  1  0.950301  0.882035  0.931343  1
  O  O50  1  0.686622  0.617965  0.931734  1
  O  O51  1  0.143956  0.457801  0.642008  1
  O  O52  1  0.598053  0.957354  0.689728  1
  O  O53  1  0.315079  0.712786  0.642668  1
  O  O54  1  0.144545  0.787214  0.397707  1
  O  O55  1  0.357992  0.957801  0.856044  1
