# generated using pymatgen
data_LiMnF4
_symmetry_space_group_name_H-M   'P 1'
_cell_length_a   6.30966388
_cell_length_b   6.36120761
_cell_length_c   6.86810942
_cell_angle_alpha   90.00000000
_cell_angle_beta   90.00000000
_cell_angle_gamma   90.00000000
_symmetry_Int_Tables_number   1
_chemical_formula_structural   LiMnF4
_chemical_formula_sum   'Li4 Mn4 F16'
_cell_volume   275.66587022
_cell_formula_units_Z   4
loop_
 _symmetry_equiv_pos_site_id
 _symmetry_equiv_pos_as_xyz
  1  'x, y, z'
loop_
 _atom_site_type_symbol
 _atom_site_label
 _atom_site_symmetry_multiplicity
 _atom_site_fract_x
 _atom_site_fract_y
 _atom_site_fract_z
 _atom_site_occupancy
  Li  Li0  1  0.240604  0.250000  0.267930  1
  Li  Li1  1  0.259396  0.750000  0.767930  1
  Li  Li2  1  0.740604  0.250000  0.232070  1
  Li  Li3  1  0.759396  0.750000  0.732070  1
  Mn  Mn4  1  0.008727  0.250000  0.749858  1
  Mn  Mn5  1  0.491273  0.750000  0.249858  1
  Mn  Mn6  1  0.508727  0.250000  0.750142  1
  Mn  Mn7  1  0.991273  0.750000  0.250142  1
  F  F8  1  0.008689  0.958823  0.749327  1
  F  F9  1  0.008689  0.541177  0.749327  1
  F  F10  1  0.241863  0.750000  0.057084  1
  F  F11  1  0.258209  0.250000  0.934791  1
  F  F12  1  0.241791  0.750000  0.434791  1
  F  F13  1  0.258137  0.250000  0.557084  1
  F  F14  1  0.491311  0.041177  0.249327  1
  F  F15  1  0.491311  0.458823  0.249327  1
  F  F16  1  0.508689  0.958823  0.750673  1
  F  F17  1  0.508689  0.541177  0.750673  1
  F  F18  1  0.741863  0.750000  0.442916  1
  F  F19  1  0.758209  0.250000  0.565209  1
  F  F20  1  0.741791  0.750000  0.065209  1
  F  F21  1  0.758137  0.250000  0.942916  1
  F  F22  1  0.991311  0.458823  0.250673  1
  F  F23  1  0.991311  0.041177  0.250673  1
