# generated using pymatgen
data_LiZnBO3
_symmetry_space_group_name_H-M   'P 1'
_cell_length_a   5.08204857
_cell_length_b   8.85928038
_cell_length_c   11.22199842
_cell_angle_alpha   89.98722443
_cell_angle_beta   90.41461129
_cell_angle_gamma   89.90380485
_symmetry_Int_Tables_number   1
_chemical_formula_structural   LiZnBO3
_chemical_formula_sum   'Li8 Zn8 B8 O24'
_cell_volume   505.23736961
_cell_formula_units_Z   8
loop_
 _symmetry_equiv_pos_site_id
 _symmetry_equiv_pos_as_xyz
  1  'x, y, z'
loop_
 _atom_site_type_symbol
 _atom_site_label
 _atom_site_symmetry_multiplicity
 _atom_site_fract_x
 _atom_site_fract_y
 _atom_site_fract_z
 _atom_site_occupancy
  Li  Li0  1  0.324614  0.014506  0.833623  1
  Li  Li1  1  0.651688  0.997881  0.102403  1
  Li  Li2  1  0.663926  0.002560  0.647462  1
  Li  Li3  1  0.175664  0.509519  0.666885  1
  Li  Li4  1  0.896233  0.491515  0.274397  1
  Li  Li5  1  0.834822  0.509142  0.847145  1
  Li  Li6  1  0.847836  0.506343  0.465714  1
  Li  Li7  1  0.339126  0.993502  0.327634  1
  Zn  Zn8  1  0.145052  0.169118  0.109430  1
  Zn  Zn9  1  0.839559  0.162420  0.378980  1
  Zn  Zn10  1  0.338174  0.345010  0.898093  1
  Zn  Zn11  1  0.655768  0.325716  0.647334  1
  Zn  Zn12  1  0.348568  0.666414  0.349735  1
  Zn  Zn13  1  0.160270  0.837705  0.605307  1
  Zn  Zn14  1  0.633513  0.654729  0.091626  1
  Zn  Zn15  1  0.849632  0.839307  0.887941  1
  B  B16  1  0.156362  0.168852  0.628659  1
  B  B17  1  0.832659  0.170796  0.870108  1
  B  B18  1  0.341982  0.335592  0.374593  1
  B  B19  1  0.654571  0.326611  0.114905  1
  B  B20  1  0.336187  0.672646  0.866259  1
  B  B21  1  0.155403  0.831145  0.125822  1
  B  B22  1  0.659993  0.670429  0.632807  1
  B  B23  1  0.847908  0.826342  0.376999  1
  O  O24  1  0.295019  0.036586  0.651143  1
  O  O25  1  0.096727  0.169231  0.901209  1
  O  O26  1  0.689506  0.038151  0.869072  1
  O  O27  1  0.219255  0.198195  0.350864  1
  O  O28  1  0.276985  0.307040  0.643036  1
  O  O29  1  0.776877  0.191134  0.145874  1
  O  O30  1  0.889337  0.161764  0.595865  1
  O  O31  1  0.394791  0.325821  0.074823  1
  O  O32  1  0.189340  0.467015  0.379225  1
  O  O33  1  0.706565  0.306467  0.837779  1
  O  O34  1  0.616145  0.344865  0.390500  1
  O  O35  1  0.201170  0.539350  0.846243  1
  O  O36  1  0.789199  0.460463  0.121566  1
  O  O37  1  0.286436  0.700040  0.161854  1
  O  O38  1  0.394773  0.665386  0.611071  1
  O  O39  1  0.803053  0.533274  0.635982  1
  O  O40  1  0.602846  0.664517  0.902975  1
  O  O41  1  0.218117  0.810743  0.852716  1
  O  O42  1  0.118212  0.835310  0.407205  1
  O  O43  1  0.736084  0.682755  0.362397  1
  O  O44  1  0.792783  0.804737  0.651976  1
  O  O45  1  0.287644  0.967548  0.136862  1
  O  O46  1  0.894383  0.828095  0.083207  1
  O  O47  1  0.702780  0.956626  0.362963  1
