# generated using pymatgen
data_Mn6O11F
_symmetry_space_group_name_H-M   'P 1'
_cell_length_a   7.08658463
_cell_length_b   5.39327403
_cell_length_c   5.39327403
_cell_angle_alpha   71.67764794
_cell_angle_beta   71.96284684
_cell_angle_gamma   71.96284684
_symmetry_Int_Tables_number   1
_chemical_formula_structural   Mn6O11F
_chemical_formula_sum   'Mn6 O11 F1'
_cell_volume   180.84433475
_cell_formula_units_Z   1
loop_
 _symmetry_equiv_pos_site_id
 _symmetry_equiv_pos_as_xyz
  1  'x, y, z'
loop_
 _atom_site_type_symbol
 _atom_site_label
 _atom_site_symmetry_multiplicity
 _atom_site_fract_x
 _atom_site_fract_y
 _atom_site_fract_z
 _atom_site_occupancy
  Mn  Mn0  1  0.834363  0.667783  0.667783  1
  Mn  Mn1  1  0.332368  0.655541  0.655541  1
  Mn  Mn2  1  0.668993  0.337748  0.337748  1
  Mn  Mn3  1  0.161787  0.331100  0.331100  1
  Mn  Mn4  1  0.511413  0.006205  0.006205  1
  Mn  Mn5  1  0.990194  0.000696  0.000696  1
  O  O6  1  0.664159  0.028312  0.640407  1
  O  O7  1  0.334514  0.360567  0.970576  1
  O  O8  1  0.628606  0.565301  0.565301  1
  O  O9  1  0.961051  0.231623  0.231623  1
  O  O10  1  0.702263  0.105860  0.105860  1
  O  O11  1  0.370861  0.432309  0.432309  1
  O  O12  1  0.038348  0.767241  0.767241  1
  O  O13  1  0.001031  0.305688  0.695710  1
  O  O14  1  0.334514  0.970576  0.360567  1
  O  O15  1  0.664159  0.640407  0.028312  1
  O  O16  1  0.001031  0.695710  0.305688  1
  F  F17  1  0.300344  0.897332  0.897332  1
