# generated using pymatgen
data_Li5Fe2Co3O10
_symmetry_space_group_name_H-M   'P 1'
_cell_length_a   5.04628857
_cell_length_b   2.87435769
_cell_length_c   23.54650143
_cell_angle_alpha   89.99999837
_cell_angle_beta   94.41143614
_cell_angle_gamma   90.00000262
_symmetry_Int_Tables_number   1
_chemical_formula_structural   Li5Fe2Co3O10
_chemical_formula_sum   'Li10 Fe4 Co6 O20'
_cell_volume   340.52636251
_cell_formula_units_Z   2
loop_
 _symmetry_equiv_pos_site_id
 _symmetry_equiv_pos_as_xyz
  1  'x, y, z'
loop_
 _atom_site_type_symbol
 _atom_site_label
 _atom_site_symmetry_multiplicity
 _atom_site_fract_x
 _atom_site_fract_y
 _atom_site_fract_z
 _atom_site_occupancy
  Li  Li0  1  0.800903  0.500000  0.899184  1
  Li  Li1  1  0.599993  1.000000  0.800120  1
  Li  Li2  1  0.400165  0.500000  0.700686  1
  Li  Li3  1  0.198306  1.000000  0.601218  1
  Li  Li4  1  0.999422  0.500000  0.500733  1
  Li  Li5  1  0.798898  0.000000  0.400558  1
  Li  Li6  1  0.599522  0.500000  0.300396  1
  Li  Li7  1  0.400078  1.000000  0.199739  1
  Li  Li8  1  0.200113  0.500000  0.099112  1
  Li  Li9  1  0.001935  0.000000  0.998265  1
  Fe  Fe10  1  0.501455  1.000000  0.502157  1
  Fe  Fe11  1  0.106082  0.000000  0.303686  1
  Fe  Fe12  1  0.899679  0.500000  0.199582  1
  Fe  Fe13  1  0.693731  0.000000  0.095416  1
  Co  Co14  1  0.299179  0.000000  0.898103  1
  Co  Co15  1  0.099500  0.500000  0.799611  1
  Co  Co16  1  0.900125  1.000000  0.700565  1
  Co  Co17  1  0.701680  0.500000  0.601601  1
  Co  Co18  1  0.303760  0.500000  0.403218  1
  Co  Co19  1  0.495074  0.500000  0.996071  1
  O  O20  1  0.617241  1.000000  0.949546  1
  O  O21  1  0.179473  0.500000  0.945106  1
  O  O22  1  0.979592  0.000000  0.847112  1
  O  O23  1  0.419873  0.500000  0.851016  1
  O  O24  1  0.219486  0.000000  0.752249  1
  O  O25  1  0.780375  0.500000  0.748062  1
  O  O26  1  0.581293  1.000000  0.648833  1
  O  O27  1  0.824959  1.000000  0.554263  1
  O  O28  1  0.019816  0.500000  0.653107  1
  O  O29  1  0.379096  0.500000  0.550359  1
  O  O30  1  0.622114  0.500000  0.453912  1
  O  O31  1  0.179190  0.000000  0.449623  1
  O  O32  1  0.435204  0.000000  0.356791  1
  O  O33  1  0.972276  0.500000  0.353682  1
  O  O34  1  0.763609  1.000000  0.250388  1
  O  O35  1  0.239335  0.500000  0.252209  1
  O  O36  1  0.035809  0.000000  0.148840  1
  O  O37  1  0.560468  0.500000  0.146890  1
  O  O38  1  0.827720  0.500000  0.045459  1
  O  O39  1  0.363474  1.000000  0.042533  1
