# generated using pymatgen
data_Li3Cr3CoO8
_symmetry_space_group_name_H-M   'P 1'
_cell_length_a   5.82576948
_cell_length_b   5.93686104
_cell_length_c   5.89613606
_cell_angle_alpha   120.86890524
_cell_angle_beta   60.38656098
_cell_angle_gamma   89.99901269
_symmetry_Int_Tables_number   1
_chemical_formula_structural   Li3Cr3CoO8
_chemical_formula_sum   'Li3 Cr3 Co1 O8'
_cell_volume   143.12296652
_cell_formula_units_Z   1
loop_
 _symmetry_equiv_pos_site_id
 _symmetry_equiv_pos_as_xyz
  1  'x, y, z'
loop_
 _atom_site_type_symbol
 _atom_site_label
 _atom_site_symmetry_multiplicity
 _atom_site_fract_x
 _atom_site_fract_y
 _atom_site_fract_z
 _atom_site_occupancy
  Li  Li0  1  0.499993  0.499997  0.999990  1
  Li  Li1  1  0.499996  0.999993  0.500013  1
  Li  Li2  1  0.000001  0.999983  0.499985  1
  Cr  Cr3  1  0.500036  0.499973  0.499929  1
  Cr  Cr4  1  0.499908  0.000013  0.000097  1
  Cr  Cr5  1  0.000017  0.499981  0.499893  1
  Co  Co6  1  0.000011  0.000006  0.999996  1
  O  O7  1  0.732044  0.751329  0.535886  1
  O  O8  1  0.238014  0.746547  0.523909  1
  O  O9  1  0.739595  0.227233  0.013753  1
  O  O10  1  0.753163  0.772746  0.986270  1
  O  O11  1  0.246853  0.227272  0.013765  1
  O  O12  1  0.260428  0.772795  0.986258  1
  O  O13  1  0.761991  0.253436  0.476081  1
  O  O14  1  0.267951  0.248693  0.464176  1
