# generated using pymatgen
data_Na2Bi4O7
_symmetry_space_group_name_H-M   'P 1'
_cell_length_a   10.52151075
_cell_length_b   10.52151075
_cell_length_c   9.93761832
_cell_angle_alpha   62.75465183
_cell_angle_beta   117.24534817
_cell_angle_gamma   65.16489250
_symmetry_Int_Tables_number   1
_chemical_formula_structural   Na2Bi4O7
_chemical_formula_sum   'Na4 Bi8 O14'
_cell_volume   525.73066027
_cell_formula_units_Z   2
loop_
 _symmetry_equiv_pos_site_id
 _symmetry_equiv_pos_as_xyz
  1  'x, y, z'
loop_
 _atom_site_type_symbol
 _atom_site_label
 _atom_site_symmetry_multiplicity
 _atom_site_fract_x
 _atom_site_fract_y
 _atom_site_fract_z
 _atom_site_occupancy
  Na  Na0  1  0.410865  0.914958  0.577229  1
  Na  Na1  1  0.914958  0.410865  0.922771  1
  Na  Na2  1  0.085042  0.589135  0.077229  1
  Na  Na3  1  0.589135  0.085042  0.422771  1
  Bi  Bi4  1  0.205046  0.780495  0.825554  1
  Bi  Bi5  1  0.124844  0.515367  0.752863  1
  Bi  Bi6  1  0.219505  0.794954  0.325554  1
  Bi  Bi7  1  0.484633  0.875156  0.252863  1
  Bi  Bi8  1  0.515367  0.124844  0.747137  1
  Bi  Bi9  1  0.780495  0.205046  0.674446  1
  Bi  Bi10  1  0.875156  0.484633  0.247137  1
  Bi  Bi11  1  0.794954  0.219505  0.174446  1
  O  O12  1  0.302579  0.469844  0.022591  1
  O  O13  1  0.043897  0.833387  0.539687  1
  O  O14  1  0.735874  0.796680  0.922691  1
  O  O15  1  0.929540  0.929540  0.750000  1
  O  O16  1  0.530156  0.697421  0.522591  1
  O  O17  1  0.166613  0.956103  0.039688  1
  O  O18  1  0.796680  0.735874  0.577309  1
  O  O19  1  0.203320  0.264126  0.422691  1
  O  O20  1  0.833387  0.043897  0.960313  1
  O  O21  1  0.469844  0.302579  0.477409  1
  O  O22  1  0.070460  0.070460  0.250000  1
  O  O23  1  0.264126  0.203320  0.077309  1
  O  O24  1  0.956103  0.166613  0.460313  1
  O  O25  1  0.697421  0.530156  0.977409  1
