# generated using pymatgen
data_Na2Ca6Mg7Fe(SiO3)16
_symmetry_space_group_name_H-M   'P 1'
_cell_length_a   5.31407521
_cell_length_b   13.34261545
_cell_length_c   13.34261487
_cell_angle_alpha   84.57522339
_cell_angle_beta   78.06021845
_cell_angle_gamma   78.06021448
_symmetry_Int_Tables_number   1
_chemical_formula_structural   Na2Ca6Mg7Fe(SiO3)16
_chemical_formula_sum   'Na2 Ca6 Mg7 Fe1 Si16 O48'
_cell_volume   904.22519018
_cell_formula_units_Z   1
loop_
 _symmetry_equiv_pos_site_id
 _symmetry_equiv_pos_as_xyz
  1  'x, y, z'
loop_
 _atom_site_type_symbol
 _atom_site_label
 _atom_site_symmetry_multiplicity
 _atom_site_fract_x
 _atom_site_fract_y
 _atom_site_fract_z
 _atom_site_occupancy
  Na  Na0  1  0.250000  0.848228  0.651772  1
  Na  Na1  1  0.750000  0.149764  0.350236  1
  Ca  Ca2  1  0.250000  0.347909  0.152091  1
  Ca  Ca3  1  0.249621  0.851461  0.149138  1
  Ca  Ca4  1  0.250379  0.350862  0.648539  1
  Ca  Ca5  1  0.753290  0.152178  0.851567  1
  Ca  Ca6  1  0.746710  0.648433  0.347822  1
  Ca  Ca7  1  0.750000  0.651043  0.848957  1
  Mg  Mg8  1  0.250000  0.047412  0.452588  1
  Mg  Mg9  1  0.247865  0.547155  0.454290  1
  Mg  Mg10  1  0.252135  0.045710  0.952845  1
  Mg  Mg11  1  0.250000  0.546181  0.953819  1
  Mg  Mg12  1  0.750000  0.452973  0.047027  1
  Mg  Mg13  1  0.748794  0.455499  0.545034  1
  Mg  Mg14  1  0.751206  0.954966  0.044501  1
  Fe  Fe15  1  0.750000  0.951705  0.548295  1
  Si  Si16  1  0.269105  0.095490  0.189749  1
  Si  Si17  1  0.230895  0.310251  0.404510  1
  Si  Si18  1  0.269418  0.095408  0.690718  1
  Si  Si19  1  0.268193  0.597849  0.189334  1
  Si  Si20  1  0.231807  0.310666  0.902151  1
  Si  Si21  1  0.230582  0.809282  0.404592  1
  Si  Si22  1  0.267407  0.598858  0.689034  1
  Si  Si23  1  0.768966  0.188474  0.099012  1
  Si  Si24  1  0.232593  0.810966  0.901142  1
  Si  Si25  1  0.731034  0.400988  0.311526  1
  Si  Si26  1  0.766146  0.187925  0.597590  1
  Si  Si27  1  0.768807  0.690987  0.094988  1
  Si  Si28  1  0.731193  0.405012  0.809013  1
  Si  Si29  1  0.733854  0.902410  0.312075  1
  Si  Si30  1  0.766691  0.691199  0.597406  1
  Si  Si31  1  0.733309  0.902594  0.808801  1
  O  O32  1  0.001390  0.317458  0.333563  1
  O  O33  1  0.195269  0.049871  0.305008  1
  O  O34  1  0.359360  0.013469  0.099926  1
  O  O35  1  0.998369  0.317331  0.831859  1
  O  O36  1  0.000211  0.815020  0.334270  1
  O  O37  1  0.140640  0.400074  0.486531  1
  O  O38  1  0.177017  0.053738  0.805487  1
  O  O39  1  0.177826  0.560115  0.306286  1
  O  O40  1  0.304731  0.194992  0.450129  1
  O  O41  1  0.370940  0.013306  0.598940  1
  O  O42  1  0.357128  0.514021  0.102264  1
  O  O43  1  0.498610  0.166437  0.182542  1
  O  O44  1  0.998296  0.817735  0.832197  1
  O  O45  1  0.142872  0.397736  0.985979  1
  O  O46  1  0.129060  0.901060  0.486694  1
  O  O47  1  0.181850  0.557813  0.805569  1
  O  O48  1  0.494768  0.333608  0.317650  1
  O  O49  1  0.680086  0.304865  0.057656  1
  O  O50  1  0.322174  0.193714  0.939885  1
  O  O51  1  0.322983  0.694513  0.446262  1
  O  O52  1  0.356938  0.515063  0.601562  1
  O  O53  1  0.501631  0.668141  0.182669  1
  O  O54  1  0.499789  0.165730  0.684980  1
  O  O55  1  0.858973  0.101183  0.014592  1
  O  O56  1  0.143062  0.898438  0.984937  1
  O  O57  1  0.498012  0.335070  0.814850  1
  O  O58  1  0.499092  0.832931  0.319285  1
  O  O59  1  0.641027  0.485408  0.398817  1
  O  O60  1  0.680838  0.303741  0.556497  1
  O  O61  1  0.678509  0.807254  0.054925  1
  O  O62  1  0.318150  0.694431  0.942187  1
  O  O63  1  0.501704  0.667803  0.682265  1
  O  O64  1  0.819914  0.442344  0.195135  1
  O  O65  1  0.855973  0.094828  0.518123  1
  O  O66  1  0.856787  0.601756  0.013489  1
  O  O67  1  0.005232  0.182350  0.166392  1
  O  O68  1  0.504712  0.832246  0.817254  1
  O  O69  1  0.643213  0.486511  0.898244  1
  O  O70  1  0.644027  0.981877  0.405172  1
  O  O71  1  0.683561  0.809983  0.554941  1
  O  O72  1  0.821491  0.445075  0.692746  1
  O  O73  1  0.819162  0.943503  0.196259  1
  O  O74  1  0.854471  0.605829  0.511878  1
  O  O75  1  0.000908  0.180715  0.667069  1
  O  O76  1  0.001988  0.685150  0.164930  1
  O  O77  1  0.645529  0.988122  0.894171  1
  O  O78  1  0.816439  0.945059  0.690017  1
  O  O79  1  0.995288  0.682746  0.667754  1
