# generated using pymatgen
data_LiVPO4
_symmetry_space_group_name_H-M   'P 1'
_cell_length_a   5.99066644
_cell_length_b   5.70100012
_cell_length_c   5.77877838
_cell_angle_alpha   60.44424569
_cell_angle_beta   58.77948173
_cell_angle_gamma   90.00000000
_symmetry_Int_Tables_number   1
_chemical_formula_structural   LiVPO4
_chemical_formula_sum   'Li2 V2 P2 O8'
_cell_volume   137.87287527
_cell_formula_units_Z   2
loop_
 _symmetry_equiv_pos_site_id
 _symmetry_equiv_pos_as_xyz
  1  'x, y, z'
loop_
 _atom_site_type_symbol
 _atom_site_label
 _atom_site_symmetry_multiplicity
 _atom_site_fract_x
 _atom_site_fract_y
 _atom_site_fract_z
 _atom_site_occupancy
  Li  Li0  1  0.000000  0.000000  0.500000  1
  Li  Li1  1  0.000000  0.500000  0.500000  1
  V  V2  1  0.000000  0.000000  0.000000  1
  V  V3  1  0.500000  0.000000  0.000000  1
  P  P4  1  0.622975  0.372975  0.254050  1
  P  P5  1  0.377025  0.627025  0.745950  1
  O  O6  1  0.260527  0.287107  0.978946  1
  O  O7  1  0.739473  0.266053  0.021054  1
  O  O8  1  0.732183  0.266325  0.467352  1
  O  O9  1  0.300465  0.266325  0.467352  1
  O  O10  1  0.260527  0.733947  0.978946  1
  O  O11  1  0.739473  0.712893  0.021054  1
  O  O12  1  0.267817  0.733675  0.532648  1
  O  O13  1  0.699535  0.733675  0.532648  1
