# generated using pymatgen
data_Li4V3P8O29
_symmetry_space_group_name_H-M   'P 1'
_cell_length_a   9.75727784
_cell_length_b   9.74133461
_cell_length_c   14.10931888
_cell_angle_alpha   90.09543493
_cell_angle_beta   90.33115083
_cell_angle_gamma   60.09614309
_symmetry_Int_Tables_number   1
_chemical_formula_structural   Li4V3P8O29
_chemical_formula_sum   'Li8 V6 P16 O58'
_cell_volume   1162.50830351
_cell_formula_units_Z   2
loop_
 _symmetry_equiv_pos_site_id
 _symmetry_equiv_pos_as_xyz
  1  'x, y, z'
loop_
 _atom_site_type_symbol
 _atom_site_label
 _atom_site_symmetry_multiplicity
 _atom_site_fract_x
 _atom_site_fract_y
 _atom_site_fract_z
 _atom_site_occupancy
  Li  Li0  1  0.903839  0.762840  0.057396  1
  Li  Li1  1  0.768300  0.328183  0.058454  1
  Li  Li2  1  0.334901  0.901618  0.060131  1
  Li  Li3  1  0.665890  0.237623  0.440916  1
  Li  Li4  1  0.335035  0.766770  0.558019  1
  Li  Li5  1  0.091166  0.673959  0.440700  1
  Li  Li6  1  0.003953  0.999181  0.996458  1
  Li  Li7  1  0.995272  0.043760  0.503284  1
  V  V8  1  0.567001  0.434233  0.246006  1
  V  V9  1  0.434643  0.562709  0.755268  1
  V  V10  1  0.566590  0.997854  0.748733  1
  V  V11  1  0.433653  0.003348  0.253385  1
  V  V12  1  0.998804  0.562387  0.251859  1
  V  V13  1  0.000830  0.433640  0.746749  1
  P  P14  1  0.913509  0.775852  0.840158  1
  P  P15  1  0.775822  0.917770  0.342846  1
  P  P16  1  0.916486  0.305259  0.344094  1
  P  P17  1  0.664056  0.670697  0.130077  1
  P  P18  1  0.663564  0.666578  0.631077  1
  P  P19  1  0.779887  0.310527  0.840652  1
  P  P20  1  0.686386  0.224755  0.658665  1
  P  P21  1  0.312300  0.914104  0.844680  1
  P  P22  1  0.692104  0.081576  0.155936  1
  P  P23  1  0.316114  0.771937  0.342366  1
  P  P24  1  0.221592  0.691609  0.160316  1
  P  P25  1  0.337171  0.333997  0.370026  1
  P  P26  1  0.332636  0.329761  0.868179  1
  P  P27  1  0.089208  0.688728  0.657509  1
  P  P28  1  0.220959  0.084661  0.660572  1
  P  P29  1  0.084224  0.221281  0.158819  1
  O  O30  1  0.015085  0.771814  0.566990  1
  O  O31  1  0.915553  0.745060  0.341371  1
  O  O32  1  0.789086  0.991251  0.072395  1
  O  O33  1  0.740940  0.914983  0.830401  1
  O  O34  1  0.915825  0.617529  0.825682  1
  O  O35  1  0.810741  0.676987  0.170468  1
  O  O36  1  0.920102  0.462105  0.330685  1
  O  O37  1  0.997696  0.205158  0.075313  1
  O  O38  1  0.917497  0.344814  0.831023  1
  O  O39  1  0.661869  0.814266  0.678643  1
  O  O40  1  0.617362  0.917228  0.328305  1
  O  O41  1  0.813810  0.521263  0.675778  1
  O  O42  1  0.653156  0.680478  0.024368  1
  O  O43  1  0.658265  0.672630  0.526177  1
  O  O44  1  0.675851  0.512555  0.166822  1
  O  O45  1  0.467867  0.915164  0.829576  1
  O  O46  1  0.511959  0.814325  0.175337  1
  O  O47  1  0.741160  0.343409  0.334059  1
  O  O48  1  0.797331  0.202723  0.749755  1
  O  O49  1  0.769540  0.216004  0.568724  1
  O  O50  1  0.788176  0.227809  0.931066  1
  O  O51  1  0.620758  0.468532  0.826971  1
  O  O52  1  0.513911  0.666765  0.672194  1
  O  O53  1  0.661049  0.253967  0.156872  1
  O  O54  1  0.471891  0.618705  0.327757  1
  O  O55  1  0.341978  0.916211  0.333125  1
  O  O56  1  0.797170  0.999867  0.249638  1
  O  O57  1  0.780707  0.008861  0.426659  1
  O  O58  1  0.205615  0.994019  0.579816  1
  O  O59  1  0.652436  0.085826  0.667481  1
  O  O60  1  0.531372  0.382592  0.674237  1
  O  O61  1  0.346021  0.740711  0.830943  1
  O  O62  1  0.489062  0.326186  0.329152  1
  O  O63  1  0.380884  0.534843  0.171827  1
  O  O64  1  0.212027  0.792845  0.078562  1
  O  O65  1  0.232421  0.777210  0.433108  1
  O  O66  1  0.198128  0.790707  0.257054  1
  O  O67  1  0.262330  0.656654  0.663641  1
  O  O68  1  0.476419  0.183767  0.821400  1
  O  O69  1  0.535301  0.080508  0.171098  1
  O  O70  1  0.336698  0.478288  0.822926  1
  O  O71  1  0.332775  0.334253  0.972635  1
  O  O72  1  0.341214  0.324838  0.475151  1
  O  O73  1  0.188865  0.487522  0.331208  1
  O  O74  1  0.381381  0.078649  0.669787  1
  O  O75  1  0.332766  0.188415  0.320245  1
  O  O76  1  0.083047  0.656511  0.161539  1
  O  O77  1  0.003451  0.796109  0.749454  1
  O  O78  1  0.986596  0.787880  0.930674  1
  O  O79  1  0.087465  0.532020  0.672097  1
  O  O80  1  0.183528  0.336240  0.821152  1
  O  O81  1  0.081691  0.379271  0.170093  1
  O  O82  1  0.258499  0.081219  0.162041  1
  O  O83  1  0.230448  0.980107  0.936220  1
  O  O84  1  0.197207  0.010607  0.758258  1
  O  O85  1  0.084758  0.259193  0.663451  1
  O  O86  1  0.990540  0.212646  0.430447  1
  O  O87  1  0.003744  0.198900  0.252607  1
