# generated using pymatgen
data_Na3Ca18Fe(PO4)14
_symmetry_space_group_name_H-M   'P 1'
_cell_length_a   13.88255150
_cell_length_b   13.87098095
_cell_length_c   13.89229037
_cell_angle_alpha   44.51599191
_cell_angle_beta   44.41018579
_cell_angle_gamma   44.42731544
_symmetry_Int_Tables_number   1
_chemical_formula_structural   Na3Ca18Fe(PO4)14
_chemical_formula_sum   'Na3 Ca18 Fe1 P14 O56'
_cell_volume   1192.73316286
_cell_formula_units_Z   1
loop_
 _symmetry_equiv_pos_site_id
 _symmetry_equiv_pos_as_xyz
  1  'x, y, z'
loop_
 _atom_site_type_symbol
 _atom_site_label
 _atom_site_symmetry_multiplicity
 _atom_site_fract_x
 _atom_site_fract_y
 _atom_site_fract_z
 _atom_site_occupancy
  Na  Na0  1  0.182300  0.184402  0.182682  1
  Na  Na1  1  0.058193  0.448714  0.469465  1
  Na  Na2  1  0.689784  0.679676  0.679563  1
  Ca  Ca3  1  0.062866  0.653831  0.081219  1
  Ca  Ca4  1  0.075743  0.068626  0.653834  1
  Ca  Ca5  1  0.655884  0.078360  0.062578  1
  Ca  Ca6  1  0.444752  0.469101  0.062317  1
  Ca  Ca7  1  0.465265  0.063193  0.446547  1
  Ca  Ca8  1  0.156977  0.564512  0.571428  1
  Ca  Ca9  1  0.564280  0.573956  0.157507  1
  Ca  Ca10  1  0.573544  0.157154  0.564816  1
  Ca  Ca11  1  0.500833  0.500451  0.500276  1
  Ca  Ca12  1  0.407178  0.851284  0.436656  1
  Ca  Ca13  1  0.436870  0.407393  0.850873  1
  Ca  Ca14  1  0.851840  0.437546  0.410581  1
  Ca  Ca15  1  0.349342  0.904896  0.938703  1
  Ca  Ca16  1  0.907225  0.935275  0.349936  1
  Ca  Ca17  1  0.940135  0.349729  0.902727  1
  Ca  Ca18  1  0.557996  0.971673  0.946528  1
  Ca  Ca19  1  0.946916  0.557517  0.971516  1
  Ca  Ca20  1  0.971483  0.946078  0.558538  1
  Fe  Fe21  1  0.001431  0.000086  0.999827  1
  P  P22  1  0.267741  0.266192  0.264757  1
  P  P23  1  0.181690  0.686088  0.222568  1
  P  P24  1  0.223509  0.181394  0.686705  1
  P  P25  1  0.686970  0.222439  0.182373  1
  P  P26  1  0.266609  0.827539  0.306205  1
  P  P27  1  0.306099  0.266348  0.827581  1
  P  P28  1  0.183314  0.685940  0.728467  1
  P  P29  1  0.827280  0.306181  0.266004  1
  P  P30  1  0.685591  0.728540  0.183305  1
  P  P31  1  0.728778  0.183605  0.684881  1
  P  P32  1  0.323819  0.772095  0.810466  1
  P  P33  1  0.770210  0.812747  0.322307  1
  P  P34  1  0.808884  0.322716  0.775500  1
  P  P35  1  0.766205  0.766776  0.766763  1
  O  O36  1  0.113068  0.388988  0.252408  1
  O  O37  1  0.257411  0.110171  0.390808  1
  O  O38  1  0.392663  0.253804  0.109308  1
  O  O39  1  0.312359  0.306687  0.302867  1
  O  O40  1  0.174912  0.613518  0.182273  1
  O  O41  1  0.193695  0.166579  0.611417  1
  O  O42  1  0.086512  0.653450  0.391402  1
  O  O43  1  0.112994  0.865559  0.130853  1
  O  O44  1  0.133743  0.109556  0.865615  1
  O  O45  1  0.166810  0.346750  0.641794  1
  O  O46  1  0.612674  0.187861  0.170988  1
  O  O47  1  0.395731  0.086501  0.648879  1
  O  O48  1  0.350799  0.634618  0.165728  1
  O  O49  1  0.103254  0.842646  0.390264  1
  O  O50  1  0.646738  0.394109  0.089617  1
  O  O51  1  0.633966  0.166138  0.350783  1
  O  O52  1  0.132217  0.337795  0.890905  1
  O  O53  1  0.865338  0.133126  0.112463  1
  O  O54  1  0.389626  0.103246  0.841937  1
  O  O55  1  0.337937  0.889264  0.132749  1
  O  O56  1  0.119576  0.669154  0.686153  1
  O  O57  1  0.363596  0.651901  0.368535  1
  O  O58  1  0.368657  0.363412  0.652335  1
  O  O59  1  0.256194  0.911411  0.351149  1
  O  O60  1  0.651350  0.368800  0.363386  1
  O  O61  1  0.352433  0.254640  0.911094  1
  O  O62  1  0.841236  0.389580  0.103431  1
  O  O63  1  0.141194  0.589597  0.900570  1
  O  O64  1  0.119298  0.856312  0.677417  1
  O  O65  1  0.888963  0.132468  0.337791  1
  O  O66  1  0.668558  0.686185  0.119809  1
  O  O67  1  0.686217  0.119645  0.668582  1
  O  O68  1  0.359648  0.623918  0.644450  1
  O  O69  1  0.588926  0.901098  0.141162  1
  O  O70  1  0.623972  0.644950  0.359084  1
  O  O71  1  0.644500  0.359540  0.623827  1
  O  O72  1  0.910855  0.352122  0.254655  1
  O  O73  1  0.678392  0.118635  0.854934  1
  O  O74  1  0.146905  0.873780  0.881467  1
  O  O75  1  0.332447  0.612546  0.892683  1
  O  O76  1  0.901323  0.141159  0.588183  1
  O  O77  1  0.855865  0.678546  0.117513  1
  O  O78  1  0.374618  0.848363  0.638547  1
  O  O79  1  0.609790  0.898467  0.330038  1
  O  O80  1  0.636386  0.369787  0.854829  1
  O  O81  1  0.418490  0.753907  0.848445  1
  O  O82  1  0.888609  0.330506  0.618205  1
  O  O83  1  0.844706  0.642829  0.369081  1
  O  O84  1  0.872861  0.884067  0.145981  1
  O  O85  1  0.882095  0.144879  0.876041  1
  O  O86  1  0.752331  0.849948  0.417482  1
  O  O87  1  0.842180  0.415860  0.764425  1
  O  O88  1  0.610891  0.755814  0.892384  1
  O  O89  1  0.755571  0.891705  0.611587  1
  O  O90  1  0.892077  0.611498  0.755550  1
  O  O91  1  0.807309  0.808557  0.808142  1
