# generated using pymatgen
data_Li2MnP2O7
_symmetry_space_group_name_H-M   'P 1'
_cell_length_a   5.13015761
_cell_length_b   8.18593242
_cell_length_c   13.31548823
_cell_angle_alpha   89.99872241
_cell_angle_beta   89.99826522
_cell_angle_gamma   92.05286654
_symmetry_Int_Tables_number   1
_chemical_formula_structural   Li2MnP2O7
_chemical_formula_sum   'Li8 Mn4 P8 O28'
_cell_volume   558.82668663
_cell_formula_units_Z   4
loop_
 _symmetry_equiv_pos_site_id
 _symmetry_equiv_pos_as_xyz
  1  'x, y, z'
loop_
 _atom_site_type_symbol
 _atom_site_label
 _atom_site_symmetry_multiplicity
 _atom_site_fract_x
 _atom_site_fract_y
 _atom_site_fract_z
 _atom_site_occupancy
  Li  Li0  1  0.216505  0.135940  0.179008  1
  Li  Li1  1  0.197392  0.720891  0.160237  1
  Li  Li2  1  0.302556  0.779104  0.660234  1
  Li  Li3  1  0.283487  0.364057  0.679009  1
  Li  Li4  1  0.716505  0.635947  0.320998  1
  Li  Li5  1  0.697368  0.220901  0.339757  1
  Li  Li6  1  0.802636  0.279095  0.839756  1
  Li  Li7  1  0.783481  0.864057  0.820990  1
  Mn  Mn8  1  0.228057  0.850681  0.364201  1
  Mn  Mn9  1  0.271921  0.649303  0.864200  1
  Mn  Mn10  1  0.728080  0.350698  0.135800  1
  Mn  Mn11  1  0.771898  0.149326  0.635789  1
  P  P12  1  0.189722  0.287975  0.979182  1
  P  P13  1  0.208494  0.430385  0.314540  1
  P  P14  1  0.291497  0.069642  0.814539  1
  P  P15  1  0.310251  0.212015  0.479168  1
  P  P16  1  0.689761  0.787977  0.520796  1
  P  P17  1  0.708506  0.930366  0.185466  1
  P  P18  1  0.791485  0.569604  0.685459  1
  P  P19  1  0.810310  0.712020  0.020843  1
  O  O20  1  0.002798  0.927050  0.209686  1
  O  O21  1  0.037655  0.307605  0.252454  1
  O  O22  1  0.071695  0.777022  0.979151  1
  O  O23  1  0.128446  0.148763  0.561029  1
  O  O24  1  0.099529  0.602121  0.306497  1
  O  O25  1  0.142040  0.404533  0.890669  1
  O  O26  1  0.167305  0.370665  0.429789  1
  O  O27  1  0.332682  0.129329  0.929786  1
  O  O28  1  0.357969  0.095474  0.390676  1
  O  O29  1  0.400474  0.897865  0.806497  1
  O  O30  1  0.371526  0.351222  0.061030  1
  O  O31  1  0.428285  0.722976  0.479161  1
  O  O32  1  0.497179  0.572950  0.709696  1
  O  O33  1  0.462342  0.192390  0.752457  1
  O  O34  1  0.537659  0.807609  0.247537  1
  O  O35  1  0.502798  0.427048  0.290321  1
  O  O36  1  0.571649  0.277046  0.520856  1
  O  O37  1  0.628465  0.648776  0.938962  1
  O  O38  1  0.599522  0.102130  0.193503  1
  O  O39  1  0.642015  0.904541  0.609353  1
  O  O40  1  0.667351  0.870674  0.070206  1
  O  O41  1  0.832625  0.629312  0.570218  1
  O  O42  1  0.857963  0.595479  0.109326  1
  O  O43  1  0.900457  0.397878  0.693506  1
  O  O44  1  0.871472  0.851197  0.438998  1
  O  O45  1  0.928338  0.222967  0.020847  1
  O  O46  1  0.962341  0.692399  0.747542  1
  O  O47  1  0.997202  0.072957  0.790320  1
