# generated using pymatgen
data_Fe2GeSe4
_symmetry_space_group_name_H-M   'P 1'
_cell_length_a   6.18307948
_cell_length_b   7.34413490
_cell_length_c   12.55808592
_cell_angle_alpha   90.07270723
_cell_angle_beta   89.99262651
_cell_angle_gamma   90.03399067
_symmetry_Int_Tables_number   1
_chemical_formula_structural   Fe2GeSe4
_chemical_formula_sum   'Fe8 Ge4 Se16'
_cell_volume   570.25420308
_cell_formula_units_Z   4
loop_
 _symmetry_equiv_pos_site_id
 _symmetry_equiv_pos_as_xyz
  1  'x, y, z'
loop_
 _atom_site_type_symbol
 _atom_site_label
 _atom_site_symmetry_multiplicity
 _atom_site_fract_x
 _atom_site_fract_y
 _atom_site_fract_z
 _atom_site_occupancy
  Fe  Fe0  1  -0.002086  0.750207  0.272780  1
  Fe  Fe1  1  0.001926  0.249869  0.727407  1
  Fe  Fe2  1  0.500052  0.499828  0.499989  1
  Fe  Fe3  1  0.501839  0.750416  0.772392  1
  Fe  Fe4  1  0.498029  0.249696  0.227437  1
  Fe  Fe5  1  0.000099  0.999918  -0.000008  1
  Fe  Fe6  1  0.500134  0.000001  0.500022  1
  Fe  Fe7  1  0.999952  0.500084  0.000029  1
  Ge  Ge8  1  0.429223  0.250376  0.910197  1
  Ge  Ge9  1  0.070684  0.249809  0.410497  1
  Ge  Ge10  1  0.929419  0.749893  0.589739  1
  Ge  Ge11  1  0.570690  0.750061  0.089537  1
  Se  Se12  1  0.271446  0.508316  0.336684  1
  Se  Se13  1  0.228784  0.991277  0.836505  1
  Se  Se14  1  0.277987  0.250154  0.576877  1
  Se  Se15  1  0.728988  0.008909  0.663406  1
  Se  Se16  1  0.722140  0.749711  0.423343  1
  Se  Se17  1  0.222080  0.250518  0.076594  1
  Se  Se18  1  0.165661  0.750154  0.088802  1
  Se  Se19  1  0.334300  0.749848  0.588683  1
  Se  Se20  1  0.665858  0.249942  0.411270  1
  Se  Se21  1  0.834355  0.249834  0.911252  1
  Se  Se22  1  0.227983  0.508690  0.836548  1
  Se  Se23  1  0.778050  0.749477  0.923192  1
  Se  Se24  1  0.771567  0.491722  0.163391  1
  Se  Se25  1  0.271191  0.991047  0.336647  1
  Se  Se26  1  0.728322  0.491397  0.663408  1
  Se  Se27  1  0.771327  0.008847  0.163380  1
