# generated using pymatgen
data_Li3Mn(PO4)2
_symmetry_space_group_name_H-M   'P 1'
_cell_length_a   8.66785789
_cell_length_b   9.90254022
_cell_length_c   14.81393435
_cell_angle_alpha   90.00000000
_cell_angle_beta   84.21747238
_cell_angle_gamma   90.00000000
_symmetry_Int_Tables_number   1
_chemical_formula_structural   Li3Mn(PO4)2
_chemical_formula_sum   'Li24 Mn8 P16 O64'
_cell_volume   1265.06620713
_cell_formula_units_Z   8
loop_
 _symmetry_equiv_pos_site_id
 _symmetry_equiv_pos_as_xyz
  1  'x, y, z'
loop_
 _atom_site_type_symbol
 _atom_site_label
 _atom_site_symmetry_multiplicity
 _atom_site_fract_x
 _atom_site_fract_y
 _atom_site_fract_z
 _atom_site_occupancy
  Li  Li0  1  0.072514  0.099593  0.946684  1
  Li  Li1  1  0.092133  0.595982  0.302414  1
  Li  Li2  1  0.183236  0.877419  0.224731  1
  Li  Li3  1  0.209393  0.421918  0.509245  1
  Li  Li4  1  0.215741  0.385005  0.744658  1
  Li  Li5  1  0.246682  0.911444  0.500795  1
  Li  Li6  1  0.253318  0.411444  0.999205  1
  Li  Li7  1  0.284259  0.885005  0.755342  1
  Li  Li8  1  0.290607  0.921918  0.990755  1
  Li  Li9  1  0.316764  0.377419  0.275269  1
  Li  Li10  1  0.407867  0.095982  0.197586  1
  Li  Li11  1  0.427486  0.599593  0.553316  1
  Li  Li12  1  0.572514  0.400407  0.446684  1
  Li  Li13  1  0.592133  0.904018  0.802414  1
  Li  Li14  1  0.683236  0.622581  0.724731  1
  Li  Li15  1  0.709393  0.078082  0.009245  1
  Li  Li16  1  0.715741  0.114995  0.244658  1
  Li  Li17  1  0.746682  0.588556  0.000795  1
  Li  Li18  1  0.753318  0.088556  0.499205  1
  Li  Li19  1  0.784259  0.614995  0.255342  1
  Li  Li20  1  0.790607  0.578082  0.490755  1
  Li  Li21  1  0.816764  0.122581  0.775269  1
  Li  Li22  1  0.907867  0.404018  0.697586  1
  Li  Li23  1  0.927486  0.900407  0.053316  1
  Mn  Mn24  1  0.090493  0.642035  0.887739  1
  Mn  Mn25  1  0.083055  0.120924  0.364094  1
  Mn  Mn26  1  0.416945  0.620924  0.135906  1
  Mn  Mn27  1  0.409507  0.142035  0.612261  1
  Mn  Mn28  1  0.590493  0.857965  0.387739  1
  Mn  Mn29  1  0.583055  0.379076  0.864094  1
  Mn  Mn30  1  0.916945  0.879076  0.635906  1
  Mn  Mn31  1  0.909507  0.357965  0.112261  1
  P  P32  1  0.083349  0.637453  0.657833  1
  P  P33  1  0.074894  0.140747  0.141460  1
  P  P34  1  0.072242  0.654661  0.100113  1
  P  P35  1  0.049754  0.169467  0.589185  1
  P  P36  1  0.450246  0.669467  0.910815  1
  P  P37  1  0.427758  0.154661  0.399887  1
  P  P38  1  0.425106  0.640747  0.358540  1
  P  P39  1  0.416651  0.137453  0.842167  1
  P  P40  1  0.583349  0.862547  0.157833  1
  P  P41  1  0.574894  0.359253  0.641460  1
  P  P42  1  0.572242  0.845339  0.600113  1
  P  P43  1  0.549754  0.330533  0.089185  1
  P  P44  1  0.950246  0.830533  0.410815  1
  P  P45  1  0.927758  0.345339  0.899887  1
  P  P46  1  0.925106  0.859253  0.858540  1
  P  P47  1  0.916651  0.362547  0.342167  1
  O  O48  1  0.062162  0.442276  0.917931  1
  O  O49  1  0.069760  0.904090  0.344771  1
  O  O50  1  0.041951  0.726216  0.192194  1
  O  O51  1  0.068028  0.319386  0.610858  1
  O  O52  1  0.996509  0.149219  0.491832  1
  O  O53  1  0.115208  0.568269  0.748435  1
  O  O54  1  0.092138  0.756365  0.020703  1
  O  O55  1  0.104006  0.840924  0.840867  1
  O  O56  1  0.091761  0.385510  0.355696  1
  O  O57  1  0.162690  0.108726  0.226723  1
  O  O58  1  0.200774  0.588449  0.581271  1
  O  O59  1  0.105666  0.796713  0.665611  1
  O  O60  1  0.110724  0.027164  0.072898  1
  O  O61  1  0.123216  0.286616  0.106080  1
  O  O62  1  0.219985  0.564048  0.099613  1
  O  O63  1  0.203718  0.089778  0.594561  1
  O  O64  1  0.296282  0.589778  0.905439  1
  O  O65  1  0.280015  0.064048  0.400387  1
  O  O66  1  0.376784  0.786616  0.393920  1
  O  O67  1  0.394334  0.296713  0.834389  1
  O  O68  1  0.389276  0.527164  0.427102  1
  O  O69  1  0.299226  0.088449  0.918729  1
  O  O70  1  0.337310  0.608726  0.273277  1
  O  O71  1  0.408239  0.885510  0.144304  1
  O  O72  1  0.395994  0.340924  0.659133  1
  O  O73  1  0.407862  0.256365  0.479297  1
  O  O74  1  0.384792  0.068269  0.751565  1
  O  O75  1  0.431972  0.819386  0.889142  1
  O  O76  1  0.503491  0.649219  0.008168  1
  O  O77  1  0.458049  0.226216  0.307806  1
  O  O78  1  0.437838  0.942276  0.582069  1
  O  O79  1  0.430240  0.404090  0.155229  1
  O  O80  1  0.569760  0.595910  0.844771  1
  O  O81  1  0.562162  0.057724  0.417931  1
  O  O82  1  0.541951  0.773784  0.692194  1
  O  O83  1  0.496509  0.350781  0.991832  1
  O  O84  1  0.568028  0.180614  0.110858  1
  O  O85  1  0.615208  0.931731  0.248435  1
  O  O86  1  0.592138  0.743635  0.520703  1
  O  O87  1  0.604006  0.659076  0.340867  1
  O  O88  1  0.591761  0.114490  0.855696  1
  O  O89  1  0.662690  0.391274  0.726723  1
  O  O90  1  0.700774  0.911551  0.081270  1
  O  O91  1  0.610724  0.472836  0.572898  1
  O  O92  1  0.605666  0.703287  0.165611  1
  O  O93  1  0.623216  0.213384  0.606080  1
  O  O94  1  0.719985  0.935952  0.599613  1
  O  O95  1  0.703718  0.410222  0.094561  1
  O  O96  1  0.796282  0.910222  0.405439  1
  O  O97  1  0.780015  0.435952  0.900387  1
  O  O98  1  0.876784  0.713384  0.893920  1
  O  O99  1  0.889276  0.972836  0.927102  1
  O  O100  1  0.894334  0.203287  0.334389  1
  O  O101  1  0.799226  0.411551  0.418729  1
  O  O102  1  0.837310  0.891274  0.773277  1
  O  O103  1  0.908239  0.614490  0.644304  1
  O  O104  1  0.895994  0.159076  0.159133  1
  O  O105  1  0.907862  0.243635  0.979297  1
  O  O106  1  0.884792  0.431731  0.251565  1
  O  O107  1  0.003491  0.850781  0.508168  1
  O  O108  1  0.931972  0.680614  0.389142  1
  O  O109  1  0.958049  0.273784  0.807806  1
  O  O110  1  0.930240  0.095910  0.655229  1
  O  O111  1  0.937838  0.557724  0.082069  1
