# generated using pymatgen
data_Na5FeHO4
_symmetry_space_group_name_H-M   'P 1'
_cell_length_a   9.98621690
_cell_length_b   10.29993318
_cell_length_c   12.04829905
_cell_angle_alpha   90.00000000
_cell_angle_beta   90.00000000
_cell_angle_gamma   90.00000000
_symmetry_Int_Tables_number   1
_chemical_formula_structural   Na5FeHO4
_chemical_formula_sum   'Na40 Fe8 H8 O32'
_cell_volume   1239.25631459
_cell_formula_units_Z   8
loop_
 _symmetry_equiv_pos_site_id
 _symmetry_equiv_pos_as_xyz
  1  'x, y, z'
loop_
 _atom_site_type_symbol
 _atom_site_label
 _atom_site_symmetry_multiplicity
 _atom_site_fract_x
 _atom_site_fract_y
 _atom_site_fract_z
 _atom_site_occupancy
  Na  Na0  1  0.983365  0.591232  0.209451  1
  Na  Na1  1  0.983365  0.908768  0.209451  1
  Na  Na2  1  0.071608  0.066070  0.413745  1
  Na  Na3  1  0.071608  0.433930  0.413745  1
  Na  Na4  1  0.082355  0.750000  0.447196  1
  Na  Na5  1  0.115923  0.250000  0.982307  1
  Na  Na6  1  0.130362  0.565533  0.990960  1
  Na  Na7  1  0.130362  0.934467  0.990960  1
  Na  Na8  1  0.217955  0.581301  0.676733  1
  Na  Na9  1  0.217955  0.918699  0.676733  1
  Na  Na10  1  0.282045  0.081301  0.176733  1
  Na  Na11  1  0.282045  0.418699  0.176733  1
  Na  Na12  1  0.369638  0.065533  0.490960  1
  Na  Na13  1  0.369638  0.434467  0.490960  1
  Na  Na14  1  0.384077  0.750000  0.482307  1
  Na  Na15  1  0.417645  0.250000  0.947196  1
  Na  Na16  1  0.428392  0.566070  0.913745  1
  Na  Na17  1  0.428392  0.933930  0.913745  1
  Na  Na18  1  0.516635  0.091232  0.709451  1
  Na  Na19  1  0.516635  0.408768  0.709451  1
  Na  Na20  1  0.483365  0.591232  0.290549  1
  Na  Na21  1  0.483365  0.908768  0.290549  1
  Na  Na22  1  0.571608  0.066070  0.086255  1
  Na  Na23  1  0.571608  0.433930  0.086255  1
  Na  Na24  1  0.582355  0.750000  0.052804  1
  Na  Na25  1  0.615923  0.250000  0.517693  1
  Na  Na26  1  0.630362  0.565533  0.509040  1
  Na  Na27  1  0.630362  0.934467  0.509040  1
  Na  Na28  1  0.717955  0.581301  0.823267  1
  Na  Na29  1  0.717955  0.918699  0.823267  1
  Na  Na30  1  0.782045  0.081301  0.323267  1
  Na  Na31  1  0.782045  0.418699  0.323267  1
  Na  Na32  1  0.869638  0.065533  0.009040  1
  Na  Na33  1  0.869638  0.434467  0.009040  1
  Na  Na34  1  0.884077  0.750000  0.017693  1
  Na  Na35  1  0.917645  0.250000  0.552804  1
  Na  Na36  1  0.928392  0.933930  0.586255  1
  Na  Na37  1  0.928392  0.566070  0.586255  1
  Na  Na38  1  0.016635  0.091232  0.790549  1
  Na  Na39  1  0.016635  0.408768  0.790549  1
  Fe  Fe40  1  0.013694  0.250000  0.206221  1
  Fe  Fe41  1  0.203696  0.250000  0.618783  1
  Fe  Fe42  1  0.296304  0.750000  0.118783  1
  Fe  Fe43  1  0.486306  0.750000  0.706221  1
  Fe  Fe44  1  0.513694  0.250000  0.293779  1
  Fe  Fe45  1  0.703696  0.250000  0.881217  1
  Fe  Fe46  1  0.796304  0.750000  0.381217  1
  Fe  Fe47  1  0.986306  0.750000  0.793779  1
  H  H48  1  0.231482  0.626292  0.310268  1
  H  H49  1  0.231482  0.873708  0.310268  1
  H  H50  1  0.268518  0.126292  0.810268  1
  H  H51  1  0.268518  0.373708  0.810268  1
  H  H52  1  0.731482  0.626292  0.189732  1
  H  H53  1  0.731482  0.873708  0.189732  1
  H  H54  1  0.768518  0.126292  0.689732  1
  H  H55  1  0.768518  0.373708  0.689732  1
  O  O56  1  0.059606  0.750000  0.647198  1
  O  O57  1  0.059091  0.404126  0.125786  1
  O  O58  1  0.059091  0.095874  0.125786  1
  O  O59  1  0.098749  0.404606  0.607089  1
  O  O60  1  0.098749  0.095394  0.607089  1
  O  O61  1  0.104977  0.750000  0.116397  1
  O  O62  1  0.247272  0.081718  0.879662  1
  O  O63  1  0.247272  0.418282  0.879662  1
  O  O64  1  0.252728  0.581718  0.379662  1
  O  O65  1  0.252728  0.918282  0.379662  1
  O  O66  1  0.395023  0.250000  0.616397  1
  O  O67  1  0.401251  0.595394  0.107089  1
  O  O68  1  0.401251  0.904606  0.107089  1
  O  O69  1  0.440909  0.595874  0.625786  1
  O  O70  1  0.440909  0.904126  0.625786  1
  O  O71  1  0.440394  0.250000  0.147198  1
  O  O72  1  0.559606  0.750000  0.852802  1
  O  O73  1  0.559091  0.095874  0.374214  1
  O  O74  1  0.559091  0.404126  0.374214  1
  O  O75  1  0.598749  0.095394  0.892911  1
  O  O76  1  0.598749  0.404606  0.892911  1
  O  O77  1  0.604977  0.750000  0.383603  1
  O  O78  1  0.747272  0.081718  0.620338  1
  O  O79  1  0.747272  0.418282  0.620338  1
  O  O80  1  0.752728  0.581718  0.120338  1
  O  O81  1  0.752728  0.918282  0.120338  1
  O  O82  1  0.895023  0.250000  0.883603  1
  O  O83  1  0.901251  0.904606  0.392911  1
  O  O84  1  0.901251  0.595394  0.392911  1
  O  O85  1  0.940909  0.904126  0.874214  1
  O  O86  1  0.940909  0.595874  0.874214  1
  O  O87  1  0.940394  0.250000  0.352802  1
