# generated using pymatgen
data_Ho2(SeO4)3
_symmetry_space_group_name_H-M   'P 1'
_cell_length_a   6.79596161
_cell_length_b   6.79596161
_cell_length_c   11.31822914
_cell_angle_alpha   80.53081108
_cell_angle_beta   99.46918892
_cell_angle_gamma   62.92570162
_symmetry_Int_Tables_number   1
_chemical_formula_structural   Ho2(SeO4)3
_chemical_formula_sum   'Ho4 Se6 O24'
_cell_volume   441.72459615
_cell_formula_units_Z   2
loop_
 _symmetry_equiv_pos_site_id
 _symmetry_equiv_pos_as_xyz
  1  'x, y, z'
loop_
 _atom_site_type_symbol
 _atom_site_label
 _atom_site_symmetry_multiplicity
 _atom_site_fract_x
 _atom_site_fract_y
 _atom_site_fract_z
 _atom_site_occupancy
  Ho  Ho0  1  0.302654  0.947854  0.594532  1
  Ho  Ho1  1  0.052146  0.697346  0.094532  1
  Ho  Ho2  1  0.947854  0.302654  0.905468  1
  Ho  Ho3  1  0.697346  0.052146  0.405468  1
  Se  Se4  1  0.452962  0.789476  0.924547  1
  Se  Se5  1  0.210524  0.547038  0.424547  1
  Se  Se6  1  0.869775  0.869775  0.750000  1
  Se  Se7  1  0.130225  0.130225  0.250000  1
  Se  Se8  1  0.789476  0.452962  0.575453  1
  Se  Se9  1  0.547038  0.210524  0.075453  1
  O  O10  1  0.376456  0.738491  0.789432  1
  O  O11  1  0.585491  0.001976  0.711652  1
  O  O12  1  0.957323  0.943598  0.877506  1
  O  O13  1  0.311017  0.619259  0.543645  1
  O  O14  1  0.747202  0.653614  0.957787  1
  O  O15  1  0.075423  0.318487  0.605530  1
  O  O16  1  0.261509  0.623544  0.289432  1
  O  O17  1  0.318487  0.075423  0.894470  1
  O  O18  1  0.653614  0.747202  0.542213  1
  O  O19  1  0.619259  0.311017  0.956355  1
  O  O20  1  0.943598  0.957323  0.622494  1
  O  O21  1  0.998024  0.414509  0.211652  1
  O  O22  1  0.001976  0.585491  0.788348  1
  O  O23  1  0.056402  0.042677  0.377506  1
  O  O24  1  0.380740  0.688983  0.043645  1
  O  O25  1  0.346386  0.252798  0.457787  1
  O  O26  1  0.681513  0.924577  0.105530  1
  O  O27  1  0.738491  0.376456  0.710568  1
  O  O28  1  0.924577  0.681513  0.394470  1
  O  O29  1  0.252798  0.346386  0.042213  1
  O  O30  1  0.688983  0.380740  0.456355  1
  O  O31  1  0.042677  0.056402  0.122494  1
  O  O32  1  0.414509  0.998024  0.288348  1
  O  O33  1  0.623544  0.261509  0.210568  1
