# generated using pymatgen
data_Ba4Tm6O13
_symmetry_space_group_name_H-M   'P 1'
_cell_length_a   6.06546001
_cell_length_b   12.66805595
_cell_length_c   12.33359062
_cell_angle_alpha   60.82699395
_cell_angle_beta   90.02396102
_cell_angle_gamma   76.16516844
_symmetry_Int_Tables_number   1
_chemical_formula_structural   Ba4Tm6O13
_chemical_formula_sum   'Ba8 Tm12 O26'
_cell_volume   795.78108198
_cell_formula_units_Z   2
loop_
 _symmetry_equiv_pos_site_id
 _symmetry_equiv_pos_as_xyz
  1  'x, y, z'
loop_
 _atom_site_type_symbol
 _atom_site_label
 _atom_site_symmetry_multiplicity
 _atom_site_fract_x
 _atom_site_fract_y
 _atom_site_fract_z
 _atom_site_occupancy
  Ba  Ba0  1  0.160740  0.680901  0.025379  1
  Ba  Ba1  1  0.334838  0.331121  0.214041  1
  Ba  Ba2  1  0.836100  0.330488  0.455978  1
  Ba  Ba3  1  0.660753  0.681057  0.292588  1
  Ba  Ba4  1  0.343125  0.319797  0.705977  1
  Ba  Ba5  1  0.165366  0.670477  0.543562  1
  Ba  Ba6  1  0.664852  0.670182  0.783918  1
  Ba  Ba7  1  0.839549  0.320150  0.975413  1
  Tm  Tm8  1  0.538355  0.071879  0.090764  1
  Tm  Tm9  1  0.744688  0.510373  0.120458  1
  Tm  Tm10  1  0.961672  0.098865  0.345523  1
  Tm  Tm11  1  0.462598  0.098255  0.555739  1
  Tm  Tm12  1  0.244924  0.509557  0.369402  1
  Tm  Tm13  1  0.109648  0.928669  0.162996  1
  Tm  Tm14  1  0.037527  0.071492  0.836838  1
  Tm  Tm15  1  0.754327  0.490971  0.629601  1
  Tm  Tm16  1  0.559434  0.902422  0.442791  1
  Tm  Tm17  1  0.060587  0.902306  0.654060  1
  Tm  Tm18  1  0.254007  0.491240  0.878321  1
  Tm  Tm19  1  0.608894  0.928205  0.908512  1
  O  O20  1  0.310867  0.000111  0.999608  1
  O  O21  1  0.810600  0.999709  0.000013  1
  O  O22  1  0.383085  0.265500  0.997722  1
  O  O23  1  0.850445  0.059532  0.196400  1
  O  O24  1  0.006442  0.489640  0.005733  1
  O  O25  1  0.828177  0.294177  0.231566  1
  O  O26  1  0.315250  0.099406  0.383567  1
  O  O27  1  0.995831  0.518311  0.238122  1
  O  O28  1  0.495117  0.517917  0.242596  1
  O  O29  1  0.815965  0.099446  0.516763  1
  O  O30  1  0.145455  0.735575  0.263842  1
  O  O31  1  0.328347  0.293534  0.473635  1
  O  O32  1  0.410539  0.940678  0.254950  1
  O  O33  1  0.506198  0.488592  0.504749  1
  O  O34  1  0.994358  0.510788  0.494860  1
  O  O35  1  0.349018  0.058474  0.743759  1
  O  O36  1  0.618268  0.706841  0.525464  1
  O  O37  1  0.878884  0.264661  0.736702  1
  O  O38  1  0.912067  0.902059  0.483274  1
  O  O39  1  0.013127  0.484414  0.754836  1
  O  O40  1  0.513327  0.482318  0.760806  1
  O  O41  1  0.413631  0.901586  0.614326  1
  O  O42  1  0.123545  0.706580  0.766096  1
  O  O43  1  0.495037  0.512243  0.992309  1
  O  O44  1  0.909168  0.940158  0.803843  1
  O  O45  1  0.645726  0.735160  0.002811  1
