# generated using pymatgen
data_Li3Co2(SiO4)2
_symmetry_space_group_name_H-M   'P 1'
_cell_length_a   6.43037030
_cell_length_b   5.33980382
_cell_length_c   5.05634744
_cell_angle_alpha   89.38062647
_cell_angle_beta   89.55685949
_cell_angle_gamma   89.72222134
_symmetry_Int_Tables_number   1
_chemical_formula_structural   Li3Co2(SiO4)2
_chemical_formula_sum   'Li3 Co2 Si2 O8'
_cell_volume   173.60206904
_cell_formula_units_Z   1
loop_
 _symmetry_equiv_pos_site_id
 _symmetry_equiv_pos_as_xyz
  1  'x, y, z'
loop_
 _atom_site_type_symbol
 _atom_site_label
 _atom_site_symmetry_multiplicity
 _atom_site_fract_x
 _atom_site_fract_y
 _atom_site_fract_z
 _atom_site_occupancy
  Li  Li0  1  0.005685  0.829787  0.503469  1
  Li  Li1  1  0.499576  0.181649  0.005278  1
  Li  Li2  1  0.758667  0.653668  0.993810  1
  Co  Co3  1  0.015570  0.175864  0.007390  1
  Co  Co4  1  0.502626  0.828691  0.500702  1
  Si  Si5  1  0.254256  0.677515  0.001701  1
  Si  Si6  1  0.752607  0.315085  0.510889  1
  O  O7  1  0.039728  0.814648  0.894860  1
  O  O8  1  0.267002  0.733980  0.323529  1
  O  O9  1  0.258261  0.381406  0.943708  1
  O  O10  1  0.470747  0.811214  0.874441  1
  O  O11  1  0.545201  0.160094  0.407797  1
  O  O12  1  0.730889  0.613569  0.406393  1
  O  O13  1  0.757352  0.313516  0.836385  1
  O  O14  1  0.954686  0.175423  0.387709  1
