# generated using pymatgen
data_Li4Mn3SbO8
_symmetry_space_group_name_H-M   'P 1'
_cell_length_a   10.52189765
_cell_length_b   10.52102579
_cell_length_c   14.82465499
_cell_angle_alpha   20.02551991
_cell_angle_beta   20.02426213
_cell_angle_gamma   34.50364347
_symmetry_Int_Tables_number   1
_chemical_formula_structural   Li4Mn3SbO8
_chemical_formula_sum   'Li4 Mn3 Sb1 O8'
_cell_volume   166.62774584
_cell_formula_units_Z   1
loop_
 _symmetry_equiv_pos_site_id
 _symmetry_equiv_pos_as_xyz
  1  'x, y, z'
loop_
 _atom_site_type_symbol
 _atom_site_label
 _atom_site_symmetry_multiplicity
 _atom_site_fract_x
 _atom_site_fract_y
 _atom_site_fract_z
 _atom_site_occupancy
  Li  Li0  1  0.000006  0.999988  0.500002  1
  Li  Li1  1  0.000000  0.499987  0.500007  1
  Li  Li2  1  0.500010  0.000002  0.499992  1
  Li  Li3  1  0.500002  0.500001  0.499998  1
  Mn  Mn4  1  0.000005  0.500018  0.999989  1
  Mn  Mn5  1  0.499986  0.999986  0.000011  1
  Mn  Mn6  1  0.499989  0.500005  0.000002  1
  Sb  Sb7  1  -0.000005  0.000001  0.000004  1
  O  O8  1  0.003747  0.002325  0.261112  1
  O  O9  1  0.999466  0.538798  0.228448  1
  O  O10  1  0.539114  0.999778  0.228034  1
  O  O11  1  0.996243  0.997700  0.738879  1
  O  O12  1  0.460344  0.460588  0.306417  1
  O  O13  1  0.000529  0.461201  0.771555  1
  O  O14  1  0.460895  0.000215  0.771968  1
  O  O15  1  0.539667  0.539405  0.693579  1
