# generated using pymatgen
data_Li3Ti2Mn3O10
_symmetry_space_group_name_H-M   'P 1'
_cell_length_a   5.20977406
_cell_length_b   5.16079652
_cell_length_c   8.00406631
_cell_angle_alpha   110.91025074
_cell_angle_beta   96.66808165
_cell_angle_gamma   101.44433013
_symmetry_Int_Tables_number   1
_chemical_formula_structural   Li3Ti2Mn3O10
_chemical_formula_sum   'Li3 Ti2 Mn3 O10'
_cell_volume   192.88160597
_cell_formula_units_Z   1
loop_
 _symmetry_equiv_pos_site_id
 _symmetry_equiv_pos_as_xyz
  1  'x, y, z'
loop_
 _atom_site_type_symbol
 _atom_site_label
 _atom_site_symmetry_multiplicity
 _atom_site_fract_x
 _atom_site_fract_y
 _atom_site_fract_z
 _atom_site_occupancy
  Li  Li0  1  0.229340  0.907675  0.399115  1
  Li  Li1  1  0.500000  0.500000  0.500000  1
  Li  Li2  1  0.770660  0.092325  0.600885  1
  Ti  Ti3  1  0.114758  0.717260  0.681398  1
  Ti  Ti4  1  0.885242  0.282740  0.318602  1
  Mn  Mn5  1  0.000000  0.500000  0.000000  1
  Mn  Mn6  1  0.688374  0.877938  0.896546  1
  Mn  Mn7  1  0.311626  0.122062  0.103454  1
  O  O8  1  0.007001  0.069741  0.838744  1
  O  O9  1  0.329538  0.739558  0.937014  1
  O  O10  1  0.111660  0.317456  0.531603  1
  O  O11  1  0.198928  0.472164  0.210500  1
  O  O12  1  0.438123  0.866013  0.645154  1
  O  O13  1  0.561877  0.133987  0.354846  1
  O  O14  1  0.801072  0.527836  0.789500  1
  O  O15  1  0.888340  0.682544  0.468397  1
  O  O16  1  0.670462  0.260442  0.062986  1
  O  O17  1  0.992999  0.930259  0.161256  1
