# generated using pymatgen
data_Li9Ti7Cr6O30
_symmetry_space_group_name_H-M   'P 1'
_cell_length_a   5.08726747
_cell_length_b   5.08639342
_cell_length_c   23.31239876
_cell_angle_alpha   89.99693596
_cell_angle_beta   89.89891441
_cell_angle_gamma   60.02825361
_symmetry_Int_Tables_number   1
_chemical_formula_structural   Li9Ti7Cr6O30
_chemical_formula_sum   'Li9 Ti7 Cr6 O30'
_cell_volume   522.55837775
_cell_formula_units_Z   1
loop_
 _symmetry_equiv_pos_site_id
 _symmetry_equiv_pos_as_xyz
  1  'x, y, z'
loop_
 _atom_site_type_symbol
 _atom_site_label
 _atom_site_symmetry_multiplicity
 _atom_site_fract_x
 _atom_site_fract_y
 _atom_site_fract_z
 _atom_site_occupancy
  Li  Li0  1  0.001027  0.998231  0.913319  1
  Li  Li1  1  0.000714  0.999435  0.082916  1
  Li  Li2  1  0.664485  0.669644  0.858201  1
  Li  Li3  1  0.331592  0.334394  0.534641  1
  Li  Li4  1  0.000125  0.999340  0.626256  1
  Li  Li5  1  0.665238  0.668238  0.456892  1
  Li  Li6  1  0.333919  0.332750  0.143244  1
  Li  Li7  1  0.667455  0.666027  0.208465  1
  Li  Li8  1  0.001992  0.998015  0.381574  1
  Ti  Ti9  1  0.667325  0.665751  0.711884  1
  Ti  Ti10  1  0.332718  0.332930  0.689626  1
  Ti  Ti11  1  0.667826  0.666128  0.981960  1
  Ti  Ti12  1  0.334499  0.332320  0.287647  1
  Ti  Ti13  1  0.668372  0.665740  0.316753  1
  Ti  Ti14  1  0.334838  0.332404  0.005250  1
  Ti  Ti15  1  0.667778  0.665995  0.107227  1
  Cr  Cr16  1  0.998834  0.000354  0.502394  1
  Cr  Cr17  1  -0.000181  0.998772  0.789782  1
  Cr  Cr18  1  0.333811  0.332847  0.876894  1
  Cr  Cr19  1  0.333786  0.333573  0.413789  1
  Cr  Cr20  1  0.665370  0.667464  0.588717  1
  Cr  Cr21  1  0.000715  0.999420  0.203050  1
  O  O22  1  0.668852  0.001539  0.744322  1
  O  O23  1  0.952325  0.332161  0.148981  1
  O  O24  1  0.953405  0.334056  0.549227  1
  O  O25  1  0.608373  0.014004  0.942959  1
  O  O26  1  0.607920  0.016730  0.352337  1
  O  O27  1  0.665515  0.289751  0.453611  1
  O  O28  1  0.665018  0.290303  0.846239  1
  O  O29  1  0.984790  0.619224  0.649560  1
  O  O30  1  0.985124  0.627468  0.043626  1
  O  O31  1  0.665448  0.341228  0.254572  1
  O  O32  1  0.994955  0.662927  0.254581  1
  O  O33  1  0.282586  0.047380  0.846231  1
  O  O34  1  0.629174  0.386298  0.043669  1
  O  O35  1  0.286868  0.045394  0.453529  1
  O  O36  1  0.619122  0.395740  0.649557  1
  O  O37  1  0.376533  0.605964  0.352285  1
  O  O38  1  0.378696  0.606366  0.943170  1
  O  O39  1  0.709743  0.956852  0.549201  1
  O  O40  1  0.716319  0.951169  0.149050  1
  O  O41  1  0.002261  0.328794  0.744256  1
  O  O42  1  0.017637  0.376458  0.942995  1
  O  O43  1  0.328413  0.668738  0.744270  1
  O  O44  1  0.329880  0.713655  0.549240  1
  O  O45  1  0.018966  0.374435  0.352289  1
  O  O46  1  0.333291  0.714877  0.149015  1
  O  O47  1  0.395688  0.984397  0.649612  1
  O  O48  1  0.041814  0.673617  0.847021  1
  O  O49  1  0.388580  0.983380  0.043698  1
  O  O50  1  0.042742  0.668937  0.453373  1
  O  O51  1  0.343353  0.992869  0.254602  1
