# generated using pymatgen
data_Li2Fe3WO8
_symmetry_space_group_name_H-M   'P 1'
_cell_length_a   8.62549150
_cell_length_b   8.61432247
_cell_length_c   8.62120566
_cell_angle_alpha   89.80588158
_cell_angle_beta   90.30223304
_cell_angle_gamma   90.21775310
_symmetry_Int_Tables_number   1
_chemical_formula_structural   Li2Fe3WO8
_chemical_formula_sum   'Li8 Fe12 W4 O32'
_cell_volume   640.56224822
_cell_formula_units_Z   4
loop_
 _symmetry_equiv_pos_site_id
 _symmetry_equiv_pos_as_xyz
  1  'x, y, z'
loop_
 _atom_site_type_symbol
 _atom_site_label
 _atom_site_symmetry_multiplicity
 _atom_site_fract_x
 _atom_site_fract_y
 _atom_site_fract_z
 _atom_site_occupancy
  Li  Li0  1  0.998475  0.999467  0.996818  1
  Li  Li1  1  0.247894  0.253771  0.253767  1
  Li  Li2  1  0.248196  0.747029  0.754336  1
  Li  Li3  1  0.504374  0.002502  0.498053  1
  Li  Li4  1  0.499263  0.503142  0.001768  1
  Li  Li5  1  0.751772  0.246681  0.749515  1
  Li  Li6  1  0.747000  0.750768  0.248673  1
  Li  Li7  1  0.003818  0.496299  0.498069  1
  Fe  Fe8  1  0.119552  0.133075  0.625637  1
  Fe  Fe9  1  0.125440  0.380538  0.869216  1
  Fe  Fe10  1  0.129210  0.622834  0.111452  1
  Fe  Fe11  1  0.366387  0.374868  0.616608  1
  Fe  Fe12  1  0.375770  0.616981  0.369867  1
  Fe  Fe13  1  0.383167  0.867091  0.123163  1
  Fe  Fe14  1  0.619046  0.369770  0.375209  1
  Fe  Fe15  1  0.627003  0.117991  0.131847  1
  Fe  Fe16  1  0.630121  0.874719  0.880045  1
  Fe  Fe17  1  0.861471  0.127105  0.378630  1
  Fe  Fe18  1  0.872672  0.883361  0.632434  1
  Fe  Fe19  1  0.881758  0.632896  0.877431  1
  W  W20  1  0.124681  0.874934  0.374659  1
  W  W21  1  0.375105  0.127787  0.878173  1
  W  W22  1  0.628447  0.621486  0.625458  1
  W  W23  1  0.874522  0.375078  0.124538  1
  O  O24  1  0.121774  0.101282  0.385403  1
  O  O25  1  0.115594  0.881388  0.603159  1
  O  O26  1  0.118908  0.622601  0.892074  1
  O  O27  1  0.148515  0.120703  0.859773  1
  O  O28  1  0.105076  0.386448  0.121755  1
  O  O29  1  0.140732  0.362022  0.631022  1
  O  O30  1  0.135564  0.648706  0.372069  1
  O  O31  1  0.131953  0.867789  0.148239  1
  O  O32  1  0.363859  0.133095  0.644838  1
  O  O33  1  0.377982  0.350884  0.865158  1
  O  O34  1  0.362400  0.637287  0.140122  1
  O  O35  1  0.395064  0.616517  0.614194  1
  O  O36  1  0.353090  0.868697  0.365930  1
  O  O37  1  0.381306  0.387897  0.390608  1
  O  O38  1  0.369889  0.112717  0.101013  1
  O  O39  1  0.383455  0.894822  0.883662  1
  O  O40  1  0.615393  0.398697  0.628388  1
  O  O41  1  0.609863  0.629327  0.398907  1
  O  O42  1  0.609091  0.878496  0.108518  1
  O  O43  1  0.651228  0.371762  0.128320  1
  O  O44  1  0.600034  0.111100  0.871861  1
  O  O45  1  0.641916  0.127571  0.368165  1
  O  O46  1  0.633637  0.854950  0.633538  1
  O  O47  1  0.621315  0.638693  0.850288  1
  O  O48  1  0.871243  0.363577  0.355197  1
  O  O49  1  0.880578  0.147611  0.138350  1
  O  O50  1  0.858985  0.871541  0.858521  1
  O  O51  1  0.898190  0.882200  0.382008  1
  O  O52  1  0.851187  0.637035  0.620256  1
  O  O53  1  0.889795  0.112838  0.612157  1
  O  O54  1  0.878606  0.379231  0.901091  1
  O  O55  1  0.888631  0.602482  0.130188  1
