# generated using pymatgen
data_Na3CaPCO7
_symmetry_space_group_name_H-M   'P 1'
_cell_length_a   9.19071938
_cell_length_b   7.08856594
_cell_length_c   5.27939316
_cell_angle_alpha   90.00000000
_cell_angle_beta   90.20194725
_cell_angle_gamma   90.00000000
_symmetry_Int_Tables_number   1
_chemical_formula_structural   Na3CaPCO7
_chemical_formula_sum   'Na6 Ca2 P2 C2 O14'
_cell_volume   343.94515636
_cell_formula_units_Z   2
loop_
 _symmetry_equiv_pos_site_id
 _symmetry_equiv_pos_as_xyz
  1  'x, y, z'
loop_
 _atom_site_type_symbol
 _atom_site_label
 _atom_site_symmetry_multiplicity
 _atom_site_fract_x
 _atom_site_fract_y
 _atom_site_fract_z
 _atom_site_occupancy
  Na  Na0  1  0.083555  0.250000  0.759869  1
  Na  Na1  1  0.258644  0.006692  0.248193  1
  Na  Na2  1  0.258644  0.493308  0.248193  1
  Na  Na3  1  0.741356  0.506692  0.751807  1
  Na  Na4  1  0.741356  0.993308  0.751807  1
  Na  Na5  1  0.916445  0.750000  0.240131  1
  Ca  Ca6  1  0.361230  0.750000  0.772178  1
  Ca  Ca7  1  0.638770  0.250000  0.227822  1
  P  P8  1  0.406778  0.250000  0.699926  1
  P  P9  1  0.593222  0.750000  0.300074  1
  C  C10  1  0.056576  0.750000  0.735303  1
  C  C11  1  0.943424  0.250000  0.264697  1
  O  O12  1  0.083672  0.250000  0.285636  1
  O  O13  1  0.118353  0.750000  0.958748  1
  O  O14  1  0.137775  0.750000  0.532116  1
  O  O15  1  0.320113  0.073268  0.789394  1
  O  O16  1  0.320113  0.426732  0.789394  1
  O  O17  1  0.413535  0.250000  0.405000  1
  O  O18  1  0.433508  0.750000  0.198149  1
  O  O19  1  0.566492  0.250000  0.801851  1
  O  O20  1  0.586465  0.750000  0.595000  1
  O  O21  1  0.679887  0.573268  0.210606  1
  O  O22  1  0.679887  0.926732  0.210606  1
  O  O23  1  0.862225  0.250000  0.467884  1
  O  O24  1  0.881647  0.250000  0.041252  1
  O  O25  1  0.916328  0.750000  0.714364  1
