# generated using pymatgen
data_Li4NbCo3O8
_symmetry_space_group_name_H-M   'P 1'
_cell_length_a   5.63832256
_cell_length_b   6.53820916
_cell_length_c   5.13303745
_cell_angle_alpha   90.41560847
_cell_angle_beta   90.03295822
_cell_angle_gamma   89.92954034
_symmetry_Int_Tables_number   1
_chemical_formula_structural   Li4NbCo3O8
_chemical_formula_sum   'Li4 Nb1 Co3 O8'
_cell_volume   189.22187279
_cell_formula_units_Z   1
loop_
 _symmetry_equiv_pos_site_id
 _symmetry_equiv_pos_as_xyz
  1  'x, y, z'
loop_
 _atom_site_type_symbol
 _atom_site_label
 _atom_site_symmetry_multiplicity
 _atom_site_fract_x
 _atom_site_fract_y
 _atom_site_fract_z
 _atom_site_occupancy
  Li  Li0  1  0.092442  0.610293  0.992592  1
  Li  Li1  1  0.420967  0.137318  0.499143  1
  Li  Li2  1  0.560290  0.874732  0.993460  1
  Li  Li3  1  0.906871  0.376213  0.499250  1
  Nb  Nb4  1  0.916158  0.876002  0.504706  1
  Co  Co5  1  0.091684  0.144810  0.989328  1
  Co  Co6  1  0.425553  0.609696  0.504400  1
  Co  Co7  1  0.585571  0.372303  0.993792  1
  O  O8  1  0.072313  0.110415  0.382362  1
  O  O9  1  0.081092  0.640815  0.390120  1
  O  O10  1  0.417859  0.136210  0.883957  1
  O  O11  1  0.424513  0.611456  0.881661  1
  O  O12  1  0.582544  0.374023  0.362954  1
  O  O13  1  0.598305  0.871169  0.390596  1
  O  O14  1  0.903344  0.376699  0.886305  1
  O  O15  1  0.920494  0.877848  0.871775  1
