# generated using pymatgen
data_Li2CrSiO4
_symmetry_space_group_name_H-M   'P 1'
_cell_length_a   7.11224728
_cell_length_b   4.75061025
_cell_length_c   10.62415279
_cell_angle_alpha   90.00000000
_cell_angle_beta   91.46630647
_cell_angle_gamma   90.00000000
_symmetry_Int_Tables_number   1
_chemical_formula_structural   Li2CrSiO4
_chemical_formula_sum   'Li8 Cr4 Si4 O16'
_cell_volume   358.84617569
_cell_formula_units_Z   4
loop_
 _symmetry_equiv_pos_site_id
 _symmetry_equiv_pos_as_xyz
  1  'x, y, z'
loop_
 _atom_site_type_symbol
 _atom_site_label
 _atom_site_symmetry_multiplicity
 _atom_site_fract_x
 _atom_site_fract_y
 _atom_site_fract_z
 _atom_site_occupancy
  Li  Li0  1  0.999849  0.308155  0.582873  1
  Li  Li1  1  0.999849  0.191845  0.082873  1
  Li  Li2  1  0.190794  0.818124  0.672124  1
  Li  Li3  1  0.190794  0.681876  0.172124  1
  Li  Li4  1  0.809206  0.318124  0.827876  1
  Li  Li5  1  0.809206  0.181876  0.327876  1
  Li  Li6  1  0.000151  0.808155  0.917127  1
  Li  Li7  1  0.000151  0.691845  0.417127  1
  Cr  Cr8  1  0.504045  0.780499  0.886170  1
  Cr  Cr9  1  0.504045  0.719501  0.386170  1
  Cr  Cr10  1  0.495955  0.280499  0.613830  1
  Cr  Cr11  1  0.495955  0.219501  0.113830  1
  Si  Si12  1  0.233158  0.323910  0.835707  1
  Si  Si13  1  0.233158  0.176090  0.335706  1
  Si  Si14  1  0.766842  0.823910  0.664293  1
  Si  Si15  1  0.766842  0.676090  0.164294  1
  O  O16  1  0.046582  0.212782  0.904105  1
  O  O17  1  0.046582  0.287218  0.404105  1
  O  O18  1  0.235864  0.672453  0.844312  1
  O  O19  1  0.235864  0.827547  0.344312  1
  O  O20  1  0.231877  0.232232  0.684125  1
  O  O21  1  0.231877  0.267768  0.184125  1
  O  O22  1  0.444062  0.227014  0.897489  1
  O  O23  1  0.444062  0.272986  0.397489  1
  O  O24  1  0.555938  0.727014  0.602511  1
  O  O25  1  0.555938  0.772986  0.102511  1
  O  O26  1  0.768123  0.732232  0.815875  1
  O  O27  1  0.768123  0.767768  0.315875  1
  O  O28  1  0.764136  0.172453  0.655688  1
  O  O29  1  0.764136  0.327547  0.155688  1
  O  O30  1  0.953418  0.712782  0.595895  1
  O  O31  1  0.953418  0.787218  0.095895  1
