# generated using pymatgen
data_Li2Si4NiO10
_symmetry_space_group_name_H-M   'P 1'
_cell_length_a   9.48770036
_cell_length_b   14.21123396
_cell_length_c   7.01741452
_cell_angle_alpha   90.00000000
_cell_angle_beta   90.00000000
_cell_angle_gamma   90.00000000
_symmetry_Int_Tables_number   1
_chemical_formula_structural   Li2Si4NiO10
_chemical_formula_sum   'Li8 Si16 Ni4 O40'
_cell_volume   946.17154024
_cell_formula_units_Z   4
loop_
 _symmetry_equiv_pos_site_id
 _symmetry_equiv_pos_as_xyz
  1  'x, y, z'
loop_
 _atom_site_type_symbol
 _atom_site_label
 _atom_site_symmetry_multiplicity
 _atom_site_fract_x
 _atom_site_fract_y
 _atom_site_fract_z
 _atom_site_occupancy
  Li  Li0  1  0.088910  0.830695  0.657746  1
  Li  Li1  1  0.156854  0.538670  0.063711  1
  Li  Li2  1  0.343146  0.461330  0.563711  1
  Li  Li3  1  0.411090  0.169305  0.157746  1
  Li  Li4  1  0.588910  0.669305  0.342254  1
  Li  Li5  1  0.656854  0.961330  0.936289  1
  Li  Li6  1  0.843146  0.038671  0.436289  1
  Li  Li7  1  0.911090  0.330695  0.842254  1
  Si  Si8  1  0.028865  0.566600  0.464256  1
  Si  Si9  1  0.062185  0.898783  0.244570  1
  Si  Si10  1  0.097309  0.216832  0.314051  1
  Si  Si11  1  0.135183  0.177026  0.740274  1
  Si  Si12  1  0.364817  0.822974  0.240274  1
  Si  Si13  1  0.402691  0.783168  0.814051  1
  Si  Si14  1  0.437815  0.101217  0.744570  1
  Si  Si15  1  0.471135  0.433400  0.964256  1
  Si  Si16  1  0.528865  0.933400  0.535744  1
  Si  Si17  1  0.562185  0.601217  0.755430  1
  Si  Si18  1  0.597309  0.283168  0.685949  1
  Si  Si19  1  0.635183  0.322974  0.259726  1
  Si  Si20  1  0.864817  0.677026  0.759726  1
  Si  Si21  1  0.902691  0.716832  0.185949  1
  Si  Si22  1  0.937815  0.398783  0.255430  1
  Si  Si23  1  0.971135  0.066600  0.035744  1
  Ni  Ni24  1  0.197867  0.348429  0.007784  1
  Ni  Ni25  1  0.302133  0.651571  0.507784  1
  Ni  Ni26  1  0.697867  0.151571  0.992216  1
  Ni  Ni27  1  0.802133  0.848429  0.492216  1
  O  O28  1  0.989294  0.812132  0.124971  1
  O  O29  1  0.980340  0.149271  0.202402  1
  O  O30  1  0.032404  0.429445  0.073409  1
  O  O31  1  0.010330  0.107749  0.824876  1
  O  O32  1  0.084840  0.984315  0.090443  1
  O  O33  1  0.136670  0.160220  0.509298  1
  O  O34  1  0.103287  0.284566  0.798828  1
  O  O35  1  0.192044  0.533380  0.461192  1
  O  O36  1  0.214756  0.862972  0.325088  1
  O  O37  1  0.233787  0.241004  0.185467  1
  O  O38  1  0.266213  0.758996  0.685467  1
  O  O39  1  0.285244  0.137028  0.825088  1
  O  O40  1  0.307956  0.466620  0.961192  1
  O  O41  1  0.396713  0.715434  0.298828  1
  O  O42  1  0.363330  0.839780  0.009298  1
  O  O43  1  0.415160  0.015685  0.590443  1
  O  O44  1  0.489670  0.892251  0.324876  1
  O  O45  1  0.467596  0.570555  0.573409  1
  O  O46  1  0.519660  0.850729  0.702402  1
  O  O47  1  0.510706  0.187868  0.624971  1
  O  O48  1  0.489294  0.687868  0.875029  1
  O  O49  1  0.480340  0.350729  0.797598  1
  O  O50  1  0.532404  0.070555  0.926591  1
  O  O51  1  0.510330  0.392251  0.175124  1
  O  O52  1  0.584840  0.515685  0.909557  1
  O  O53  1  0.636670  0.339780  0.490702  1
  O  O54  1  0.603287  0.215434  0.201172  1
  O  O55  1  0.692044  0.966620  0.538808  1
  O  O56  1  0.714756  0.637028  0.674912  1
  O  O57  1  0.733787  0.258996  0.814533  1
  O  O58  1  0.766213  0.741004  0.314533  1
  O  O59  1  0.785244  0.362972  0.174912  1
  O  O60  1  0.807956  0.033380  0.038808  1
  O  O61  1  0.896713  0.784566  0.701172  1
  O  O62  1  0.863330  0.660220  0.990702  1
  O  O63  1  0.915160  0.484315  0.409557  1
  O  O64  1  0.989670  0.607749  0.675124  1
  O  O65  1  0.967596  0.929445  0.426591  1
  O  O66  1  0.019660  0.649271  0.297598  1
  O  O67  1  0.010706  0.312132  0.375029  1
