# generated using pymatgen
data_Na3Ni2P2(CO7)2
_symmetry_space_group_name_H-M   'P 1'
_cell_length_a   10.22053341
_cell_length_b   10.45959638
_cell_length_c   8.32664555
_cell_angle_alpha   108.18935122
_cell_angle_beta   71.84340643
_cell_angle_gamma   60.03858355
_symmetry_Int_Tables_number   1
_chemical_formula_structural   Na3Ni2P2(CO7)2
_chemical_formula_sum   'Na6 Ni4 P4 C4 O28'
_cell_volume   602.98484547
_cell_formula_units_Z   2
loop_
 _symmetry_equiv_pos_site_id
 _symmetry_equiv_pos_as_xyz
  1  'x, y, z'
loop_
 _atom_site_type_symbol
 _atom_site_label
 _atom_site_symmetry_multiplicity
 _atom_site_fract_x
 _atom_site_fract_y
 _atom_site_fract_z
 _atom_site_occupancy
  Na  Na0  1  0.756274  0.994626  0.486205  1
  Na  Na1  1  0.998942  0.753915  0.998024  1
  Na  Na2  1  0.531064  0.724962  0.956423  1
  Na  Na3  1  0.468936  0.275038  0.043577  1
  Na  Na4  1  0.001058  0.246085  0.001976  1
  Na  Na5  1  0.243726  0.005374  0.513795  1
  Ni  Ni6  1  0.845426  0.806553  0.745106  1
  Ni  Ni7  1  0.656053  0.690482  0.253789  1
  Ni  Ni8  1  0.343947  0.309518  0.746211  1
  Ni  Ni9  1  0.154574  0.193447  0.254894  1
  P  P10  1  0.476435  0.951318  0.752935  1
  P  P11  1  0.981543  0.443785  0.748755  1
  P  P12  1  0.018457  0.556215  0.251245  1
  P  P13  1  0.523565  0.048682  0.247065  1
  C  C14  1  0.941436  0.982758  0.755251  1
  C  C15  1  0.553171  0.523762  0.256559  1
  C  C16  1  0.446829  0.476238  0.743441  1
  C  C17  1  0.058564  0.017242  0.244749  1
  O  O18  1  0.009659  0.928362  0.241239  1
  O  O19  1  0.704715  0.969207  0.060734  1
  O  O20  1  0.979658  0.591028  0.747807  1
  O  O21  1  0.855899  0.681611  0.241722  1
  O  O22  1  0.640163  0.823853  0.757063  1
  O  O23  1  0.519736  0.901193  0.241383  1
  O  O24  1  0.482730  0.852805  0.565409  1
  O  O25  1  0.800846  0.521948  0.936259  1
  O  O26  1  0.999546  0.324817  0.562464  1
  O  O27  1  0.203048  0.972489  0.243846  1
  O  O28  1  0.694564  0.481700  0.260015  1
  O  O29  1  0.466559  0.667552  0.258607  1
  O  O30  1  0.971542  0.161510  0.250606  1
  O  O31  1  0.492937  0.566471  0.750777  1
  O  O32  1  0.507063  0.433529  0.249223  1
  O  O33  1  0.028458  0.838490  0.749394  1
  O  O34  1  0.533441  0.332448  0.741393  1
  O  O35  1  0.305436  0.518300  0.739985  1
  O  O36  1  0.796952  0.027511  0.756154  1
  O  O37  1  0.000454  0.675183  0.437536  1
  O  O38  1  0.199154  0.478052  0.063741  1
  O  O39  1  0.517270  0.147195  0.434591  1
  O  O40  1  0.480264  0.098807  0.758617  1
  O  O41  1  0.359837  0.176147  0.242937  1
  O  O42  1  0.144101  0.318389  0.758278  1
  O  O43  1  0.020342  0.408972  0.252193  1
  O  O44  1  0.295285  0.030793  0.939266  1
  O  O45  1  0.990341  0.071638  0.758761  1
