# generated using pymatgen
data_V6PbO15
_symmetry_space_group_name_H-M   'P 1'
_cell_length_a   15.64685753
_cell_length_b   7.41595484
_cell_length_c   10.41230301
_cell_angle_alpha   90.00000000
_cell_angle_beta   70.64675305
_cell_angle_gamma   90.00000000
_symmetry_Int_Tables_number   1
_chemical_formula_structural   V6PbO15
_chemical_formula_sum   'V24 Pb4 O60'
_cell_volume   1139.93440798
_cell_formula_units_Z   4
loop_
 _symmetry_equiv_pos_site_id
 _symmetry_equiv_pos_as_xyz
  1  'x, y, z'
loop_
 _atom_site_type_symbol
 _atom_site_label
 _atom_site_symmetry_multiplicity
 _atom_site_fract_x
 _atom_site_fract_y
 _atom_site_fract_z
 _atom_site_occupancy
  V  V0  1  0.884094  0.501818  0.008499  1
  V  V1  1  0.880022  0.998654  0.002743  1
  V  V2  1  0.833837  0.249404  0.262045  1
  V  V3  1  0.831584  0.751907  0.271489  1
  V  V4  1  0.782248  0.248324  0.624144  1
  V  V5  1  0.783080  0.751619  0.627318  1
  V  V6  1  0.666163  0.000596  0.237955  1
  V  V7  1  0.668416  0.498093  0.228511  1
  V  V8  1  0.615906  0.748182  0.491501  1
  V  V9  1  0.619978  0.251346  0.497257  1
  V  V10  1  0.716920  0.498381  0.872682  1
  V  V11  1  0.717752  0.001676  0.875856  1
  V  V12  1  0.283080  0.998381  0.127318  1
  V  V13  1  0.282248  0.501676  0.124144  1
  V  V14  1  0.384094  0.248182  0.508499  1
  V  V15  1  0.380022  0.751346  0.502743  1
  V  V16  1  0.331584  0.998093  0.771489  1
  V  V17  1  0.333837  0.500596  0.762045  1
  V  V18  1  0.216920  0.251619  0.372682  1
  V  V19  1  0.217752  0.748324  0.375856  1
  V  V20  1  0.168416  0.251907  0.728511  1
  V  V21  1  0.166163  0.749404  0.737955  1
  V  V22  1  0.115906  0.001818  0.991501  1
  V  V23  1  0.119978  0.498654  0.997257  1
  Pb  Pb24  1  0.997456  0.507877  0.609873  1
  Pb  Pb25  1  0.497456  0.242123  0.109873  1
  Pb  Pb26  1  0.502544  0.742123  0.890127  1
  Pb  Pb27  1  0.002544  0.007877  0.390127  1
  O  O28  1  0.934134  0.229995  0.285359  1
  O  O29  1  0.934126  0.765775  0.281527  1
  O  O30  1  0.867562  0.248021  0.057750  1
  O  O31  1  0.867666  0.753237  0.057392  1
  O  O32  1  0.820223  0.507502  0.228250  1
  O  O33  1  0.808106  0.992888  0.233290  1
  O  O34  1  0.894596  0.244210  0.571800  1
  O  O35  1  0.896681  0.754428  0.573036  1
  O  O36  1  0.742191  0.999524  0.034873  1
  O  O37  1  0.738095  0.501688  0.049822  1
  O  O38  1  0.894058  0.999018  0.840793  1
  O  O39  1  0.884904  0.501637  0.845326  1
  O  O40  1  0.757809  0.250476  0.465127  1
  O  O41  1  0.761905  0.748312  0.450178  1
  O  O42  1  0.679777  0.742498  0.271750  1
  O  O43  1  0.691894  0.257112  0.266710  1
  O  O44  1  0.757356  0.493453  0.671162  1
  O  O45  1  0.753273  0.005903  0.670798  1
  O  O46  1  0.742644  0.756547  0.828838  1
  O  O47  1  0.746727  0.244097  0.829202  1
  O  O48  1  0.632334  0.496763  0.442608  1
  O  O49  1  0.632438  0.001979  0.442250  1
  O  O50  1  0.565874  0.484225  0.218473  1
  O  O51  1  0.565866  0.020005  0.214641  1
  O  O52  1  0.615096  0.748363  0.654674  1
  O  O53  1  0.605942  0.250982  0.659207  1
  O  O54  1  0.396681  0.995572  0.073036  1
  O  O55  1  0.394596  0.505790  0.071800  1
  O  O56  1  0.498625  0.249487  0.496095  1
  O  O57  1  0.501375  0.749487  0.503905  1
  O  O58  1  0.603319  0.495572  0.926964  1
  O  O59  1  0.605404  0.005790  0.928200  1
  O  O60  1  0.394058  0.750982  0.340793  1
  O  O61  1  0.384904  0.248363  0.345326  1
  O  O62  1  0.434126  0.984225  0.781527  1
  O  O63  1  0.434134  0.520005  0.785359  1
  O  O64  1  0.367666  0.996763  0.557392  1
  O  O65  1  0.367562  0.501979  0.557750  1
  O  O66  1  0.253273  0.744097  0.170798  1
  O  O67  1  0.257356  0.256547  0.171162  1
  O  O68  1  0.242644  0.993453  0.328838  1
  O  O69  1  0.246727  0.505903  0.329202  1
  O  O70  1  0.308106  0.757112  0.733290  1
  O  O71  1  0.320223  0.242498  0.728250  1
  O  O72  1  0.238095  0.248312  0.549822  1
  O  O73  1  0.242191  0.750476  0.534873  1
  O  O74  1  0.115096  0.001637  0.154674  1
  O  O75  1  0.105942  0.499018  0.159207  1
  O  O76  1  0.261905  0.001688  0.950178  1
  O  O77  1  0.257809  0.499524  0.965127  1
  O  O78  1  0.998625  0.500513  0.996095  1
  O  O79  1  0.001375  0.000513  0.003905  1
  O  O80  1  0.103319  0.254428  0.426964  1
  O  O81  1  0.105404  0.744210  0.428200  1
  O  O82  1  0.179777  0.007502  0.771750  1
  O  O83  1  0.191894  0.492888  0.766710  1
  O  O84  1  0.132334  0.253237  0.942608  1
  O  O85  1  0.132438  0.748021  0.942250  1
  O  O86  1  0.065874  0.265775  0.718473  1
  O  O87  1  0.065866  0.729995  0.714641  1
