# generated using pymatgen
data_Fe(SO4)2
_symmetry_space_group_name_H-M   'P 1'
_cell_length_a   8.94592667
_cell_length_b   8.94592691
_cell_length_c   8.94592658
_cell_angle_alpha   55.71331945
_cell_angle_beta   55.71332174
_cell_angle_gamma   55.71332411
_symmetry_Int_Tables_number   1
_chemical_formula_structural   Fe(SO4)2
_chemical_formula_sum   'Fe3 S6 O24'
_cell_volume   455.90595781
_cell_formula_units_Z   3
loop_
 _symmetry_equiv_pos_site_id
 _symmetry_equiv_pos_as_xyz
  1  'x, y, z'
loop_
 _atom_site_type_symbol
 _atom_site_label
 _atom_site_symmetry_multiplicity
 _atom_site_fract_x
 _atom_site_fract_y
 _atom_site_fract_z
 _atom_site_occupancy
  Fe  Fe0  1  0.148841  0.148841  0.148841  1
  Fe  Fe1  1  0.643913  0.643913  0.643913  1
  Fe  Fe2  1  0.849334  0.849334  0.849334  1
  S  S3  1  0.041469  0.752376  0.458839  1
  S  S4  1  0.458839  0.041469  0.752376  1
  S  S5  1  0.752376  0.458839  0.041469  1
  S  S6  1  0.248701  0.541941  0.957653  1
  S  S7  1  0.541941  0.957653  0.248701  1
  S  S8  1  0.957653  0.248701  0.541941  1
  O  O9  1  0.111183  0.289179  0.512802  1
  O  O10  1  0.289179  0.512802  0.111183  1
  O  O11  1  0.006208  0.961206  0.330894  1
  O  O12  1  0.512802  0.111183  0.289179  1
  O  O13  1  0.021918  0.721015  0.652816  1
  O  O14  1  0.237556  0.627361  0.379938  1
  O  O15  1  0.379938  0.237556  0.627361  1
  O  O16  1  0.330894  0.006208  0.961206  1
  O  O17  1  0.627361  0.379938  0.237556  1
  O  O18  1  0.044057  0.677719  0.977835  1
  O  O19  1  0.275315  0.352342  0.974849  1
  O  O20  1  0.352342  0.974849  0.275315  1
  O  O21  1  0.652816  0.021918  0.721015  1
  O  O22  1  0.721015  0.652816  0.021918  1
  O  O23  1  0.961206  0.330894  0.006208  1
  O  O24  1  0.380992  0.623880  0.759754  1
  O  O25  1  0.677719  0.977835  0.044057  1
  O  O26  1  0.623880  0.759754  0.380992  1
  O  O27  1  0.759754  0.380992  0.623880  1
  O  O28  1  0.974849  0.275315  0.352342  1
  O  O29  1  0.489035  0.890042  0.703998  1
  O  O30  1  0.977835  0.044057  0.677719  1
  O  O31  1  0.703998  0.489035  0.890042  1
  O  O32  1  0.890042  0.703998  0.489035  1
