# generated using pymatgen
data_CrH18(O3F)3
_symmetry_space_group_name_H-M   'P 1'
_cell_length_a   6.84652754
_cell_length_b   6.84646874
_cell_length_c   6.84658190
_cell_angle_alpha   105.18617296
_cell_angle_beta   105.18631244
_cell_angle_gamma   105.18599244
_symmetry_Int_Tables_number   1
_chemical_formula_structural   CrH18(O3F)3
_chemical_formula_sum   'Cr1 H18 O9 F3'
_cell_volume   279.44644920
_cell_formula_units_Z   1
loop_
 _symmetry_equiv_pos_site_id
 _symmetry_equiv_pos_as_xyz
  1  'x, y, z'
loop_
 _atom_site_type_symbol
 _atom_site_label
 _atom_site_symmetry_multiplicity
 _atom_site_fract_x
 _atom_site_fract_y
 _atom_site_fract_z
 _atom_site_occupancy
  Cr  Cr0  1  0.000648  0.000691  0.000665  1
  H  H1  1  0.680021  0.572859  0.311166  1
  H  H2  1  0.572861  0.311162  0.680019  1
  H  H3  1  0.311168  0.680019  0.572859  1
  H  H4  1  0.510513  0.694661  0.316406  1
  H  H5  1  0.694660  0.316400  0.510510  1
  H  H6  1  0.316405  0.510507  0.694660  1
  H  H7  1  0.429947  0.208020  0.099184  1
  H  H8  1  0.208022  0.099189  0.429945  1
  H  H9  1  0.099189  0.429956  0.208026  1
  H  H10  1  0.293313  0.196307  0.854719  1
  H  H11  1  0.196308  0.854724  0.293307  1
  H  H12  1  0.854726  0.293315  0.196310  1
  H  H13  1  0.140158  0.708441  0.800655  1
  H  H14  1  0.708441  0.800653  0.140161  1
  H  H15  1  0.800652  0.140158  0.708436  1
  H  H16  1  0.894853  0.571942  0.790722  1
  H  H17  1  0.571946  0.790719  0.894855  1
  H  H18  1  0.790722  0.894851  0.571946  1
  O  O19  1  0.013588  0.718271  0.847162  1
  O  O20  1  0.718276  0.847160  0.013592  1
  O  O21  1  0.847157  0.013584  0.718274  1
  O  O22  1  0.284386  0.146614  0.979112  1
  O  O23  1  0.146613  0.979091  0.284372  1
  O  O24  1  0.979102  0.284385  0.146614  1
  O  O25  1  0.665764  0.717987  0.329207  1
  O  O26  1  0.717989  0.329203  0.665761  1
  O  O27  1  0.329200  0.665766  0.717983  1
  F  F28  1  0.667349  0.324841  0.275179  1
  F  F29  1  0.324841  0.275169  0.667348  1
  F  F30  1  0.275185  0.667354  0.324844  1
