# generated using pymatgen
data_Na3CdPCO7
_symmetry_space_group_name_H-M   'P 1'
_cell_length_a   9.17599397
_cell_length_b   7.00416387
_cell_length_c   5.25516800
_cell_angle_alpha   90.00000000
_cell_angle_beta   90.16386086
_cell_angle_gamma   90.00000000
_symmetry_Int_Tables_number   1
_chemical_formula_structural   Na3CdPCO7
_chemical_formula_sum   'Na6 Cd2 P2 C2 O14'
_cell_volume   337.74913550
_cell_formula_units_Z   2
loop_
 _symmetry_equiv_pos_site_id
 _symmetry_equiv_pos_as_xyz
  1  'x, y, z'
loop_
 _atom_site_type_symbol
 _atom_site_label
 _atom_site_symmetry_multiplicity
 _atom_site_fract_x
 _atom_site_fract_y
 _atom_site_fract_z
 _atom_site_occupancy
  Na  Na0  1  0.083361  0.250000  0.759608  1
  Na  Na1  1  0.258907  0.002845  0.246399  1
  Na  Na2  1  0.258907  0.497155  0.246399  1
  Na  Na3  1  0.741093  0.502845  0.753601  1
  Na  Na4  1  0.741093  0.997155  0.753601  1
  Na  Na5  1  0.916639  0.750000  0.240392  1
  Cd  Cd6  1  0.364426  0.750000  0.769887  1
  Cd  Cd7  1  0.635574  0.250000  0.230113  1
  P  P8  1  0.407400  0.250000  0.702438  1
  P  P9  1  0.592600  0.750000  0.297562  1
  C  C10  1  0.056594  0.750000  0.735847  1
  C  C11  1  0.943406  0.250000  0.264153  1
  O  O12  1  0.084320  0.250000  0.287094  1
  O  O13  1  0.117246  0.750000  0.960173  1
  O  O14  1  0.138308  0.750000  0.532014  1
  O  O15  1  0.318100  0.073250  0.792191  1
  O  O16  1  0.318100  0.426750  0.792191  1
  O  O17  1  0.414294  0.250000  0.404433  1
  O  O18  1  0.433085  0.750000  0.196102  1
  O  O19  1  0.566915  0.250000  0.803898  1
  O  O20  1  0.585706  0.750000  0.595567  1
  O  O21  1  0.681900  0.573250  0.207809  1
  O  O22  1  0.681900  0.926750  0.207809  1
  O  O23  1  0.861692  0.250000  0.467986  1
  O  O24  1  0.882754  0.250000  0.039827  1
  O  O25  1  0.915680  0.750000  0.712906  1
