# generated using pymatgen
data_Ti5O8
_symmetry_space_group_name_H-M   'P 1'
_cell_length_a   5.52365897
_cell_length_b   9.08277246
_cell_length_c   9.07462911
_cell_angle_alpha   68.12044484
_cell_angle_beta   95.26688317
_cell_angle_gamma   95.21249725
_symmetry_Int_Tables_number   1
_chemical_formula_structural   Ti5O8
_chemical_formula_sum   'Ti15 O24'
_cell_volume   419.90673258
_cell_formula_units_Z   3
loop_
 _symmetry_equiv_pos_site_id
 _symmetry_equiv_pos_as_xyz
  1  'x, y, z'
loop_
 _atom_site_type_symbol
 _atom_site_label
 _atom_site_symmetry_multiplicity
 _atom_site_fract_x
 _atom_site_fract_y
 _atom_site_fract_z
 _atom_site_occupancy
  Ti  Ti0  1  0.676645  0.068825  0.071167  1
  Ti  Ti1  1  0.199828  0.069738  0.593017  1
  Ti  Ti2  1  0.303811  0.174107  0.174291  1
  Ti  Ti3  1  0.809849  0.173307  0.672819  1
  Ti  Ti4  1  0.305247  0.422306  0.421325  1
  Ti  Ti5  1  0.195575  0.592194  0.067285  1
  Ti  Ti6  1  0.190451  0.319977  0.826381  1
  Ti  Ti7  1  0.693304  0.326581  0.324884  1
  Ti  Ti8  1  0.807888  0.672830  0.173941  1
  Ti  Ti9  1  0.197541  0.831856  0.321810  1
  Ti  Ti10  1  0.305625  0.674328  0.673421  1
  Ti  Ti11  1  0.807021  0.423308  0.924894  1
  Ti  Ti12  1  0.691807  0.577490  0.577429  1
  Ti  Ti13  1  0.683264  0.830171  0.836702  1
  Ti  Ti14  1  0.807824  0.925800  0.423924  1
  O  O15  1  0.157000  0.032511  0.377723  1
  O  O16  1  0.997407  0.216872  0.032095  1
  O  O17  1  0.657421  0.127047  0.279503  1
  O  O18  1  0.160714  0.141237  0.766399  1
  O  O19  1  0.998904  0.280239  0.466224  1
  O  O20  1  0.674585  0.033542  0.872844  1
  O  O21  1  0.343221  0.378869  0.215275  1
  O  O22  1  0.499039  0.219452  0.528845  1
  O  O23  1  0.158729  0.627572  0.280951  1
  O  O24  1  0.498950  0.280787  0.967657  1
  O  O25  1  0.342416  0.469591  0.624244  1
  O  O26  1  0.850788  0.466876  0.127581  1
  O  O27  1  0.153661  0.530379  0.874224  1
  O  O28  1  0.655271  0.529464  0.376278  1
  O  O29  1  0.999153  0.720200  0.532148  1
  O  O30  1  0.508704  0.708314  0.035339  1
  O  O31  1  0.842405  0.374860  0.720022  1
  O  O32  1  0.650021  0.625623  0.782545  1
  O  O33  1  0.501433  0.780069  0.468366  1
  O  O34  1  0.973845  0.767106  0.966814  1
  O  O35  1  0.356840  0.969365  0.140653  1
  O  O36  1  0.349367  0.872106  0.708050  1
  O  O37  1  0.845834  0.874744  0.220939  1
  O  O38  1  0.840523  0.967380  0.629013  1
