# generated using pymatgen
data_Li7VO5F
_symmetry_space_group_name_H-M   'P 1'
_cell_length_a   5.55595385
_cell_length_b   5.79785435
_cell_length_c   5.52278527
_cell_angle_alpha   89.53202897
_cell_angle_beta   61.22032366
_cell_angle_gamma   61.07172537
_symmetry_Int_Tables_number   1
_chemical_formula_structural   Li7VO5F
_chemical_formula_sum   'Li7 V1 O5 F1'
_cell_volume   130.48584070
_cell_formula_units_Z   1
loop_
 _symmetry_equiv_pos_site_id
 _symmetry_equiv_pos_as_xyz
  1  'x, y, z'
loop_
 _atom_site_type_symbol
 _atom_site_label
 _atom_site_symmetry_multiplicity
 _atom_site_fract_x
 _atom_site_fract_y
 _atom_site_fract_z
 _atom_site_occupancy
  Li  Li0  1  0.393080  0.332035  0.117492  1
  Li  Li1  1  0.134810  0.354517  0.748703  1
  Li  Li2  1  0.259356  0.679773  0.493493  1
  Li  Li3  1  0.812392  0.315572  0.474529  1
  Li  Li4  1  0.839026  0.666619  0.227753  1
  Li  Li5  1  0.581798  0.653957  0.931530  1
  Li  Li6  1  0.678183  0.963923  0.684486  1
  V  V7  1  0.046304  0.979695  0.962853  1
  O  O8  1  0.138491  0.239687  0.070630  1
  O  O9  1  0.116973  0.781251  0.226294  1
  O  O10  1  0.481666  0.758685  0.631641  1
  O  O11  1  0.824823  0.240903  0.811979  1
  O  O12  1  0.892737  0.752784  0.875729  1
  F  F13  1  0.516469  0.269720  0.399208  1
