# generated using pymatgen
data_Li2FeF4
_symmetry_space_group_name_H-M   'P 1'
_cell_length_a   5.19421112
_cell_length_b   3.13713385
_cell_length_c   9.80939056
_cell_angle_alpha   89.89808915
_cell_angle_beta   85.30440737
_cell_angle_gamma   89.99653990
_symmetry_Int_Tables_number   1
_chemical_formula_structural   Li2FeF4
_chemical_formula_sum   'Li4 Fe2 F8'
_cell_volume   159.30664951
_cell_formula_units_Z   2
loop_
 _symmetry_equiv_pos_site_id
 _symmetry_equiv_pos_as_xyz
  1  'x, y, z'
loop_
 _atom_site_type_symbol
 _atom_site_label
 _atom_site_symmetry_multiplicity
 _atom_site_fract_x
 _atom_site_fract_y
 _atom_site_fract_z
 _atom_site_occupancy
  Li  Li0  1  0.260932  0.889099  0.065749  1
  Li  Li1  1  0.246115  0.894180  0.430412  1
  Li  Li2  1  0.746113  0.110005  0.930405  1
  Li  Li3  1  0.760631  0.107635  0.565647  1
  Fe  Fe4  1  0.253590  0.597144  0.748270  1
  Fe  Fe5  1  0.753725  0.403534  0.248208  1
  F  F6  1  0.086405  0.383388  0.129149  1
  F  F7  1  0.115697  0.097308  0.618905  1
  F  F8  1  0.421977  0.390053  0.368121  1
  F  F9  1  0.615617  0.904611  0.118986  1
  F  F10  1  0.392005  0.095926  0.877536  1
  F  F11  1  0.586292  0.611420  0.629295  1
  F  F12  1  0.891639  0.903018  0.377643  1
  F  F13  1  0.922347  0.616003  0.868560  1
