# generated using pymatgen
data_Li2VO2F
_symmetry_space_group_name_H-M   'P 1'
_cell_length_a   3.02438502
_cell_length_b   10.39391371
_cell_length_c   7.97322082
_cell_angle_alpha   70.41693982
_cell_angle_beta   79.15399326
_cell_angle_gamma   90.11785680
_symmetry_Int_Tables_number   1
_chemical_formula_structural   Li2VO2F
_chemical_formula_sum   'Li8 V4 O8 F4'
_cell_volume   231.34843327
_cell_formula_units_Z   4
loop_
 _symmetry_equiv_pos_site_id
 _symmetry_equiv_pos_as_xyz
  1  'x, y, z'
loop_
 _atom_site_type_symbol
 _atom_site_label
 _atom_site_symmetry_multiplicity
 _atom_site_fract_x
 _atom_site_fract_y
 _atom_site_fract_z
 _atom_site_occupancy
  Li  Li0  1  0.925555  0.301503  0.149027  1
  Li  Li1  1  0.928854  0.808290  0.142069  1
  Li  Li2  1  0.563841  0.961976  0.872194  1
  Li  Li3  1  0.580778  0.456792  0.838207  1
  Li  Li4  1  0.076052  0.703640  0.848407  1
  Li  Li5  1  0.419949  0.546571  0.159399  1
  Li  Li6  1  0.436552  0.029222  0.124277  1
  Li  Li7  1  0.067149  0.190522  0.866297  1
  V  V8  1  0.748740  0.868115  0.499061  1
  V  V9  1  0.747934  0.377483  0.500284  1
  V  V10  1  0.249541  0.622947  0.498686  1
  V  V11  1  0.250313  0.129215  0.520657  1
  O  O12  1  0.670352  0.173015  0.653615  1
  O  O13  1  0.661154  0.667410  0.653108  1
  O  O14  1  0.837104  0.577772  0.346736  1
  O  O15  1  0.187961  0.925559  0.628546  1
  O  O16  1  0.317345  0.825691  0.350238  1
  O  O17  1  0.181996  0.420698  0.650745  1
  O  O18  1  0.314799  0.325310  0.351224  1
  O  O19  1  0.999200  0.999293  0.999572  1
  F  F20  1  0.835923  0.088887  0.346011  1
  F  F21  1  0.502368  0.740835  0.995886  1
  F  F22  1  0.498318  0.259655  0.004471  1
  F  F23  1  0.998304  0.499602  0.001284  1
