# generated using pymatgen
data_V3O5F
_symmetry_space_group_name_H-M   'P 1'
_cell_length_a   7.32959302
_cell_length_b   5.52092510
_cell_length_c   5.52092510
_cell_angle_alpha   71.83676392
_cell_angle_beta   70.12253383
_cell_angle_gamma   70.12253383
_symmetry_Int_Tables_number   1
_chemical_formula_structural   V3O5F
_chemical_formula_sum   'V6 O10 F2'
_cell_volume   192.66342987
_cell_formula_units_Z   2
loop_
 _symmetry_equiv_pos_site_id
 _symmetry_equiv_pos_as_xyz
  1  'x, y, z'
loop_
 _atom_site_type_symbol
 _atom_site_label
 _atom_site_symmetry_multiplicity
 _atom_site_fract_x
 _atom_site_fract_y
 _atom_site_fract_z
 _atom_site_occupancy
  V  V0  1  0.846516  0.673906  0.673906  1
  V  V1  1  0.671326  0.319430  0.319430  1
  V  V2  1  0.318017  0.656006  0.656006  1
  V  V3  1  0.159641  0.338220  0.338220  1
  V  V4  1  0.515084  0.999645  0.999645  1
  V  V5  1  0.987409  0.011988  0.011988  1
  O  O6  1  0.659296  0.039952  0.637887  1
  O  O7  1  0.334191  0.368563  0.961041  1
  O  O8  1  0.965312  0.237802  0.237802  1
  O  O9  1  0.696608  0.096908  0.096908  1
  O  O10  1  0.037970  0.772066  0.772066  1
  O  O11  1  0.368860  0.432665  0.432665  1
  O  O12  1  0.006636  0.294096  0.696582  1
  O  O13  1  0.659296  0.637887  0.039952  1
  O  O14  1  0.334191  0.961041  0.368563  1
  O  O15  1  0.006636  0.696582  0.294096  1
  F  F16  1  0.632993  0.564257  0.564257  1
  F  F17  1  0.300018  0.898988  0.898988  1
