# generated using pymatgen
data_LaAlO3
_symmetry_space_group_name_H-M   'P 1'
_cell_length_a   7.90093684
_cell_length_b   8.05499292
_cell_length_c   10.79773998
_cell_angle_alpha   39.11070358
_cell_angle_beta   82.62754051
_cell_angle_gamma   77.29536486
_symmetry_Int_Tables_number   1
_chemical_formula_structural   LaAlO3
_chemical_formula_sum   'La6 Al6 O18'
_cell_volume   421.87866244
_cell_formula_units_Z   6
loop_
 _symmetry_equiv_pos_site_id
 _symmetry_equiv_pos_as_xyz
  1  'x, y, z'
loop_
 _atom_site_type_symbol
 _atom_site_label
 _atom_site_symmetry_multiplicity
 _atom_site_fract_x
 _atom_site_fract_y
 _atom_site_fract_z
 _atom_site_occupancy
  La  La0  1  0.099720  0.886185  0.222803  1
  La  La1  1  0.252928  0.112177  0.415580  1
  La  La2  1  0.423149  0.931045  0.878844  1
  La  La3  1  0.580265  0.067275  0.122133  1
  La  La4  1  0.751337  0.888424  0.583943  1
  La  La5  1  0.903265  0.113127  0.777773  1
  Al  Al6  1  0.223837  0.555973  0.910832  1
  Al  Al7  1  0.104923  0.511293  0.689360  1
  Al  Al8  1  0.476712  0.562773  0.642588  1
  Al  Al9  1  0.528341  0.436979  0.358085  1
  Al  Al10  1  0.780898  0.442759  0.089801  1
  Al  Al11  1  0.900072  0.489169  0.310279  1
  O  O12  1  0.088525  0.372417  0.445015  1
  O  O13  1  0.071491  0.699920  0.725011  1
  O  O14  1  0.146281  0.161349  0.884141  1
  O  O15  1  0.183941  0.752752  0.933826  1
  O  O16  1  0.254875  0.208487  0.138928  1
  O  O17  1  0.277838  0.640367  0.533766  1
  O  O18  1  0.448631  0.137805  0.553482  1
  O  O19  1  0.427028  0.576292  0.803716  1
  O  O20  1  0.416619  0.765629  0.197406  1
  O  O21  1  0.578489  0.422036  0.197836  1
  O  O22  1  0.587598  0.233728  0.802918  1
  O  O23  1  0.556382  0.861910  0.446874  1
  O  O24  1  0.727453  0.360107  0.466580  1
  O  O25  1  0.749426  0.790150  0.861324  1
  O  O26  1  0.820607  0.244082  0.068504  1
  O  O27  1  0.933559  0.300573  0.274795  1
  O  O28  1  0.857174  0.839033  0.115409  1
  O  O29  1  0.917063  0.630334  0.552880  1
