# generated using pymatgen
data_Na9Zr8Si4(P4O23)2
_symmetry_space_group_name_H-M   'P 1'
_cell_length_a   9.67426416
_cell_length_b   9.53811369
_cell_length_c   17.69780197
_cell_angle_alpha   55.68746529
_cell_angle_beta   56.13691052
_cell_angle_gamma   56.66113979
_symmetry_Int_Tables_number   1
_chemical_formula_structural   Na9Zr8Si4(P4O23)2
_chemical_formula_sum   'Na9 Zr8 Si4 P8 O46'
_cell_volume   1051.96680620
_cell_formula_units_Z   1
loop_
 _symmetry_equiv_pos_site_id
 _symmetry_equiv_pos_as_xyz
  1  'x, y, z'
loop_
 _atom_site_type_symbol
 _atom_site_label
 _atom_site_symmetry_multiplicity
 _atom_site_fract_x
 _atom_site_fract_y
 _atom_site_fract_z
 _atom_site_occupancy
  Na  Na0  1  0.095760  0.388992  0.373196  1
  Na  Na1  1  0.442010  0.610495  0.216061  1
  Na  Na2  1  0.622451  0.239863  0.423033  1
  Na  Na3  1  0.097811  0.354280  0.864892  1
  Na  Na4  1  0.920120  0.674897  0.102480  1
  Na  Na5  1  0.141012  -0.078663  0.442087  1
  Na  Na6  1  0.389118  0.652338  0.721274  1
  Na  Na7  1  0.599295  0.244064  0.924870  1
  Na  Na8  1  0.919427  0.665375  0.600831  1
  Zr  Zr9  1  0.162380  0.111907  0.087852  1
  Zr  Zr10  1  0.379833  0.379977  0.143618  1
  Zr  Zr11  1  0.154972  0.108876  0.591683  1
  Zr  Zr12  1  0.423328  0.390410  0.624357  1
  Zr  Zr13  1  0.647015  0.626202  0.345077  1
  Zr  Zr14  1  0.860519  0.868274  0.376477  1
  Zr  Zr15  1  0.642341  0.638796  0.837566  1
  Zr  Zr16  1  0.871848  0.885178  0.874843  1
  Si  Si17  1  0.026072  0.765626  0.196235  1
  Si  Si18  1  0.443582  0.037010  0.367084  1
  Si  Si19  1  0.031599  0.754721  0.697800  1
  Si  Si20  1  0.455829  0.048374  0.861518  1
  P  P21  1  0.754629  0.271131  0.088571  1
  P  P22  1  0.256567  0.519696  0.455226  1
  P  P23  1  0.552778  0.937284  0.117305  1
  P  P24  1  0.998925  0.241034  0.280270  1
  P  P25  1  0.782465  0.462591  0.574595  1
  P  P26  1  0.243139  0.524272  0.958353  1
  P  P27  1  0.555552  0.953431  0.613963  1
  P  P28  1  0.990836  0.260715  0.774856  1
  O  O29  1  0.035861  0.904565  0.223946  1
  O  O30  1  0.211353  0.581908  0.199930  1
  O  O31  1  0.497450  0.126603  0.113593  1
  O  O32  1  0.281511  0.047956  0.472006  1
  O  O33  1  0.368496  0.215811  0.282534  1
  O  O34  1  0.590595  0.427616  0.128848  1
  O  O35  1  0.259205  0.337715  0.474095  1
  O  O36  1  0.092163  0.678565  0.428481  1
  O  O37  1  0.386748  0.921892  0.130599  1
  O  O38  1  0.628749  0.028706  0.354908  1
  O  O39  1  0.932765  0.294758  0.052005  1
  O  O40  1  0.993806  0.867906  0.097835  1
  O  O41  1  0.428650  0.551089  0.368435  1
  O  O42  1  0.622603  0.774408  0.199463  1
  O  O43  1  0.047424  0.897638  0.722267  1
  O  O44  1  0.703739  0.910522  0.019670  1
  O  O45  1  0.223520  0.582903  0.692273  1
  O  O46  1  0.509717  0.141324  0.606983  1
  O  O47  1  0.063647  0.252793  0.173254  1
  O  O48  1  0.818254  0.412593  0.289509  1
  O  O49  1  0.461581  0.857568  0.366643  1
  O  O50  1  0.287279  0.072439  0.961394  1
  O  O51  1  0.926664  0.071131  0.350401  1
  O  O52  1  0.404379  0.215098  0.767006  1
  O  O53  1  0.781649  0.635676  0.481732  1
  O  O54  1  0.596464  0.446414  0.641285  1
  O  O55  1  0.277586  0.330901  0.976969  1
  O  O56  1  0.063291  0.654726  0.939526  1
  O  O57  1  0.866891  0.692337  0.301655  1
  O  O58  1  0.382692  0.943457  0.631715  1
  O  O59  1  0.640180  0.033289  0.855758  1
  O  O60  1  0.603462  0.456841  0.483853  1
  O  O61  1  0.923412  0.291408  0.548092  1
  O  O62  1  0.988309  0.858947  0.601665  1
  O  O63  1  0.398403  0.584683  0.866415  1
  O  O64  1  0.243939  0.515641  0.547835  1
  O  O65  1  0.622710  0.790791  0.697681  1
  O  O66  1  0.702303  0.923266  0.518179  1
  O  O67  1  0.054343  0.261105  0.670323  1
  O  O68  1  0.802540  0.422580  0.783210  1
  O  O69  1  0.491951  0.853860  0.868806  1
  O  O70  1  0.929857  0.081807  0.845710  1
  O  O71  1  0.748300  0.396750  0.967392  1
  O  O72  1  0.876695  0.679252  0.803426  1
  O  O73  1  0.560993  0.448507  0.984074  1
  O  O74  1  0.227657  0.526104  0.050153  1
