# generated using pymatgen
data_Li4V3P8O29
_symmetry_space_group_name_H-M   'P 1'
_cell_length_a   9.80390637
_cell_length_b   9.77003967
_cell_length_c   14.13719423
_cell_angle_alpha   90.13756171
_cell_angle_beta   90.63204887
_cell_angle_gamma   59.73337104
_symmetry_Int_Tables_number   1
_chemical_formula_structural   Li4V3P8O29
_chemical_formula_sum   'Li8 V6 P16 O58'
_cell_volume   1169.46410019
_cell_formula_units_Z   2
loop_
 _symmetry_equiv_pos_site_id
 _symmetry_equiv_pos_as_xyz
  1  'x, y, z'
loop_
 _atom_site_type_symbol
 _atom_site_label
 _atom_site_symmetry_multiplicity
 _atom_site_fract_x
 _atom_site_fract_y
 _atom_site_fract_z
 _atom_site_occupancy
  Li  Li0  1  0.907003  0.772258  0.055229  1
  Li  Li1  1  0.778324  0.303933  0.055108  1
  Li  Li2  1  0.309239  0.917523  0.062743  1
  Li  Li3  1  0.681035  0.231926  0.441168  1
  Li  Li4  1  0.331256  0.767917  0.558567  1
  Li  Li5  1  0.227921  0.683278  0.940498  1
  Li  Li6  1  0.322943  0.332451  0.608950  1
  Li  Li7  1  0.004072  0.994115  0.508478  1
  V  V8  1  0.569369  0.432159  0.247987  1
  V  V9  1  0.430568  0.569774  0.751149  1
  V  V10  1  0.574328  0.993308  0.752878  1
  V  V11  1  0.434334  0.004751  0.253815  1
  V  V12  1  0.000308  0.561716  0.258650  1
  V  V13  1  0.995454  0.430445  0.745757  1
  P  P14  1  0.918394  0.766102  0.839669  1
  P  P15  1  0.777008  0.917221  0.340842  1
  P  P16  1  0.919469  0.302710  0.345414  1
  P  P17  1  0.667151  0.668523  0.132380  1
  P  P18  1  0.662231  0.671372  0.627694  1
  P  P19  1  0.772036  0.316016  0.837803  1
  P  P20  1  0.681483  0.222509  0.658277  1
  P  P21  1  0.318170  0.916215  0.846437  1
  P  P22  1  0.683197  0.084329  0.154986  1
  P  P23  1  0.317053  0.773672  0.341789  1
  P  P24  1  0.226547  0.680085  0.162071  1
  P  P25  1  0.338114  0.331994  0.371385  1
  P  P26  1  0.330190  0.333848  0.868060  1
  P  P27  1  0.085958  0.692842  0.655275  1
  P  P28  1  0.222298  0.085836  0.662032  1
  P  P29  1  0.084725  0.230085  0.159769  1
  O  O30  1  0.003555  0.799567  0.574193  1
  O  O31  1  0.913923  0.742711  0.335112  1
  O  O32  1  0.763222  0.990353  0.070040  1
  O  O33  1  0.749163  0.912594  0.835661  1
  O  O34  1  0.908449  0.616778  0.818605  1
  O  O35  1  0.816935  0.665217  0.178415  1
  O  O36  1  0.917576  0.464190  0.331265  1
  O  O37  1  0.993202  0.238508  0.073665  1
  O  O38  1  0.916680  0.340337  0.828689  1
  O  O39  1  0.663337  0.816601  0.677752  1
  O  O40  1  0.618093  0.917998  0.329117  1
  O  O41  1  0.812584  0.523126  0.673221  1
  O  O42  1  0.668146  0.675111  0.027214  1
  O  O43  1  0.666945  0.677845  0.523228  1
  O  O44  1  0.669051  0.515429  0.168759  1
  O  O45  1  0.477600  0.903800  0.821530  1
  O  O46  1  0.517781  0.817872  0.174791  1
  O  O47  1  0.745426  0.339177  0.335169  1
  O  O48  1  0.790806  0.204870  0.749085  1
  O  O49  1  0.767315  0.211102  0.569369  1
  O  O50  1  0.765052  0.246657  0.929056  1
  O  O51  1  0.620123  0.477104  0.816183  1
  O  O52  1  0.512166  0.672969  0.664147  1
  O  O53  1  0.662058  0.252719  0.156592  1
  O  O54  1  0.472394  0.618250  0.328340  1
  O  O55  1  0.345086  0.916005  0.327279  1
  O  O56  1  0.793967  0.999355  0.247241  1
  O  O57  1  0.788102  0.004143  0.424484  1
  O  O58  1  0.207107  0.991633  0.583572  1
  O  O59  1  0.656147  0.078387  0.668634  1
  O  O60  1  0.517756  0.372700  0.669608  1
  O  O61  1  0.334208  0.749499  0.839111  1
  O  O62  1  0.490955  0.324546  0.336522  1
  O  O63  1  0.379199  0.518607  0.180425  1
  O  O64  1  0.239043  0.756489  0.072865  1
  O  O65  1  0.233539  0.791301  0.432220  1
  O  O66  1  0.204462  0.790854  0.251964  1
  O  O67  1  0.261455  0.656934  0.661585  1
  O  O68  1  0.473914  0.184751  0.821059  1
  O  O69  1  0.522650  0.095808  0.177290  1
  O  O70  1  0.329873  0.487381  0.832974  1
  O  O71  1  0.326154  0.328900  0.972643  1
  O  O72  1  0.333042  0.328362  0.476715  1
  O  O73  1  0.188668  0.482734  0.327942  1
  O  O74  1  0.375105  0.095169  0.667342  1
  O  O75  1  0.331581  0.187404  0.325702  1
  O  O76  1  0.079924  0.660172  0.162526  1
  O  O77  1  0.012388  0.786184  0.754494  1
  O  O78  1  0.002072  0.755444  0.931308  1
  O  O79  1  0.094595  0.530051  0.662882  1
  O  O80  1  0.181204  0.342434  0.816598  1
  O  O81  1  0.090866  0.383526  0.180884  1
  O  O82  1  0.255619  0.086033  0.161426  1
  O  O83  1  0.253660  0.992368  0.938733  1
  O  O84  1  0.200986  0.016800  0.761108  1
  O  O85  1  0.081586  0.260759  0.661115  1
  O  O86  1  0.997127  0.211213  0.431935  1
  O  O87  1  0.004032  0.203761  0.251713  1
