# generated using pymatgen
data_Li3V3P8O29
_symmetry_space_group_name_H-M   'P 1'
_cell_length_a   9.77706395
_cell_length_b   9.75332713
_cell_length_c   14.20128982
_cell_angle_alpha   89.69386590
_cell_angle_beta   89.76234268
_cell_angle_gamma   60.06890901
_symmetry_Int_Tables_number   1
_chemical_formula_structural   Li3V3P8O29
_chemical_formula_sum   'Li6 V6 P16 O58'
_cell_volume   1173.58345456
_cell_formula_units_Z   2
loop_
 _symmetry_equiv_pos_site_id
 _symmetry_equiv_pos_as_xyz
  1  'x, y, z'
loop_
 _atom_site_type_symbol
 _atom_site_label
 _atom_site_symmetry_multiplicity
 _atom_site_fract_x
 _atom_site_fract_y
 _atom_site_fract_z
 _atom_site_occupancy
  Li  Li0  1  0.912139  0.776887  0.058615  1
  Li  Li1  1  0.905429  0.326498  0.552791  1
  Li  Li2  1  0.320552  0.908028  0.059675  1
  Li  Li3  1  0.327876  0.765657  0.556558  1
  Li  Li4  1  0.080462  0.221781  0.943994  1
  Li  Li5  1  0.970207  0.981774  0.494887  1
  V  V6  1  0.567289  0.432335  0.245452  1
  V  V7  1  0.437233  0.562791  0.755596  1
  V  V8  1  0.568963  0.998535  0.744380  1
  V  V9  1  0.436621  0.003947  0.256955  1
  V  V10  1  0.003413  0.563967  0.254482  1
  V  V11  1  0.998187  0.439514  0.747232  1
  P  P12  1  0.910211  0.773717  0.841031  1
  P  P13  1  0.779095  0.916395  0.342585  1
  P  P14  1  0.910359  0.311648  0.339165  1
  P  P15  1  0.666640  0.671396  0.131655  1
  P  P16  1  0.664543  0.665673  0.630800  1
  P  P17  1  0.774154  0.311635  0.845660  1
  P  P18  1  0.692714  0.226733  0.660665  1
  P  P19  1  0.319755  0.913406  0.841833  1
  P  P20  1  0.686354  0.085584  0.158467  1
  P  P21  1  0.314691  0.770474  0.342266  1
  P  P22  1  0.226584  0.687403  0.160308  1
  P  P23  1  0.335382  0.335552  0.369468  1
  P  P24  1  0.332731  0.327775  0.866874  1
  P  P25  1  0.088930  0.693918  0.659862  1
  P  P26  1  0.223585  0.084977  0.659364  1
  P  P27  1  0.092018  0.228081  0.159565  1
  O  O28  1  0.007382  0.788584  0.575690  1
  O  O29  1  0.912772  0.741285  0.330190  1
  O  O30  1  0.767210  0.994501  0.073249  1
  O  O31  1  0.742240  0.916294  0.828542  1
  O  O32  1  0.901965  0.620095  0.817199  1
  O  O33  1  0.819414  0.665128  0.171865  1
  O  O34  1  0.910147  0.471152  0.325726  1
  O  O35  1  0.012339  0.236834  0.069308  1
  O  O36  1  0.917922  0.340340  0.836113  1
  O  O37  1  0.669719  0.811368  0.673747  1
  O  O38  1  0.618262  0.919774  0.332316  1
  O  O39  1  0.814278  0.510510  0.671348  1
  O  O40  1  0.661006  0.673294  0.027005  1
  O  O41  1  0.665330  0.660539  0.526205  1
  O  O42  1  0.660037  0.525360  0.176708  1
  O  O43  1  0.478640  0.905063  0.820709  1
  O  O44  1  0.520038  0.820483  0.175353  1
  O  O45  1  0.739941  0.343519  0.328884  1
  O  O46  1  0.794246  0.204500  0.754487  1
  O  O47  1  0.789324  0.216880  0.576955  1
  O  O48  1  0.766407  0.238601  0.934679  1
  O  O49  1  0.619622  0.474305  0.823308  1
  O  O50  1  0.512580  0.671967  0.673079  1
  O  O51  1  0.655172  0.257732  0.163711  1
  O  O52  1  0.470171  0.614121  0.326797  1
  O  O53  1  0.347378  0.910694  0.329210  1
  O  O54  1  0.795045  0.002942  0.250245  1
  O  O55  1  0.798765  0.989702  0.428180  1
  O  O56  1  0.214084  0.991716  0.579781  1
  O  O57  1  0.655023  0.089694  0.665176  1
  O  O58  1  0.535517  0.385091  0.673563  1
  O  O59  1  0.343639  0.744368  0.833729  1
  O  O60  1  0.480942  0.333665  0.323226  1
  O  O61  1  0.380126  0.526439  0.175608  1
  O  O62  1  0.233404  0.776227  0.077142  1
  O  O63  1  0.233700  0.784852  0.433797  1
  O  O64  1  0.200603  0.788143  0.256306  1
  O  O65  1  0.263531  0.655395  0.665055  1
  O  O66  1  0.474830  0.181933  0.819390  1
  O  O67  1  0.526739  0.092118  0.179553  1
  O  O68  1  0.337580  0.475519  0.823091  1
  O  O69  1  0.326131  0.326122  0.970887  1
  O  O70  1  0.329205  0.336210  0.473500  1
  O  O71  1  0.184653  0.484853  0.324932  1
  O  O72  1  0.382808  0.082652  0.669256  1
  O  O73  1  0.331195  0.187557  0.325512  1
  O  O74  1  0.082622  0.660586  0.160338  1
  O  O75  1  0.011006  0.789673  0.756502  1
  O  O76  1  0.986196  0.757728  0.933196  1
  O  O77  1  0.085324  0.535288  0.673236  1
  O  O78  1  0.179479  0.334366  0.822851  1
  O  O79  1  0.097325  0.381292  0.181220  1
  O  O80  1  0.261185  0.082451  0.164492  1
  O  O81  1  0.247769  0.995441  0.932676  1
  O  O82  1  0.200544  0.013766  0.758332  1
  O  O83  1  0.083519  0.259008  0.659473  1
  O  O84  1  0.983780  0.231215  0.429645  1
  O  O85  1  0.002334  0.205002  0.249229  1
