# generated using pymatgen
data_LiCrP2H5O9
_symmetry_space_group_name_H-M   'P 1'
_cell_length_a   15.11590918
_cell_length_b   7.76430760
_cell_length_c   6.77738485
_cell_angle_alpha   90.00000000
_cell_angle_beta   90.00000000
_cell_angle_gamma   90.00000000
_symmetry_Int_Tables_number   1
_chemical_formula_structural   LiCrP2H5O9
_chemical_formula_sum   'Li4 Cr4 P8 H20 O36'
_cell_volume   795.42484866
_cell_formula_units_Z   4
loop_
 _symmetry_equiv_pos_site_id
 _symmetry_equiv_pos_as_xyz
  1  'x, y, z'
loop_
 _atom_site_type_symbol
 _atom_site_label
 _atom_site_symmetry_multiplicity
 _atom_site_fract_x
 _atom_site_fract_y
 _atom_site_fract_z
 _atom_site_occupancy
  Li  Li0  1  0.059163  0.740048  0.755903  1
  Li  Li1  1  0.440837  0.240048  0.255903  1
  Li  Li2  1  0.559163  0.740048  0.744097  1
  Li  Li3  1  0.940837  0.240048  0.244097  1
  Cr  Cr4  1  0.187291  0.250266  0.063350  1
  Cr  Cr5  1  0.312709  0.750266  0.563350  1
  Cr  Cr6  1  0.687291  0.250266  0.436650  1
  Cr  Cr7  1  0.812709  0.750266  0.936650  1
  P  P8  1  0.138265  0.560530  0.373589  1
  P  P9  1  0.138046  0.936384  0.366717  1
  P  P10  1  0.361735  0.060530  0.873589  1
  P  P11  1  0.361954  0.436384  0.866717  1
  P  P12  1  0.638265  0.560530  0.126411  1
  P  P13  1  0.638046  0.936384  0.133283  1
  P  P14  1  0.861735  0.060530  0.626411  1
  P  P15  1  0.861954  0.436384  0.633283  1
  H  H16  1  0.006425  0.993901  0.504480  1
  H  H17  1  0.088777  0.150092  0.711252  1
  H  H18  1  0.088302  0.353423  0.708653  1
  H  H19  1  0.210094  0.647418  0.907091  1
  H  H20  1  0.208908  0.854970  0.904868  1
  H  H21  1  0.289906  0.147418  0.407091  1
  H  H22  1  0.291092  0.354970  0.404868  1
  H  H23  1  0.411223  0.650092  0.211252  1
  H  H24  1  0.411698  0.853423  0.208653  1
  H  H25  1  0.493575  0.493901  0.004480  1
  H  H26  1  0.506425  0.993901  0.995520  1
  H  H27  1  0.588777  0.150092  0.788748  1
  H  H28  1  0.588302  0.353423  0.791347  1
  H  H29  1  0.710094  0.647418  0.592909  1
  H  H30  1  0.708908  0.854970  0.595132  1
  H  H31  1  0.789906  0.147418  0.092908  1
  H  H32  1  0.791092  0.354970  0.095132  1
  H  H33  1  0.911223  0.650092  0.288748  1
  H  H34  1  0.911698  0.853423  0.291347  1
  H  H35  1  0.993575  0.493901  0.495520  1
  O  O36  1  0.074103  0.549497  0.553033  1
  O  O37  1  0.072672  0.949266  0.550964  1
  O  O38  1  0.088923  0.252298  0.796763  1
  O  O39  1  0.119721  0.748585  0.273708  1
  O  O40  1  0.111433  0.065819  0.211882  1
  O  O41  1  0.113172  0.430796  0.216087  1
  O  O42  1  0.180964  0.749845  0.849499  1
  O  O43  1  0.235126  0.555969  0.438191  1
  O  O44  1  0.232937  0.944754  0.440587  1
  O  O45  1  0.264874  0.055969  0.938191  1
  O  O46  1  0.267063  0.444754  0.940587  1
  O  O47  1  0.319036  0.249845  0.349499  1
  O  O48  1  0.386828  0.930796  0.716087  1
  O  O49  1  0.388567  0.565819  0.711882  1
  O  O50  1  0.380279  0.248585  0.773708  1
  O  O51  1  0.411077  0.752298  0.296763  1
  O  O52  1  0.425897  0.049497  0.053033  1
  O  O53  1  0.427328  0.449266  0.050964  1
  O  O54  1  0.574103  0.549497  0.946967  1
  O  O55  1  0.572672  0.949266  0.949036  1
  O  O56  1  0.588923  0.252298  0.703237  1
  O  O57  1  0.619721  0.748585  0.226292  1
  O  O58  1  0.611433  0.065819  0.288118  1
  O  O59  1  0.613172  0.430796  0.283913  1
  O  O60  1  0.680964  0.749845  0.650501  1
  O  O61  1  0.735126  0.555969  0.061809  1
  O  O62  1  0.732937  0.944754  0.059413  1
  O  O63  1  0.764874  0.055969  0.561809  1
  O  O64  1  0.767063  0.444754  0.559413  1
  O  O65  1  0.819036  0.249845  0.150501  1
  O  O66  1  0.888567  0.565819  0.788118  1
  O  O67  1  0.886828  0.930796  0.783913  1
  O  O68  1  0.880279  0.248585  0.726292  1
  O  O69  1  0.911077  0.752298  0.203237  1
  O  O70  1  0.925897  0.049497  0.446967  1
  O  O71  1  0.927328  0.449266  0.449036  1
