# generated using pymatgen
data_Fe4O7F
_symmetry_space_group_name_H-M   'P 1'
_cell_length_a   4.62045809
_cell_length_b   4.61929106
_cell_length_c   12.00803459
_cell_angle_alpha   90.00000000
_cell_angle_beta   89.96766287
_cell_angle_gamma   90.00000000
_symmetry_Int_Tables_number   1
_chemical_formula_structural   Fe4O7F
_chemical_formula_sum   'Fe8 O14 F2'
_cell_volume   256.29033240
_cell_formula_units_Z   2
loop_
 _symmetry_equiv_pos_site_id
 _symmetry_equiv_pos_as_xyz
  1  'x, y, z'
loop_
 _atom_site_type_symbol
 _atom_site_label
 _atom_site_symmetry_multiplicity
 _atom_site_fract_x
 _atom_site_fract_y
 _atom_site_fract_z
 _atom_site_occupancy
  Fe  Fe0  1  0.004876  0.992046  0.005209  1
  Fe  Fe1  1  0.998584  0.995389  0.250655  1
  Fe  Fe2  1  0.022381  0.018390  0.498835  1
  Fe  Fe3  1  0.003535  0.990199  0.745272  1
  Fe  Fe4  1  0.501416  0.495389  0.124345  1
  Fe  Fe5  1  0.496465  0.490199  0.629728  1
  Fe  Fe6  1  0.477619  0.518390  0.876165  1
  Fe  Fe7  1  0.495124  0.492046  0.369791  1
  O  O8  1  0.193664  0.801392  0.129353  1
  O  O9  1  0.200813  0.805487  0.619862  1
  O  O10  1  0.176924  0.816461  0.876135  1
  O  O11  1  0.195473  0.809178  0.374962  1
  O  O12  1  0.304527  0.309178  0.000038  1
  O  O13  1  0.306336  0.301392  0.245647  1
  O  O14  1  0.323076  0.316461  0.498865  1
  O  O15  1  0.299187  0.305487  0.755138  1
  O  O16  1  0.686664  0.691439  0.000265  1
  O  O17  1  0.692508  0.687910  0.248420  1
  O  O18  1  0.687927  0.692768  0.752313  1
  O  O19  1  0.807492  0.187910  0.126580  1
  O  O20  1  0.813336  0.191439  0.374735  1
  O  O21  1  0.812073  0.192768  0.622687  1
  F  F22  1  0.704884  0.699343  0.498967  1
  F  F23  1  0.795116  0.199343  0.876033  1
