# generated using pymatgen
data_Li2V(Si2O5)3
_symmetry_space_group_name_H-M   'P 1'
_cell_length_a   7.38844794
_cell_length_b   7.41373832
_cell_length_c   6.73770266
_cell_angle_alpha   111.34946991
_cell_angle_beta   113.70765952
_cell_angle_gamma   97.00450189
_symmetry_Int_Tables_number   1
_chemical_formula_structural   Li2V(Si2O5)3
_chemical_formula_sum   'Li2 V1 Si6 O15'
_cell_volume   298.74439120
_cell_formula_units_Z   1
loop_
 _symmetry_equiv_pos_site_id
 _symmetry_equiv_pos_as_xyz
  1  'x, y, z'
loop_
 _atom_site_type_symbol
 _atom_site_label
 _atom_site_symmetry_multiplicity
 _atom_site_fract_x
 _atom_site_fract_y
 _atom_site_fract_z
 _atom_site_occupancy
  Li  Li0  1  0.180130  0.158189  0.716312  1
  Li  Li1  1  0.819870  0.841811  0.283688  1
  V  V2  1  0.000000  0.000000  0.000000  1
  Si  Si3  1  0.170875  0.603100  0.866977  1
  Si  Si4  1  0.199254  0.781365  0.351973  1
  Si  Si5  1  0.510542  0.695133  0.721660  1
  Si  Si6  1  0.489458  0.304867  0.278340  1
  Si  Si7  1  0.800746  0.218635  0.648027  1
  Si  Si8  1  0.829125  0.396900  0.133023  1
  O  O9  1  0.057559  0.773127  0.839942  1
  O  O10  1  0.989264  0.631702  0.317426  1
  O  O11  1  0.132748  0.978685  0.334507  1
  O  O12  1  0.368042  0.605458  0.818995  1
  O  O13  1  0.396988  0.845400  0.617825  1
  O  O14  1  0.258198  0.645056  0.149344  1
  O  O15  1  0.258473  0.177092  0.050234  1
  O  O16  1  0.500000  0.500000  0.500000  1
  O  O17  1  0.741527  0.822908  0.949766  1
  O  O18  1  0.741802  0.354944  0.850656  1
  O  O19  1  0.603012  0.154600  0.382175  1
  O  O20  1  0.631958  0.394542  0.181005  1
  O  O21  1  0.867252  0.021315  0.665493  1
  O  O22  1  0.010736  0.368298  0.682574  1
  O  O23  1  0.942441  0.226873  0.160058  1
