# generated using pymatgen
data_NaLi3Ti2Al2(PO4)6
_symmetry_space_group_name_H-M   'P 1'
_cell_length_a   8.56474180
_cell_length_b   8.56714180
_cell_length_c   8.59721251
_cell_angle_alpha   60.65471769
_cell_angle_beta   90.41700412
_cell_angle_gamma   59.90921961
_symmetry_Int_Tables_number   1
_chemical_formula_structural   NaLi3Ti2Al2(PO4)6
_chemical_formula_sum   'Na1 Li3 Ti2 Al2 P6 O24'
_cell_volume   448.20756253
_cell_formula_units_Z   1
loop_
 _symmetry_equiv_pos_site_id
 _symmetry_equiv_pos_as_xyz
  1  'x, y, z'
loop_
 _atom_site_type_symbol
 _atom_site_label
 _atom_site_symmetry_multiplicity
 _atom_site_fract_x
 _atom_site_fract_y
 _atom_site_fract_z
 _atom_site_occupancy
  Na  Na0  1  0.981427  0.997215  0.000773  1
  Li  Li1  1  0.847999  0.514003  0.740193  1
  Li  Li2  1  0.247219  0.896699  0.748544  1
  Li  Li3  1  0.500577  0.026316  0.489486  1
  Ti  Ti4  1  0.360409  0.280439  0.078132  1
  Ti  Ti5  1  0.141845  0.716383  0.422822  1
  Al  Al6  1  0.851551  0.293900  0.561892  1
  Al  Al7  1  0.643340  0.711529  0.937178  1
  P  P8  1  0.954904  0.793867  0.748904  1
  P  P9  1  0.748204  0.779918  0.257979  1
  P  P10  1  0.543385  0.498628  0.751542  1
  P  P11  1  0.465415  0.502734  0.245826  1
  P  P12  1  0.252433  0.206959  0.747935  1
  P  P13  1  0.035065  0.216357  0.251285  1
  O  O14  1  0.941833  0.985619  0.737766  1
  O  O15  1  0.991038  0.790025  0.574696  1
  O  O16  1  0.917661  0.801848  0.255723  1
  O  O17  1  0.770307  0.801850  0.755833  1
  O  O18  1  0.697748  0.790092  0.081244  1
  O  O19  1  0.870638  0.427091  0.066791  1
  O  O20  1  0.801255  0.571926  0.445626  1
  O  O21  1  0.579653  0.974465  0.256327  1
  O  O22  1  0.734398  0.345825  0.740320  1
  O  O23  1  0.561502  0.669005  0.755435  1
  O  O24  1  0.482829  0.639276  0.055397  1
  O  O25  1  0.633130  0.378483  0.418670  1
  O  O26  1  0.367459  0.638568  0.576296  1
  O  O27  1  0.513574  0.357584  0.929411  1
  O  O28  1  0.445600  0.327743  0.253717  1
  O  O29  1  0.274953  0.667767  0.251372  1
  O  O30  1  0.415272  0.006325  0.754807  1
  O  O31  1  0.217340  0.414041  0.572540  1
  O  O32  1  0.130640  0.582150  0.927016  1
  O  O33  1  0.291016  0.203181  0.925722  1
  O  O34  1  0.227102  0.194052  0.250889  1
  O  O35  1  0.077335  0.194672  0.742916  1
  O  O36  1  0.007795  0.199672  0.433572  1
  O  O37  1  0.057153  0.022798  0.255424  1
