# generated using pymatgen
data_Li8Co(O2F)2
_symmetry_space_group_name_H-M   'P 1'
_cell_length_a   5.42755042
_cell_length_b   6.12497156
_cell_length_c   5.48041754
_cell_angle_alpha   115.16664347
_cell_angle_beta   62.75972244
_cell_angle_gamma   118.24918203
_symmetry_Int_Tables_number   1
_chemical_formula_structural   Li8Co(O2F)2
_chemical_formula_sum   'Li8 Co1 O4 F2'
_cell_volume   137.53583872
_cell_formula_units_Z   1
loop_
 _symmetry_equiv_pos_site_id
 _symmetry_equiv_pos_as_xyz
  1  'x, y, z'
loop_
 _atom_site_type_symbol
 _atom_site_label
 _atom_site_symmetry_multiplicity
 _atom_site_fract_x
 _atom_site_fract_y
 _atom_site_fract_z
 _atom_site_occupancy
  Li  Li0  1  0.114687  0.342348  0.462553  1
  Li  Li1  1  0.546017  0.641486  0.210021  1
  Li  Li2  1  0.225030  0.641819  0.899469  1
  Li  Li3  1  0.303118  0.014909  0.310525  1
  Li  Li4  1  0.696882  0.985091  0.689475  1
  Li  Li5  1  0.774970  0.358181  0.100531  1
  Li  Li6  1  0.453983  0.358514  0.789979  1
  Li  Li7  1  0.885313  0.657652  0.537447  1
  Co  Co8  1  0.000000  0.000000  0.000000  1
  O  O9  1  0.384168  0.242063  0.093683  1
  O  O10  1  0.071361  0.239819  0.765234  1
  O  O11  1  0.928639  0.760181  0.234766  1
  O  O12  1  0.615832  0.757937  0.906317  1
  F  F13  1  0.257553  0.723120  0.569915  1
  F  F14  1  0.742447  0.276880  0.430085  1
