# generated using pymatgen
data_Sb6O5F8
_symmetry_space_group_name_H-M   'P 1'
_cell_length_a   6.25583709
_cell_length_b   4.24631771
_cell_length_c   14.25121675
_cell_angle_alpha   99.18667674
_cell_angle_beta   94.00757016
_cell_angle_gamma   89.19519403
_symmetry_Int_Tables_number   1
_chemical_formula_structural   Sb6O5F8
_chemical_formula_sum   'Sb6 O5 F8'
_cell_volume   372.80198666
_cell_formula_units_Z   1
loop_
 _symmetry_equiv_pos_site_id
 _symmetry_equiv_pos_as_xyz
  1  'x, y, z'
loop_
 _atom_site_type_symbol
 _atom_site_label
 _atom_site_symmetry_multiplicity
 _atom_site_fract_x
 _atom_site_fract_y
 _atom_site_fract_z
 _atom_site_occupancy
  Sb  Sb0  1  0.132248  0.804428  0.084573  1
  Sb  Sb1  1  0.308438  0.648706  0.742588  1
  Sb  Sb2  1  0.198563  0.682454  0.402770  1
  Sb  Sb3  1  0.868749  0.176488  0.565056  1
  Sb  Sb4  1  0.794624  0.248499  0.958929  1
  Sb  Sb5  1  0.779966  0.219770  0.253802  1
  O  O6  1  0.963618  0.345093  0.373097  1
  O  O7  1  0.035851  0.292211  0.062919  1
  O  O8  1  0.874169  0.755980  0.988686  1
  O  O9  1  0.978457  0.866264  0.205037  1
  O  O10  1  0.089353  0.845692  0.527970  1
  F  F11  1  0.920298  0.068209  0.694978  1
  F  F12  1  0.597901  0.596613  0.705027  1
  F  F13  1  0.355322  0.139431  0.761032  1
  F  F14  1  0.368083  0.355286  0.457780  1
  F  F15  1  0.571441  0.299011  0.051096  1
  F  F16  1  0.402027  0.709817  0.877610  1
  F  F17  1  0.634856  0.873798  0.531714  1
  F  F18  1  0.626034  0.901600  0.312220  1
