# generated using pymatgen
data_Fe3P2H6O11
_symmetry_space_group_name_H-M   'P 1'
_cell_length_a   10.17133037
_cell_length_b   7.06776472
_cell_length_c   11.59842169
_cell_angle_alpha   90.00000000
_cell_angle_beta   90.00000000
_cell_angle_gamma   90.00000000
_symmetry_Int_Tables_number   1
_chemical_formula_structural   Fe3P2H6O11
_chemical_formula_sum   'Fe12 P8 H24 O44'
_cell_volume   833.79394891
_cell_formula_units_Z   4
loop_
 _symmetry_equiv_pos_site_id
 _symmetry_equiv_pos_as_xyz
  1  'x, y, z'
loop_
 _atom_site_type_symbol
 _atom_site_label
 _atom_site_symmetry_multiplicity
 _atom_site_fract_x
 _atom_site_fract_y
 _atom_site_fract_z
 _atom_site_occupancy
  Fe  Fe0  1  0.000000  0.500000  0.000000  1
  Fe  Fe1  1  0.500000  0.000000  0.500000  1
  Fe  Fe2  1  0.500000  0.500000  0.500000  1
  Fe  Fe3  1  0.000000  0.000000  0.000000  1
  Fe  Fe4  1  0.972453  0.546427  0.633940  1
  Fe  Fe5  1  0.527547  0.046427  0.866060  1
  Fe  Fe6  1  0.527547  0.453573  0.133940  1
  Fe  Fe7  1  0.972453  0.953573  0.366060  1
  Fe  Fe8  1  0.027547  0.453573  0.366060  1
  Fe  Fe9  1  0.472453  0.953573  0.133940  1
  Fe  Fe10  1  0.472453  0.546427  0.866060  1
  Fe  Fe11  1  0.027547  0.046427  0.633940  1
  P  P12  1  0.759995  0.612756  0.394392  1
  P  P13  1  0.740005  0.112756  0.105608  1
  P  P14  1  0.740005  0.387244  0.894392  1
  P  P15  1  0.759995  0.887244  0.605608  1
  P  P16  1  0.240005  0.387244  0.605608  1
  P  P17  1  0.259995  0.887244  0.894392  1
  P  P18  1  0.259995  0.612756  0.105608  1
  P  P19  1  0.240005  0.112756  0.394392  1
  H  H20  1  0.320454  0.496572  0.197820  1
  H  H21  1  0.179546  0.996572  0.302180  1
  H  H22  1  0.179546  0.503428  0.697820  1
  H  H23  1  0.320454  0.003428  0.802180  1
  H  H24  1  0.679546  0.503428  0.802180  1
  H  H25  1  0.820454  0.003428  0.697820  1
  H  H26  1  0.820454  0.496572  0.302180  1
  H  H27  1  0.679546  0.996572  0.197820  1
  H  H28  1  0.824167  0.750556  0.235759  1
  H  H29  1  0.675833  0.250556  0.264241  1
  H  H30  1  0.675833  0.249444  0.735759  1
  H  H31  1  0.824167  0.749444  0.764241  1
  H  H32  1  0.175833  0.249444  0.764241  1
  H  H33  1  0.324167  0.749444  0.735759  1
  H  H34  1  0.324167  0.750556  0.264241  1
  H  H35  1  0.175833  0.250556  0.235759  1
  H  H36  1  0.791978  0.624980  0.070791  1
  H  H37  1  0.708022  0.124980  0.429209  1
  H  H38  1  0.708022  0.375020  0.570791  1
  H  H39  1  0.791978  0.875020  0.929209  1
  H  H40  1  0.208022  0.375020  0.929209  1
  H  H41  1  0.291978  0.875020  0.570791  1
  H  H42  1  0.291978  0.624980  0.429209  1
  H  H43  1  0.208022  0.124980  0.070791  1
  O  O44  1  0.793883  0.800017  0.313413  1
  O  O45  1  0.706117  0.300017  0.186587  1
  O  O46  1  0.706117  0.199983  0.813413  1
  O  O47  1  0.793883  0.699983  0.686587  1
  O  O48  1  0.206117  0.199983  0.686587  1
  O  O49  1  0.293883  0.699983  0.813413  1
  O  O50  1  0.293883  0.800017  0.186587  1
  O  O51  1  0.206117  0.300017  0.313413  1
  O  O52  1  0.872195  0.538761  0.479648  1
  O  O53  1  0.627805  0.038761  0.020352  1
  O  O54  1  0.627805  0.461239  0.979648  1
  O  O55  1  0.872195  0.961239  0.520352  1
  O  O56  1  0.127805  0.461239  0.520352  1
  O  O57  1  0.372195  0.961239  0.979648  1
  O  O58  1  0.372195  0.538761  0.020352  1
  O  O59  1  0.127805  0.038761  0.479648  1
  O  O60  1  0.627902  0.504682  0.373611  1
  O  O61  1  0.872098  0.004682  0.126389  1
  O  O62  1  0.872098  0.495318  0.873611  1
  O  O63  1  0.627902  0.995318  0.626389  1
  O  O64  1  0.372098  0.495318  0.626389  1
  O  O65  1  0.127902  0.995318  0.873611  1
  O  O66  1  0.127902  0.504682  0.126389  1
  O  O67  1  0.372098  0.004682  0.373611  1
  O  O68  1  0.881371  0.620700  0.103576  1
  O  O69  1  0.618629  0.120700  0.396424  1
  O  O70  1  0.618629  0.379300  0.603576  1
  O  O71  1  0.881371  0.879300  0.896424  1
  O  O72  1  0.118629  0.379300  0.896424  1
  O  O73  1  0.381371  0.879300  0.603576  1
  O  O74  1  0.381371  0.620700  0.396424  1
  O  O75  1  0.118629  0.120700  0.103576  1
  O  O76  1  0.684565  0.750000  0.500000  1
  O  O77  1  0.815435  0.250000  0.000000  1
  O  O78  1  0.315435  0.250000  0.500000  1
  O  O79  1  0.184565  0.750000  0.000000  1
  O  O80  1  0.449844  0.213229  0.164766  1
  O  O81  1  0.050156  0.713229  0.335234  1
  O  O82  1  0.050156  0.786771  0.664766  1
  O  O83  1  0.449844  0.286771  0.835234  1
  O  O84  1  0.550156  0.786771  0.835234  1
  O  O85  1  0.949844  0.286771  0.664766  1
  O  O86  1  0.949844  0.213229  0.335234  1
  O  O87  1  0.550156  0.713229  0.164766  1
