# generated using pymatgen
data_Li2Mn3(BO3)3
_symmetry_space_group_name_H-M   'P 1'
_cell_length_a   8.16399267
_cell_length_b   8.72027543
_cell_length_c   6.30120894
_cell_angle_alpha   71.11057335
_cell_angle_beta   90.89181903
_cell_angle_gamma   62.46765581
_symmetry_Int_Tables_number   1
_chemical_formula_structural   Li2Mn3(BO3)3
_chemical_formula_sum   'Li4 Mn6 B6 O18'
_cell_volume   369.00109340
_cell_formula_units_Z   2
loop_
 _symmetry_equiv_pos_site_id
 _symmetry_equiv_pos_as_xyz
  1  'x, y, z'
loop_
 _atom_site_type_symbol
 _atom_site_label
 _atom_site_symmetry_multiplicity
 _atom_site_fract_x
 _atom_site_fract_y
 _atom_site_fract_z
 _atom_site_occupancy
  Li  Li0  1  0.979987  0.719591  0.412380  1
  Li  Li1  1  0.720168  0.301511  0.121022  1
  Li  Li2  1  0.308331  0.982363  0.259710  1
  Li  Li3  1  0.307397  0.978965  0.745848  1
  Mn  Mn4  1  0.305875  0.654844  0.141587  1
  Mn  Mn5  1  0.381766  0.597227  0.673568  1
  Mn  Mn6  1  0.633335  0.017906  0.509329  1
  Mn  Mn7  1  0.664618  0.003004  0.005225  1
  Mn  Mn8  1  0.002018  0.376805  0.322555  1
  Mn  Mn9  1  0.996793  0.354811  0.831073  1
  B  B10  1  0.656507  0.679508  0.412160  1
  B  B11  1  0.656388  0.663909  0.920413  1
  B  B12  1  0.008857  0.000692  0.009188  1
  B  B13  1  0.017544  0.994852  0.496506  1
  B  B14  1  0.338416  0.330938  0.073990  1
  B  B15  1  0.324785  0.330292  0.584842  1
  O  O16  1  0.957599  0.864036  0.090789  1
  O  O17  1  0.915029  0.904827  0.542261  1
  O  O18  1  0.851861  0.559909  0.483712  1
  O  O19  1  0.844367  0.534458  0.019861  1
  O  O20  1  0.589816  0.868426  0.312827  1
  O  O21  1  0.592076  0.850527  0.822277  1
  O  O22  1  0.878345  0.186519  0.929487  1
  O  O23  1  0.921464  0.188977  0.395502  1
  O  O24  1  0.536043  0.589231  0.927666  1
  O  O25  1  0.530941  0.611734  0.436107  1
  O  O26  1  0.201566  0.940495  0.016336  1
  O  O27  1  0.213745  0.895125  0.540927  1
  O  O28  1  0.527621  0.225343  0.168112  1
  O  O29  1  0.509051  0.214264  0.681697  1
  O  O30  1  0.260593  0.517412  0.922113  1
  O  O31  1  0.252941  0.523300  0.474141  1
  O  O32  1  0.214536  0.262463  0.128196  1
  O  O33  1  0.199632  0.259405  0.596757  1
