# generated using pymatgen
data_LiLa5Ti8O24
_symmetry_space_group_name_H-M   'P 1'
_cell_length_a   5.50806275
_cell_length_b   9.60376052
_cell_length_c   9.57214645
_cell_angle_alpha   70.13825580
_cell_angle_beta   89.92634713
_cell_angle_gamma   90.40928986
_symmetry_Int_Tables_number   1
_chemical_formula_structural   LiLa5Ti8O24
_chemical_formula_sum   'Li1 La5 Ti8 O24'
_cell_volume   476.21260074
_cell_formula_units_Z   1
loop_
 _symmetry_equiv_pos_site_id
 _symmetry_equiv_pos_as_xyz
  1  'x, y, z'
loop_
 _atom_site_type_symbol
 _atom_site_label
 _atom_site_symmetry_multiplicity
 _atom_site_fract_x
 _atom_site_fract_y
 _atom_site_fract_z
 _atom_site_occupancy
  Li  Li0  1  0.173913  0.695839  0.887998  1
  La  La1  1  0.252978  0.873789  0.131312  1
  La  La2  1  0.746882  0.626125  0.374038  1
  La  La3  1  0.257673  0.376290  0.629384  1
  La  La4  1  0.748971  0.130537  0.877360  1
  La  La5  1  0.254984  0.119866  0.381192  1
  Ti  Ti6  1  0.755866  0.510842  0.763030  1
  Ti  Ti7  1  0.736073  0.743666  0.993717  1
  Ti  Ti8  1  0.749428  0.251577  0.496770  1
  Ti  Ti9  1  0.753727  0.003673  0.255492  1
  Ti  Ti10  1  0.253946  0.749056  0.517872  1
  Ti  Ti11  1  0.254629  0.265555  0.002876  1
  Ti  Ti12  1  0.245519  0.501030  0.239048  1
  Ti  Ti13  1  0.248213  0.997846  0.749473  1
  O  O14  1  0.714716  0.855631  0.145396  1
  O  O15  1  0.481215  0.894768  0.379243  1
  O  O16  1  0.493036  0.619833  0.111809  1
  O  O17  1  0.290295  0.642189  0.356696  1
  O  O18  1  0.812617  0.639701  0.862669  1
  O  O19  1  0.789846  0.137359  0.362105  1
  O  O20  1  0.494124  0.881228  0.886139  1
  O  O21  1  0.505047  0.613276  0.613261  1
  O  O22  1  0.488316  0.114573  0.121564  1
  O  O23  1  0.006000  0.871897  0.364907  1
  O  O24  1  0.487963  0.377708  0.384843  1
  O  O25  1  0.006311  0.638930  0.129696  1
  O  O26  1  0.222735  0.345446  0.154710  1
  O  O27  1  0.221778  0.862659  0.638974  1
  O  O28  1  0.714044  0.352343  0.642217  1
  O  O29  1  0.483636  0.119570  0.603422  1
  O  O30  1  0.998423  0.399342  0.396701  1
  O  O31  1  0.498836  0.383629  0.877883  1
  O  O32  1  0.000380  0.101943  0.102898  1
  O  O33  1  0.002595  0.896480  0.898594  1
  O  O34  1  0.000252  0.599340  0.599382  1
  O  O35  1  0.291675  0.141062  0.856695  1
  O  O36  1  0.000521  0.361348  0.861035  1
  O  O37  1  0.007140  0.136952  0.626796  1
