# generated using pymatgen
data_Li2Fe2(PO4)3
_symmetry_space_group_name_H-M   'P 1'
_cell_length_a   8.72252740
_cell_length_b   8.77100381
_cell_length_c   8.72252820
_cell_angle_alpha   59.75876818
_cell_angle_beta   60.95383822
_cell_angle_gamma   59.75876611
_symmetry_Int_Tables_number   1
_chemical_formula_structural   Li2Fe2(PO4)3
_chemical_formula_sum   'Li4 Fe4 P6 O24'
_cell_volume   473.40787084
_cell_formula_units_Z   2
loop_
 _symmetry_equiv_pos_site_id
 _symmetry_equiv_pos_as_xyz
  1  'x, y, z'
loop_
 _atom_site_type_symbol
 _atom_site_label
 _atom_site_symmetry_multiplicity
 _atom_site_fract_x
 _atom_site_fract_y
 _atom_site_fract_z
 _atom_site_occupancy
  Li  Li0  1  0.315522  0.453393  0.674107  1
  Li  Li1  1  0.825893  0.046607  0.184478  1
  Li  Li2  1  0.174107  0.953393  0.815522  1
  Li  Li3  1  0.684478  0.546607  0.325893  1
  Fe  Fe4  1  0.142784  0.147112  0.135538  1
  Fe  Fe5  1  0.364462  0.352888  0.357216  1
  Fe  Fe6  1  0.635538  0.647112  0.642784  1
  Fe  Fe7  1  0.857216  0.852888  0.864462  1
  P  P8  1  0.033976  0.750000  0.466024  1
  P  P9  1  0.966024  0.250000  0.533976  1
  P  P10  1  0.457186  0.034724  0.753580  1
  P  P11  1  0.746420  0.465276  0.042814  1
  P  P12  1  0.253580  0.534724  0.957186  1
  P  P13  1  0.542814  0.965276  0.246420  1
  O  O14  1  0.134254  0.286876  0.505536  1
  O  O15  1  0.306522  0.481879  0.123593  1
  O  O16  1  0.051558  0.920318  0.281886  1
  O  O17  1  0.531835  0.112310  0.303526  1
  O  O18  1  0.005536  0.786876  0.634254  1
  O  O19  1  0.218114  0.579682  0.448442  1
  O  O20  1  0.267692  0.056907  0.914783  1
  O  O21  1  0.434826  0.231129  0.596260  1
  O  O22  1  0.585217  0.443093  0.232308  1
  O  O23  1  0.196474  0.387690  0.968165  1
  O  O24  1  0.096260  0.731129  0.934826  1
  O  O25  1  0.376407  0.018121  0.193478  1
  O  O26  1  0.623593  0.981879  0.806522  1
  O  O27  1  0.903740  0.268871  0.065174  1
  O  O28  1  0.803526  0.612310  0.031835  1
  O  O29  1  0.414783  0.556907  0.767692  1
  O  O30  1  0.565174  0.768871  0.403740  1
  O  O31  1  0.732308  0.943093  0.085217  1
  O  O32  1  0.781886  0.420318  0.551558  1
  O  O33  1  0.994464  0.213124  0.365746  1
  O  O34  1  0.468165  0.887690  0.696474  1
  O  O35  1  0.948442  0.079682  0.718114  1
  O  O36  1  0.693478  0.518121  0.876407  1
  O  O37  1  0.865746  0.713124  0.494464  1
