# generated using pymatgen
data_LiFeSiO4
_symmetry_space_group_name_H-M   'P 1'
_cell_length_a   9.99064173
_cell_length_b   10.20204388
_cell_length_c   16.44282140
_cell_angle_alpha   82.33910422
_cell_angle_beta   90.00008493
_cell_angle_gamma   60.68298161
_symmetry_Int_Tables_number   1
_chemical_formula_structural   LiFeSiO4
_chemical_formula_sum   'Li16 Fe16 Si16 O64'
_cell_volume   1444.10628572
_cell_formula_units_Z   16
loop_
 _symmetry_equiv_pos_site_id
 _symmetry_equiv_pos_as_xyz
  1  'x, y, z'
loop_
 _atom_site_type_symbol
 _atom_site_label
 _atom_site_symmetry_multiplicity
 _atom_site_fract_x
 _atom_site_fract_y
 _atom_site_fract_z
 _atom_site_occupancy
  Li  Li0  1  0.809369  0.988307  0.997541  1
  Li  Li1  1  0.202323  0.988307  0.497541  1
  Li  Li2  1  0.577116  0.721258  0.747083  1
  Li  Li3  1  0.075412  0.662388  0.748883  1
  Li  Li4  1  0.309749  0.549855  0.999119  1
  Li  Li5  1  0.701627  0.721257  0.247083  1
  Li  Li6  1  0.808001  0.487572  0.996819  1
  Li  Li7  1  0.262199  0.662389  0.248883  1
  Li  Li8  1  0.140396  0.549854  0.499119  1
  Li  Li9  1  0.704428  0.487571  0.496819  1
  Li  Li10  1  0.568433  0.227369  0.747985  1
  Li  Li11  1  0.082299  0.155515  0.746975  1
  Li  Li12  1  0.309106  0.051021  0.998062  1
  Li  Li13  1  0.204198  0.227369  0.247985  1
  Li  Li14  1  0.762186  0.155516  0.246975  1
  Li  Li15  1  0.639874  0.051020  0.498062  1
  Fe  Fe16  1  0.271150  0.848890  0.871780  1
  Fe  Fe17  1  0.772622  0.781264  0.871982  1
  Fe  Fe18  1  0.879961  0.848889  0.371780  1
  Fe  Fe19  1  0.446115  0.781264  0.371983  1
  Fe  Fe20  1  0.321151  0.674709  0.621855  1
  Fe  Fe21  1  0.881480  0.609475  0.620800  1
  Fe  Fe22  1  0.004141  0.674711  0.121856  1
  Fe  Fe23  1  0.509045  0.609475  0.120798  1
  Fe  Fe24  1  0.274320  0.348014  0.872663  1
  Fe  Fe25  1  0.770957  0.282603  0.870419  1
  Fe  Fe26  1  0.377667  0.348012  0.372662  1
  Fe  Fe27  1  0.946443  0.282603  0.370419  1
  Fe  Fe28  1  0.821200  0.170340  0.621088  1
  Fe  Fe29  1  0.382538  0.113283  0.620598  1
  Fe  Fe30  1  0.008461  0.170340  0.121088  1
  Fe  Fe31  1  0.504178  0.113283  0.120596  1
  Si  Si32  1  0.916919  0.981232  0.808903  1
  Si  Si33  1  0.101847  0.981234  0.308902  1
  Si  Si34  1  0.980579  0.852266  0.560108  1
  Si  Si35  1  0.538216  0.797147  0.558707  1
  Si  Si36  1  0.167154  0.852267  0.060108  1
  Si  Si37  1  0.664638  0.797147  0.058707  1
  Si  Si38  1  0.419421  0.539774  0.811063  1
  Si  Si39  1  0.920633  0.477006  0.809245  1
  Si  Si40  1  0.040805  0.539777  0.311062  1
  Si  Si41  1  0.602360  0.477005  0.309245  1
  Si  Si42  1  0.479578  0.355752  0.560043  1
  Si  Si43  1  0.039838  0.294518  0.558152  1
  Si  Si44  1  0.164668  0.355754  0.060043  1
  Si  Si45  1  0.665643  0.294519  0.058152  1
  Si  Si46  1  0.421385  0.036022  0.811061  1
  Si  Si47  1  0.542595  0.036023  0.311060  1
  O  O48  1  0.335253  0.992304  0.886919  1
  O  O49  1  0.090073  0.958903  0.798036  1
  O  O50  1  0.589326  0.888713  0.800742  1
  O  O51  1  0.742869  0.838492  0.978094  1
  O  O52  1  0.672441  0.992305  0.386919  1
  O  O53  1  0.546586  0.947963  0.576905  1
  O  O54  1  0.238238  0.775736  0.976886  1
  O  O55  1  0.927845  0.813867  0.821863  1
  O  O56  1  0.951023  0.958903  0.298036  1
  O  O57  1  0.140529  0.857258  0.575957  1
  O  O58  1  0.521960  0.888714  0.300742  1
  O  O59  1  0.418640  0.838492  0.478094  1
  O  O60  1  0.505450  0.947964  0.076905  1
  O  O61  1  0.469992  0.736867  0.637808  1
  O  O62  1  0.966829  0.737049  0.635887  1
  O  O63  1  0.437429  0.685450  0.828409  1
  O  O64  1  0.986024  0.775736  0.476886  1
  O  O65  1  0.258290  0.813864  0.321864  1
  O  O66  1  0.002214  0.857257  0.075957  1
  O  O67  1  0.711589  0.661985  0.544866  1
  O  O68  1  0.839569  0.568693  0.886880  1
  O  O69  1  0.299594  0.593064  0.728744  1
  O  O70  1  0.809555  0.584373  0.725854  1
  O  O71  1  0.793142  0.736868  0.137808  1
  O  O72  1  0.296124  0.737049  0.135887  1
  O  O73  1  0.877121  0.685450  0.328409  1
  O  O74  1  0.339987  0.489757  0.888383  1
  O  O75  1  0.092520  0.458714  0.799886  1
  O  O76  1  0.337719  0.531566  0.551161  1
  O  O77  1  0.626425  0.661986  0.044866  1
  O  O78  1  0.591741  0.568692  0.386881  1
  O  O79  1  0.107342  0.593064  0.228744  1
  O  O80  1  0.606072  0.584372  0.225854  1
  O  O81  1  0.586843  0.392639  0.798626  1
  O  O82  1  0.740436  0.339035  0.976691  1
  O  O83  1  0.170257  0.489756  0.388383  1
  O  O84  1  0.046462  0.445119  0.577757  1
  O  O85  1  0.240554  0.276660  0.978120  1
  O  O86  1  0.932310  0.308875  0.822963  1
  O  O87  1  0.448766  0.458713  0.299887  1
  O  O88  1  0.130715  0.531566  0.051161  1
  O  O89  1  0.642886  0.355269  0.574969  1
  O  O90  1  0.020518  0.392640  0.298626  1
  O  O91  1  0.920528  0.339035  0.476691  1
  O  O92  1  0.508418  0.445120  0.077756  1
  O  O93  1  0.463754  0.244255  0.637551  1
  O  O94  1  0.972262  0.229085  0.635390  1
  O  O95  1  0.482785  0.276661  0.478120  1
  O  O96  1  0.437157  0.183142  0.828437  1
  O  O97  1  0.758815  0.308874  0.322964  1
  O  O98  1  0.001845  0.355270  0.074969  1
  O  O99  1  0.214118  0.161235  0.544530  1
  O  O100  1  0.841899  0.069345  0.888724  1
  O  O101  1  0.797878  0.096842  0.729296  1
  O  O102  1  0.311733  0.081290  0.725322  1
  O  O103  1  0.291990  0.244254  0.137551  1
  O  O104  1  0.798653  0.229084  0.135390  1
  O  O105  1  0.379701  0.183142  0.328436  1
  O  O106  1  0.624645  0.161236  0.044529  1
  O  O107  1  0.835587  0.026995  0.551902  1
  O  O108  1  0.088757  0.069344  0.388724  1
  O  O109  1  0.105281  0.096841  0.229296  1
  O  O110  1  0.606977  0.081289  0.225323  1
  O  O111  1  0.137418  0.026995  0.051903  1
