# generated using pymatgen
data_Al2P2H4O11
_symmetry_space_group_name_H-M   'P 1'
_cell_length_a   19.54413328
_cell_length_b   9.87624033
_cell_length_c   9.86800720
_cell_angle_alpha   90.00000000
_cell_angle_beta   90.00000000
_cell_angle_gamma   90.00000000
_symmetry_Int_Tables_number   1
_chemical_formula_structural   Al2P2H4O11
_chemical_formula_sum   'Al16 P16 H32 O88'
_cell_volume   1904.74798535
_cell_formula_units_Z   8
loop_
 _symmetry_equiv_pos_site_id
 _symmetry_equiv_pos_as_xyz
  1  'x, y, z'
loop_
 _atom_site_type_symbol
 _atom_site_label
 _atom_site_symmetry_multiplicity
 _atom_site_fract_x
 _atom_site_fract_y
 _atom_site_fract_z
 _atom_site_occupancy
  Al  Al0  1  0.949272  0.085855  0.176675  1
  Al  Al1  1  0.449272  0.414145  0.823325  1
  Al  Al2  1  0.050728  0.585855  0.323325  1
  Al  Al3  1  0.550728  0.914145  0.676675  1
  Al  Al4  1  0.050728  0.914145  0.823325  1
  Al  Al5  1  0.550728  0.585855  0.176675  1
  Al  Al6  1  0.949272  0.414145  0.676675  1
  Al  Al7  1  0.449272  0.085855  0.323325  1
  Al  Al8  1  0.782915  0.333066  0.351471  1
  Al  Al9  1  0.282915  0.166934  0.648529  1
  Al  Al10  1  0.217085  0.833066  0.148529  1
  Al  Al11  1  0.717085  0.666934  0.851471  1
  Al  Al12  1  0.217085  0.666934  0.648529  1
  Al  Al13  1  0.717085  0.833066  0.351471  1
  Al  Al14  1  0.782915  0.166934  0.851471  1
  Al  Al15  1  0.282915  0.333066  0.148529  1
  P  P16  1  0.948514  0.340776  0.365401  1
  P  P17  1  0.448514  0.159224  0.634599  1
  P  P18  1  0.051486  0.840776  0.134599  1
  P  P19  1  0.551486  0.659224  0.865401  1
  P  P20  1  0.051486  0.659224  0.634599  1
  P  P21  1  0.551486  0.840776  0.365401  1
  P  P22  1  0.948514  0.159224  0.865401  1
  P  P23  1  0.448514  0.340776  0.134599  1
  P  P24  1  0.790287  0.067526  0.159500  1
  P  P25  1  0.290287  0.432474  0.840500  1
  P  P26  1  0.209713  0.567526  0.340500  1
  P  P27  1  0.709713  0.932474  0.659500  1
  P  P28  1  0.209713  0.932474  0.840500  1
  P  P29  1  0.709713  0.567526  0.159500  1
  P  P30  1  0.790287  0.432474  0.659500  1
  P  P31  1  0.290287  0.067526  0.340500  1
  H  H32  1  0.656619  0.314229  0.453741  1
  H  H33  1  0.156619  0.185771  0.546259  1
  H  H34  1  0.343381  0.814229  0.046259  1
  H  H35  1  0.843381  0.685771  0.953741  1
  H  H36  1  0.343381  0.685771  0.546259  1
  H  H37  1  0.843381  0.814229  0.453741  1
  H  H38  1  0.656619  0.185771  0.953741  1
  H  H39  1  0.156619  0.314229  0.046259  1
  H  H40  1  0.655102  0.244844  0.304545  1
  H  H41  1  0.155102  0.255156  0.695455  1
  H  H42  1  0.344898  0.744844  0.195455  1
  H  H43  1  0.844898  0.755156  0.804545  1
  H  H44  1  0.344898  0.755156  0.695455  1
  H  H45  1  0.844898  0.744844  0.304545  1
  H  H46  1  0.655102  0.255156  0.804545  1
  H  H47  1  0.155102  0.244844  0.195455  1
  H  H48  1  0.777632  0.090957  0.454037  1
  H  H49  1  0.277632  0.409043  0.545963  1
  H  H50  1  0.222368  0.590957  0.045963  1
  H  H51  1  0.722368  0.909043  0.954037  1
  H  H52  1  0.222368  0.909043  0.545963  1
  H  H53  1  0.722368  0.590957  0.454037  1
  H  H54  1  0.777632  0.409043  0.954037  1
  H  H55  1  0.277632  0.090957  0.045963  1
  H  H56  1  0.801576  0.196844  0.562585  1
  H  H57  1  0.301576  0.303156  0.437415  1
  H  H58  1  0.198424  0.696844  0.937415  1
  H  H59  1  0.698424  0.803156  0.062585  1
  H  H60  1  0.198424  0.803156  0.437415  1
  H  H61  1  0.698424  0.696844  0.562585  1
  H  H62  1  0.801576  0.303156  0.062585  1
  H  H63  1  0.301576  0.196844  0.937415  1
  O  O64  1  0.874728  0.377542  0.330917  1
  O  O65  1  0.374728  0.122458  0.669083  1
  O  O66  1  0.125272  0.877542  0.169083  1
  O  O67  1  0.625272  0.622458  0.830917  1
  O  O68  1  0.125272  0.622458  0.669083  1
  O  O69  1  0.625272  0.877542  0.330917  1
  O  O70  1  0.874728  0.122458  0.830917  1
  O  O71  1  0.374728  0.377542  0.169083  1
  O  O72  1  0.961055  0.166613  0.019734  1
  O  O73  1  0.461055  0.333387  0.980266  1
  O  O74  1  0.038945  0.666613  0.480266  1
  O  O75  1  0.538945  0.833387  0.519734  1
  O  O76  1  0.038945  0.833387  0.980266  1
  O  O77  1  0.538945  0.666613  0.019734  1
  O  O78  1  0.961055  0.333387  0.519734  1
  O  O79  1  0.461055  0.166613  0.480266  1
  O  O80  1  0.997034  0.446735  0.302936  1
  O  O81  1  0.497034  0.053265  0.697064  1
  O  O82  1  0.002966  0.946735  0.197064  1
  O  O83  1  0.502966  0.553265  0.802936  1
  O  O84  1  0.002966  0.553265  0.697064  1
  O  O85  1  0.502966  0.946735  0.302936  1
  O  O86  1  0.997034  0.053265  0.802936  1
  O  O87  1  0.497034  0.446735  0.197064  1
  O  O88  1  0.968157  0.200760  0.306465  1
  O  O89  1  0.468157  0.299240  0.693535  1
  O  O90  1  0.031843  0.700760  0.193535  1
  O  O91  1  0.531843  0.799240  0.806465  1
  O  O92  1  0.031843  0.799240  0.693535  1
  O  O93  1  0.531843  0.700760  0.306465  1
  O  O94  1  0.968157  0.299240  0.806465  1
  O  O95  1  0.468157  0.200760  0.193535  1
  O  O96  1  0.773065  0.057595  0.006769  1
  O  O97  1  0.273065  0.442405  0.993231  1
  O  O98  1  0.226935  0.557595  0.493231  1
  O  O99  1  0.726935  0.942405  0.506769  1
  O  O100  1  0.226935  0.942405  0.993231  1
  O  O101  1  0.726935  0.557595  0.006769  1
  O  O102  1  0.773065  0.442405  0.506769  1
  O  O103  1  0.273065  0.057595  0.493231  1
  O  O104  1  0.865360  0.022863  0.184621  1
  O  O105  1  0.365360  0.477137  0.815379  1
  O  O106  1  0.134640  0.522864  0.315379  1
  O  O107  1  0.634640  0.977136  0.684621  1
  O  O108  1  0.134640  0.977136  0.815379  1
  O  O109  1  0.634640  0.522864  0.184621  1
  O  O110  1  0.865360  0.477137  0.684621  1
  O  O111  1  0.365360  0.022863  0.315379  1
  O  O112  1  0.782317  0.219015  0.199823  1
  O  O113  1  0.282317  0.280985  0.800177  1
  O  O114  1  0.217683  0.719015  0.300177  1
  O  O115  1  0.717683  0.780985  0.699823  1
  O  O116  1  0.217683  0.780985  0.800177  1
  O  O117  1  0.717683  0.719015  0.199823  1
  O  O118  1  0.782317  0.280985  0.699823  1
  O  O119  1  0.282317  0.219015  0.300177  1
  O  O120  1  0.757573  0.478640  0.242048  1
  O  O121  1  0.257573  0.021360  0.757952  1
  O  O122  1  0.242427  0.978640  0.257952  1
  O  O123  1  0.742427  0.521360  0.742048  1
  O  O124  1  0.242427  0.521360  0.757952  1
  O  O125  1  0.742427  0.978640  0.242048  1
  O  O126  1  0.757573  0.021360  0.742048  1
  O  O127  1  0.257573  0.478640  0.257952  1
  O  O128  1  0.684529  0.278730  0.378648  1
  O  O129  1  0.184529  0.221270  0.621352  1
  O  O130  1  0.315471  0.778730  0.121352  1
  O  O131  1  0.815471  0.721270  0.878648  1
  O  O132  1  0.315471  0.721270  0.621352  1
  O  O133  1  0.815471  0.778730  0.378648  1
  O  O134  1  0.684529  0.221270  0.878648  1
  O  O135  1  0.184529  0.278730  0.121352  1
  O  O136  1  0.805758  0.173827  0.463484  1
  O  O137  1  0.305758  0.326173  0.536516  1
  O  O138  1  0.194242  0.673827  0.036516  1
  O  O139  1  0.694242  0.826173  0.963484  1
  O  O140  1  0.194242  0.826173  0.536516  1
  O  O141  1  0.694242  0.673827  0.463484  1
  O  O142  1  0.805758  0.326173  0.963484  1
  O  O143  1  0.305758  0.173827  0.036516  1
  O  O144  1  0.623416  0.159863  0.139713  1
  O  O145  1  0.123416  0.340137  0.860287  1
  O  O146  1  0.376584  0.659863  0.360287  1
  O  O147  1  0.876584  0.840137  0.639713  1
  O  O148  1  0.376584  0.840137  0.860287  1
  O  O149  1  0.876584  0.659863  0.139713  1
  O  O150  1  0.623416  0.340137  0.639713  1
  O  O151  1  0.123416  0.159863  0.360287  1
