# generated using pymatgen
data_BiRu2O7
_symmetry_space_group_name_H-M   'P 1'
_cell_length_a   7.27071325
_cell_length_b   7.22321630
_cell_length_c   7.22321630
_cell_angle_alpha   59.98728608
_cell_angle_beta   59.79162587
_cell_angle_gamma   59.79162587
_symmetry_Int_Tables_number   1
_chemical_formula_structural   BiRu2O7
_chemical_formula_sum   'Bi2 Ru4 O14'
_cell_volume   267.36634000
_cell_formula_units_Z   2
loop_
 _symmetry_equiv_pos_site_id
 _symmetry_equiv_pos_as_xyz
  1  'x, y, z'
loop_
 _atom_site_type_symbol
 _atom_site_label
 _atom_site_symmetry_multiplicity
 _atom_site_fract_x
 _atom_site_fract_y
 _atom_site_fract_z
 _atom_site_occupancy
  Bi  Bi0  1  0.480539  0.500051  0.000041  1
  Bi  Bi1  1  0.519461  0.999959  0.499949  1
  Ru  Ru2  1  0.000000  0.005189  0.994811  1
  Ru  Ru3  1  0.500000  0.994784  0.005216  1
  Ru  Ru4  1  0.998423  0.499970  0.000036  1
  Ru  Ru5  1  0.001577  0.999964  0.500030  1
  O  O6  1  0.674062  0.075867  0.075860  1
  O  O7  1  0.949477  0.300542  0.300493  1
  O  O8  1  0.671891  0.062697  0.678054  1
  O  O9  1  0.087300  0.678141  0.062824  1
  O  O10  1  0.082080  0.057826  0.683289  1
  O  O11  1  0.676820  0.683273  0.057637  1
  O  O12  1  0.386931  0.362959  0.363057  1
  O  O13  1  0.323180  0.942363  0.316727  1
  O  O14  1  0.328109  0.321946  0.937303  1
  O  O15  1  0.917920  0.316711  0.942174  1
  O  O16  1  0.613069  0.636943  0.637041  1
  O  O17  1  0.912700  0.937176  0.321859  1
  O  O18  1  0.050523  0.699507  0.699458  1
  O  O19  1  0.325938  0.924140  0.924133  1
