# generated using pymatgen
data_Mn11In25O48
_symmetry_space_group_name_H-M   'P 1'
_cell_length_a   11.26707154
_cell_length_b   11.26475198
_cell_length_c   11.26638100
_cell_angle_alpha   120.00477909
_cell_angle_beta   109.47836019
_cell_angle_gamma   80.40111745
_symmetry_Int_Tables_number   1
_chemical_formula_structural   Mn11In25O48
_chemical_formula_sum   'Mn11 In25 O48'
_cell_volume   1167.43157967
_cell_formula_units_Z   1
loop_
 _symmetry_equiv_pos_site_id
 _symmetry_equiv_pos_as_xyz
  1  'x, y, z'
loop_
 _atom_site_type_symbol
 _atom_site_label
 _atom_site_symmetry_multiplicity
 _atom_site_fract_x
 _atom_site_fract_y
 _atom_site_fract_z
 _atom_site_occupancy
  Mn  Mn0  1  0.499699  0.333054  0.166559  1
  Mn  Mn1  1  0.624742  0.333361  0.541562  1
  Mn  Mn2  1  0.125201  0.333170  0.041717  1
  Mn  Mn3  1  0.499734  0.666667  0.833084  1
  Mn  Mn4  1  0.000394  0.666667  0.333745  1
  Mn  Mn5  1  0.499699  0.000279  0.500173  1
  Mn  Mn6  1  0.000372  0.000128  0.000143  1
  Mn  Mn7  1  0.125261  0.666667  0.708167  1
  Mn  Mn8  1  0.125201  0.000163  0.375214  1
  Mn  Mn9  1  0.624742  0.999972  0.874867  1
  Mn  Mn10  1  0.000372  0.333206  0.666683  1
  In  In11  1  0.814184  0.833911  0.102900  1
  In  In12  1  0.814142  0.330922  0.104181  1
  In  In13  1  0.624962  0.666667  0.208361  1
  In  In14  1  0.814217  0.498090  0.438613  1
  In  In15  1  0.310493  0.835223  0.103435  1
  In  In16  1  0.812489  0.166499  0.270744  1
  In  In17  1  0.814217  0.835243  0.607190  1
  In  In18  1  0.561187  0.666667  0.522709  1
  In  In19  1  0.062611  0.666667  0.020841  1
  In  In20  1  0.310492  0.666667  0.272027  1
  In  In21  1  0.812452  0.666667  0.770626  1
  In  In22  1  0.561181  0.002430  0.187119  1
  In  In23  1  0.814142  0.002411  0.439926  1
  In  In24  1  0.312322  0.833710  0.604463  1
  In  In25  1  0.312322  0.499623  0.437419  1
  In  In26  1  0.312277  0.167015  0.271044  1
  In  In27  1  0.814184  0.499422  0.935656  1
  In  In28  1  0.812489  0.166834  0.770913  1
  In  In29  1  0.312266  0.333291  0.603691  1
  In  In30  1  0.062876  0.333245  0.354276  1
  In  In31  1  0.561181  0.330903  0.851355  1
  In  In32  1  0.310493  0.498111  0.934879  1
  In  In33  1  0.312277  0.166318  0.770696  1
  In  In34  1  0.062876  0.000088  0.687698  1
  In  In35  1  0.312266  0.000043  0.937067  1
  O  O36  1  0.932392  0.666667  0.132369  1
  O  O37  1  0.691800  0.844778  0.230553  1
  O  O38  1  0.691800  0.488556  0.052441  1
  O  O39  1  0.933502  0.177775  0.156595  1
  O  O40  1  0.932164  0.488179  0.310763  1
  O  O41  1  0.932164  0.845155  0.489251  1
  O  O42  1  0.933564  0.332310  0.465743  1
  O  O43  1  0.700977  0.333993  0.233702  1
  O  O44  1  0.691820  0.666667  0.408747  1
  O  O45  1  0.424606  0.666667  0.141554  1
  O  O46  1  0.923780  0.666667  0.640848  1
  O  O47  1  0.691863  0.999592  0.075987  1
  O  O48  1  0.923750  0.999430  0.307904  1
  O  O49  1  0.192446  0.821171  0.218665  1
  O  O50  1  0.192446  0.512162  0.064160  1
  O  O51  1  0.691878  0.821252  0.718151  1
  O  O52  1  0.691878  0.512081  0.563565  1
  O  O53  1  0.691867  0.154236  0.385218  1
  O  O54  1  0.933701  0.512117  0.822349  1
  O  O55  1  0.933701  0.821216  0.976897  1
  O  O56  1  0.433324  0.820780  0.477024  1
  O  O57  1  0.933502  0.155558  0.645486  1
  O  O58  1  0.433324  0.512553  0.322911  1
  O  O59  1  0.432285  0.155362  0.144127  1
  O  O60  1  0.433371  0.999188  0.298542  1
  O  O61  1  0.701105  0.666667  0.901016  1
  O  O62  1  0.200523  0.666667  0.401060  1
  O  O63  1  0.700977  0.999340  0.566375  1
  O  O64  1  0.432327  0.666667  0.632861  1
  O  O65  1  0.933564  0.001024  0.800100  1
  O  O66  1  0.200595  0.000859  0.066874  1
  O  O67  1  0.923750  0.333903  0.975142  1
  O  O68  1  0.191851  0.333534  0.242531  1
  O  O69  1  0.691863  0.333742  0.743063  1
  O  O70  1  0.424289  0.333309  0.474779  1
  O  O71  1  0.191855  0.845264  0.730761  1
  O  O72  1  0.691867  0.179098  0.897649  1
  O  O73  1  0.192018  0.178324  0.397123  1
  O  O74  1  0.191855  0.488069  0.552164  1
  O  O75  1  0.433353  0.845153  0.990359  1
  O  O76  1  0.432285  0.177971  0.655431  1
  O  O77  1  0.433353  0.488180  0.811872  1
  O  O78  1  0.200595  0.332474  0.732682  1
  O  O79  1  0.433371  0.334145  0.966021  1
  O  O80  1  0.192532  0.666667  0.909576  1
  O  O81  1  0.424289  0.000024  0.808136  1
  O  O82  1  0.191851  0.999799  0.575662  1
  O  O83  1  0.192018  0.155009  0.885465  1
