# generated using pymatgen
data_Ca3Hf2Fe2SiO12
_symmetry_space_group_name_H-M   'P 1'
_cell_length_a   10.99890258
_cell_length_b   10.99890212
_cell_length_c   10.99890269
_cell_angle_alpha   110.34593143
_cell_angle_beta   109.03564160
_cell_angle_gamma   109.03564314
_symmetry_Int_Tables_number   1
_chemical_formula_structural   Ca3Hf2Fe2SiO12
_chemical_formula_sum   'Ca12 Hf8 Fe8 Si4 O48'
_cell_volume   1024.11828573
_cell_formula_units_Z   4
loop_
 _symmetry_equiv_pos_site_id
 _symmetry_equiv_pos_as_xyz
  1  'x, y, z'
loop_
 _atom_site_type_symbol
 _atom_site_label
 _atom_site_symmetry_multiplicity
 _atom_site_fract_x
 _atom_site_fract_y
 _atom_site_fract_z
 _atom_site_occupancy
  Ca  Ca0  1  0.124343  0.374343  0.750000  1
  Ca  Ca1  1  0.250000  0.875000  0.625000  1
  Ca  Ca2  1  0.124343  0.250000  0.374343  1
  Ca  Ca3  1  0.375657  0.750000  0.125657  1
  Ca  Ca4  1  0.624343  0.874343  0.750000  1
  Ca  Ca5  1  0.250000  0.375000  0.125000  1
  Ca  Ca6  1  0.750000  0.625000  0.875000  1
  Ca  Ca7  1  0.375657  0.125657  0.250000  1
  Ca  Ca8  1  0.624343  0.250000  0.874343  1
  Ca  Ca9  1  0.875657  0.750000  0.625657  1
  Ca  Ca10  1  0.750000  0.125000  0.375000  1
  Ca  Ca11  1  0.875657  0.625657  0.250000  1
  Hf  Hf12  1  0.000000  0.500000  0.500000  1
  Hf  Hf13  1  0.000000  0.500000  0.000000  1
  Hf  Hf14  1  0.000000  0.000000  0.500000  1
  Hf  Hf15  1  0.000000  0.000000  0.000000  1
  Hf  Hf16  1  0.500000  0.500000  0.500000  1
  Hf  Hf17  1  0.500000  0.500000  0.000000  1
  Hf  Hf18  1  0.500000  0.000000  0.500000  1
  Hf  Hf19  1  0.500000  0.000000  0.000000  1
  Fe  Fe20  1  0.125681  0.750000  0.875681  1
  Fe  Fe21  1  0.125681  0.875681  0.250000  1
  Fe  Fe22  1  0.374319  0.624319  0.750000  1
  Fe  Fe23  1  0.374319  0.250000  0.624319  1
  Fe  Fe24  1  0.625681  0.750000  0.375681  1
  Fe  Fe25  1  0.625681  0.375681  0.250000  1
  Fe  Fe26  1  0.874319  0.124319  0.750000  1
  Fe  Fe27  1  0.874319  0.250000  0.124319  1
  Si  Si28  1  0.250000  0.625000  0.375000  1
  Si  Si29  1  0.250000  0.125000  0.875000  1
  Si  Si30  1  0.750000  0.875000  0.125000  1
  Si  Si31  1  0.750000  0.375000  0.625000  1
  O  O32  1  0.113689  0.002449  0.700712  1
  O  O33  1  0.125482  0.599173  0.922776  1
  O  O34  1  0.030198  0.320743  0.906446  1
  O  O35  1  0.085703  0.709455  0.679257  1
  O  O36  1  0.085703  0.876248  0.406446  1
  O  O37  1  0.113689  0.611240  0.412977  1
  O  O38  1  0.176398  0.473691  0.599173  1
  O  O39  1  0.414297  0.820743  0.790545  1
  O  O40  1  0.374518  0.577224  0.900827  1
  O  O41  1  0.301737  0.299288  0.912977  1
  O  O42  1  0.323602  0.922776  0.297294  1
  O  O43  1  0.030198  0.209455  0.123752  1
  O  O44  1  0.176398  0.202706  0.577224  1
  O  O45  1  0.198263  0.587023  0.200712  1
  O  O46  1  0.386311  0.799288  0.497551  1
  O  O47  1  0.323602  0.900827  0.026309  1
  O  O48  1  0.301737  0.502449  0.388760  1
  O  O49  1  0.125482  0.026309  0.202706  1
  O  O50  1  0.386311  0.087023  0.888760  1
  O  O51  1  0.530198  0.623752  0.709455  1
  O  O52  1  0.530198  0.406446  0.820743  1
  O  O53  1  0.374518  0.297294  0.473691  1
  O  O54  1  0.585703  0.906446  0.376248  1
  O  O55  1  0.198263  0.111240  0.997551  1
  O  O56  1  0.414297  0.093554  0.623752  1
  O  O57  1  0.801737  0.888760  0.002449  1
  O  O58  1  0.625482  0.702706  0.526309  1
  O  O59  1  0.469802  0.593554  0.179257  1
  O  O60  1  0.469802  0.376248  0.290545  1
  O  O61  1  0.613689  0.912977  0.111240  1
  O  O62  1  0.874518  0.973691  0.797294  1
  O  O63  1  0.698263  0.497551  0.611240  1
  O  O64  1  0.676398  0.099173  0.973691  1
  O  O65  1  0.613689  0.200712  0.502449  1
  O  O66  1  0.801737  0.412977  0.799288  1
  O  O67  1  0.823602  0.797294  0.422776  1
  O  O68  1  0.969802  0.790545  0.876248  1
  O  O69  1  0.676398  0.077224  0.702706  1
  O  O70  1  0.698263  0.700712  0.087023  1
  O  O71  1  0.625482  0.422776  0.099173  1
  O  O72  1  0.585703  0.179257  0.209455  1
  O  O73  1  0.823602  0.526309  0.400827  1
  O  O74  1  0.886311  0.388760  0.587023  1
  O  O75  1  0.914297  0.123752  0.593554  1
  O  O76  1  0.914297  0.290545  0.320743  1
  O  O77  1  0.969802  0.679257  0.093554  1
  O  O78  1  0.874518  0.400827  0.077224  1
  O  O79  1  0.886311  0.997551  0.299288  1
