# generated using pymatgen
data_MnP2O7
_symmetry_space_group_name_H-M   'P 1'
_cell_length_a   5.20685628
_cell_length_b   6.27307036
_cell_length_c   9.40262106
_cell_angle_alpha   109.03305308
_cell_angle_beta   100.51736351
_cell_angle_gamma   103.85475571
_symmetry_Int_Tables_number   1
_chemical_formula_structural   MnP2O7
_chemical_formula_sum   'Mn2 P4 O14'
_cell_volume   270.27761241
_cell_formula_units_Z   2
loop_
 _symmetry_equiv_pos_site_id
 _symmetry_equiv_pos_as_xyz
  1  'x, y, z'
loop_
 _atom_site_type_symbol
 _atom_site_label
 _atom_site_symmetry_multiplicity
 _atom_site_fract_x
 _atom_site_fract_y
 _atom_site_fract_z
 _atom_site_occupancy
  Mn  Mn0  1  0.104988  0.604577  0.357322  1
  Mn  Mn1  1  0.895012  0.395423  0.642678  1
  P  P2  1  0.263360  0.151729  0.384641  1
  P  P3  1  0.565729  0.680424  0.854196  1
  P  P4  1  0.434271  0.319576  0.145804  1
  P  P5  1  0.736640  0.848271  0.615359  1
  O  O6  1  0.079465  0.902675  0.352728  1
  O  O7  1  0.083719  0.319740  0.410271  1
  O  O8  1  0.264318  0.532917  0.777110  1
  O  O9  1  0.232915  0.463258  0.163314  1
  O  O10  1  0.360824  0.175981  0.970634  1
  O  O11  1  0.482282  0.753463  0.474805  1
  O  O12  1  0.639310  0.864489  0.768031  1
  O  O13  1  0.360690  0.135511  0.231969  1
  O  O14  1  0.517718  0.246537  0.525195  1
  O  O15  1  0.639176  0.824019  0.029366  1
  O  O16  1  0.767085  0.536742  0.836686  1
  O  O17  1  0.735682  0.467083  0.222890  1
  O  O18  1  0.916281  0.680260  0.589729  1
  O  O19  1  0.920535  0.097325  0.647272  1
