# generated using pymatgen
data_CaB3H7O9
_symmetry_space_group_name_H-M   'P 1'
_cell_length_a   6.67307665
_cell_length_b   8.43280493
_cell_length_c   6.52211907
_cell_angle_alpha   90.68891547
_cell_angle_beta   101.78209727
_cell_angle_gamma   86.77136480
_symmetry_Int_Tables_number   1
_chemical_formula_structural   CaB3H7O9
_chemical_formula_sum   'Ca2 B6 H14 O18'
_cell_volume   358.71466348
_cell_formula_units_Z   2
loop_
 _symmetry_equiv_pos_site_id
 _symmetry_equiv_pos_as_xyz
  1  'x, y, z'
loop_
 _atom_site_type_symbol
 _atom_site_label
 _atom_site_symmetry_multiplicity
 _atom_site_fract_x
 _atom_site_fract_y
 _atom_site_fract_z
 _atom_site_occupancy
  Ca  Ca0  1  0.988629  0.623657  0.755371  1
  Ca  Ca1  1  0.011371  0.376343  0.244629  1
  B  B2  1  0.683774  0.201145  0.514832  1
  B  B3  1  0.316226  0.798856  0.485168  1
  B  B4  1  0.712165  0.367956  0.834150  1
  B  B5  1  0.287835  0.632044  0.165850  1
  B  B6  1  0.960181  0.735355  0.300686  1
  B  B7  1  0.039819  0.264645  0.699314  1
  H  H8  1  0.430810  0.100419  0.349109  1
  H  H9  1  0.569190  0.899581  0.650891  1
  H  H10  1  0.542807  0.579200  0.850824  1
  H  H11  1  0.457193  0.420800  0.149176  1
  H  H12  1  0.682361  0.650639  0.356209  1
  H  H13  1  0.317639  0.349361  0.643791  1
  H  H14  1  0.747145  0.935283  0.269600  1
  H  H15  1  0.252855  0.064717  0.730400  1
  H  H16  1  0.626757  0.220593  0.052775  1
  H  H17  1  0.373243  0.779407  0.947225  1
  H  H18  1  0.949626  0.970437  0.772904  1
  H  H19  1  0.050374  0.029563  0.227096  1
  H  H20  1  0.834256  0.896162  0.938533  1
  H  H21  1  0.165744  0.103838  0.061467  1
  O  O22  1  0.596120  0.264319  0.672185  1
  O  O23  1  0.403880  0.735681  0.327815  1
  O  O24  1  0.578769  0.109724  0.354256  1
  O  O25  1  0.421231  0.890276  0.645744  1
  O  O26  1  0.886047  0.222278  0.507875  1
  O  O27  1  0.113953  0.777722  0.492125  1
  O  O28  1  0.662384  0.537498  0.795423  1
  O  O29  1  0.337616  0.462502  0.204577  1
  O  O30  1  0.938008  0.347624  0.851298  1
  O  O31  1  0.061992  0.652376  0.148702  1
  O  O32  1  0.830154  0.621016  0.380777  1
  O  O33  1  0.169846  0.378984  0.619223  1
  O  O34  1  0.847142  0.892793  0.787814  1
  O  O35  1  0.152858  0.107207  0.212186  1
  O  O36  1  0.847627  0.879082  0.198922  1
  O  O37  1  0.152373  0.120918  0.801078  1
  O  O38  1  0.666524  0.329335  0.042978  1
  O  O39  1  0.333476  0.670665  0.957022  1
