# generated using pymatgen
data_V2O3F
_symmetry_space_group_name_H-M   'P 1'
_cell_length_a   4.67878343
_cell_length_b   4.67878343
_cell_length_c   15.17475210
_cell_angle_alpha   90.00000000
_cell_angle_beta   90.00000000
_cell_angle_gamma   93.43689507
_symmetry_Int_Tables_number   1
_chemical_formula_structural   V2O3F
_chemical_formula_sum   'V10 O15 F5'
_cell_volume   331.59324888
_cell_formula_units_Z   5
loop_
 _symmetry_equiv_pos_site_id
 _symmetry_equiv_pos_as_xyz
  1  'x, y, z'
loop_
 _atom_site_type_symbol
 _atom_site_label
 _atom_site_symmetry_multiplicity
 _atom_site_fract_x
 _atom_site_fract_y
 _atom_site_fract_z
 _atom_site_occupancy
  V  V0  1  0.009318  0.990682  0.400256  1
  V  V1  1  0.003325  0.996675  0.200227  1
  V  V2  1  0.003325  0.996675  0.999773  1
  V  V3  1  0.011519  0.988481  0.600000  1
  V  V4  1  0.009318  0.990682  0.799744  1
  V  V5  1  0.546512  0.453488  0.100000  1
  V  V6  1  0.467414  0.532586  0.499816  1
  V  V7  1  0.467414  0.532586  0.700184  1
  V  V8  1  0.462962  0.537038  0.900535  1
  V  V9  1  0.462962  0.537038  0.299465  1
  O  O10  1  0.200275  0.799725  0.900150  1
  O  O11  1  0.203602  0.796398  0.700120  1
  O  O12  1  0.200275  0.799725  0.299850  1
  O  O13  1  0.203602  0.796398  0.499880  1
  O  O14  1  0.311836  0.303822  0.000178  1
  O  O15  1  0.311836  0.303822  0.199822  1
  O  O16  1  0.307780  0.306028  0.399696  1
  O  O17  1  0.310746  0.303227  0.600000  1
  O  O18  1  0.307780  0.306028  0.800304  1
  O  O19  1  0.696178  0.688164  0.000178  1
  O  O20  1  0.696178  0.688164  0.199822  1
  O  O21  1  0.693972  0.692220  0.399696  1
  O  O22  1  0.696773  0.689254  0.600000  1
  O  O23  1  0.693972  0.692220  0.800304  1
  O  O24  1  0.808115  0.191885  0.100000  1
  F  F25  1  0.206008  0.793992  0.100000  1
  F  F26  1  0.800751  0.199249  0.300813  1
  F  F27  1  0.802751  0.197249  0.500404  1
  F  F28  1  0.800751  0.199249  0.899187  1
  F  F29  1  0.802751  0.197249  0.699596  1
