# generated using pymatgen
data_LiTi2(PO4)3
_symmetry_space_group_name_H-M   'P 1'
_cell_length_a   12.02978595
_cell_length_b   8.65444802
_cell_length_c   8.70524223
_cell_angle_alpha   90.00000000
_cell_angle_beta   90.00000000
_cell_angle_gamma   90.00000000
_symmetry_Int_Tables_number   1
_chemical_formula_structural   LiTi2(PO4)3
_chemical_formula_sum   'Li4 Ti8 P12 O48'
_cell_volume   906.31284224
_cell_formula_units_Z   4
loop_
 _symmetry_equiv_pos_site_id
 _symmetry_equiv_pos_as_xyz
  1  'x, y, z'
loop_
 _atom_site_type_symbol
 _atom_site_label
 _atom_site_symmetry_multiplicity
 _atom_site_fract_x
 _atom_site_fract_y
 _atom_site_fract_z
 _atom_site_occupancy
  Li  Li0  1  0.680211  0.213567  0.777274  1
  Li  Li1  1  0.680211  0.786433  0.277274  1
  Li  Li2  1  0.819789  0.286433  0.277274  1
  Li  Li3  1  0.819789  0.713567  0.777274  1
  Ti  Ti4  1  0.123014  0.250303  0.536053  1
  Ti  Ti5  1  0.123014  0.749697  0.036053  1
  Ti  Ti6  1  0.376986  0.750303  0.536053  1
  Ti  Ti7  1  0.376986  0.249697  0.036053  1
  Ti  Ti8  1  0.610776  0.254232  0.459365  1
  Ti  Ti9  1  0.610776  0.745768  0.959365  1
  Ti  Ti10  1  0.889224  0.245768  0.959365  1
  Ti  Ti11  1  0.889224  0.754232  0.459365  1
  P  P12  1  0.002652  0.038757  0.250347  1
  P  P13  1  0.002652  0.961243  0.750347  1
  P  P14  1  0.147076  0.604169  0.391056  1
  P  P15  1  0.147076  0.395831  0.891056  1
  P  P16  1  0.352924  0.104169  0.391056  1
  P  P17  1  0.352924  0.895831  0.891056  1
  P  P18  1  0.497348  0.461243  0.750347  1
  P  P19  1  0.497348  0.538757  0.250347  1
  P  P20  1  0.644818  0.104643  0.105932  1
  P  P21  1  0.644818  0.895357  0.605932  1
  P  P22  1  0.855182  0.395357  0.605932  1
  P  P23  1  0.855182  0.604643  0.105932  1
  O  O24  1  0.026884  0.661843  0.431616  1
  O  O25  1  0.026884  0.338157  0.931616  1
  O  O26  1  0.073424  0.857152  0.852476  1
  O  O27  1  0.073424  0.142848  0.352476  1
  O  O28  1  0.074292  0.062230  0.647377  1
  O  O29  1  0.074292  0.937770  0.147377  1
  O  O30  1  0.153324  0.428204  0.407473  1
  O  O31  1  0.153324  0.571796  0.907473  1
  O  O32  1  0.171628  0.348257  0.724891  1
  O  O33  1  0.171628  0.651743  0.224891  1
  O  O34  1  0.227641  0.320740  0.006071  1
  O  O35  1  0.227641  0.679260  0.506071  1
  O  O36  1  0.272359  0.179260  0.506071  1
  O  O37  1  0.272359  0.820740  0.006071  1
  O  O38  1  0.328372  0.151743  0.224891  1
  O  O39  1  0.328372  0.848257  0.724891  1
  O  O40  1  0.346676  0.071796  0.907473  1
  O  O41  1  0.346676  0.928204  0.407473  1
  O  O42  1  0.425708  0.562230  0.647377  1
  O  O43  1  0.425708  0.437770  0.147377  1
  O  O44  1  0.426576  0.642848  0.352476  1
  O  O45  1  0.426576  0.357152  0.852476  1
  O  O46  1  0.473116  0.161843  0.431616  1
  O  O47  1  0.473116  0.838157  0.931616  1
  O  O48  1  0.527986  0.158124  0.066694  1
  O  O49  1  0.527986  0.841876  0.566694  1
  O  O50  1  0.577419  0.353436  0.657847  1
  O  O51  1  0.577419  0.646564  0.157847  1
  O  O52  1  0.575159  0.436018  0.351346  1
  O  O53  1  0.575159  0.563982  0.851346  1
  O  O54  1  0.655814  0.074292  0.601672  1
  O  O55  1  0.655814  0.925708  0.101672  1
  O  O56  1  0.679599  0.159282  0.270416  1
  O  O57  1  0.679599  0.840718  0.770416  1
  O  O58  1  0.727300  0.174539  0.986892  1
  O  O59  1  0.727300  0.825461  0.486892  1
  O  O60  1  0.772700  0.325461  0.486892  1
  O  O61  1  0.772700  0.674539  0.986892  1
  O  O62  1  0.820401  0.340718  0.770416  1
  O  O63  1  0.820401  0.659282  0.270416  1
  O  O64  1  0.844186  0.425708  0.101672  1
  O  O65  1  0.844186  0.574292  0.601672  1
  O  O66  1  0.924841  0.063982  0.851346  1
  O  O67  1  0.924841  0.936018  0.351346  1
  O  O68  1  0.922581  0.146564  0.157847  1
  O  O69  1  0.922581  0.853436  0.657847  1
  O  O70  1  0.972014  0.341876  0.566694  1
  O  O71  1  0.972014  0.658124  0.066694  1
