# generated using pymatgen
data_CsTiMnOF5
_symmetry_space_group_name_H-M   'P 1'
_cell_length_a   7.55180403
_cell_length_b   7.40526985
_cell_length_c   7.55180322
_cell_angle_alpha   60.63982361
_cell_angle_beta   60.60255411
_cell_angle_gamma   60.63982131
_symmetry_Int_Tables_number   1
_chemical_formula_structural   CsTiMnOF5
_chemical_formula_sum   'Cs2 Ti2 Mn2 O2 F10'
_cell_volume   302.85640145
_cell_formula_units_Z   2
loop_
 _symmetry_equiv_pos_site_id
 _symmetry_equiv_pos_as_xyz
  1  'x, y, z'
loop_
 _atom_site_type_symbol
 _atom_site_label
 _atom_site_symmetry_multiplicity
 _atom_site_fract_x
 _atom_site_fract_y
 _atom_site_fract_z
 _atom_site_occupancy
  Cs  Cs0  1  0.371070  0.378930  0.371070  1
  Cs  Cs1  1  0.628930  0.621070  0.628930  1
  Ti  Ti2  1  0.000000  0.000000  0.000000  1
  Ti  Ti3  1  0.000000  0.500000  0.000000  1
  Mn  Mn4  1  0.500000  0.000000  0.000000  1
  Mn  Mn5  1  0.000000  0.000000  0.500000  1
  O  O6  1  0.024166  0.725834  0.024166  1
  O  O7  1  0.975834  0.274166  0.975834  1
  F  F8  1  0.054582  0.102055  0.689397  1
  F  F9  1  0.054582  0.653967  0.689397  1
  F  F10  1  0.689397  0.102055  0.054582  1
  F  F11  1  0.332102  0.917898  0.332102  1
  F  F12  1  0.310603  0.346033  0.945418  1
  F  F13  1  0.689397  0.653967  0.054582  1
  F  F14  1  0.667898  0.082102  0.667898  1
  F  F15  1  0.945418  0.346033  0.310603  1
  F  F16  1  0.310603  0.897945  0.945418  1
  F  F17  1  0.945418  0.897945  0.310603  1
