# generated using pymatgen
data_Li2Fe3CoO8
_symmetry_space_group_name_H-M   'P 1'
_cell_length_a   8.25131679
_cell_length_b   8.34687355
_cell_length_c   8.27552971
_cell_angle_alpha   90.01046144
_cell_angle_beta   89.98214962
_cell_angle_gamma   89.94026880
_symmetry_Int_Tables_number   1
_chemical_formula_structural   Li2Fe3CoO8
_chemical_formula_sum   'Li8 Fe12 Co4 O32'
_cell_volume   569.95771086
_cell_formula_units_Z   4
loop_
 _symmetry_equiv_pos_site_id
 _symmetry_equiv_pos_as_xyz
  1  'x, y, z'
loop_
 _atom_site_type_symbol
 _atom_site_label
 _atom_site_symmetry_multiplicity
 _atom_site_fract_x
 _atom_site_fract_y
 _atom_site_fract_z
 _atom_site_occupancy
  Li  Li0  1  0.122141  0.877983  0.376774  1
  Li  Li1  1  0.250777  0.752149  0.748045  1
  Li  Li2  1  0.248966  0.248602  0.247120  1
  Li  Li3  1  0.377440  0.122276  0.878459  1
  Li  Li4  1  0.622913  0.622808  0.622700  1
  Li  Li5  1  0.752073  0.748877  0.252319  1
  Li  Li6  1  0.748564  0.251244  0.751338  1
  Li  Li7  1  0.877082  0.376639  0.122783  1
  Fe  Fe8  1  0.122306  0.622055  0.121886  1
  Fe  Fe9  1  0.121534  0.378315  0.878666  1
  Fe  Fe10  1  0.123968  0.120933  0.623931  1
  Fe  Fe11  1  0.377275  0.877515  0.122624  1
  Fe  Fe12  1  0.375922  0.624474  0.378612  1
  Fe  Fe13  1  0.379224  0.376065  0.624704  1
  Fe  Fe14  1  0.624048  0.877655  0.877319  1
  Fe  Fe15  1  0.623539  0.122783  0.123560  1
  Fe  Fe16  1  0.623540  0.375479  0.375459  1
  Fe  Fe17  1  0.877105  0.623732  0.876656  1
  Fe  Fe18  1  0.875910  0.877292  0.623326  1
  Fe  Fe19  1  0.876291  0.122955  0.376689  1
  Co  Co20  1  0.998500  0.499696  0.498439  1
  Co  Co21  1  0.500770  0.499208  0.000620  1
  Co  Co22  1  0.499869  -0.000045  0.500724  1
  Co  Co23  1  0.000519  0.000260  0.001200  1
  O  O24  1  0.101753  0.126436  0.388268  1
  O  O25  1  0.104900  0.891708  0.627595  1
  O  O26  1  0.113944  0.610988  0.887327  1
  O  O27  1  0.127136  0.395781  0.104964  1
  O  O28  1  0.121299  0.147382  0.863776  1
  O  O29  1  0.133960  0.364220  0.639707  1
  O  O30  1  0.135617  0.622718  0.354210  1
  O  O31  1  0.144401  0.858166  0.122146  1
  O  O32  1  0.360392  0.139496  0.623928  1
  O  O33  1  0.357231  0.377018  0.862687  1
  O  O34  1  0.361432  0.638268  0.136493  1
  O  O35  1  0.378922  0.860236  0.356875  1
  O  O36  1  0.372008  0.611249  0.604417  1
  O  O37  1  0.388653  0.382641  0.380972  1
  O  O38  1  0.395147  0.102900  0.127538  1
  O  O39  1  0.395628  0.873438  0.894931  1
  O  O40  1  0.610309  0.373953  0.604502  1
  O  O41  1  0.610896  0.600317  0.372415  1
  O  O42  1  0.614301  0.889009  0.112353  1
  O  O43  1  0.627956  0.103542  0.895443  1
  O  O44  1  0.622200  0.354170  0.141064  1
  O  O45  1  0.638308  0.138325  0.362723  1
  O  O46  1  0.641345  0.877327  0.644346  1
  O  O47  1  0.643805  0.642627  0.878760  1
  O  O48  1  0.856726  0.358745  0.376164  1
  O  O49  1  0.858753  0.123698  0.142879  1
  O  O50  1  0.862963  0.860452  0.863258  1
  O  O51  1  0.878089  0.645791  0.641956  1
  O  O52  1  0.871710  0.895936  0.395798  1
  O  O53  1  0.880163  0.111461  0.610457  1
  O  O54  1  0.894012  0.397210  0.872822  1
  O  O55  1  0.895768  0.625916  0.105350  1
