# generated using pymatgen
data_Na7Li4Yb5C12O37
_symmetry_space_group_name_H-M   'P 1'
_cell_length_a   10.34674503
_cell_length_b   10.29251402
_cell_length_c   10.29251402
_cell_angle_alpha   59.34038024
_cell_angle_beta   60.79252664
_cell_angle_gamma   60.79252390
_symmetry_Int_Tables_number   1
_chemical_formula_structural   Na7Li4Yb5C12O37
_chemical_formula_sum   'Na7 Li4 Yb5 C12 O37'
_cell_volume   780.13557513
_cell_formula_units_Z   1
loop_
 _symmetry_equiv_pos_site_id
 _symmetry_equiv_pos_as_xyz
  1  'x, y, z'
loop_
 _atom_site_type_symbol
 _atom_site_label
 _atom_site_symmetry_multiplicity
 _atom_site_fract_x
 _atom_site_fract_y
 _atom_site_fract_z
 _atom_site_occupancy
  Yb  Yb0  1  0.385470  0.362348  0.878224  1
  Yb  Yb1  1  0.385470  0.878224  0.362348  1
  Yb  Yb2  1  0.632062  0.117773  0.633728  1
  Yb  Yb3  1  0.632062  0.633728  0.117773  1
  Yb  Yb4  1  0.872410  0.378446  0.378446  1
  Na  Na5  1  0.118741  0.116872  0.636908  1
  Na  Na6  1  0.118741  0.636908  0.116872  1
  Na  Na7  1  0.108043  0.634793  0.634793  1
  Na  Na8  1  0.636787  0.112353  0.112353  1
  Na  Na9  1  0.373601  0.880917  0.880917  1
  Na  Na10  1  0.877053  0.875920  0.371134  1
  Na  Na11  1  0.877053  0.371134  0.875920  1
  Li  Li12  1  0.001186  0.000605  0.000605  1
  Li  Li13  1  0.002244  0.996339  0.500373  1
  Li  Li14  1  0.002244  0.500373  0.996339  1
  Li  Li15  1  0.643414  0.628857  0.628857  1
  C  C16  1  0.213748  0.225352  0.225352  1
  C  C17  1  0.935365  0.517286  0.517286  1
  C  C18  1  0.227068  0.230874  0.827585  1
  C  C19  1  0.515996  0.516945  0.940485  1
  C  C20  1  0.227068  0.827585  0.230874  1
  C  C21  1  0.132614  0.789125  0.789125  1
  C  C22  1  0.522118  0.528333  0.528333  1
  C  C23  1  0.837453  0.227186  0.227186  1
  C  C24  1  0.787134  0.135155  0.784881  1
  C  C25  1  0.787134  0.784881  0.135155  1
  C  C26  1  0.515996  0.940485  0.516945  1
  C  C27  1  0.786844  0.790142  0.790142  1
  O  O28  1  0.140439  0.369723  0.149525  1
  O  O29  1  0.140439  0.149525  0.369723  1
  O  O30  1  0.358661  0.156973  0.156973  1
  O  O31  1  0.152871  0.154506  0.838184  1
  O  O32  1  0.152871  0.838184  0.154506  1
  O  O33  1  0.155748  0.368633  0.845748  1
  O  O34  1  0.155748  0.845748  0.368633  1
  O  O35  1  0.377598  0.173882  0.799529  1
  O  O36  1  0.377598  0.799529  0.173882  1
  O  O37  1  0.133297  0.861934  0.643720  1
  O  O38  1  0.133297  0.643720  0.861934  1
  O  O39  1  0.533125  0.366593  0.366593  1
  O  O40  1  0.845991  0.153370  0.153370  1
  O  O41  1  0.131734  0.861086  0.861086  1
  O  O42  1  0.382497  0.598881  0.598881  1
  O  O43  1  0.833882  0.158026  0.376475  1
  O  O44  1  0.833882  0.376475  0.158026  1
  O  O45  1  0.597018  0.603744  0.384990  1
  O  O46  1  0.597018  0.384990  0.603744  1
  O  O47  1  0.644260  0.135825  0.854806  1
  O  O48  1  0.644260  0.854806  0.135825  1
  O  O49  1  0.374507  0.938797  0.583900  1
  O  O50  1  0.374507  0.583900  0.938797  1
  O  O51  1  0.854344  0.638143  0.139904  1
  O  O52  1  0.854344  0.139904  0.638143  1
  O  O53  1  0.592881  0.380647  0.922076  1
  O  O54  1  0.592881  0.922076  0.380647  1
  O  O55  1  0.584889  0.588763  0.946467  1
  O  O56  1  0.584889  0.946467  0.588763  1
  O  O57  1  0.862292  0.857699  0.128251  1
  O  O58  1  0.862292  0.128251  0.857699  1
  O  O59  1  0.939085  0.370876  0.586773  1
  O  O60  1  0.939085  0.586773  0.370876  1
  O  O61  1  0.913537  0.595662  0.595662  1
  O  O62  1  0.645108  0.860245  0.860245  1
  O  O63  1  0.856503  0.866252  0.645451  1
  O  O64  1  0.856503  0.645451  0.866252  1
