# generated using pymatgen
data_LiTi(PO3)4
_symmetry_space_group_name_H-M   'P 1'
_cell_length_a   7.62334069
_cell_length_b   7.62334069
_cell_length_c   17.13718217
_cell_angle_alpha   90.00000000
_cell_angle_beta   90.00000000
_cell_angle_gamma   100.87331555
_symmetry_Int_Tables_number   1
_chemical_formula_structural   LiTi(PO3)4
_chemical_formula_sum   'Li4 Ti4 P16 O48'
_cell_volume   978.05257463
_cell_formula_units_Z   4
loop_
 _symmetry_equiv_pos_site_id
 _symmetry_equiv_pos_as_xyz
  1  'x, y, z'
loop_
 _atom_site_type_symbol
 _atom_site_label
 _atom_site_symmetry_multiplicity
 _atom_site_fract_x
 _atom_site_fract_y
 _atom_site_fract_z
 _atom_site_occupancy
  Li  Li0  1  0.198114  0.093400  0.387763  1
  Li  Li1  1  0.906600  0.801886  0.612237  1
  Li  Li2  1  0.801886  0.906600  0.887763  1
  Li  Li3  1  0.093400  0.198114  0.112237  1
  Ti  Ti4  1  0.581612  0.970968  0.619285  1
  Ti  Ti5  1  0.029032  0.418388  0.380715  1
  Ti  Ti6  1  0.418388  0.029032  0.119285  1
  Ti  Ti7  1  0.970968  0.581612  0.880715  1
  P  P8  1  0.035237  0.759359  0.092644  1
  P  P9  1  0.240641  0.964763  0.907356  1
  P  P10  1  0.307887  0.781391  0.762232  1
  P  P11  1  0.218609  0.692113  0.237768  1
  P  P12  1  0.376010  0.623990  0.500000  1
  P  P13  1  0.254674  0.338904  0.940757  1
  P  P14  1  0.661096  0.745326  0.059243  1
  P  P15  1  0.353262  0.353262  0.250000  1
  P  P16  1  0.646738  0.646738  0.750000  1
  P  P17  1  0.338904  0.254674  0.559243  1
  P  P18  1  0.745326  0.661096  0.440757  1
  P  P19  1  0.623990  0.376010  0.000000  1
  P  P20  1  0.781391  0.307887  0.737768  1
  P  P21  1  0.692113  0.218609  0.262232  1
  P  P22  1  0.759359  0.035237  0.407356  1
  P  P23  1  0.964763  0.240641  0.592644  1
  O  O24  1  0.050544  0.859820  0.895788  1
  O  O25  1  0.140180  0.949456  0.104212  1
  O  O26  1  0.342073  0.958531  0.980249  1
  O  O27  1  0.041469  0.657927  0.019751  1
  O  O28  1  0.120282  0.679847  0.768743  1
  O  O29  1  0.320153  0.879718  0.231257  1
  O  O30  1  0.090096  0.639205  0.163376  1
  O  O31  1  0.360795  0.909904  0.836624  1
  O  O32  1  0.109983  0.638889  0.310053  1
  O  O33  1  0.361111  0.890017  0.689947  1
  O  O34  1  0.414118  0.794158  0.546876  1
  O  O35  1  0.205842  0.585882  0.453124  1
  O  O36  1  0.513233  0.805444  0.103967  1
  O  O37  1  0.194556  0.486767  0.896033  1
  O  O38  1  0.443966  0.642009  0.772905  1
  O  O39  1  0.357991  0.556034  0.227095  1
  O  O40  1  0.779065  0.833664  0.383511  1
  O  O41  1  0.166336  0.220935  0.616489  1
  O  O42  1  0.529656  0.610653  0.438111  1
  O  O43  1  0.389348  0.470344  0.561889  1
  O  O44  1  0.237490  0.305522  0.321665  1
  O  O45  1  0.694478  0.762511  0.678335  1
  O  O46  1  0.183091  0.296476  0.019960  1
  O  O47  1  0.703524  0.816909  0.980040  1
  O  O48  1  0.296476  0.183091  0.480040  1
  O  O49  1  0.816909  0.703524  0.519960  1
  O  O50  1  0.305522  0.237490  0.178335  1
  O  O51  1  0.762511  0.694478  0.821665  1
  O  O52  1  0.610653  0.529656  0.061889  1
  O  O53  1  0.470344  0.389348  0.938111  1
  O  O54  1  0.220935  0.166336  0.883511  1
  O  O55  1  0.833664  0.779065  0.116489  1
  O  O56  1  0.642009  0.443966  0.727095  1
  O  O57  1  0.556034  0.357991  0.272905  1
  O  O58  1  0.805444  0.513233  0.396033  1
  O  O59  1  0.486767  0.194556  0.603967  1
  O  O60  1  0.794158  0.414118  0.953124  1
  O  O61  1  0.585882  0.205842  0.046876  1
  O  O62  1  0.638889  0.109983  0.189947  1
  O  O63  1  0.890017  0.361111  0.810053  1
  O  O64  1  0.639205  0.090096  0.336624  1
  O  O65  1  0.909904  0.360795  0.663376  1
  O  O66  1  0.679847  0.120282  0.731257  1
  O  O67  1  0.879718  0.320153  0.268743  1
  O  O68  1  0.657927  0.041469  0.480249  1
  O  O69  1  0.958531  0.342073  0.519751  1
  O  O70  1  0.949456  0.140180  0.395788  1
  O  O71  1  0.859820  0.050544  0.604212  1
