# generated using pymatgen
data_ThU8O18
_symmetry_space_group_name_H-M   'P 1'
_cell_length_a   6.66861839
_cell_length_b   8.60832227
_cell_length_c   6.66846598
_cell_angle_alpha   82.58139575
_cell_angle_beta   99.60241908
_cell_angle_gamma   104.95896461
_symmetry_Int_Tables_number   1
_chemical_formula_structural   ThU8O18
_chemical_formula_sum   'Th1 U8 O18'
_cell_volume   363.16146618
_cell_formula_units_Z   1
loop_
 _symmetry_equiv_pos_site_id
 _symmetry_equiv_pos_as_xyz
  1  'x, y, z'
loop_
 _atom_site_type_symbol
 _atom_site_label
 _atom_site_symmetry_multiplicity
 _atom_site_fract_x
 _atom_site_fract_y
 _atom_site_fract_z
 _atom_site_occupancy
  Th  Th0  1  0.888889  0.555556  0.222222  1
  U  U1  1  0.554517  0.221162  0.887504  1
  U  U2  1  0.113373  0.443726  0.778494  1
  U  U3  1  0.777497  0.108363  0.445801  1
  U  U4  1  0.223261  0.889949  0.556940  1
  U  U5  1  0.664405  0.667385  0.665951  1
  U  U6  1  0.332944  0.330962  0.334795  1
  U  U7  1  0.000281  0.002748  0.998643  1
  U  U8  1  0.444834  0.780149  0.109649  1
  O  O9  1  0.306175  0.972531  0.888101  1
  O  O10  1  0.860469  0.193190  0.778168  1
  O  O11  1  0.471603  0.138580  0.556343  1
  O  O12  1  0.803549  0.470052  0.883765  1
  O  O13  1  0.083595  0.083449  0.332955  1
  O  O14  1  0.416274  0.416151  0.667843  1
  O  O15  1  0.030118  0.357627  0.448440  1
  O  O16  1  0.361504  0.694960  0.776602  1
  O  O17  1  0.634042  0.300928  0.222479  1
  O  O18  1  0.974228  0.641059  0.560679  1
  O  O19  1  0.694183  0.027662  0.111489  1
  O  O20  1  0.143736  0.810183  0.221966  1
  O  O21  1  0.199261  0.527104  0.108338  1
  O  O22  1  0.528716  0.862263  0.445434  1
  O  O23  1  0.249062  0.248848  0.999010  1
  O  O24  1  0.578517  0.584007  0.336107  1
  O  O25  1  0.917309  0.917921  0.666277  1
  O  O26  1  0.747660  0.753484  0.996004  1
