# generated using pymatgen
data_Rb6Ti2O7
_symmetry_space_group_name_H-M   'P 1'
_cell_length_a   9.93156860
_cell_length_b   9.92874499
_cell_length_c   9.96172262
_cell_angle_alpha   89.99451810
_cell_angle_beta   89.99007532
_cell_angle_gamma   119.94355161
_symmetry_Int_Tables_number   1
_chemical_formula_structural   Rb6Ti2O7
_chemical_formula_sum   'Rb12 Ti4 O14'
_cell_volume   851.18510291
_cell_formula_units_Z   2
loop_
 _symmetry_equiv_pos_site_id
 _symmetry_equiv_pos_as_xyz
  1  'x, y, z'
loop_
 _atom_site_type_symbol
 _atom_site_label
 _atom_site_symmetry_multiplicity
 _atom_site_fract_x
 _atom_site_fract_y
 _atom_site_fract_z
 _atom_site_occupancy
  Rb  Rb0  1  0.333308  0.971101  0.373825  1
  Rb  Rb1  1  0.350144  0.963036  0.872731  1
  Rb  Rb2  1  0.029254  0.362415  0.373723  1
  Rb  Rb3  1  0.037057  0.387001  0.872834  1
  Rb  Rb4  1  0.362462  0.333206  0.626270  1
  Rb  Rb5  1  0.387202  0.350237  0.127256  1
  Rb  Rb6  1  0.612895  0.649778  0.872735  1
  Rb  Rb7  1  0.637615  0.666908  0.373715  1
  Rb  Rb8  1  0.962996  0.613025  0.127244  1
  Rb  Rb9  1  0.970745  0.637540  0.626315  1
  Rb  Rb10  1  0.649747  0.036956  0.127218  1
  Rb  Rb11  1  0.666687  0.028910  0.626127  1
  Ti  Ti12  1  0.333241  0.666845  0.180463  1
  Ti  Ti13  1  0.333084  0.666583  0.566386  1
  Ti  Ti14  1  0.666707  0.333091  0.819545  1
  Ti  Ti15  1  0.666865  0.333443  0.433613  1
  O  O16  1  0.175883  0.478125  0.621715  1
  O  O17  1  0.175089  0.478742  0.125044  1
  O  O18  1  0.303201  0.825155  0.125172  1
  O  O19  1  0.301858  0.823925  0.621753  1
  O  O20  1  0.333232  0.666700  0.373047  1
  O  O21  1  0.521506  0.697591  0.621734  1
  O  O22  1  0.521424  0.696714  0.124987  1
  O  O23  1  0.478539  0.303225  0.875029  1
  O  O24  1  0.478453  0.302414  0.378224  1
  O  O25  1  0.666680  0.333299  0.626957  1
  O  O26  1  0.698165  0.176157  0.378221  1
  O  O27  1  0.696722  0.174752  0.874778  1
  O  O28  1  0.824859  0.521202  0.875006  1
  O  O29  1  0.824080  0.521926  0.378334  1
