# generated using pymatgen
data_Na2Sc2P4H12C4O13
_symmetry_space_group_name_H-M   'P 1'
_cell_length_a   18.06031658
_cell_length_b   18.06031658
_cell_length_c   5.45529190
_cell_angle_alpha   90.00000000
_cell_angle_beta   90.00000000
_cell_angle_gamma   90.00000000
_symmetry_Int_Tables_number   1
_chemical_formula_structural   Na2Sc2P4H12C4O13
_chemical_formula_sum   'Na8 Sc8 P16 H48 C16 O52'
_cell_volume   1779.38002625
_cell_formula_units_Z   4
loop_
 _symmetry_equiv_pos_site_id
 _symmetry_equiv_pos_as_xyz
  1  'x, y, z'
loop_
 _atom_site_type_symbol
 _atom_site_label
 _atom_site_symmetry_multiplicity
 _atom_site_fract_x
 _atom_site_fract_y
 _atom_site_fract_z
 _atom_site_occupancy
  Na  Na0  1  0.283595  0.620351  0.260038  1
  Na  Na1  1  0.216405  0.879649  0.260038  1
  Na  Na2  1  0.120351  0.716405  0.760038  1
  Na  Na3  1  0.379649  0.783595  0.760038  1
  Na  Na4  1  0.716405  0.379649  0.739962  1
  Na  Na5  1  0.783595  0.120351  0.739962  1
  Na  Na6  1  0.879649  0.283595  0.239962  1
  Na  Na7  1  0.620351  0.216405  0.239962  1
  Sc  Sc8  1  0.403482  0.581197  0.743044  1
  Sc  Sc9  1  0.096518  0.918803  0.743044  1
  Sc  Sc10  1  0.081197  0.596518  0.243044  1
  Sc  Sc11  1  0.418803  0.903482  0.243044  1
  Sc  Sc12  1  0.596518  0.418803  0.256956  1
  Sc  Sc13  1  0.903482  0.081197  0.256956  1
  Sc  Sc14  1  0.918803  0.403482  0.756956  1
  Sc  Sc15  1  0.581197  0.096518  0.756956  1
  P  P16  1  0.432631  0.704682  0.252970  1
  P  P17  1  0.067369  0.795318  0.252970  1
  P  P18  1  0.204682  0.567369  0.752970  1
  P  P19  1  0.295318  0.932631  0.752970  1
  P  P20  1  0.567369  0.295318  0.747030  1
  P  P21  1  0.932631  0.204682  0.747030  1
  P  P22  1  0.795318  0.432631  0.247030  1
  P  P23  1  0.704682  0.067369  0.247030  1
  P  P24  1  0.404908  0.457881  0.239981  1
  P  P25  1  0.095092  0.042119  0.239981  1
  P  P26  1  0.957881  0.595092  0.739981  1
  P  P27  1  0.542119  0.904908  0.739981  1
  P  P28  1  0.595092  0.542119  0.760019  1
  P  P29  1  0.904908  0.957881  0.760019  1
  P  P30  1  0.042119  0.404908  0.260019  1
  P  P31  1  0.457881  0.095092  0.260019  1
  H  H32  1  0.550521  0.757956  0.156837  1
  H  H33  1  0.949479  0.742044  0.156837  1
  H  H34  1  0.257956  0.449479  0.656837  1
  H  H35  1  0.242044  0.050521  0.656837  1
  H  H36  1  0.449479  0.242044  0.843163  1
  H  H37  1  0.050521  0.257956  0.843163  1
  H  H38  1  0.742044  0.550521  0.343163  1
  H  H39  1  0.757956  0.949479  0.343163  1
  H  H40  1  0.547336  0.660892  0.084480  1
  H  H41  1  0.952664  0.839108  0.084480  1
  H  H42  1  0.160892  0.452664  0.584480  1
  H  H43  1  0.339108  0.047336  0.584480  1
  H  H44  1  0.452664  0.339108  0.915520  1
  H  H45  1  0.047336  0.160892  0.915520  1
  H  H46  1  0.839108  0.547336  0.415520  1
  H  H47  1  0.660892  0.952664  0.415520  1
  H  H48  1  0.558862  0.690131  0.394265  1
  H  H49  1  0.941138  0.809869  0.394265  1
  H  H50  1  0.190131  0.441138  0.894265  1
  H  H51  1  0.309869  0.058862  0.894265  1
  H  H52  1  0.441138  0.309869  0.605735  1
  H  H53  1  0.058862  0.190131  0.605735  1
  H  H54  1  0.809869  0.558862  0.105735  1
  H  H55  1  0.690131  0.941138  0.105735  1
  H  H56  1  0.333208  0.355536  0.076667  1
  H  H57  1  0.166792  0.144464  0.076667  1
  H  H58  1  0.855536  0.666792  0.576667  1
  H  H59  1  0.644464  0.833208  0.576667  1
  H  H60  1  0.666792  0.644464  0.923333  1
  H  H61  1  0.833208  0.855536  0.923333  1
  H  H62  1  0.144464  0.333208  0.423333  1
  H  H63  1  0.355536  0.166792  0.423333  1
  H  H64  1  0.284681  0.404012  0.311948  1
  H  H65  1  0.215319  0.095988  0.311948  1
  H  H66  1  0.904012  0.715319  0.811948  1
  H  H67  1  0.595988  0.784681  0.811948  1
  H  H68  1  0.715319  0.595988  0.688052  1
  H  H69  1  0.784681  0.904012  0.688052  1
  H  H70  1  0.095988  0.284681  0.188052  1
  H  H71  1  0.404012  0.215319  0.188052  1
  H  H72  1  0.356021  0.340615  0.390987  1
  H  H73  1  0.143979  0.159385  0.390987  1
  H  H74  1  0.840615  0.643979  0.890987  1
  H  H75  1  0.659385  0.856021  0.890987  1
  H  H76  1  0.643979  0.659385  0.609013  1
  H  H77  1  0.856021  0.840615  0.609013  1
  H  H78  1  0.159385  0.356021  0.109013  1
  H  H79  1  0.340615  0.143979  0.109013  1
  C  C80  1  0.532316  0.703278  0.219318  1
  C  C81  1  0.967684  0.796722  0.219318  1
  C  C82  1  0.203278  0.467684  0.719318  1
  C  C83  1  0.296722  0.032316  0.719318  1
  C  C84  1  0.467684  0.296722  0.780682  1
  C  C85  1  0.032316  0.203278  0.780682  1
  C  C86  1  0.796722  0.532316  0.280682  1
  C  C87  1  0.703278  0.967684  0.280682  1
  C  C88  1  0.338746  0.382232  0.256348  1
  C  C89  1  0.161254  0.117768  0.256348  1
  C  C90  1  0.882232  0.661254  0.756348  1
  C  C91  1  0.617768  0.838746  0.756348  1
  C  C92  1  0.661254  0.617768  0.743652  1
  C  C93  1  0.838746  0.882232  0.743652  1
  C  C94  1  0.117768  0.338746  0.243652  1
  C  C95  1  0.382232  0.161254  0.243652  1
  O  O96  1  0.410226  0.675359  0.508394  1
  O  O97  1  0.089774  0.824641  0.508394  1
  O  O98  1  0.175359  0.589774  0.008394  1
  O  O99  1  0.324641  0.910226  0.008394  1
  O  O100  1  0.589774  0.324641  0.491606  1
  O  O101  1  0.910226  0.175359  0.491606  1
  O  O102  1  0.824641  0.410226  0.991606  1
  O  O103  1  0.675359  0.089774  0.991606  1
  O  O104  1  0.398713  0.657711  0.044371  1
  O  O105  1  0.101287  0.842289  0.044371  1
  O  O106  1  0.157711  0.601287  0.544371  1
  O  O107  1  0.342289  0.898713  0.544371  1
  O  O108  1  0.601287  0.342289  0.955629  1
  O  O109  1  0.898713  0.157711  0.955629  1
  O  O110  1  0.842289  0.398713  0.455629  1
  O  O111  1  0.657711  0.101287  0.455629  1
  O  O112  1  0.285386  0.594894  0.729432  1
  O  O113  1  0.214614  0.905106  0.729432  1
  O  O114  1  0.094894  0.714614  0.229432  1
  O  O115  1  0.405106  0.785386  0.229432  1
  O  O116  1  0.714614  0.405106  0.270568  1
  O  O117  1  0.785386  0.094894  0.270568  1
  O  O118  1  0.905106  0.285386  0.770568  1
  O  O119  1  0.594894  0.214614  0.770568  1
  O  O120  1  0.395953  0.493390  0.984582  1
  O  O121  1  0.104047  0.006610  0.984582  1
  O  O122  1  0.993390  0.604047  0.484582  1
  O  O123  1  0.506610  0.895953  0.484582  1
  O  O124  1  0.604047  0.506610  0.015418  1
  O  O125  1  0.895953  0.993390  0.015418  1
  O  O126  1  0.006610  0.395953  0.515418  1
  O  O127  1  0.493390  0.104047  0.515418  1
  O  O128  1  0.383018  0.513905  0.439889  1
  O  O129  1  0.116982  0.986095  0.439889  1
  O  O130  1  0.013905  0.616982  0.939889  1
  O  O131  1  0.486095  0.883018  0.939889  1
  O  O132  1  0.616982  0.486095  0.560111  1
  O  O133  1  0.883018  0.013905  0.560111  1
  O  O134  1  0.986095  0.383018  0.060111  1
  O  O135  1  0.513905  0.116982  0.060111  1
  O  O136  1  0.517938  0.575678  0.721621  1
  O  O137  1  0.982062  0.924322  0.721621  1
  O  O138  1  0.075678  0.482062  0.221621  1
  O  O139  1  0.424322  0.017938  0.221621  1
  O  O140  1  0.482062  0.424322  0.278379  1
  O  O141  1  0.017938  0.075678  0.278379  1
  O  O142  1  0.924322  0.517938  0.778379  1
  O  O143  1  0.575678  0.982062  0.778379  1
  O  O144  1  0.250000  0.750000  0.270390  1
  O  O145  1  0.250000  0.750000  0.770390  1
  O  O146  1  0.750000  0.250000  0.729610  1
  O  O147  1  0.750000  0.250000  0.229610  1
