# generated using pymatgen
data_LaSCl
_symmetry_space_group_name_H-M   'P 1'
_cell_length_a   6.98150620
_cell_length_b   7.07965737
_cell_length_c   42.19815025
_cell_angle_alpha   90.00000000
_cell_angle_beta   90.00000000
_cell_angle_gamma   90.00000000
_symmetry_Int_Tables_number   1
_chemical_formula_structural   LaSCl
_chemical_formula_sum   'La24 S24 Cl24'
_cell_volume   2085.71412392
_cell_formula_units_Z   24
loop_
 _symmetry_equiv_pos_site_id
 _symmetry_equiv_pos_as_xyz
  1  'x, y, z'
loop_
 _atom_site_type_symbol
 _atom_site_label
 _atom_site_symmetry_multiplicity
 _atom_site_fract_x
 _atom_site_fract_y
 _atom_site_fract_z
 _atom_site_occupancy
  La  La0  1  0.286054  0.250000  0.000000  1
  La  La1  1  0.286054  0.250000  0.500000  1
  La  La2  1  0.314933  0.794439  0.250000  1
  La  La3  1  0.314933  0.705561  0.750000  1
  La  La4  1  0.301451  0.230106  0.165459  1
  La  La5  1  0.301451  0.230106  0.334541  1
  La  La6  1  0.301451  0.269894  0.665459  1
  La  La7  1  0.301451  0.269894  0.834541  1
  La  La8  1  0.303339  0.805952  0.082875  1
  La  La9  1  0.303339  0.805952  0.417125  1
  La  La10  1  0.303339  0.694048  0.582875  1
  La  La11  1  0.303339  0.694048  0.917125  1
  La  La12  1  0.696661  0.305952  0.082875  1
  La  La13  1  0.696661  0.305952  0.417125  1
  La  La14  1  0.696661  0.194048  0.582875  1
  La  La15  1  0.696661  0.194048  0.917125  1
  La  La16  1  0.698549  0.730106  0.165459  1
  La  La17  1  0.698549  0.730106  0.334541  1
  La  La18  1  0.698549  0.769894  0.834541  1
  La  La19  1  0.698549  0.769894  0.665459  1
  La  La20  1  0.685067  0.294439  0.250000  1
  La  La21  1  0.685067  0.205561  0.750000  1
  La  La22  1  0.713946  0.750000  0.000000  1
  La  La23  1  0.713946  0.750000  0.500000  1
  S  S24  1  0.453641  0.514737  0.374095  1
  S  S25  1  0.453641  0.514737  0.125905  1
  S  S26  1  0.453641  0.985263  0.625905  1
  S  S27  1  0.453641  0.985263  0.874095  1
  S  S28  1  0.456860  0.514711  0.208838  1
  S  S29  1  0.456860  0.514711  0.291162  1
  S  S30  1  0.456860  0.985289  0.708838  1
  S  S31  1  0.456860  0.985289  0.791162  1
  S  S32  1  0.466876  0.536489  0.041304  1
  S  S33  1  0.466876  0.963511  0.541304  1
  S  S34  1  0.466876  0.536489  0.458696  1
  S  S35  1  0.466876  0.963511  0.958696  1
  S  S36  1  0.533124  0.036489  0.041304  1
  S  S37  1  0.533124  0.036489  0.458696  1
  S  S38  1  0.533124  0.463511  0.541304  1
  S  S39  1  0.533124  0.463511  0.958696  1
  S  S40  1  0.543140  0.014711  0.208838  1
  S  S41  1  0.543140  0.014711  0.291162  1
  S  S42  1  0.543140  0.485289  0.708838  1
  S  S43  1  0.543140  0.485289  0.791162  1
  S  S44  1  0.546359  0.014737  0.125905  1
  S  S45  1  0.546359  0.014737  0.374095  1
  S  S46  1  0.546359  0.485263  0.625905  1
  S  S47  1  0.546359  0.485263  0.874095  1
  Cl  Cl48  1  0.044208  0.918705  0.034887  1
  Cl  Cl49  1  0.044208  0.918705  0.465113  1
  Cl  Cl50  1  0.044208  0.581295  0.534887  1
  Cl  Cl51  1  0.044208  0.581295  0.965113  1
  Cl  Cl52  1  0.066476  0.140427  0.110553  1
  Cl  Cl53  1  0.066476  0.140427  0.389447  1
  Cl  Cl54  1  0.066476  0.359573  0.610553  1
  Cl  Cl55  1  0.066476  0.359573  0.889447  1
  Cl  Cl56  1  0.069226  0.885319  0.193449  1
  Cl  Cl57  1  0.069226  0.885319  0.306551  1
  Cl  Cl58  1  0.069226  0.614681  0.693449  1
  Cl  Cl59  1  0.069226  0.614681  0.806551  1
  Cl  Cl60  1  0.930774  0.114681  0.806551  1
  Cl  Cl61  1  0.930774  0.385319  0.193449  1
  Cl  Cl62  1  0.930774  0.385319  0.306551  1
  Cl  Cl63  1  0.930774  0.114681  0.693449  1
  Cl  Cl64  1  0.933524  0.640427  0.110553  1
  Cl  Cl65  1  0.933524  0.640427  0.389447  1
  Cl  Cl66  1  0.933524  0.859573  0.610553  1
  Cl  Cl67  1  0.933524  0.859573  0.889447  1
  Cl  Cl68  1  0.955792  0.418705  0.034887  1
  Cl  Cl69  1  0.955792  0.418705  0.465113  1
  Cl  Cl70  1  0.955792  0.081295  0.534887  1
  Cl  Cl71  1  0.955792  0.081295  0.965113  1
