# generated using pymatgen
data_CuH8(ClO5)2
_symmetry_space_group_name_H-M   'P 1'
_cell_length_a   12.94879938
_cell_length_b   9.65810210
_cell_length_c   7.32512813
_cell_angle_alpha   89.99989049
_cell_angle_beta   89.99942130
_cell_angle_gamma   89.99993090
_symmetry_Int_Tables_number   1
_chemical_formula_structural   CuH8(ClO5)2
_chemical_formula_sum   'Cu4 H32 Cl8 O40'
_cell_volume   916.08657802
_cell_formula_units_Z   4
loop_
 _symmetry_equiv_pos_site_id
 _symmetry_equiv_pos_as_xyz
  1  'x, y, z'
loop_
 _atom_site_type_symbol
 _atom_site_label
 _atom_site_symmetry_multiplicity
 _atom_site_fract_x
 _atom_site_fract_y
 _atom_site_fract_z
 _atom_site_occupancy
  Cu  Cu0  1  0.499990  0.999995  0.499978  1
  Cu  Cu1  1  0.999999  0.499999  0.499991  1
  Cu  Cu2  1  0.499923  0.500051  0.000090  1
  Cu  Cu3  1  0.000126  0.000039  0.000110  1
  H  H4  1  0.621865  0.966852  0.224246  1
  H  H5  1  0.121862  0.533147  0.775744  1
  H  H6  1  0.378132  0.466852  0.275753  1
  H  H7  1  0.878138  0.033149  0.724254  1
  H  H8  1  0.378136  0.033146  0.775740  1
  H  H9  1  0.878137  0.466852  0.224251  1
  H  H10  1  0.621861  0.533147  0.724255  1
  H  H11  1  0.121866  0.966852  0.275755  1
  H  H12  1  0.653468  0.852478  0.376309  1
  H  H13  1  0.153469  0.647516  0.623681  1
  H  H14  1  0.346530  0.352474  0.123679  1
  H  H15  1  0.846530  0.147511  0.876312  1
  H  H16  1  0.346530  0.147519  0.623683  1
  H  H17  1  0.846528  0.352480  0.376312  1
  H  H18  1  0.653468  0.647519  0.876310  1
  H  H19  1  0.153473  0.852477  0.123676  1
  H  H20  1  0.355344  0.814513  0.488176  1
  H  H21  1  0.855342  0.685487  0.511826  1
  H  H22  1  0.644654  0.314524  0.011821  1
  H  H23  1  0.144661  0.185491  0.988157  1
  H  H24  1  0.644654  0.185483  0.511817  1
  H  H25  1  0.144657  0.314510  0.488167  1
  H  H26  1  0.355340  0.685483  0.988165  1
  H  H27  1  0.855342  0.814520  0.011825  1
  H  H28  1  0.462087  0.744379  0.423018  1
  H  H29  1  0.962087  0.755620  0.576965  1
  H  H30  1  0.537914  0.244380  0.076962  1
  H  H31  1  0.037906  0.255619  0.923039  1
  H  H32  1  0.537913  0.255617  0.576975  1
  H  H33  1  0.037910  0.244376  0.423028  1
  H  H34  1  0.462090  0.755622  0.923028  1
  H  H35  1  0.962083  0.744382  0.076954  1
  Cl  Cl36  1  0.836982  0.069429  0.349630  1
  Cl  Cl37  1  0.336994  0.430555  0.650367  1
  Cl  Cl38  1  0.163008  0.569432  0.150370  1
  Cl  Cl39  1  0.663014  0.930562  0.849632  1
  Cl  Cl40  1  0.163010  0.930559  0.650367  1
  Cl  Cl41  1  0.663012  0.569435  0.349631  1
  Cl  Cl42  1  0.836982  0.430560  0.849629  1
  Cl  Cl43  1  0.336994  0.069434  0.150368  1
  O  O44  1  0.623224  0.946516  0.358290  1
  O  O45  1  0.123227  0.553482  0.641702  1
  O  O46  1  0.376755  0.446512  0.141729  1
  O  O47  1  0.876801  0.053473  0.858328  1
  O  O48  1  0.376771  0.053482  0.641703  1
  O  O49  1  0.876774  0.446516  0.358293  1
  O  O50  1  0.623206  0.553478  0.858315  1
  O  O51  1  0.123255  0.946507  0.141736  1
  O  O52  1  0.421813  0.831320  0.424645  1
  O  O53  1  0.921819  0.668676  0.575348  1
  O  O54  1  0.578173  0.331339  0.075351  1
  O  O55  1  0.078196  0.168687  0.924644  1
  O  O56  1  0.578179  0.168669  0.575340  1
  O  O57  1  0.078181  0.331318  0.424645  1
  O  O58  1  0.421801  0.668675  0.924649  1
  O  O59  1  0.921837  0.831328  0.075359  1
  O  O60  1  0.937816  0.123709  0.273840  1
  O  O61  1  0.437813  0.376292  0.726152  1
  O  O62  1  0.062189  0.623704  0.226154  1
  O  O63  1  0.562181  0.876294  0.773836  1
  O  O64  1  0.062190  0.876294  0.726152  1
  O  O65  1  0.562178  0.623710  0.273839  1
  O  O66  1  0.937815  0.376293  0.773837  1
  O  O67  1  0.437810  0.123701  0.226155  1
  O  O68  1  0.782073  0.196258  0.427494  1
  O  O69  1  0.282079  0.303735  0.572493  1
  O  O70  1  0.217926  0.696265  0.072494  1
  O  O71  1  0.717918  0.803741  0.927494  1
  O  O72  1  0.217927  0.803740  0.572497  1
  O  O73  1  0.717918  0.696262  0.427498  1
  O  O74  1  0.782075  0.303743  0.927495  1
  O  O75  1  0.282078  0.196263  0.072496  1
  O  O76  1  0.860366  0.974765  0.506132  1
  O  O77  1  0.360371  0.525233  0.493852  1
  O  O78  1  0.139633  0.474763  0.993856  1
  O  O79  1  0.639625  0.025233  0.006141  1
  O  O80  1  0.139632  0.025234  0.493848  1
  O  O81  1  0.639628  0.474766  0.506132  1
  O  O82  1  0.860367  0.525235  0.006138  1
  O  O83  1  0.360371  0.974764  0.993853  1
