# generated using pymatgen
data_Rb17Fe5O16
_symmetry_space_group_name_H-M   'P 1'
_cell_length_a   7.11410629
_cell_length_b   19.16534889
_cell_length_c   7.12597981
_cell_angle_alpha   95.25117796
_cell_angle_beta   60.45416554
_cell_angle_gamma   100.69600737
_symmetry_Int_Tables_number   1
_chemical_formula_structural   Rb17Fe5O16
_chemical_formula_sum   'Rb17 Fe5 O16'
_cell_volume   830.55774383
_cell_formula_units_Z   1
loop_
 _symmetry_equiv_pos_site_id
 _symmetry_equiv_pos_as_xyz
  1  'x, y, z'
loop_
 _atom_site_type_symbol
 _atom_site_label
 _atom_site_symmetry_multiplicity
 _atom_site_fract_x
 _atom_site_fract_y
 _atom_site_fract_z
 _atom_site_occupancy
  Rb  Rb0  1  0.403726  0.722575  0.053730  1
  Rb  Rb1  1  0.490577  0.907458  0.073210  1
  Rb  Rb2  1  0.316316  0.533109  0.071080  1
  Rb  Rb3  1  0.082375  0.170596  0.192850  1
  Rb  Rb4  1  0.168743  0.337504  0.468325  1
  Rb  Rb5  1  0.318157  0.726580  0.596439  1
  Rb  Rb6  1  0.222871  0.548715  0.615088  1
  Rb  Rb7  1  0.410554  0.908664  0.613648  1
  Rb  Rb8  1  0.681150  0.277425  0.053730  1
  Rb  Rb9  1  0.583119  0.092542  0.073210  1
  Rb  Rb10  1  0.783207  0.466891  0.071080  1
  Rb  Rb11  1  0.911779  0.829404  0.192850  1
  Rb  Rb12  1  0.831239  0.662496  0.468325  1
  Rb  Rb13  1  0.591578  0.273420  0.596439  1
  Rb  Rb14  1  0.674156  0.451285  0.615088  1
  Rb  Rb15  1  0.501891  0.091336  0.613648  1
  Rb  Rb16  1  0.997427  0.000000  0.485301  1
  Fe  Fe17  1  0.996231  0.000000  0.989028  1
  Fe  Fe18  1  0.086043  0.178503  0.689956  1
  Fe  Fe19  1  0.177373  0.356770  0.982806  1
  Fe  Fe20  1  0.907541  0.821497  0.689956  1
  Fe  Fe21  1  0.820603  0.643230  0.982806  1
  O  O22  1  0.072602  0.629835  0.000509  1
  O  O23  1  0.160249  0.816104  0.416714  1
  O  O24  1  0.442767  0.370165  0.000509  1
  O  O25  1  0.253410  0.000000  0.006920  1
  O  O26  1  0.557334  0.631247  0.255590  1
  O  O27  1  0.213575  0.425972  0.784103  1
  O  O28  1  0.040001  0.086694  0.830495  1
  O  O29  1  0.129006  0.258501  0.866615  1
  O  O30  1  0.344144  0.183896  0.416714  1
  O  O31  1  0.648425  0.815689  0.670782  1
  O  O32  1  0.926086  0.368753  0.255590  1
  O  O33  1  0.739597  0.000000  0.261368  1
  O  O34  1  0.787603  0.574028  0.784103  1
  O  O35  1  0.953306  0.913306  0.830495  1
  O  O36  1  0.870506  0.741499  0.866615  1
  O  O37  1  0.832734  0.184311  0.670782  1
