# generated using pymatgen
data_Li5Fe8(BO3)8
_symmetry_space_group_name_H-M   'P 1'
_cell_length_a   5.25470741
_cell_length_b   9.11514695
_cell_length_c   10.13290065
_cell_angle_alpha   90.93696066
_cell_angle_beta   91.40003297
_cell_angle_gamma   89.44876658
_symmetry_Int_Tables_number   1
_chemical_formula_structural   Li5Fe8(BO3)8
_chemical_formula_sum   'Li5 Fe8 B8 O24'
_cell_volume   485.10949731
_cell_formula_units_Z   1
loop_
 _symmetry_equiv_pos_site_id
 _symmetry_equiv_pos_as_xyz
  1  'x, y, z'
loop_
 _atom_site_type_symbol
 _atom_site_label
 _atom_site_symmetry_multiplicity
 _atom_site_fract_x
 _atom_site_fract_y
 _atom_site_fract_z
 _atom_site_occupancy
  Li  Li0  1  0.848652  0.825816  0.665374  1
  Li  Li1  1  0.813998  0.837484  0.158299  1
  Li  Li2  1  0.675520  0.669991  0.404469  1
  Li  Li3  1  0.317026  0.337734  0.145358  1
  Li  Li4  1  0.183852  0.166482  0.417678  1
  Fe  Fe5  1  0.842366  0.165263  0.636587  1
  Fe  Fe6  1  0.813790  0.505514  0.122565  1
  Fe  Fe7  1  0.665061  0.006846  0.878780  1
  Fe  Fe8  1  0.675727  0.335942  0.379097  1
  Fe  Fe9  1  0.347713  0.651482  0.635364  1
  Fe  Fe10  1  0.314304  0.002861  0.125388  1
  Fe  Fe11  1  0.166748  0.837894  0.383476  1
  Fe  Fe12  1  0.168753  0.500773  0.877577  1
  B  B13  1  0.844660  0.503166  0.621109  1
  B  B14  1  0.830092  0.169679  0.132981  1
  B  B15  1  0.661081  0.005427  0.374974  1
  B  B16  1  0.666779  0.333628  0.882097  1
  B  B17  1  0.330755  0.993159  0.628012  1
  B  B18  1  0.324317  0.670765  0.130036  1
  B  B19  1  0.174871  0.498598  0.375297  1
  B  B20  1  0.173270  0.834333  0.876148  1
  O  O21  1  0.911089  0.501043  0.345666  1
  O  O22  1  0.914949  0.855221  0.858358  1
  O  O23  1  0.777938  0.201785  0.841213  1
  O  O24  1  0.790989  0.134363  0.412294  1
  O  O25  1  0.791181  0.873430  0.366525  1
  O  O26  1  0.825504  0.447904  0.922173  1
  O  O27  1  0.722575  0.637424  0.604951  1
  O  O28  1  0.704792  0.042768  0.084959  1
  O  O29  1  0.731775  0.374654  0.572466  1
  O  O30  1  0.682132  0.290710  0.177371  1
  O  O31  1  0.585494  0.676438  0.140658  1
  O  O32  1  0.587491  0.987408  0.674309  1
  O  O33  1  0.403746  0.012297  0.344063  1
  O  O34  1  0.409341  0.347751  0.888652  1
  O  O35  1  0.284164  0.699317  0.846650  1
  O  O36  1  0.297953  0.625150  0.415174  1
  O  O37  1  0.308261  0.367142  0.360295  1
  O  O38  1  0.325681  0.948789  0.921721  1
  O  O39  1  0.203141  0.539941  0.089075  1
  O  O40  1  0.208880  0.124338  0.607904  1
  O  O41  1  0.207078  0.861075  0.596999  1
  O  O42  1  0.177501  0.793432  0.164291  1
  O  O43  1  0.087347  0.176942  0.139256  1
  O  O44  1  0.085021  0.495010  0.680269  1
