# generated using pymatgen
data_Li4Ti2Fe5O12
_symmetry_space_group_name_H-M   'P 1'
_cell_length_a   5.11223038
_cell_length_b   9.21396566
_cell_length_c   9.96950523
_cell_angle_alpha   89.99999718
_cell_angle_beta   101.45349028
_cell_angle_gamma   90.00000169
_symmetry_Int_Tables_number   1
_chemical_formula_structural   Li4Ti2Fe5O12
_chemical_formula_sum   'Li8 Ti4 Fe10 O24'
_cell_volume   460.25116231
_cell_formula_units_Z   2
loop_
 _symmetry_equiv_pos_site_id
 _symmetry_equiv_pos_as_xyz
  1  'x, y, z'
loop_
 _atom_site_type_symbol
 _atom_site_label
 _atom_site_symmetry_multiplicity
 _atom_site_fract_x
 _atom_site_fract_y
 _atom_site_fract_z
 _atom_site_occupancy
  Li  Li0  1  0.246076  0.078668  0.996056  1
  Li  Li1  1  0.756871  0.080003  0.508476  1
  Li  Li2  1  0.493843  0.419067  0.750392  1
  Li  Li3  1  0.747781  0.413793  0.504529  1
  Li  Li4  1  0.253924  0.578668  0.503944  1
  Li  Li5  1  0.743129  0.580003  0.991524  1
  Li  Li6  1  0.006157  0.919067  0.749608  1
  Li  Li7  1  0.752219  0.913793  0.995471  1
  Ti  Ti8  1  0.008922  0.254466  0.763124  1
  Ti  Ti9  1  0.492097  0.250894  0.237312  1
  Ti  Ti10  1  0.007903  0.750894  0.262688  1
  Ti  Ti11  1  0.491078  0.754466  0.736876  1
  Fe  Fe12  1  0.000254  0.078004  0.257563  1
  Fe  Fe13  1  0.498028  0.077861  0.744638  1
  Fe  Fe14  1  0.253259  0.247747  0.500506  1
  Fe  Fe15  1  0.016661  0.422848  0.246050  1
  Fe  Fe16  1  0.746421  0.258611  0.997435  1
  Fe  Fe17  1  0.001972  0.577861  0.755362  1
  Fe  Fe18  1  0.499746  0.578004  0.242437  1
  Fe  Fe19  1  0.246741  0.747747  0.999494  1
  Fe  Fe20  1  0.753579  0.758611  0.502565  1
  Fe  Fe21  1  0.483339  0.922848  0.253950  1
  O  O22  1  0.126681  0.109040  0.630908  1
  O  O23  1  0.401429  0.104369  0.371091  1
  O  O24  1  0.366259  0.233806  0.865172  1
  O  O25  1  0.609962  0.098489  0.132216  1
  O  O26  1  0.131099  0.238676  0.134528  1
  O  O27  1  0.872007  0.097312  0.863425  1
  O  O28  1  0.113583  0.407610  0.635490  1
  O  O29  1  0.622279  0.239404  0.631846  1
  O  O30  1  0.886559  0.256954  0.373039  1
  O  O31  1  0.389524  0.399002  0.379048  1
  O  O32  1  0.618401  0.407764  0.137774  1
  O  O33  1  0.874900  0.411025  0.858115  1
  O  O34  1  0.098571  0.604369  0.128909  1
  O  O35  1  0.373319  0.609040  0.869092  1
  O  O36  1  0.133741  0.733806  0.634828  1
  O  O37  1  0.627993  0.597312  0.636575  1
  O  O38  1  0.368901  0.738676  0.365472  1
  O  O39  1  0.890038  0.598489  0.367784  1
  O  O40  1  0.110476  0.899002  0.120952  1
  O  O41  1  0.877721  0.739404  0.868154  1
  O  O42  1  0.613441  0.756954  0.126961  1
  O  O43  1  0.386417  0.907610  0.864510  1
  O  O44  1  0.625100  0.911025  0.641885  1
  O  O45  1  0.881599  0.907764  0.362226  1
