# generated using pymatgen
data_Li3CuSiCO7
_symmetry_space_group_name_H-M   'P 1'
_cell_length_a   8.41111304
_cell_length_b   6.36880138
_cell_length_c   4.95133569
_cell_angle_alpha   90.00000000
_cell_angle_beta   86.51432535
_cell_angle_gamma   90.00000000
_symmetry_Int_Tables_number   1
_chemical_formula_structural   Li3CuSiCO7
_chemical_formula_sum   'Li6 Cu2 Si2 C2 O14'
_cell_volume   264.74597791
_cell_formula_units_Z   2
loop_
 _symmetry_equiv_pos_site_id
 _symmetry_equiv_pos_as_xyz
  1  'x, y, z'
loop_
 _atom_site_type_symbol
 _atom_site_label
 _atom_site_symmetry_multiplicity
 _atom_site_fract_x
 _atom_site_fract_y
 _atom_site_fract_z
 _atom_site_occupancy
  Li  Li0  1  0.106410  0.250000  0.758993  1
  Li  Li1  1  0.279392  0.020239  0.229265  1
  Li  Li2  1  0.279392  0.479761  0.229265  1
  Li  Li3  1  0.720608  0.520239  0.770735  1
  Li  Li4  1  0.720608  0.979761  0.770735  1
  Li  Li5  1  0.893590  0.750000  0.241007  1
  Cu  Cu6  1  0.332927  0.750000  0.798752  1
  Cu  Cu7  1  0.667073  0.250000  0.201248  1
  Si  Si8  1  0.420840  0.250000  0.706984  1
  Si  Si9  1  0.579160  0.750000  0.293016  1
  C  C10  1  0.035830  0.750000  0.720830  1
  C  C11  1  0.964170  0.250000  0.279170  1
  O  O12  1  0.112152  0.250000  0.334952  1
  O  O13  1  0.078993  0.750000  0.966886  1
  O  O14  1  0.146202  0.750000  0.526446  1
  O  O15  1  0.303100  0.055777  0.812057  1
  O  O16  1  0.303100  0.444223  0.812057  1
  O  O17  1  0.445363  0.250000  0.372184  1
  O  O18  1  0.401907  0.750000  0.176693  1
  O  O19  1  0.598093  0.250000  0.823307  1
  O  O20  1  0.554637  0.750000  0.627816  1
  O  O21  1  0.696900  0.555777  0.187943  1
  O  O22  1  0.696900  0.944223  0.187943  1
  O  O23  1  0.853798  0.250000  0.473554  1
  O  O24  1  0.921007  0.250000  0.033114  1
  O  O25  1  0.887848  0.750000  0.665048  1
