# generated using pymatgen
data_Li2Mn2Si4O11
_symmetry_space_group_name_H-M   'P 1'
_cell_length_a   9.76717346
_cell_length_b   7.69949493
_cell_length_c   7.07635055
_cell_angle_alpha   111.23231449
_cell_angle_beta   101.82890263
_cell_angle_gamma   97.82288058
_symmetry_Int_Tables_number   1
_chemical_formula_structural   Li2Mn2Si4O11
_chemical_formula_sum   'Li4 Mn4 Si8 O22'
_cell_volume   472.42043079
_cell_formula_units_Z   2
loop_
 _symmetry_equiv_pos_site_id
 _symmetry_equiv_pos_as_xyz
  1  'x, y, z'
loop_
 _atom_site_type_symbol
 _atom_site_label
 _atom_site_symmetry_multiplicity
 _atom_site_fract_x
 _atom_site_fract_y
 _atom_site_fract_z
 _atom_site_occupancy
  Li  Li0  1  0.440996  0.590705  0.906089  1
  Li  Li1  1  0.445940  0.610247  0.384920  1
  Li  Li2  1  0.554060  0.389753  0.615080  1
  Li  Li3  1  0.559004  0.409295  0.093911  1
  Mn  Mn4  1  0.240688  0.787280  0.667978  1
  Mn  Mn5  1  0.213679  0.658628  0.109260  1
  Mn  Mn6  1  0.786321  0.341372  0.890740  1
  Mn  Mn7  1  0.759312  0.212720  0.332022  1
  Si  Si8  1  0.052636  0.370665  0.248309  1
  Si  Si9  1  0.239270  0.230804  0.954076  1
  Si  Si10  1  0.237066  0.220004  0.523557  1
  Si  Si11  1  0.599149  0.970772  0.783410  1
  Si  Si12  1  0.400851  0.029228  0.216590  1
  Si  Si13  1  0.762934  0.779996  0.476443  1
  Si  Si14  1  0.760730  0.769196  0.045924  1
  Si  Si15  1  0.947364  0.629335  0.751691  1
  O  O16  1  0.120568  0.648231  0.811142  1
  O  O17  1  0.086321  0.255077  0.401295  1
  O  O18  1  0.148717  0.591509  0.343044  1
  O  O19  1  0.088547  0.253246  0.021454  1
  O  O20  1  0.194852  0.132639  0.693778  1
  O  O21  1  0.281785  0.035318  0.357443  1
  O  O22  1  0.450353  0.812641  0.654561  1
  O  O23  1  0.362620  0.408371  0.619647  1
  O  O24  1  0.411010  0.808775  0.124271  1
  O  O25  1  0.309200  0.064993  0.008296  1
  O  O26  1  0.349868  0.437914  0.065686  1
  O  O27  1  0.650132  0.562086  0.934314  1
  O  O28  1  0.690800  0.935007  0.991704  1
  O  O29  1  0.588990  0.191225  0.875729  1
  O  O30  1  0.637380  0.591629  0.380353  1
  O  O31  1  0.549647  0.187359  0.345439  1
  O  O32  1  0.718215  0.964682  0.642557  1
  O  O33  1  0.805148  0.867361  0.306222  1
  O  O34  1  0.911453  0.746754  0.978546  1
  O  O35  1  0.851283  0.408491  0.656956  1
  O  O36  1  0.913679  0.744923  0.598705  1
  O  O37  1  0.879432  0.351769  0.188858  1
