# generated using pymatgen
data_Cu3OF5
_symmetry_space_group_name_H-M   'P 1'
_cell_length_a   7.62943719
_cell_length_b   4.61220655
_cell_length_c   5.88329365
_cell_angle_alpha   90.00000000
_cell_angle_beta   88.85585679
_cell_angle_gamma   90.00000000
_symmetry_Int_Tables_number   1
_chemical_formula_structural   Cu3OF5
_chemical_formula_sum   'Cu6 O2 F10'
_cell_volume   206.98323947
_cell_formula_units_Z   2
loop_
 _symmetry_equiv_pos_site_id
 _symmetry_equiv_pos_as_xyz
  1  'x, y, z'
loop_
 _atom_site_type_symbol
 _atom_site_label
 _atom_site_symmetry_multiplicity
 _atom_site_fract_x
 _atom_site_fract_y
 _atom_site_fract_z
 _atom_site_occupancy
  Cu  Cu0  1  0.991758  0.027037  0.974142  1
  Cu  Cu1  1  0.000482  0.476353  0.511462  1
  Cu  Cu2  1  0.332852  0.976353  0.321871  1
  Cu  Cu3  1  0.656114  0.512678  0.171660  1
  Cu  Cu4  1  0.341575  0.527037  0.859192  1
  Cu  Cu5  1  0.677219  0.012678  0.661674  1
  O  O6  1  0.440857  0.688135  0.139535  1
  O  O7  1  0.892476  0.188135  0.693798  1
  F  F8  1  0.223597  0.202268  0.023846  1
  F  F9  1  0.102126  0.784262  0.307694  1
  F  F10  1  0.231207  0.284262  0.525639  1
  F  F11  1  0.109736  0.702268  0.809487  1
  F  F12  1  0.554700  0.203347  0.344831  1
  F  F13  1  0.451846  0.807671  0.645089  1
  F  F14  1  0.881488  0.307671  0.188244  1
  F  F15  1  0.778633  0.703347  0.488503  1
  F  F16  1  0.562449  0.298248  0.842407  1
  F  F17  1  0.770885  0.798248  0.990927  1
