# generated using pymatgen
data_Li2Mn3(BO3)3
_symmetry_space_group_name_H-M   'P 1'
_cell_length_a   7.86957475
_cell_length_b   5.29382169
_cell_length_c   9.59069128
_cell_angle_alpha   75.78504982
_cell_angle_beta   74.97210709
_cell_angle_gamma   87.38293633
_symmetry_Int_Tables_number   1
_chemical_formula_structural   Li2Mn3(BO3)3
_chemical_formula_sum   'Li4 Mn6 B6 O18'
_cell_volume   374.00018935
_cell_formula_units_Z   2
loop_
 _symmetry_equiv_pos_site_id
 _symmetry_equiv_pos_as_xyz
  1  'x, y, z'
loop_
 _atom_site_type_symbol
 _atom_site_label
 _atom_site_symmetry_multiplicity
 _atom_site_fract_x
 _atom_site_fract_y
 _atom_site_fract_z
 _atom_site_occupancy
  Li  Li0  1  0.414649  0.214206  0.758551  1
  Li  Li1  1  0.559741  0.803498  0.249756  1
  Li  Li2  1  0.918684  0.119127  0.574783  1
  Li  Li3  1  0.773593  0.529836  0.083577  1
  Mn  Mn4  1  0.366858  0.772014  0.619320  1
  Mn  Mn5  1  0.044308  0.441929  0.288460  1
  Mn  Mn6  1  0.289025  0.891405  0.044873  1
  Mn  Mn7  1  0.695474  0.109665  0.945097  1
  Mn  Mn8  1  0.966475  0.561319  0.714013  1
  Mn  Mn9  1  0.637859  0.223669  0.388236  1
  B  B10  1  0.082232  0.018821  0.817869  1
  B  B11  1  0.584592  0.653722  0.838753  1
  B  B12  1  0.251101  0.314513  0.515465  1
  B  B13  1  0.748742  0.679611  0.494580  1
  B  B14  1  0.418929  0.344187  0.163885  1
  B  B15  1  0.914404  0.989146  0.169448  1
  O  O16  1  0.127227  0.790135  0.773663  1
  O  O17  1  0.178331  0.121869  0.891221  1
  O  O18  1  0.057273  0.843535  0.203847  1
  O  O19  1  0.526791  0.891006  0.876728  1
  O  O20  1  0.206106  0.543198  0.559671  1
  O  O21  1  0.500194  0.539302  0.763063  1
  O  O22  1  0.155002  0.211464  0.442112  1
  O  O23  1  0.729416  0.531910  0.887971  1
  O  O24  1  0.394892  0.179663  0.559344  1
  O  O25  1  0.603917  0.801424  0.445362  1
  O  O26  1  0.276060  0.489799  0.129486  1
  O  O27  1  0.833139  0.794031  0.570270  1
  O  O28  1  0.530318  0.453804  0.223645  1
  O  O29  1  0.806543  0.442327  0.456605  1
  O  O30  1  0.452558  0.103980  0.128260  1
  O  O31  1  0.938441  0.153671  0.773989  1
  O  O32  1  0.803016  0.879530  0.109688  1
  O  O33  1  0.880775  0.229354  0.205074  1
