# generated using pymatgen
data_B5Mo2
_symmetry_space_group_name_H-M   'P 1'
_cell_length_a   7.39253492
_cell_length_b   7.39253492
_cell_length_c   7.39253492
_cell_angle_alpha   24.10061147
_cell_angle_beta   24.10061151
_cell_angle_gamma   24.10061143
_symmetry_Int_Tables_number   1
_chemical_formula_structural   B5Mo2
_chemical_formula_sum   'B5 Mo2'
_cell_volume   59.19813493
_cell_formula_units_Z   1
loop_
 _symmetry_equiv_pos_site_id
 _symmetry_equiv_pos_as_xyz
  1  'x, y, z'
loop_
 _atom_site_type_symbol
 _atom_site_label
 _atom_site_symmetry_multiplicity
 _atom_site_fract_x
 _atom_site_fract_y
 _atom_site_fract_z
 _atom_site_occupancy
  B  B0  1  0.500000  0.500000  0.500000  1
  B  B1  1  0.815555  0.815555  0.815555  1
  B  B2  1  0.331391  0.331391  0.331391  1
  B  B3  1  0.668609  0.668609  0.668609  1
  B  B4  1  0.184445  0.184445  0.184445  1
  Mo  Mo5  1  0.924810  0.924810  0.924810  1
  Mo  Mo6  1  0.075190  0.075190  0.075190  1
