# generated using pymatgen
data_ZnB8(H2N)4
_symmetry_space_group_name_H-M   'P 1'
_cell_length_a   7.48327204
_cell_length_b   7.48327204
_cell_length_c   11.03328730
_cell_angle_alpha   90.00000000
_cell_angle_beta   90.00000000
_cell_angle_gamma   90.00000000
_symmetry_Int_Tables_number   1
_chemical_formula_structural   ZnB8(H2N)4
_chemical_formula_sum   'Zn2 B16 H16 N8'
_cell_volume   617.85703218
_cell_formula_units_Z   2
loop_
 _symmetry_equiv_pos_site_id
 _symmetry_equiv_pos_as_xyz
  1  'x, y, z'
loop_
 _atom_site_type_symbol
 _atom_site_label
 _atom_site_symmetry_multiplicity
 _atom_site_fract_x
 _atom_site_fract_y
 _atom_site_fract_z
 _atom_site_occupancy
  Zn  Zn0  1  0.250000  0.750000  0.750000  1
  Zn  Zn1  1  0.750000  0.250000  0.250000  1
  B  B2  1  0.086367  0.750000  0.286890  1
  B  B3  1  0.413633  0.750000  0.286890  1
  B  B4  1  0.750000  0.086367  0.786890  1
  B  B5  1  0.750000  0.413633  0.786890  1
  B  B6  1  0.913633  0.250000  0.713110  1
  B  B7  1  0.586367  0.250000  0.713110  1
  B  B8  1  0.250000  0.913633  0.213110  1
  B  B9  1  0.250000  0.586367  0.213110  1
  B  B10  1  0.133090  0.750000  0.131601  1
  B  B11  1  0.366910  0.750000  0.131601  1
  B  B12  1  0.750000  0.133090  0.631601  1
  B  B13  1  0.750000  0.366910  0.631601  1
  B  B14  1  0.866910  0.250000  0.868399  1
  B  B15  1  0.633090  0.250000  0.868399  1
  B  B16  1  0.250000  0.866910  0.368399  1
  B  B17  1  0.250000  0.633090  0.368399  1
  H  H18  1  0.926121  0.750000  0.292302  1
  H  H19  1  0.573879  0.750000  0.292302  1
  H  H20  1  0.750000  0.926121  0.792302  1
  H  H21  1  0.750000  0.573879  0.792302  1
  H  H22  1  0.073879  0.250000  0.707698  1
  H  H23  1  0.426121  0.250000  0.707698  1
  H  H24  1  0.250000  0.073879  0.207698  1
  H  H25  1  0.250000  0.426121  0.207698  1
  H  H26  1  0.034904  0.750000  0.046666  1
  H  H27  1  0.465096  0.750000  0.046666  1
  H  H28  1  0.750000  0.034904  0.546666  1
  H  H29  1  0.750000  0.465096  0.546666  1
  H  H30  1  0.965096  0.250000  0.953334  1
  H  H31  1  0.534904  0.250000  0.953334  1
  H  H32  1  0.250000  0.965096  0.453334  1
  H  H33  1  0.250000  0.534904  0.453334  1
  N  N34  1  0.470042  0.750000  0.643878  1
  N  N35  1  0.029958  0.750000  0.643878  1
  N  N36  1  0.750000  0.470042  0.143878  1
  N  N37  1  0.750000  0.029958  0.143878  1
  N  N38  1  0.529958  0.250000  0.356122  1
  N  N39  1  0.970042  0.250000  0.356122  1
  N  N40  1  0.250000  0.529958  0.856122  1
  N  N41  1  0.250000  0.970042  0.856122  1
