# generated using pymatgen
data_Li7(Cu6S5)2
_symmetry_space_group_name_H-M   'P 1'
_cell_length_a   14.98176447
_cell_length_b   3.75458849
_cell_length_c   15.44943994
_cell_angle_alpha   90.00000000
_cell_angle_beta   92.45772851
_cell_angle_gamma   90.00000000
_symmetry_Int_Tables_number   1
_chemical_formula_structural   Li7(Cu6S5)2
_chemical_formula_sum   'Li14 Cu24 S20'
_cell_volume   868.23716535
_cell_formula_units_Z   2
loop_
 _symmetry_equiv_pos_site_id
 _symmetry_equiv_pos_as_xyz
  1  'x, y, z'
loop_
 _atom_site_type_symbol
 _atom_site_label
 _atom_site_symmetry_multiplicity
 _atom_site_fract_x
 _atom_site_fract_y
 _atom_site_fract_z
 _atom_site_occupancy
  Li  Li0  1  0.000000  0.500000  0.000000  1
  Li  Li1  1  0.124355  0.000000  0.705439  1
  Li  Li2  1  0.199787  0.000000  0.920971  1
  Li  Li3  1  0.201620  0.500000  0.384746  1
  Li  Li4  1  0.274767  0.500000  0.598852  1
  Li  Li5  1  0.315115  0.000000  0.102894  1
  Li  Li6  1  0.397013  0.000000  0.303683  1
  Li  Li7  1  0.500000  0.500000  0.000000  1
  Li  Li8  1  0.602987  0.000000  0.696317  1
  Li  Li9  1  0.684885  0.000000  0.897106  1
  Li  Li10  1  0.725233  0.500000  0.401148  1
  Li  Li11  1  0.798380  0.500000  0.615254  1
  Li  Li12  1  0.800213  0.000000  0.079029  1
  Li  Li13  1  0.875645  0.000000  0.294561  1
  Cu  Cu14  1  0.995425  0.500000  0.194614  1
  Cu  Cu15  1  0.052157  0.000000  0.434526  1
  Cu  Cu16  1  0.083847  0.500000  0.553608  1
  Cu  Cu17  1  0.086520  0.000000  0.269981  1
  Cu  Cu18  1  0.113230  0.000000  0.094645  1
  Cu  Cu19  1  0.196367  0.500000  0.191435  1
  Cu  Cu20  1  0.314028  0.000000  0.753048  1
  Cu  Cu21  1  0.341994  0.500000  0.870401  1
  Cu  Cu22  1  0.397799  0.000000  0.499100  1
  Cu  Cu23  1  0.448968  0.500000  0.738427  1
  Cu  Cu24  1  0.484625  0.000000  0.856477  1
  Cu  Cu25  1  0.489547  0.500000  0.580994  1
  Cu  Cu26  1  0.510453  0.500000  0.419006  1
  Cu  Cu27  1  0.515375  0.000000  0.143523  1
  Cu  Cu28  1  0.551032  0.500000  0.261573  1
  Cu  Cu29  1  0.602201  0.000000  0.500900  1
  Cu  Cu30  1  0.658006  0.500000  0.129599  1
  Cu  Cu31  1  0.685972  0.000000  0.246952  1
  Cu  Cu32  1  0.803633  0.500000  0.808565  1
  Cu  Cu33  1  0.886770  0.000000  0.905355  1
  Cu  Cu34  1  0.913480  0.000000  0.730019  1
  Cu  Cu35  1  0.916153  0.500000  0.446392  1
  Cu  Cu36  1  0.947843  0.000000  0.565474  1
  Cu  Cu37  1  0.004575  0.500000  0.805386  1
  S  S38  1  0.035823  0.000000  0.877303  1
  S  S39  1  0.021360  0.500000  0.343629  1
  S  S40  1  0.169627  0.000000  0.533631  1
  S  S41  1  0.182039  0.500000  0.043310  1
  S  S42  1  0.226758  0.500000  0.763591  1
  S  S43  1  0.236078  0.000000  0.266846  1
  S  S44  1  0.372326  0.000000  0.950527  1
  S  S45  1  0.361265  0.500000  0.427270  1
  S  S46  1  0.418513  0.000000  0.647486  1
  S  S47  1  0.430547  0.500000  0.167915  1
  S  S48  1  0.569453  0.500000  0.832085  1
  S  S49  1  0.581487  0.000000  0.352513  1
  S  S50  1  0.638735  0.500000  0.572730  1
  S  S51  1  0.627674  0.000000  0.049473  1
  S  S52  1  0.763922  0.000000  0.733155  1
  S  S53  1  0.773242  0.500000  0.236409  1
  S  S54  1  0.817961  0.500000  0.956690  1
  S  S55  1  0.830373  0.000000  0.466369  1
  S  S56  1  0.978640  0.500000  0.656371  1
  S  S57  1  0.964177  0.000000  0.122697  1
