# generated using pymatgen
data_Li5V3P8O29
_symmetry_space_group_name_H-M   'P 1'
_cell_length_a   9.79443329
_cell_length_b   9.78757966
_cell_length_c   13.99000586
_cell_angle_alpha   90.01422023
_cell_angle_beta   90.17950157
_cell_angle_gamma   59.95365574
_symmetry_Int_Tables_number   1
_chemical_formula_structural   Li5V3P8O29
_chemical_formula_sum   'Li10 V6 P16 O58'
_cell_volume   1160.90721519
_cell_formula_units_Z   2
loop_
 _symmetry_equiv_pos_site_id
 _symmetry_equiv_pos_as_xyz
  1  'x, y, z'
loop_
 _atom_site_type_symbol
 _atom_site_label
 _atom_site_symmetry_multiplicity
 _atom_site_fract_x
 _atom_site_fract_y
 _atom_site_fract_z
 _atom_site_occupancy
  Li  Li0  1  0.769534  0.893948  0.560998  1
  Li  Li1  1  0.904934  0.333975  0.561487  1
  Li  Li2  1  0.772043  0.318270  0.058044  1
  Li  Li3  1  0.320153  0.906195  0.060063  1
  Li  Li4  1  0.667011  0.235599  0.441211  1
  Li  Li5  1  0.337162  0.765056  0.561271  1
  Li  Li6  1  0.684817  0.086635  0.937928  1
  Li  Li7  1  0.224464  0.678560  0.940893  1
  Li  Li8  1  0.095955  0.228612  0.938173  1
  Li  Li9  1  0.040055  0.971763  0.501596  1
  V  V10  1  0.566248  0.434095  0.249114  1
  V  V11  1  0.430036  0.569300  0.749357  1
  V  V12  1  0.567841  0.997669  0.748877  1
  V  V13  1  0.431576  0.005827  0.254036  1
  V  V14  1  0.999651  0.568527  0.251022  1
  V  V15  1  0.999888  0.435749  0.749254  1
  P  P16  1  0.915970  0.768984  0.843190  1
  P  P17  1  0.774246  0.913425  0.339209  1
  P  P18  1  0.913371  0.313957  0.343914  1
  P  P19  1  0.666031  0.667856  0.130414  1
  P  P20  1  0.665476  0.666025  0.626363  1
  P  P21  1  0.767926  0.320390  0.840503  1
  P  P22  1  0.683680  0.228399  0.657635  1
  P  P23  1  0.320237  0.913072  0.843808  1
  P  P24  1  0.680704  0.088223  0.154822  1
  P  P25  1  0.315043  0.774643  0.342797  1
  P  P26  1  0.227731  0.681874  0.160767  1
  P  P27  1  0.333194  0.334633  0.371505  1
  P  P28  1  0.335285  0.332166  0.870905  1
  P  P29  1  0.082554  0.692356  0.656199  1
  P  P30  1  0.224369  0.084806  0.659306  1
  P  P31  1  0.086876  0.230483  0.159251  1
  O  O32  1  0.997296  0.795635  0.572212  1
  O  O33  1  0.915022  0.743585  0.336057  1
  O  O34  1  0.750521  0.005077  0.064327  1
  O  O35  1  0.746942  0.914546  0.840317  1
  O  O36  1  0.906529  0.617316  0.822255  1
  O  O37  1  0.815322  0.663178  0.178654  1
  O  O38  1  0.912084  0.470719  0.327828  1
  O  O39  1  0.998899  0.239807  0.069002  1
  O  O40  1  0.916713  0.336486  0.841546  1
  O  O41  1  0.679642  0.809040  0.667178  1
  O  O42  1  0.617449  0.911398  0.327262  1
  O  O43  1  0.809200  0.509959  0.667017  1
  O  O44  1  0.667922  0.666895  0.024203  1
  O  O45  1  0.663731  0.667488  0.519355  1
  O  O46  1  0.670093  0.514381  0.169278  1
  O  O47  1  0.480887  0.899955  0.823027  1
  O  O48  1  0.515959  0.817800  0.171443  1
  O  O49  1  0.742931  0.340103  0.337376  1
  O  O50  1  0.791779  0.207040  0.750511  1
  O  O51  1  0.773467  0.224635  0.568826  1
  O  O52  1  0.753120  0.244801  0.930491  1
  O  O53  1  0.618312  0.480432  0.820531  1
  O  O54  1  0.509087  0.679904  0.666983  1
  O  O55  1  0.662133  0.255194  0.159087  1
  O  O56  1  0.469625  0.619354  0.330714  1
  O  O57  1  0.343709  0.916673  0.330030  1
  O  O58  1  0.793474  0.999154  0.246755  1
  O  O59  1  0.774141  0.999241  0.428749  1
  O  O60  1  0.208375  0.994078  0.578381  1
  O  O61  1  0.662757  0.081372  0.659295  1
  O  O62  1  0.526966  0.380889  0.670084  1
  O  O63  1  0.335516  0.748091  0.842667  1
  O  O64  1  0.487351  0.325537  0.333671  1
  O  O65  1  0.379944  0.521704  0.178644  1
  O  O66  1  0.240217  0.757848  0.070894  1
  O  O67  1  0.227978  0.792998  0.433296  1
  O  O68  1  0.204905  0.793313  0.251307  1
  O  O69  1  0.254729  0.662939  0.660704  1
  O  O70  1  0.488425  0.185880  0.828792  1
  O  O71  1  0.521635  0.097464  0.179305  1
  O  O72  1  0.326687  0.487293  0.830828  1
  O  O73  1  0.337225  0.330894  0.977647  1
  O  O74  1  0.331193  0.326536  0.477132  1
  O  O75  1  0.186246  0.481231  0.324933  1
  O  O76  1  0.381000  0.083239  0.668209  1
  O  O77  1  0.330550  0.186052  0.324350  1
  O  O78  1  0.083425  0.658519  0.165101  1
  O  O79  1  0.000427  0.793672  0.751156  1
  O  O80  1  0.006172  0.758584  0.930243  1
  O  O81  1  0.083184  0.536363  0.666057  1
  O  O82  1  0.187670  0.325754  0.830608  1
  O  O83  1  0.094210  0.382086  0.176975  1
  O  O84  1  0.254768  0.083485  0.159306  1
  O  O85  1  0.247450  0.000605  0.935073  1
  O  O86  1  0.203034  0.008910  0.757704  1
  O  O87  1  0.082487  0.256795  0.661207  1
  O  O88  1  0.989449  0.229964  0.434532  1
  O  O89  1  0.001085  0.206382  0.250867  1
