# generated using pymatgen
data_Li7V7P6(O8F)3
_symmetry_space_group_name_H-M   'P 1'
_cell_length_a   13.65888247
_cell_length_b   13.65883072
_cell_length_c   6.44972116
_cell_angle_alpha   90.00015460
_cell_angle_beta   89.99997710
_cell_angle_gamma   59.99954017
_symmetry_Int_Tables_number   1
_chemical_formula_structural   Li7V7P6(O8F)3
_chemical_formula_sum   'Li14 V14 P12 O48 F6'
_cell_volume   1042.07325363
_cell_formula_units_Z   2
loop_
 _symmetry_equiv_pos_site_id
 _symmetry_equiv_pos_as_xyz
  1  'x, y, z'
loop_
 _atom_site_type_symbol
 _atom_site_label
 _atom_site_symmetry_multiplicity
 _atom_site_fract_x
 _atom_site_fract_y
 _atom_site_fract_z
 _atom_site_occupancy
  Li  Li0  1  0.255288  0.928039  0.256847  1
  Li  Li1  1  0.183326  0.744719  0.756854  1
  Li  Li2  1  0.499884  0.875716  0.755907  1
  Li  Li3  1  0.124277  0.375611  0.255901  1
  Li  Li4  1  0.071967  0.183323  0.756848  1
  Li  Li5  1  0.375597  0.500134  0.255896  1
  Li  Li6  1  0.333361  0.333316  0.437976  1
  Li  Li7  1  0.666688  0.666635  0.937978  1
  Li  Li8  1  0.624393  0.499870  0.755895  1
  Li  Li9  1  0.928035  0.816675  0.256847  1
  Li  Li10  1  0.875738  0.624394  0.755887  1
  Li  Li11  1  0.500130  0.124266  0.255902  1
  Li  Li12  1  0.816676  0.255281  0.256854  1
  Li  Li13  1  0.744714  0.071959  0.756847  1
  V  V14  1  0.126528  0.578884  0.010972  1
  V  V15  1  0.123106  0.582620  0.511239  1
  V  V16  1  0.421121  0.705414  0.510968  1
  V  V17  1  0.417388  0.705717  0.011242  1
  V  V18  1  0.705718  0.876899  0.011243  1
  V  V19  1  0.705414  0.873470  0.510974  1
  V  V20  1  0.000003  0.000001  0.007200  1
  V  V21  1  -0.000001  0.999999  0.507205  1
  V  V22  1  0.294586  0.126526  0.010980  1
  V  V23  1  0.294279  0.123105  0.511241  1
  V  V24  1  0.582614  0.294281  0.511242  1
  V  V25  1  0.578883  0.294590  0.010974  1
  V  V26  1  0.876893  0.417375  0.011235  1
  V  V27  1  0.873477  0.421107  0.510970  1
  P  P28  1  0.242311  0.940838  0.758952  1
  P  P29  1  0.183151  0.757695  0.258991  1
  P  P30  1  0.484650  0.883123  0.260000  1
  P  P31  1  0.116868  0.367778  0.759999  1
  P  P32  1  0.367781  0.515351  0.759980  1
  P  P33  1  0.059159  0.183146  0.258969  1
  P  P34  1  0.940846  0.816856  0.758984  1
  P  P35  1  0.632222  0.484645  0.260012  1
  P  P36  1  0.883132  0.632210  0.259982  1
  P  P37  1  0.515343  0.116881  0.760001  1
  P  P38  1  0.816851  0.242301  0.758993  1
  P  P39  1  0.757692  0.059165  0.258995  1
  O  O40  1  0.109284  0.015229  0.757621  1
  O  O41  1  0.124511  0.890724  0.257608  1
  O  O42  1  0.011359  0.683009  0.761662  1
  O  O43  1  0.367785  0.997882  0.254759  1
  O  O44  1  0.278749  0.868846  0.560912  1
  O  O45  1  0.147586  0.721250  0.060904  1
  O  O46  1  0.276779  0.868304  0.955955  1
  O  O47  1  0.145076  0.723240  0.455950  1
  O  O48  1  0.316993  0.694366  0.261660  1
  O  O49  1  0.002117  0.365669  0.754753  1
  O  O50  1  0.546101  0.881893  0.461237  1
  O  O51  1  0.118106  0.427995  0.961229  1
  O  O52  1  0.458865  0.784453  0.261462  1
  O  O53  1  0.130188  0.422896  0.560206  1
  O  O54  1  0.553080  0.869810  0.060213  1
  O  O55  1  0.694363  0.988640  0.261662  1
  O  O56  1  0.243306  0.541153  0.761462  1
  O  O57  1  0.365674  0.632216  0.754757  1
  O  O58  1  0.984774  0.124504  0.257619  1
  O  O59  1  0.215546  0.243314  0.761460  1
  O  O60  1  0.131694  0.145077  0.455954  1
  O  O61  1  0.427991  0.453899  0.961233  1
  O  O62  1  0.131164  0.147584  0.060905  1
  O  O63  1  0.577115  0.553078  0.060199  1
  O  O64  1  0.422884  0.446926  0.560210  1
  O  O65  1  0.868835  0.852417  0.560903  1
  O  O66  1  0.572012  0.546097  0.461223  1
  O  O67  1  0.868304  0.854929  0.955956  1
  O  O68  1  0.784458  0.756688  0.261457  1
  O  O69  1  0.015227  0.875493  0.757623  1
  O  O70  1  0.634327  0.367782  0.254753  1
  O  O71  1  0.756693  0.458848  0.261457  1
  O  O72  1  0.305640  0.011360  0.761658  1
  O  O73  1  0.446917  0.130198  0.560211  1
  O  O74  1  0.869809  0.577109  0.060197  1
  O  O75  1  0.541134  0.215549  0.761460  1
  O  O76  1  0.881896  0.572000  0.461216  1
  O  O77  1  0.453902  0.118108  0.961230  1
  O  O78  1  0.997889  0.634323  0.254748  1
  O  O79  1  0.683004  0.305629  0.761661  1
  O  O80  1  0.854921  0.276758  0.955952  1
  O  O81  1  0.723229  0.131690  0.455945  1
  O  O82  1  0.852414  0.278745  0.560907  1
  O  O83  1  0.721245  0.131165  0.060903  1
  O  O84  1  0.632216  0.002116  0.754750  1
  O  O85  1  0.988638  0.316991  0.261650  1
  O  O86  1  0.875491  0.109271  0.757618  1
  O  O87  1  0.890719  0.984773  0.257622  1
  F  F88  1  0.241466  0.483836  0.270515  1
  F  F89  1  0.516169  0.725296  0.770520  1
  F  F90  1  0.725307  0.758535  0.770520  1
  F  F91  1  0.274701  0.241466  0.270513  1
  F  F92  1  0.483828  0.274700  0.270522  1
  F  F93  1  0.758530  0.516160  0.770503  1
