# generated using pymatgen
data_Li4CrP6(H4O11)2
_symmetry_space_group_name_H-M   'P 1'
_cell_length_a   7.48544941
_cell_length_b   15.38047022
_cell_length_c   8.15866173
_cell_angle_alpha   90.00000000
_cell_angle_beta   85.83253558
_cell_angle_gamma   90.00000000
_symmetry_Int_Tables_number   1
_chemical_formula_structural   Li4CrP6(H4O11)2
_chemical_formula_sum   'Li8 Cr2 P12 H16 O44'
_cell_volume   936.82092641
_cell_formula_units_Z   2
loop_
 _symmetry_equiv_pos_site_id
 _symmetry_equiv_pos_as_xyz
  1  'x, y, z'
loop_
 _atom_site_type_symbol
 _atom_site_label
 _atom_site_symmetry_multiplicity
 _atom_site_fract_x
 _atom_site_fract_y
 _atom_site_fract_z
 _atom_site_occupancy
  Li  Li0  1  0.032633  0.224275  0.342491  1
  Li  Li1  1  0.140573  0.113221  0.889638  1
  Li  Li2  1  0.359427  0.613221  0.110362  1
  Li  Li3  1  0.467367  0.724275  0.657509  1
  Li  Li4  1  0.532633  0.275725  0.342491  1
  Li  Li5  1  0.640573  0.386779  0.889638  1
  Li  Li6  1  0.859427  0.886779  0.110362  1
  Li  Li7  1  0.967367  0.775725  0.657509  1
  Cr  Cr8  1  0.000000  0.000000  0.500000  1
  Cr  Cr9  1  0.500000  0.500000  0.500000  1
  P  P10  1  0.063738  0.436704  0.808279  1
  P  P11  1  0.239880  0.822254  0.972565  1
  P  P12  1  0.163982  0.816648  0.318502  1
  P  P13  1  0.336018  0.316648  0.681498  1
  P  P14  1  0.260120  0.322254  0.027435  1
  P  P15  1  0.436262  0.936704  0.191721  1
  P  P16  1  0.563738  0.063296  0.808279  1
  P  P17  1  0.739880  0.677746  0.972565  1
  P  P18  1  0.663982  0.683352  0.318502  1
  P  P19  1  0.836018  0.183352  0.681498  1
  P  P20  1  0.760120  0.177746  0.027435  1
  P  P21  1  0.936262  0.563296  0.191721  1
  H  H22  1  0.128923  0.920892  0.751779  1
  H  H23  1  0.232157  0.144640  0.490126  1
  H  H24  1  0.249801  0.085591  0.323808  1
  H  H25  1  0.270776  0.991290  0.690477  1
  H  H26  1  0.229224  0.491290  0.309523  1
  H  H27  1  0.250199  0.585591  0.676192  1
  H  H28  1  0.267843  0.644640  0.509874  1
  H  H29  1  0.371077  0.420892  0.248221  1
  H  H30  1  0.628923  0.579108  0.751779  1
  H  H31  1  0.732157  0.355360  0.490126  1
  H  H32  1  0.749801  0.414409  0.323808  1
  H  H33  1  0.770776  0.508710  0.690477  1
  H  H34  1  0.729224  0.008710  0.309523  1
  H  H35  1  0.750199  0.914409  0.676192  1
  H  H36  1  0.767843  0.855360  0.509874  1
  H  H37  1  0.871077  0.079108  0.248221  1
  O  O38  1  0.103789  0.387292  0.976614  1
  O  O39  1  0.072672  0.873280  0.941045  1
  O  O40  1  0.015796  0.880861  0.294265  1
  O  O41  1  0.157361  0.522334  0.797890  1
  O  O42  1  0.149455  0.368873  0.669818  1
  O  O43  1  0.135577  0.565289  0.204805  1
  O  O44  1  0.182380  0.948644  0.648948  1
  O  O45  1  0.162666  0.112605  0.411259  1
  O  O46  1  0.144041  0.753536  0.458277  1
  O  O47  1  0.204812  0.764724  0.143013  1
  O  O48  1  0.316194  0.764228  0.839939  1
  O  O49  1  0.183806  0.264228  0.160061  1
  O  O50  1  0.295188  0.264724  0.856987  1
  O  O51  1  0.355959  0.253536  0.541723  1
  O  O52  1  0.337334  0.612605  0.588741  1
  O  O53  1  0.317620  0.448644  0.351052  1
  O  O54  1  0.364423  0.065289  0.795195  1
  O  O55  1  0.350545  0.868873  0.330182  1
  O  O56  1  0.342639  0.022334  0.202110  1
  O  O57  1  0.484204  0.380861  0.705735  1
  O  O58  1  0.427328  0.373280  0.058955  1
  O  O59  1  0.396211  0.887292  0.023386  1
  O  O60  1  0.603789  0.112708  0.976614  1
  O  O61  1  0.572672  0.626720  0.941045  1
  O  O62  1  0.515796  0.619139  0.294265  1
  O  O63  1  0.657361  0.977666  0.797890  1
  O  O64  1  0.649455  0.131127  0.669818  1
  O  O65  1  0.635577  0.934711  0.204805  1
  O  O66  1  0.682380  0.551356  0.648948  1
  O  O67  1  0.662666  0.387395  0.411259  1
  O  O68  1  0.644041  0.746464  0.458277  1
  O  O69  1  0.704812  0.735276  0.143013  1
  O  O70  1  0.816194  0.735772  0.839939  1
  O  O71  1  0.683806  0.235772  0.160061  1
  O  O72  1  0.795188  0.235276  0.856987  1
  O  O73  1  0.855959  0.246464  0.541723  1
  O  O74  1  0.837334  0.887395  0.588741  1
  O  O75  1  0.817620  0.051356  0.351052  1
  O  O76  1  0.864423  0.434711  0.795195  1
  O  O77  1  0.850545  0.631127  0.330182  1
  O  O78  1  0.842639  0.477666  0.202110  1
  O  O79  1  0.984204  0.119139  0.705735  1
  O  O80  1  0.927328  0.126720  0.058955  1
  O  O81  1  0.896211  0.612708  0.023386  1
