# generated using pymatgen
data_Li2CrP4(H4O5)4
_symmetry_space_group_name_H-M   'P 1'
_cell_length_a   7.18496553
_cell_length_b   10.70109103
_cell_length_c   10.99444999
_cell_angle_alpha   90.00000000
_cell_angle_beta   80.68730757
_cell_angle_gamma   90.00000000
_symmetry_Int_Tables_number   1
_chemical_formula_structural   Li2CrP4(H4O5)4
_chemical_formula_sum   'Li4 Cr2 P8 H32 O40'
_cell_volume   834.18840902
_cell_formula_units_Z   2
loop_
 _symmetry_equiv_pos_site_id
 _symmetry_equiv_pos_as_xyz
  1  'x, y, z'
loop_
 _atom_site_type_symbol
 _atom_site_label
 _atom_site_symmetry_multiplicity
 _atom_site_fract_x
 _atom_site_fract_y
 _atom_site_fract_z
 _atom_site_occupancy
  Li  Li0  1  0.253561  0.663703  0.542240  1
  Li  Li1  1  0.246439  0.163703  0.957760  1
  Li  Li2  1  0.753561  0.836297  0.042240  1
  Li  Li3  1  0.746439  0.336297  0.457760  1
  Cr  Cr4  1  0.000000  0.000000  0.500000  1
  Cr  Cr5  1  0.500000  0.500000  0.000000  1
  P  P6  1  0.232434  0.760061  0.083675  1
  P  P7  1  0.267566  0.260061  0.416325  1
  P  P8  1  0.237522  0.955110  0.721974  1
  P  P9  1  0.262478  0.455110  0.778026  1
  P  P10  1  0.737522  0.544890  0.221974  1
  P  P11  1  0.762478  0.044890  0.278026  1
  P  P12  1  0.732434  0.739939  0.583675  1
  P  P13  1  0.767566  0.239939  0.916325  1
  H  H14  1  0.147104  0.401627  0.106855  1
  H  H15  1  0.142657  0.038886  0.191715  1
  H  H16  1  0.121827  0.432961  0.395298  1
  H  H17  1  0.182723  0.622836  0.310758  1
  H  H18  1  0.193844  0.827025  0.341613  1
  H  H19  1  0.074750  0.290178  0.788586  1
  H  H20  1  0.306156  0.327025  0.158387  1
  H  H21  1  0.317277  0.122836  0.189242  1
  H  H22  1  0.164503  0.586059  0.924918  1
  H  H23  1  0.152286  0.894028  0.945137  1
  H  H24  1  0.378173  0.932961  0.104702  1
  H  H25  1  0.357343  0.538886  0.308285  1
  H  H26  1  0.352896  0.901627  0.393144  1
  H  H27  1  0.347714  0.394028  0.554863  1
  H  H28  1  0.335497  0.086059  0.575082  1
  H  H29  1  0.425250  0.790178  0.711414  1
  H  H30  1  0.574750  0.209822  0.288586  1
  H  H31  1  0.664503  0.913941  0.424918  1
  H  H32  1  0.652286  0.605972  0.445137  1
  H  H33  1  0.647104  0.098373  0.606855  1
  H  H34  1  0.642657  0.461114  0.691715  1
  H  H35  1  0.621827  0.067039  0.895298  1
  H  H36  1  0.847714  0.105972  0.054863  1
  H  H37  1  0.835497  0.413941  0.075082  1
  H  H38  1  0.682723  0.877164  0.810758  1
  H  H39  1  0.693844  0.672975  0.841613  1
  H  H40  1  0.925250  0.709822  0.211414  1
  H  H41  1  0.806156  0.172975  0.658387  1
  H  H42  1  0.817277  0.377164  0.689242  1
  H  H43  1  0.878173  0.567039  0.604702  1
  H  H44  1  0.857343  0.961114  0.808285  1
  H  H45  1  0.852896  0.598373  0.893145  1
  O  O46  1  0.088266  0.833093  0.015377  1
  O  O47  1  0.133424  0.741721  0.217071  1
  O  O48  1  0.082882  0.343295  0.420989  1
  O  O49  1  0.046939  0.974108  0.680867  1
  O  O50  1  0.262353  0.061444  0.136616  1
  O  O51  1  0.263882  0.353818  0.080752  1
  O  O52  1  0.290123  0.638697  0.015875  1
  O  O53  1  0.209877  0.138697  0.484125  1
  O  O54  1  0.236118  0.853818  0.419248  1
  O  O55  1  0.237647  0.561444  0.363384  1
  O  O56  1  0.105965  0.538488  0.859745  1
  O  O57  1  0.206698  0.312799  0.806221  1
  O  O58  1  0.417118  0.843295  0.079011  1
  O  O59  1  0.259172  0.485947  0.642739  1
  O  O60  1  0.366576  0.241721  0.282929  1
  O  O61  1  0.240828  0.985947  0.857261  1
  O  O62  1  0.293302  0.812799  0.693779  1
  O  O63  1  0.411734  0.333093  0.484623  1
  O  O64  1  0.394035  0.038488  0.640255  1
  O  O65  1  0.546939  0.525892  0.180867  1
  O  O66  1  0.453061  0.474108  0.819133  1
  O  O67  1  0.605965  0.961512  0.359745  1
  O  O68  1  0.588266  0.666907  0.515377  1
  O  O69  1  0.706698  0.187201  0.306221  1
  O  O70  1  0.759172  0.014053  0.142739  1
  O  O71  1  0.633424  0.758279  0.717071  1
  O  O72  1  0.740828  0.514053  0.357261  1
  O  O73  1  0.582882  0.156705  0.920989  1
  O  O74  1  0.793302  0.687201  0.193779  1
  O  O75  1  0.894035  0.461512  0.140256  1
  O  O76  1  0.762353  0.438556  0.636616  1
  O  O77  1  0.763882  0.146182  0.580752  1
  O  O78  1  0.790123  0.861303  0.515875  1
  O  O79  1  0.709877  0.361303  0.984125  1
  O  O80  1  0.736118  0.646182  0.919248  1
  O  O81  1  0.737647  0.938556  0.863384  1
  O  O82  1  0.953061  0.025892  0.319133  1
  O  O83  1  0.917118  0.656705  0.579011  1
  O  O84  1  0.866576  0.258279  0.782929  1
  O  O85  1  0.911734  0.166907  0.984623  1
