# generated using pymatgen
data_CaB2(HO)8
_symmetry_space_group_name_H-M   'P 1'
_cell_length_a   7.83215100
_cell_length_b   5.66636035
_cell_length_c   8.07811466
_cell_angle_alpha   73.26108558
_cell_angle_beta   115.27664381
_cell_angle_gamma   108.21645377
_symmetry_Int_Tables_number   1
_chemical_formula_structural   CaB2(HO)8
_chemical_formula_sum   'Ca2 B4 H16 O16'
_cell_volume   302.90890478
_cell_formula_units_Z   2
loop_
 _symmetry_equiv_pos_site_id
 _symmetry_equiv_pos_as_xyz
  1  'x, y, z'
loop_
 _atom_site_type_symbol
 _atom_site_label
 _atom_site_symmetry_multiplicity
 _atom_site_fract_x
 _atom_site_fract_y
 _atom_site_fract_z
 _atom_site_occupancy
  Ca  Ca0  1  0.228407  0.834763  0.179655  1
  Ca  Ca1  1  0.771593  0.165237  0.820345  1
  B  B2  1  0.024559  0.172691  0.229881  1
  B  B3  1  0.432311  0.604628  0.720109  1
  B  B4  1  0.567689  0.395372  0.279891  1
  B  B5  1  0.975441  0.827309  0.770119  1
  H  H6  1  0.052823  0.564581  0.700958  1
  H  H7  1  0.166937  0.421722  0.567397  1
  H  H8  1  0.208242  0.126653  0.795887  1
  H  H9  1  0.365394  0.865726  0.804306  1
  H  H10  1  0.252706  0.057115  0.452567  1
  H  H11  1  0.544811  0.345025  0.949463  1
  H  H12  1  0.203873  0.366922  0.079386  1
  H  H13  1  0.597556  0.461944  0.515225  1
  H  H14  1  0.402444  0.538056  0.484775  1
  H  H15  1  0.796127  0.633078  0.920614  1
  H  H16  1  0.455189  0.654975  0.050537  1
  H  H17  1  0.747294  0.942885  0.547433  1
  H  H18  1  0.634606  0.134274  0.195694  1
  H  H19  1  0.791758  0.873347  0.204113  1
  H  H20  1  0.833063  0.578278  0.432603  1
  H  H21  1  0.947177  0.435419  0.299042  1
  O  O22  1  0.186289  0.940296  0.841286  1
  O  O23  1  0.127959  0.978673  0.368485  1
  O  O24  1  0.232765  0.453926  0.696592  1
  O  O25  1  0.068229  0.402913  0.304992  1
  O  O26  1  0.482507  0.816873  0.815395  1
  O  O27  1  0.082156  0.234665  0.063299  1
  O  O28  1  0.452123  0.694497  0.535890  1
  O  O29  1  0.573819  0.433752  0.835912  1
  O  O30  1  0.426181  0.566248  0.164088  1
  O  O31  1  0.547877  0.305503  0.464110  1
  O  O32  1  0.917844  0.765335  0.936701  1
  O  O33  1  0.517493  0.183127  0.184605  1
  O  O34  1  0.931771  0.597087  0.695008  1
  O  O35  1  0.767235  0.546074  0.303408  1
  O  O36  1  0.872041  0.021327  0.631515  1
  O  O37  1  0.813711  0.059704  0.158714  1
