# generated using pymatgen
data_LiCrPO5
_symmetry_space_group_name_H-M   'P 1'
_cell_length_a   7.14511046
_cell_length_b   10.33096283
_cell_length_c   4.98055720
_cell_angle_alpha   90.00000000
_cell_angle_beta   109.46889324
_cell_angle_gamma   90.00000000
_symmetry_Int_Tables_number   1
_chemical_formula_structural   LiCrPO5
_chemical_formula_sum   'Li4 Cr4 P4 O20'
_cell_volume   346.62322090
_cell_formula_units_Z   4
loop_
 _symmetry_equiv_pos_site_id
 _symmetry_equiv_pos_as_xyz
  1  'x, y, z'
loop_
 _atom_site_type_symbol
 _atom_site_label
 _atom_site_symmetry_multiplicity
 _atom_site_fract_x
 _atom_site_fract_y
 _atom_site_fract_z
 _atom_site_occupancy
  Li  Li0  1  0.166958  0.102153  0.125640  1
  Li  Li1  1  0.333042  0.602153  0.374360  1
  Li  Li2  1  0.666958  0.397847  0.625640  1
  Li  Li3  1  0.833042  0.897847  0.874360  1
  Cr  Cr4  1  0.178404  0.927003  0.617475  1
  Cr  Cr5  1  0.321596  0.427003  0.882525  1
  Cr  Cr6  1  0.678404  0.572997  0.117475  1
  Cr  Cr7  1  0.821596  0.072997  0.382525  1
  P  P8  1  0.028391  0.348663  0.218255  1
  P  P9  1  0.528391  0.151337  0.718255  1
  P  P10  1  0.471609  0.848663  0.281745  1
  P  P11  1  0.971609  0.651337  0.781745  1
  O  O12  1  0.030767  0.781888  0.685949  1
  O  O13  1  0.148284  0.310441  0.020459  1
  O  O14  1  0.999467  0.956035  0.270610  1
  O  O15  1  0.159868  0.573698  0.948438  1
  O  O16  1  0.159034  0.429951  0.472387  1
  O  O17  1  0.340132  0.073698  0.551562  1
  O  O18  1  0.351716  0.810441  0.479541  1
  O  O19  1  0.469233  0.281888  0.814051  1
  O  O20  1  0.340966  0.929951  0.027613  1
  O  O21  1  0.499467  0.543965  0.770610  1
  O  O22  1  0.500533  0.456035  0.229390  1
  O  O23  1  0.659034  0.070049  0.972387  1
  O  O24  1  0.530767  0.718112  0.185949  1
  O  O25  1  0.648284  0.189559  0.520459  1
  O  O26  1  0.659868  0.926302  0.448438  1
  O  O27  1  0.840966  0.570049  0.527613  1
  O  O28  1  0.840132  0.426302  0.051562  1
  O  O29  1  0.000533  0.043965  0.729390  1
  O  O30  1  0.851716  0.689559  0.979541  1
  O  O31  1  0.969233  0.218112  0.314051  1
