# generated using pymatgen
data_Na5LiMn2P2(CO7)2
_symmetry_space_group_name_H-M   'P 1'
_cell_length_a   8.98197352
_cell_length_b   6.76177515
_cell_length_c   10.38745138
_cell_angle_alpha   90.00000000
_cell_angle_beta   89.95805034
_cell_angle_gamma   90.00000000
_symmetry_Int_Tables_number   1
_chemical_formula_structural   Na5LiMn2P2(CO7)2
_chemical_formula_sum   'Na10 Li2 Mn4 P4 C4 O28'
_cell_volume   630.87218959
_cell_formula_units_Z   2
loop_
 _symmetry_equiv_pos_site_id
 _symmetry_equiv_pos_as_xyz
  1  'x, y, z'
loop_
 _atom_site_type_symbol
 _atom_site_label
 _atom_site_symmetry_multiplicity
 _atom_site_fract_x
 _atom_site_fract_y
 _atom_site_fract_z
 _atom_site_occupancy
  Na  Na0  1  0.082528  0.250456  0.878837  1
  Na  Na1  1  0.083845  0.254134  0.380141  1
  Na  Na2  1  0.256117  0.001113  0.624474  1
  Na  Na3  1  0.258657  0.000790  0.123560  1
  Na  Na4  1  0.258201  0.499878  0.123087  1
  Na  Na5  1  0.743883  0.501113  0.875526  1
  Na  Na6  1  0.741343  0.500790  0.376440  1
  Na  Na7  1  0.741799  0.999878  0.376913  1
  Na  Na8  1  0.917472  0.750456  0.621163  1
  Na  Na9  1  0.916155  0.754134  0.119859  1
  Li  Li10  1  0.274250  0.482200  0.615392  1
  Li  Li11  1  0.725750  0.982200  0.884608  1
  Mn  Mn12  1  0.360183  0.747547  0.885662  1
  Mn  Mn13  1  0.362525  0.747404  0.392841  1
  Mn  Mn14  1  0.639817  0.247547  0.614338  1
  Mn  Mn15  1  0.637475  0.247404  0.107159  1
  P  P16  1  0.413115  0.248405  0.848004  1
  P  P17  1  0.412585  0.249476  0.354190  1
  P  P18  1  0.586885  0.748405  0.651996  1
  P  P19  1  0.587415  0.749476  0.145810  1
  C  C20  1  0.054920  0.757335  0.867368  1
  C  C21  1  0.060578  0.749304  0.368060  1
  C  C22  1  0.945080  0.257335  0.632632  1
  C  C23  1  0.939422  0.249304  0.131940  1
  O  O24  1  0.088972  0.274495  0.642354  1
  O  O25  1  0.083079  0.249738  0.142991  1
  O  O26  1  0.118253  0.749931  0.980421  1
  O  O27  1  0.122782  0.750670  0.481225  1
  O  O28  1  0.138462  0.746469  0.765006  1
  O  O29  1  0.144877  0.747341  0.265550  1
  O  O30  1  0.317853  0.064723  0.885152  1
  O  O31  1  0.328952  0.432312  0.900090  1
  O  O32  1  0.321066  0.063661  0.393747  1
  O  O33  1  0.319589  0.431662  0.399570  1
  O  O34  1  0.422786  0.264928  0.697675  1
  O  O35  1  0.425580  0.731818  0.597472  1
  O  O36  1  0.429298  0.253179  0.204282  1
  O  O37  1  0.430041  0.751028  0.085424  1
  O  O38  1  0.574420  0.231818  0.902528  1
  O  O39  1  0.577214  0.764928  0.802325  1
  O  O40  1  0.569959  0.251028  0.414576  1
  O  O41  1  0.570702  0.753179  0.295718  1
  O  O42  1  0.682147  0.564723  0.614848  1
  O  O43  1  0.671048  0.932312  0.599910  1
  O  O44  1  0.678934  0.563661  0.106253  1
  O  O45  1  0.680411  0.931662  0.100430  1
  O  O46  1  0.861538  0.246469  0.734994  1
  O  O47  1  0.855123  0.247341  0.234450  1
  O  O48  1  0.881747  0.249931  0.519579  1
  O  O49  1  0.877218  0.250670  0.018775  1
  O  O50  1  0.911028  0.774495  0.857646  1
  O  O51  1  0.916921  0.749738  0.357009  1
