# generated using pymatgen
data_LiFe2C2O7
_symmetry_space_group_name_H-M   'P 1'
_cell_length_a   7.71876207
_cell_length_b   7.98121181
_cell_length_c   11.56980462
_cell_angle_alpha   90.00000000
_cell_angle_beta   73.24173327
_cell_angle_gamma   90.00000000
_symmetry_Int_Tables_number   1
_chemical_formula_structural   LiFe2C2O7
_chemical_formula_sum   'Li4 Fe8 C8 O28'
_cell_volume   682.48765610
_cell_formula_units_Z   4
loop_
 _symmetry_equiv_pos_site_id
 _symmetry_equiv_pos_as_xyz
  1  'x, y, z'
loop_
 _atom_site_type_symbol
 _atom_site_label
 _atom_site_symmetry_multiplicity
 _atom_site_fract_x
 _atom_site_fract_y
 _atom_site_fract_z
 _atom_site_occupancy
  Li  Li0  1  0.107050  0.765449  0.403401  1
  Li  Li1  1  0.392950  0.265449  0.096599  1
  Li  Li2  1  0.607050  0.734551  0.903401  1
  Li  Li3  1  0.892950  0.234551  0.596599  1
  Fe  Fe4  1  0.105480  0.900223  0.113648  1
  Fe  Fe5  1  0.018803  0.888428  0.645088  1
  Fe  Fe6  1  0.518803  0.611572  0.145088  1
  Fe  Fe7  1  0.394520  0.400223  0.386352  1
  Fe  Fe8  1  0.605480  0.599777  0.613648  1
  Fe  Fe9  1  0.481197  0.388428  0.854912  1
  Fe  Fe10  1  0.981197  0.111572  0.354912  1
  Fe  Fe11  1  0.894520  0.099777  0.886352  1
  C  C12  1  0.224849  0.608939  0.037079  1
  C  C13  1  0.275151  0.108939  0.462921  1
  C  C14  1  0.240680  0.587210  0.587320  1
  C  C15  1  0.259320  0.087210  0.912680  1
  C  C16  1  0.740680  0.912790  0.087320  1
  C  C17  1  0.759320  0.412790  0.412680  1
  C  C18  1  0.724849  0.891061  0.537079  1
  C  C19  1  0.775151  0.391061  0.962921  1
  O  O20  1  0.061386  0.665162  0.075748  1
  O  O21  1  0.104296  0.916190  0.272134  1
  O  O22  1  0.270185  0.081395  0.024450  1
  O  O23  1  0.354013  0.720516  0.038127  1
  O  O24  1  0.145987  0.220516  0.461873  1
  O  O25  1  0.128512  0.671325  0.668685  1
  O  O26  1  0.229815  0.581395  0.475550  1
  O  O27  1  0.395704  0.416190  0.227866  1
  O  O28  1  0.236529  0.958211  0.497519  1
  O  O29  1  0.131447  0.998563  0.889197  1
  O  O30  1  0.368553  0.498563  0.610803  1
  O  O31  1  0.438614  0.165162  0.424252  1
  O  O32  1  0.628512  0.828675  0.168685  1
  O  O33  1  0.263471  0.458211  0.002481  1
  O  O34  1  0.736529  0.541789  0.997519  1
  O  O35  1  0.371488  0.171325  0.831315  1
  O  O36  1  0.561386  0.834838  0.575748  1
  O  O37  1  0.631447  0.501437  0.389197  1
  O  O38  1  0.868553  0.001437  0.110803  1
  O  O39  1  0.763471  0.041789  0.502481  1
  O  O40  1  0.604296  0.583810  0.772134  1
  O  O41  1  0.770185  0.418605  0.524450  1
  O  O42  1  0.871488  0.328675  0.331315  1
  O  O43  1  0.854013  0.779484  0.538127  1
  O  O44  1  0.645987  0.279484  0.961873  1
  O  O45  1  0.729815  0.918605  0.975550  1
  O  O46  1  0.895704  0.083810  0.727866  1
  O  O47  1  0.938614  0.334838  0.924252  1
