# generated using pymatgen
data_Li3Ti(CuO2)4
_symmetry_space_group_name_H-M   'P 1'
_cell_length_a   6.30819435
_cell_length_b   6.30819455
_cell_length_c   6.17992694
_cell_angle_alpha   80.62499321
_cell_angle_beta   53.93543562
_cell_angle_gamma   54.34825693
_symmetry_Int_Tables_number   1
_chemical_formula_structural   Li3Ti(CuO2)4
_chemical_formula_sum   'Li3 Ti1 Cu4 O8'
_cell_volume   155.33227373
_cell_formula_units_Z   1
loop_
 _symmetry_equiv_pos_site_id
 _symmetry_equiv_pos_as_xyz
  1  'x, y, z'
loop_
 _atom_site_type_symbol
 _atom_site_label
 _atom_site_symmetry_multiplicity
 _atom_site_fract_x
 _atom_site_fract_y
 _atom_site_fract_z
 _atom_site_occupancy
  Li  Li0  1  0.000000  0.000000  0.500000  1
  Li  Li1  1  0.500000  0.000000  0.500000  1
  Li  Li2  1  0.500000  0.500000  0.500000  1
  Ti  Ti3  1  0.500000  0.500000  0.000000  1
  Cu  Cu4  1  0.000000  0.500000  0.500000  1
  Cu  Cu5  1  0.000000  0.000000  0.000000  1
  Cu  Cu6  1  0.500000  0.000000  0.000000  1
  Cu  Cu7  1  0.000000  0.500000  0.000000  1
  O  O8  1  0.472217  0.283951  0.811735  1
  O  O9  1  0.987444  0.242867  0.719116  1
  O  O10  1  0.523752  0.706560  0.719116  1
  O  O11  1  0.966394  0.793684  0.827290  1
  O  O12  1  0.033606  0.206316  0.172710  1
  O  O13  1  0.476248  0.293440  0.280884  1
  O  O14  1  0.012556  0.757133  0.280884  1
  O  O15  1  0.527783  0.716049  0.188265  1
