# generated using pymatgen
data_KTiPCO7
_symmetry_space_group_name_H-M   'P 1'
_cell_length_a   9.85624544
_cell_length_b   6.41377642
_cell_length_c   5.63453830
_cell_angle_alpha   90.00000000
_cell_angle_beta   88.72022010
_cell_angle_gamma   90.00000000
_symmetry_Int_Tables_number   1
_chemical_formula_structural   KTiPCO7
_chemical_formula_sum   'K2 Ti2 P2 C2 O14'
_cell_volume   356.10273992
_cell_formula_units_Z   2
loop_
 _symmetry_equiv_pos_site_id
 _symmetry_equiv_pos_as_xyz
  1  'x, y, z'
loop_
 _atom_site_type_symbol
 _atom_site_label
 _atom_site_symmetry_multiplicity
 _atom_site_fract_x
 _atom_site_fract_y
 _atom_site_fract_z
 _atom_site_occupancy
  K  K0  1  0.229158  0.431498  0.249919  1
  K  K1  1  0.770842  0.931498  0.750081  1
  Ti  Ti2  1  0.346529  0.776306  0.772140  1
  Ti  Ti3  1  0.653471  0.276306  0.227860  1
  P  P4  1  0.450911  0.270001  0.736484  1
  P  P5  1  0.549089  0.770001  0.263516  1
  C  C6  1  0.102730  0.735934  0.718340  1
  C  C7  1  0.897270  0.235934  0.281660  1
  O  O8  1  0.018699  0.204029  0.305801  1
  O  O9  1  0.166340  0.749407  0.926767  1
  O  O10  1  0.195584  0.758852  0.542706  1
  O  O11  1  0.358801  0.075969  0.772959  1
  O  O12  1  0.358314  0.460814  0.772568  1
  O  O13  1  0.435087  0.765879  0.080346  1
  O  O14  1  0.513703  0.269163  0.482058  1
  O  O15  1  0.486297  0.769163  0.517942  1
  O  O16  1  0.564913  0.265879  0.919654  1
  O  O17  1  0.641686  0.960814  0.227432  1
  O  O18  1  0.641199  0.575969  0.227041  1
  O  O19  1  0.804416  0.258852  0.457294  1
  O  O20  1  0.833660  0.249407  0.073233  1
  O  O21  1  0.981301  0.704029  0.694199  1
