# generated using pymatgen
data_Li4MnOF5
_symmetry_space_group_name_H-M   'P 1'
_cell_length_a   5.92398419
_cell_length_b   5.88614475
_cell_length_c   12.90041104
_cell_angle_alpha   89.88298008
_cell_angle_beta   89.94186130
_cell_angle_gamma   60.21106505
_symmetry_Int_Tables_number   1
_chemical_formula_structural   Li4MnOF5
_chemical_formula_sum   'Li12 Mn3 O3 F15'
_cell_volume   390.38925057
_cell_formula_units_Z   3
loop_
 _symmetry_equiv_pos_site_id
 _symmetry_equiv_pos_as_xyz
  1  'x, y, z'
loop_
 _atom_site_type_symbol
 _atom_site_label
 _atom_site_symmetry_multiplicity
 _atom_site_fract_x
 _atom_site_fract_y
 _atom_site_fract_z
 _atom_site_occupancy
  Li  Li0  1  0.994501  0.332414  0.788438  1
  Li  Li1  1  0.988089  0.333270  0.484864  1
  Li  Li2  1  0.334505  0.000218  0.625464  1
  Li  Li3  1  0.317500  0.001692  0.326978  1
  Li  Li4  1  0.998762  0.668088  0.625464  1
  Li  Li5  1  0.666633  0.005389  0.791959  1
  Li  Li6  1  0.015767  0.652559  0.326978  1
  Li  Li7  1  0.666633  0.010983  0.486132  1
  Li  Li8  1  0.666633  0.999785  0.170548  1
  Li  Li9  1  0.338766  0.660282  0.788438  1
  Li  Li10  1  0.345178  0.654725  0.484864  1
  Li  Li11  1  0.666633  0.351472  0.326099  1
  Mn  Mn12  1  0.000311  0.667844  0.980530  1
  Mn  Mn13  1  0.666633  0.336717  0.980691  1
  Mn  Mn14  1  0.332956  0.001520  0.980530  1
  O  O15  1  0.999949  0.328121  0.970877  1
  O  O16  1  0.333317  0.661437  0.970877  1
  O  O17  1  0.666633  0.995095  0.962289  1
  F  F18  1  0.048264  0.332684  0.649037  1
  F  F19  1  0.324970  0.999887  0.827451  1
  F  F20  1  0.338929  0.000666  0.480552  1
  F  F21  1  0.001211  0.334041  0.327074  1
  F  F22  1  0.361582  0.000654  0.123684  1
  F  F23  1  0.008297  0.658224  0.827451  1
  F  F24  1  0.994338  0.672961  0.480552  1
  F  F25  1  0.971685  0.695603  0.123684  1
  F  F26  1  0.666633  0.951176  0.652415  1
  F  F27  1  0.666633  0.999244  0.312929  1
  F  F28  1  0.285003  0.714313  0.649037  1
  F  F29  1  0.666633  0.340796  0.826573  1
  F  F30  1  0.666633  0.330187  0.477534  1
  F  F31  1  0.332056  0.668617  0.327074  1
  F  F32  1  0.666633  0.306449  0.123861  1
