# generated using pymatgen
data_Li3Ti2(PO4)3
_symmetry_space_group_name_H-M   'P 1'
_cell_length_a   8.90800795
_cell_length_b   8.90800795
_cell_length_c   8.69363818
_cell_angle_alpha   57.50244205
_cell_angle_beta   122.49755795
_cell_angle_gamma   119.81667485
_symmetry_Int_Tables_number   1
_chemical_formula_structural   Li3Ti2(PO4)3
_chemical_formula_sum   'Li6 Ti4 P6 O24'
_cell_volume   469.16375345
_cell_formula_units_Z   2
loop_
 _symmetry_equiv_pos_site_id
 _symmetry_equiv_pos_as_xyz
  1  'x, y, z'
loop_
 _atom_site_type_symbol
 _atom_site_label
 _atom_site_symmetry_multiplicity
 _atom_site_fract_x
 _atom_site_fract_y
 _atom_site_fract_z
 _atom_site_occupancy
  Li  Li0  1  0.258064  0.868870  0.728319  1
  Li  Li1  1  0.131130  0.741936  0.228319  1
  Li  Li2  1  0.000000  0.500000  0.000000  1
  Li  Li3  1  0.868870  0.258064  0.771681  1
  Li  Li4  1  0.500000  0.000000  0.500000  1
  Li  Li5  1  0.741936  0.131130  0.271681  1
  Ti  Ti6  1  0.640160  0.854751  0.931324  1
  Ti  Ti7  1  0.145249  0.359840  0.431324  1
  Ti  Ti8  1  0.854751  0.640160  0.568676  1
  Ti  Ti9  1  0.359840  0.145249  0.068676  1
  P  P10  1  0.250899  0.552512  0.737377  1
  P  P11  1  0.949005  0.949005  0.750000  1
  P  P12  1  0.447488  0.749101  0.237377  1
  P  P13  1  0.552512  0.250899  0.762623  1
  P  P14  1  0.050995  0.050995  0.250000  1
  P  P15  1  0.749101  0.447488  0.262623  1
  O  O16  1  0.113613  0.979828  0.938876  1
  O  O17  1  0.020172  0.886387  0.438876  1
  O  O18  1  0.089060  0.547435  0.767481  1
  O  O19  1  0.394967  0.747911  0.727717  1
  O  O20  1  0.186984  0.536256  0.542323  1
  O  O21  1  0.323015  0.389605  0.912018  1
  O  O22  1  0.764811  0.941307  0.738331  1
  O  O23  1  0.452565  0.910940  0.267481  1
  O  O24  1  0.252089  0.605033  0.227717  1
  O  O25  1  0.463744  0.813016  0.042323  1
  O  O26  1  0.941307  0.764811  0.761669  1
  O  O27  1  0.610395  0.676985  0.412018  1
  O  O28  1  0.389605  0.323015  0.587982  1
  O  O29  1  0.058693  0.235189  0.238331  1
  O  O30  1  0.536256  0.186984  0.957677  1
  O  O31  1  0.747911  0.394967  0.772283  1
  O  O32  1  0.547435  0.089060  0.732519  1
  O  O33  1  0.235189  0.058693  0.261669  1
  O  O34  1  0.676985  0.610395  0.087982  1
  O  O35  1  0.813016  0.463744  0.457677  1
  O  O36  1  0.605033  0.252089  0.272283  1
  O  O37  1  0.910940  0.452565  0.232519  1
  O  O38  1  0.979828  0.113613  0.561124  1
  O  O39  1  0.886387  0.020172  0.061124  1
