# generated using pymatgen
data_Li2MnO2F
_symmetry_space_group_name_H-M   'P 1'
_cell_length_a   5.08226553
_cell_length_b   5.23283304
_cell_length_c   10.06470582
_cell_angle_alpha   83.55203550
_cell_angle_beta   29.13778751
_cell_angle_gamma   97.57063980
_symmetry_Int_Tables_number   1
_chemical_formula_structural   Li2MnO2F
_chemical_formula_sum   'Li4 Mn2 O4 F2'
_cell_volume   113.96074767
_cell_formula_units_Z   2
loop_
 _symmetry_equiv_pos_site_id
 _symmetry_equiv_pos_as_xyz
  1  'x, y, z'
loop_
 _atom_site_type_symbol
 _atom_site_label
 _atom_site_symmetry_multiplicity
 _atom_site_fract_x
 _atom_site_fract_y
 _atom_site_fract_z
 _atom_site_occupancy
  Li  Li0  1  0.499223  0.498935  0.500349  1
  Li  Li1  1  0.999425  0.499577  0.000333  1
  Li  Li2  1  0.139995  0.140012  0.180068  1
  Li  Li3  1  0.857421  0.857521  0.821275  1
  Mn  Mn4  1  0.361466  0.861090  0.319331  1
  Mn  Mn5  1  0.637161  0.137268  0.681484  1
  O  O6  1  0.638989  0.844824  0.563522  1
  O  O7  1  0.050298  0.844354  0.092079  1
  O  O8  1  0.359482  0.153566  0.437451  1
  O  O9  1  0.947529  0.153310  0.909116  1
  F  F10  1  0.240236  0.499203  0.255683  1
  F  F11  1  0.757711  0.498603  0.745258  1
