# generated using pymatgen
data_Li4V2Cr3Fe3O16
_symmetry_space_group_name_H-M   'P 1'
_cell_length_a   5.94492142
_cell_length_b   5.94240569
_cell_length_c   9.44971511
_cell_angle_alpha   89.99939933
_cell_angle_beta   90.64748137
_cell_angle_gamma   119.98059470
_symmetry_Int_Tables_number   1
_chemical_formula_structural   Li4V2Cr3Fe3O16
_chemical_formula_sum   'Li4 V2 Cr3 Fe3 O16'
_cell_volume   289.13836805
_cell_formula_units_Z   1
loop_
 _symmetry_equiv_pos_site_id
 _symmetry_equiv_pos_as_xyz
  1  'x, y, z'
loop_
 _atom_site_type_symbol
 _atom_site_label
 _atom_site_symmetry_multiplicity
 _atom_site_fract_x
 _atom_site_fract_y
 _atom_site_fract_z
 _atom_site_occupancy
  Li  Li0  1  0.335701  0.667878  0.900224  1
  Li  Li1  1  0.998325  0.999193  0.991298  1
  Li  Li2  1  0.999095  0.999604  0.492676  1
  Li  Li3  1  0.667478  0.333746  0.397472  1
  V  V4  1  0.332442  0.666210  0.494316  1
  V  V5  1  0.661911  0.330987  0.996415  1
  Cr  Cr6  1  0.172604  0.828465  0.214212  1
  Cr  Cr7  1  0.172673  0.344191  0.214185  1
  Cr  Cr8  1  0.345435  0.172712  0.713150  1
  Fe  Fe9  1  0.654493  0.827283  0.220456  1
  Fe  Fe10  1  0.830281  0.653665  0.718860  1
  Fe  Fe11  1  0.830262  0.176583  0.718862  1
  O  O12  1  0.176514  0.826841  0.590156  1
  O  O13  1  0.046278  0.523175  0.342368  1
  O  O14  1  0.338585  0.669290  0.105644  1
  O  O15  1  0.998549  0.999312  0.303836  1
  O  O16  1  0.999118  0.999522  0.801483  1
  O  O17  1  0.176482  0.349675  0.590173  1
  O  O18  1  0.474169  0.956917  0.347437  1
  O  O19  1  0.474190  0.517295  0.347442  1
  O  O20  1  0.346631  0.173322  0.093007  1
  O  O21  1  0.647432  0.823721  0.586273  1
  O  O22  1  0.519382  0.473937  0.846846  1
  O  O23  1  0.519433  0.045466  0.846832  1
  O  O24  1  0.670772  0.335419  0.604382  1
  O  O25  1  0.825823  0.648647  0.089284  1
  O  O26  1  0.960123  0.480046  0.851270  1
  O  O27  1  0.825821  0.177200  0.089280  1
