# generated using pymatgen
data_Ti3CrSn2(PO4)6
_symmetry_space_group_name_H-M   'P 1'
_cell_length_a   9.01241073
_cell_length_b   9.01241057
_cell_length_c   9.01241033
_cell_angle_alpha   57.24201246
_cell_angle_beta   57.24201325
_cell_angle_gamma   57.24200979
_symmetry_Int_Tables_number   1
_chemical_formula_structural   Ti3CrSn2(PO4)6
_chemical_formula_sum   'Ti3 Cr1 Sn2 P6 O24'
_cell_volume   484.73936052
_cell_formula_units_Z   1
loop_
 _symmetry_equiv_pos_site_id
 _symmetry_equiv_pos_as_xyz
  1  'x, y, z'
loop_
 _atom_site_type_symbol
 _atom_site_label
 _atom_site_symmetry_multiplicity
 _atom_site_fract_x
 _atom_site_fract_y
 _atom_site_fract_z
 _atom_site_occupancy
  Ti  Ti0  1  0.147040  0.147040  0.147040  1
  Ti  Ti1  1  0.351187  0.351187  0.351187  1
  Ti  Ti2  1  0.648887  0.648887  0.648887  1
  Cr  Cr3  1  0.853098  0.853098  0.853098  1
  Sn  Sn4  1  0.997138  0.997138  0.997138  1
  Sn  Sn5  1  0.498589  0.498589  0.498589  1
  P  P6  1  0.037709  0.750375  0.465181  1
  P  P7  1  0.465181  0.037709  0.750375  1
  P  P8  1  0.249342  0.538045  0.961358  1
  P  P9  1  0.538045  0.961358  0.249342  1
  P  P10  1  0.961358  0.249342  0.538045  1
  P  P11  1  0.750375  0.465181  0.037709  1
  O  O12  1  0.125434  0.289578  0.503986  1
  O  O13  1  0.289578  0.503986  0.125434  1
  O  O14  1  0.061408  0.922300  0.279727  1
  O  O15  1  0.503986  0.125434  0.289578  1
  O  O16  1  0.010594  0.784115  0.627729  1
  O  O17  1  0.221288  0.576867  0.436456  1
  O  O18  1  0.279727  0.061408  0.922300  1
  O  O19  1  0.436456  0.221288  0.576867  1
  O  O20  1  0.210860  0.373703  0.994399  1
  O  O21  1  0.576867  0.436456  0.221288  1
  O  O22  1  0.077019  0.722448  0.939630  1
  O  O23  1  0.373703  0.994399  0.210860  1
  O  O24  1  0.627729  0.010594  0.784115  1
  O  O25  1  0.922300  0.279727  0.061408  1
  O  O26  1  0.423889  0.561152  0.778475  1
  O  O27  1  0.784115  0.627729  0.010594  1
  O  O28  1  0.561152  0.778475  0.423889  1
  O  O29  1  0.722448  0.939630  0.077019  1
  O  O30  1  0.778475  0.423889  0.561152  1
  O  O31  1  0.994399  0.210860  0.373703  1
  O  O32  1  0.497087  0.872263  0.711645  1
  O  O33  1  0.939630  0.077019  0.722448  1
  O  O34  1  0.711645  0.497087  0.872263  1
  O  O35  1  0.872263  0.711645  0.497087  1
