# generated using pymatgen
data_BaV2H2(Se2O7)2
_symmetry_space_group_name_H-M   'P 1'
_cell_length_a   9.88786899
_cell_length_b   7.20611870
_cell_length_c   10.01289904
_cell_angle_alpha   90.00000000
_cell_angle_beta   116.52513143
_cell_angle_gamma   90.00000000
_symmetry_Int_Tables_number   1
_chemical_formula_structural   BaV2H2(Se2O7)2
_chemical_formula_sum   'Ba2 V4 H4 Se8 O28'
_cell_volume   638.35182981
_cell_formula_units_Z   2
loop_
 _symmetry_equiv_pos_site_id
 _symmetry_equiv_pos_as_xyz
  1  'x, y, z'
loop_
 _atom_site_type_symbol
 _atom_site_label
 _atom_site_symmetry_multiplicity
 _atom_site_fract_x
 _atom_site_fract_y
 _atom_site_fract_z
 _atom_site_occupancy
  Ba  Ba0  1  0.500000  0.500000  0.000000  1
  Ba  Ba1  1  0.500000  0.000000  0.500000  1
  V  V2  1  0.705471  0.474036  0.445269  1
  V  V3  1  0.294529  0.974036  0.054731  1
  V  V4  1  0.294529  0.525964  0.554731  1
  V  V5  1  0.705471  0.025964  0.945269  1
  H  H6  1  0.130866  0.568697  0.945523  1
  H  H7  1  0.869134  0.068697  0.554477  1
  H  H8  1  0.869134  0.431303  0.054477  1
  H  H9  1  0.130866  0.931303  0.445523  1
  Se  Se10  1  0.055403  0.573879  0.688796  1
  Se  Se11  1  0.944597  0.073879  0.811204  1
  Se  Se12  1  0.944597  0.426121  0.311204  1
  Se  Se13  1  0.055403  0.926121  0.188796  1
  Se  Se14  1  0.684839  0.494818  0.751087  1
  Se  Se15  1  0.315161  0.994818  0.748913  1
  Se  Se16  1  0.315161  0.505182  0.248913  1
  Se  Se17  1  0.684839  0.005182  0.251087  1
  O  O18  1  0.926685  0.409789  0.580679  1
  O  O19  1  0.073315  0.909789  0.919321  1
  O  O20  1  0.073315  0.590211  0.419321  1
  O  O21  1  0.926685  0.090211  0.080679  1
  O  O22  1  0.652148  0.347294  0.601150  1
  O  O23  1  0.347852  0.847294  0.898850  1
  O  O24  1  0.347852  0.652706  0.398850  1
  O  O25  1  0.652148  0.152706  0.101150  1
  O  O26  1  0.496029  0.434008  0.281438  1
  O  O27  1  0.503971  0.934008  0.218562  1
  O  O28  1  0.503971  0.565992  0.718562  1
  O  O29  1  0.496029  0.065992  0.781438  1
  O  O30  1  0.722670  0.153905  0.399675  1
  O  O31  1  0.277330  0.653905  0.100325  1
  O  O32  1  0.277330  0.846095  0.600325  1
  O  O33  1  0.722670  0.346095  0.899675  1
  O  O34  1  0.771238  0.520082  0.282366  1
  O  O35  1  0.228762  0.020082  0.217634  1
  O  O36  1  0.228762  0.479918  0.717634  1
  O  O37  1  0.771238  0.979918  0.782366  1
  O  O38  1  0.695709  0.689571  0.496237  1
  O  O39  1  0.304291  0.189571  0.003763  1
  O  O40  1  0.304291  0.310429  0.503763  1
  O  O41  1  0.695709  0.810429  0.996237  1
  O  O42  1  0.053961  0.497055  0.857154  1
  O  O43  1  0.946039  0.997055  0.642846  1
  O  O44  1  0.946039  0.502945  0.142846  1
  O  O45  1  0.053961  0.002945  0.357154  1
