# generated using pymatgen
data_Li24Ti5Cr7O36
_symmetry_space_group_name_H-M   'P 1'
_cell_length_a   5.05169576
_cell_length_b   13.39815196
_cell_length_c   9.78413785
_cell_angle_alpha   97.18501220
_cell_angle_beta   94.68122923
_cell_angle_gamma   100.66401116
_symmetry_Int_Tables_number   1
_chemical_formula_structural   Li24Ti5Cr7O36
_chemical_formula_sum   'Li24 Ti5 Cr7 O36'
_cell_volume   641.93858893
_cell_formula_units_Z   1
loop_
 _symmetry_equiv_pos_site_id
 _symmetry_equiv_pos_as_xyz
  1  'x, y, z'
loop_
 _atom_site_type_symbol
 _atom_site_label
 _atom_site_symmetry_multiplicity
 _atom_site_fract_x
 _atom_site_fract_y
 _atom_site_fract_z
 _atom_site_occupancy
  Li  Li0  1  0.835356  0.166839  0.998712  1
  Li  Li1  1  0.950333  0.385523  0.999237  1
  Li  Li2  1  0.002367  0.750188  0.249065  1
  Li  Li3  1  0.666870  0.082812  0.249655  1
  Li  Li4  1  0.953793  0.887712  0.502712  1
  Li  Li5  1  0.623377  0.221094  0.499105  1
  Li  Li6  1  0.826416  0.667135  0.501146  1
  Li  Li7  1  0.498829  0.001156  0.497874  1
  Li  Li8  1  0.715626  0.445241  0.498639  1
  Li  Li9  1  0.665071  0.584781  0.750287  1
  Li  Li10  1  0.490695  0.502186  0.000759  1
  Li  Li11  1  0.717608  0.947413  0.999141  1
  Li  Li12  1  0.385658  0.281635  0.002219  1
  Li  Li13  1  0.618236  0.719602  0.000671  1
  Li  Li14  1  0.281447  0.052546  -0.000012  1
  Li  Li15  1  0.336370  0.417378  0.249956  1
  Li  Li16  1  0.293257  0.554385  0.500342  1
  Li  Li17  1  0.158756  0.334449  0.500452  1
  Li  Li18  1  0.378724  0.777272  0.497941  1
  Li  Li19  1  0.046472  0.112622  0.501636  1
  Li  Li20  1  0.333595  0.916086  0.749627  1
  Li  Li21  1  0.166712  0.832297  0.001665  1
  Li  Li22  1  0.999311  0.249617  0.749844  1
  Li  Li23  1  0.050705  0.612506  0.000176  1
  Ti  Ti24  1  0.887194  0.527035  0.249637  1
  Ti  Ti25  1  0.551157  0.360532  0.744250  1
  Ti  Ti26  1  0.447622  0.139606  0.754888  1
  Ti  Ti27  1  0.223997  0.192216  0.253816  1
  Ti  Ti28  1  0.227093  0.693830  0.751255  1
  Cr  Cr29  1  0.895336  0.025616  0.750004  1
  Cr  Cr30  1  0.780806  0.305659  0.248733  1
  Cr  Cr31  1  0.774459  0.806906  0.748247  1
  Cr  Cr32  1  0.554354  0.864674  0.248175  1
  Cr  Cr33  1  0.447894  0.641992  0.251231  1
  Cr  Cr34  1  0.104399  0.473562  0.751521  1
  Cr  Cr35  1  0.105616  0.968613  0.249296  1
  O  O36  1  0.000965  0.069135  0.137964  1
  O  O37  1  0.930356  0.212908  0.366452  1
  O  O38  1  0.000509  0.568160  0.637370  1
  O  O39  1  0.854029  0.355572  0.636332  1
  O  O40  1  0.737576  0.115783  0.635934  1
  O  O41  1  0.664393  0.405971  0.135482  1
  O  O42  1  0.928538  0.716843  0.864049  1
  O  O43  1  0.818591  0.478498  0.862413  1
  O  O44  1  0.598322  0.046355  0.864344  1
  O  O45  1  0.866519  0.859430  0.137686  1
  O  O46  1  0.730841  0.619849  0.135198  1
  O  O47  1  0.528310  0.190574  0.138191  1
  O  O48  1  0.666272  0.262290  0.863962  1
  O  O49  1  0.800078  0.972296  0.362728  1
  O  O50  1  0.600617  0.548224  0.367655  1
  O  O51  1  0.480695  0.310140  0.361338  1
  O  O52  1  0.662570  0.761093  0.358842  1
  O  O53  1  0.331983  0.092801  0.363225  1
  O  O54  1  0.662808  0.900444  0.638484  1
  O  O55  1  0.332768  0.237418  0.635211  1
  O  O56  1  0.520675  0.689036  0.634853  1
  O  O57  1  0.401790  0.453629  0.636011  1
  O  O58  1  0.181227  0.021578  0.636831  1
  O  O59  1  0.334879  0.741626  0.137822  1
  O  O60  1  0.485276  0.811224  0.863214  1
  O  O61  1  0.260553  0.383235  0.863647  1
  O  O62  1  0.145711  0.143859  0.864310  1
  O  O63  1  0.408230  0.949848  0.134704  1
  O  O64  1  0.195311  0.525861  0.138958  1
  O  O65  1  0.063335  0.285306  0.135110  1
  O  O66  1  0.337977  0.597528  0.864856  1
  O  O67  1  0.256533  0.883890  0.364241  1
  O  O68  1  0.147654  0.644426  0.362513  1
  O  O69  1  0.998904  0.424823  0.361480  1
  O  O70  1  0.066375  0.785578  0.635385  1
  O  O71  1  0.003324  0.932055  0.861304  1
