# generated using pymatgen
data_LiCoPO4
_symmetry_space_group_name_H-M   'P 1'
_cell_length_a   10.31623882
_cell_length_b   6.21391549
_cell_length_c   4.71702299
_cell_angle_alpha   90.00000000
_cell_angle_beta   90.00000000
_cell_angle_gamma   90.00000000
_symmetry_Int_Tables_number   1
_chemical_formula_structural   LiCoPO4
_chemical_formula_sum   'Li4 Co4 P4 O16'
_cell_volume   302.38115592
_cell_formula_units_Z   4
loop_
 _symmetry_equiv_pos_site_id
 _symmetry_equiv_pos_as_xyz
  1  'x, y, z'
loop_
 _atom_site_type_symbol
 _atom_site_label
 _atom_site_symmetry_multiplicity
 _atom_site_fract_x
 _atom_site_fract_y
 _atom_site_fract_z
 _atom_site_occupancy
  Li  Li0  1  0.214907  0.750000  0.495002  1
  Li  Li1  1  0.285093  0.250000  0.995002  1
  Li  Li2  1  0.714907  0.750000  0.004998  1
  Li  Li3  1  0.785093  0.250000  0.504998  1
  Co  Co4  1  0.000000  0.000000  0.000000  1
  Co  Co5  1  0.000000  0.500000  0.000000  1
  Co  Co6  1  0.500000  0.000000  0.500000  1
  Co  Co7  1  0.500000  0.500000  0.500000  1
  P  P8  1  0.093571  0.250000  0.417644  1
  P  P9  1  0.406429  0.750000  0.917644  1
  P  P10  1  0.593571  0.250000  0.082356  1
  P  P11  1  0.906429  0.750000  0.582356  1
  O  O12  1  0.047617  0.750000  0.721126  1
  O  O13  1  0.085960  0.250000  0.747940  1
  O  O14  1  0.158534  0.044762  0.297170  1
  O  O15  1  0.158534  0.455238  0.297170  1
  O  O16  1  0.341466  0.544762  0.797170  1
  O  O17  1  0.341466  0.955238  0.797170  1
  O  O18  1  0.414040  0.750000  0.247940  1
  O  O19  1  0.452383  0.250000  0.221126  1
  O  O20  1  0.547617  0.750000  0.778874  1
  O  O21  1  0.585960  0.250000  0.752060  1
  O  O22  1  0.658534  0.044762  0.202830  1
  O  O23  1  0.658534  0.455238  0.202830  1
  O  O24  1  0.841466  0.544762  0.702830  1
  O  O25  1  0.841466  0.955238  0.702830  1
  O  O26  1  0.914040  0.750000  0.252060  1
  O  O27  1  0.952383  0.250000  0.278874  1
