# generated using pymatgen
data_Sr(IO3)2
_symmetry_space_group_name_H-M   'P 1'
_cell_length_a   7.53115624
_cell_length_b   11.83106844
_cell_length_c   7.61287486
_cell_angle_alpha   90.00000000
_cell_angle_beta   105.99742455
_cell_angle_gamma   90.00000000
_symmetry_Int_Tables_number   1
_chemical_formula_structural   Sr(IO3)2
_chemical_formula_sum   'Sr4 I8 O24'
_cell_volume   652.05097670
_cell_formula_units_Z   4
loop_
 _symmetry_equiv_pos_site_id
 _symmetry_equiv_pos_as_xyz
  1  'x, y, z'
loop_
 _atom_site_type_symbol
 _atom_site_label
 _atom_site_symmetry_multiplicity
 _atom_site_fract_x
 _atom_site_fract_y
 _atom_site_fract_z
 _atom_site_occupancy
  Sr  Sr0  1  0.227124  0.901369  0.992839  1
  Sr  Sr1  1  0.272876  0.401369  0.507161  1
  Sr  Sr2  1  0.727124  0.598631  0.492839  1
  Sr  Sr3  1  0.772876  0.098631  0.007161  1
  I  I4  1  0.259216  0.213940  0.942027  1
  I  I5  1  0.240784  0.713940  0.557973  1
  I  I6  1  0.227039  0.074698  0.463105  1
  I  I7  1  0.272961  0.574698  0.036895  1
  I  I8  1  0.727039  0.425302  0.963105  1
  I  I9  1  0.772961  0.925302  0.536895  1
  I  I10  1  0.759216  0.286060  0.442027  1
  I  I11  1  0.740784  0.786060  0.057973  1
  O  O12  1  0.095364  0.107871  0.975101  1
  O  O13  1  0.022654  0.907953  0.648745  1
  O  O14  1  0.075617  0.610171  0.595574  1
  O  O15  1  0.152195  0.253760  0.703961  1
  O  O16  1  0.347805  0.753760  0.796039  1
  O  O17  1  0.181603  0.700659  0.121354  1
  O  O18  1  0.198701  0.462219  0.165772  1
  O  O19  1  0.424383  0.110171  0.904426  1
  O  O20  1  0.301299  0.962219  0.334228  1
  O  O21  1  0.318397  0.200659  0.378646  1
  O  O22  1  0.477346  0.407953  0.851255  1
  O  O23  1  0.404636  0.607871  0.524899  1
  O  O24  1  0.595364  0.392129  0.475101  1
  O  O25  1  0.522654  0.592047  0.148745  1
  O  O26  1  0.681603  0.799341  0.621354  1
  O  O27  1  0.698701  0.037781  0.665772  1
  O  O28  1  0.575617  0.889829  0.095574  1
  O  O29  1  0.801299  0.537781  0.834228  1
  O  O30  1  0.818397  0.299341  0.878646  1
  O  O31  1  0.652195  0.246240  0.203961  1
  O  O32  1  0.847805  0.746240  0.296039  1
  O  O33  1  0.924383  0.389829  0.404426  1
  O  O34  1  0.977346  0.092047  0.351255  1
  O  O35  1  0.904636  0.892129  0.024899  1
