# generated using pymatgen
data_Li3Fe8(BO3)8
_symmetry_space_group_name_H-M   'P 1'
_cell_length_a   5.29285651
_cell_length_b   9.01982641
_cell_length_c   11.42039001
_cell_angle_alpha   113.29712390
_cell_angle_beta   77.58683242
_cell_angle_gamma   89.92798105
_symmetry_Int_Tables_number   1
_chemical_formula_structural   Li3Fe8(BO3)8
_chemical_formula_sum   'Li3 Fe8 B8 O24'
_cell_volume   486.78952627
_cell_formula_units_Z   1
loop_
 _symmetry_equiv_pos_site_id
 _symmetry_equiv_pos_as_xyz
  1  'x, y, z'
loop_
 _atom_site_type_symbol
 _atom_site_label
 _atom_site_symmetry_multiplicity
 _atom_site_fract_x
 _atom_site_fract_y
 _atom_site_fract_z
 _atom_site_occupancy
  Li  Li0  1  0.161026  0.171282  0.357332  1
  Li  Li1  1  0.609145  0.051103  0.097332  1
  Li  Li2  1  0.430004  0.931057  0.836253  1
  Fe  Fe3  1  0.401650  0.271406  0.861642  1
  Fe  Fe4  1  0.088946  0.235574  0.116798  1
  Fe  Fe5  1  0.849520  0.148019  0.622228  1
  Fe  Fe6  1  0.652027  0.358476  0.375665  1
  Fe  Fe7  1  0.339401  0.641634  0.625205  1
  Fe  Fe8  1  0.147268  0.844393  0.372394  1
  Fe  Fe9  1  0.911041  0.767913  0.873599  1
  Fe  Fe10  1  0.603534  0.722513  0.125427  1
  B  B11  1  0.649258  0.014818  0.364110  1
  B  B12  1  0.887083  0.102216  0.873122  1
  B  B13  1  0.141250  0.515092  0.374819  1
  B  B14  1  0.405646  0.610409  0.875493  1
  B  B15  1  0.865387  0.477444  0.615121  1
  B  B16  1  0.597310  0.389997  0.118762  1
  B  B17  1  0.344387  0.979646  0.622643  1
  B  B18  1  0.107494  0.899086  0.133805  1
  O  O19  1  0.134885  0.126042  0.900121  1
  O  O20  1  0.450837  0.126311  0.666977  1
  O  O21  1  0.228256  0.034886  0.136581  1
  O  O22  1  0.535018  0.151113  0.360617  1
  O  O23  1  0.886959  0.021551  0.398515  1
  O  O24  1  0.778113  0.201802  0.827704  1
  O  O25  1  0.299104  0.469265  0.860013  1
  O  O26  1  0.032412  0.365302  0.334299  1
  O  O27  1  0.691065  0.285863  0.170799  1
  O  O28  1  0.635115  0.479630  0.570506  1
  O  O29  1  0.984017  0.336840  0.598170  1
  O  O30  1  0.397039  0.339975  0.056086  1
  O  O31  1  0.607387  0.658677  0.938123  1
  O  O32  1  0.363582  0.520649  0.424045  1
  O  O33  1  0.313831  0.716352  0.826635  1
  O  O34  1  0.968396  0.625650  0.667858  1
  O  O35  1  0.706230  0.528905  0.132765  1
  O  O36  1  0.218110  0.788179  0.171460  1
  O  O37  1  0.141534  0.964535  0.560084  1
  O  O38  1  0.430370  0.853028  0.647045  1
  O  O39  1  0.037915  0.644972  0.366931  1
  O  O40  1  0.751015  0.983097  0.897764  1
  O  O41  1  0.530466  0.871057  0.328910  1
  O  O42  1  0.872263  0.869166  0.094840  1
