# generated using pymatgen
data_Ti17(NO4)6
_symmetry_space_group_name_H-M   'P 1'
_cell_length_a   11.47860746
_cell_length_b   9.66617628
_cell_length_c   11.29218595
_cell_angle_alpha   115.27496200
_cell_angle_beta   80.25780029
_cell_angle_gamma   89.99377032
_symmetry_Int_Tables_number   1
_chemical_formula_structural   Ti17(NO4)6
_chemical_formula_sum   'Ti34 N12 O48'
_cell_volume   1112.94857398
_cell_formula_units_Z   2
loop_
 _symmetry_equiv_pos_site_id
 _symmetry_equiv_pos_as_xyz
  1  'x, y, z'
loop_
 _atom_site_type_symbol
 _atom_site_label
 _atom_site_symmetry_multiplicity
 _atom_site_fract_x
 _atom_site_fract_y
 _atom_site_fract_z
 _atom_site_occupancy
  Ti  Ti0  1  0.091983  0.069645  0.423084  1
  Ti  Ti1  1  0.039616  0.176639  0.749445  1
  Ti  Ti2  1  0.071619  0.425995  0.574779  1
  Ti  Ti3  1  0.010344  0.608250  0.942514  1
  Ti  Ti4  1  0.149599  0.897703  0.076902  1
  Ti  Ti5  1  0.125127  0.320663  0.249708  1
  Ti  Ti6  1  0.183735  0.102297  0.923098  1
  Ti  Ti7  1  0.208206  0.679337  0.750292  1
  Ti  Ti8  1  0.261715  0.574005  0.425221  1
  Ti  Ti9  1  0.241350  0.930355  0.576916  1
  Ti  Ti10  1  0.322989  0.391750  0.057486  1
  Ti  Ti11  1  0.293718  0.823361  0.250555  1
  Ti  Ti12  1  0.456241  0.323458  0.250506  1
  Ti  Ti13  1  0.404536  0.424065  0.571057  1
  Ti  Ti14  1  0.487511  0.899566  0.071769  1
  Ti  Ti15  1  0.344913  0.601943  0.929943  1
  Ti  Ti16  1  0.425237  0.087863  0.446919  1
  Ti  Ti17  1  0.595824  0.574618  0.427088  1
  Ti  Ti18  1  0.565927  0.930602  0.576267  1
  Ti  Ti19  1  0.540135  0.677752  0.749529  1
  Ti  Ti20  1  0.655259  0.395121  0.072075  1
  Ti  Ti21  1  0.622173  0.822903  0.250507  1
  Ti  Ti22  1  0.507551  0.104476  0.923025  1
  Ti  Ti23  1  0.711160  0.177097  0.749493  1
  Ti  Ti24  1  0.767407  0.069398  0.423733  1
  Ti  Ti25  1  0.737509  0.425382  0.572912  1
  Ti  Ti26  1  0.793198  0.322248  0.250471  1
  Ti  Ti27  1  0.678074  0.604879  0.927925  1
  Ti  Ti28  1  0.825782  0.895524  0.076975  1
  Ti  Ti29  1  0.845823  0.100434  0.928231  1
  Ti  Ti30  1  0.928798  0.575935  0.428943  1
  Ti  Ti31  1  0.908096  0.912137  0.553081  1
  Ti  Ti32  1  0.877092  0.676542  0.749494  1
  Ti  Ti33  1  0.988420  0.398057  0.070057  1
  N  N34  1  0.042326  0.606556  0.750894  1
  N  N35  1  0.138443  0.904656  0.250513  1
  N  N36  1  0.291007  0.393444  0.249106  1
  N  N37  1  0.194890  0.095344  0.749487  1
  N  N38  1  0.374214  0.607930  0.749920  1
  N  N39  1  0.459110  0.897569  0.249400  1
  N  N40  1  0.556207  0.095080  0.749446  1
  N  N41  1  0.624829  0.394301  0.249756  1
  N  N42  1  0.708504  0.605699  0.750244  1
  N  N43  1  0.777127  0.904920  0.250554  1
  N  N44  1  0.959119  0.392070  0.250080  1
  N  N45  1  0.874224  0.102431  0.750600  1
  O  O46  1  0.143303  0.107576  0.119449  1
  O  O47  1  0.071282  0.970732  0.561621  1
  O  O48  1  0.094056  0.529690  0.436425  1
  O  O49  1  0.065992  0.262246  0.619151  1
  O  O50  1  0.102901  0.238788  0.381306  1
  O  O51  1  0.156719  0.341250  0.061557  1
  O  O52  1  0.020102  0.389495  0.877252  1
  O  O53  1  0.008912  0.153649  0.933739  1
  O  O54  1  0.239278  0.470310  0.563575  1
  O  O55  1  0.190030  0.892424  0.880551  1
  O  O56  1  0.313232  0.610505  0.122748  1
  O  O57  1  0.176614  0.658750  0.938443  1
  O  O58  1  0.262051  0.029268  0.438379  1
  O  O59  1  0.230432  0.761212  0.618694  1
  O  O60  1  0.324421  0.846351  0.066261  1
  O  O61  1  0.267341  0.737754  0.380849  1
  O  O62  1  0.427248  0.532239  0.433638  1
  O  O63  1  0.489411  0.342032  0.061419  1
  O  O64  1  0.408298  0.951580  0.551202  1
  O  O65  1  0.398515  0.262357  0.610600  1
  O  O66  1  0.483110  0.107920  0.118903  1
  O  O67  1  0.342116  0.150221  0.948313  1
  O  O68  1  0.351328  0.402391  0.890858  1
  O  O69  1  0.436306  0.238064  0.377589  1
  O  O70  1  0.562656  0.761057  0.618514  1
  O  O71  1  0.606252  0.736601  0.379828  1
  O  O72  1  0.519278  0.892507  0.881413  1
  O  O73  1  0.572537  0.469753  0.563043  1
  O  O74  1  0.591836  0.028587  0.438128  1
  O  O75  1  0.646233  0.606526  0.118582  1
  O  O76  1  0.654279  0.841120  0.063437  1
  O  O77  1  0.510704  0.655644  0.935291  1
  O  O78  1  0.822629  0.344356  0.064709  1
  O  O79  1  0.687100  0.393474  0.881418  1
  O  O80  1  0.679055  0.158880  0.936563  1
  O  O81  1  0.727081  0.263399  0.620172  1
  O  O82  1  0.770677  0.238943  0.381486  1
  O  O83  1  0.741497  0.971413  0.561872  1
  O  O84  1  0.814055  0.107493  0.118587  1
  O  O85  1  0.760796  0.530247  0.436957  1
  O  O86  1  0.850224  0.892080  0.881097  1
  O  O87  1  0.991217  0.849779  0.051687  1
  O  O88  1  0.906085  0.467761  0.566362  1
  O  O89  1  0.843922  0.657968  0.938581  1
  O  O90  1  0.897027  0.761936  0.622411  1
  O  O91  1  0.934819  0.737643  0.389400  1
  O  O92  1  0.982006  0.597609  0.109142  1
  O  O93  1  0.925036  0.048420  0.448798  1
