# generated using pymatgen
data_V5As3
_symmetry_space_group_name_H-M   'P 1'
_cell_length_a   4.94560829
_cell_length_b   7.13096885
_cell_length_c   7.13096934
_cell_angle_alpha   83.09351038
_cell_angle_beta   69.71012967
_cell_angle_gamma   69.71013205
_symmetry_Int_Tables_number   1
_chemical_formula_structural   V5As3
_chemical_formula_sum   'V10 As6'
_cell_volume   221.24651759
_cell_formula_units_Z   2
loop_
 _symmetry_equiv_pos_site_id
 _symmetry_equiv_pos_as_xyz
  1  'x, y, z'
loop_
 _atom_site_type_symbol
 _atom_site_label
 _atom_site_symmetry_multiplicity
 _atom_site_fract_x
 _atom_site_fract_y
 _atom_site_fract_z
 _atom_site_occupancy
  V  V0  1  0.577543  0.696358  0.148555  1
  V  V1  1  0.250000  0.500000  0.500000  1
  V  V2  1  0.077543  0.148555  0.696358  1
  V  V3  1  0.750000  0.500000  0.500000  1
  V  V4  1  0.726098  0.851445  0.696358  1
  V  V5  1  0.422457  0.303642  0.851445  1
  V  V6  1  0.922457  0.851445  0.303642  1
  V  V7  1  0.773902  0.303642  0.148555  1
  V  V8  1  0.273902  0.148555  0.303642  1
  V  V9  1  0.226098  0.696358  0.851445  1
  As  As10  1  0.164179  0.500000  0.171642  1
  As  As11  1  0.835821  0.500000  0.828358  1
  As  As12  1  0.250000  -0.000000  -0.000000  1
  As  As13  1  0.664179  0.171642  0.500000  1
  As  As14  1  0.335821  0.828358  0.500000  1
  As  As15  1  0.750000  0.000000  -0.000000  1
