# generated using pymatgen
data_Na3Ni2P2(CO7)2
_symmetry_space_group_name_H-M   'P 1'
_cell_length_a   9.00944991
_cell_length_b   8.27328073
_cell_length_c   8.28453808
_cell_angle_alpha   77.10635007
_cell_angle_beta   89.02614625
_cell_angle_gamma   91.10684413
_symmetry_Int_Tables_number   1
_chemical_formula_structural   Na3Ni2P2(CO7)2
_chemical_formula_sum   'Na6 Ni4 P4 C4 O28'
_cell_volume   601.68438125
_cell_formula_units_Z   2
loop_
 _symmetry_equiv_pos_site_id
 _symmetry_equiv_pos_as_xyz
  1  'x, y, z'
loop_
 _atom_site_type_symbol
 _atom_site_label
 _atom_site_symmetry_multiplicity
 _atom_site_fract_x
 _atom_site_fract_y
 _atom_site_fract_z
 _atom_site_occupancy
  Na  Na0  1  0.752820  0.618862  0.368133  1
  Na  Na1  1  0.763140  0.369229  0.129360  1
  Na  Na2  1  0.743794  0.891360  0.658739  1
  Na  Na3  1  0.246731  0.622604  0.865995  1
  Na  Na4  1  0.239814  0.380848  0.619389  1
  Na  Na5  1  0.251631  0.908114  0.141110  1
  Ni  Ni6  1  0.649499  0.016297  0.229943  1
  Ni  Ni7  1  0.652556  0.513299  0.730197  1
  Ni  Ni8  1  0.352746  0.982740  0.764170  1
  Ni  Ni9  1  0.346030  0.477665  0.265662  1
  P  P10  1  0.570439  0.235137  0.509074  1
  P  P11  1  0.574255  0.728388  0.022658  1
  P  P12  1  0.427736  0.267758  0.978361  1
  P  P13  1  0.427888  0.764533  0.485353  1
  C  C14  1  0.920690  0.483736  0.762416  1
  C  C15  1  0.917631  0.983810  0.272741  1
  C  C16  1  0.082287  0.012854  0.734580  1
  C  C17  1  0.079407  0.520536  0.233684  1
  O  O18  1  0.946143  0.031095  0.717285  1
  O  O19  1  0.942952  0.538637  0.213959  1
  O  O20  1  0.860141  0.597935  0.650884  1
  O  O21  1  0.863557  0.094972  0.155581  1
  O  O22  1  0.822825  0.386719  0.853995  1
  O  O23  1  0.816978  0.894402  0.370125  1
  O  O24  1  0.670773  0.671991  0.890607  1
  O  O25  1  0.669501  0.181458  0.376852  1
  O  O26  1  0.668012  0.369756  0.560940  1
  O  O27  1  0.675225  0.849125  0.090339  1
  O  O28  1  0.572748  0.198050  0.054901  1
  O  O29  1  0.578884  0.697418  0.554684  1
  O  O30  1  0.538355  0.084818  0.655580  1
  O  O31  1  0.538061  0.575174  0.168788  1
  O  O32  1  0.462701  0.414842  0.826023  1
  O  O33  1  0.461847  0.909828  0.334009  1
  O  O34  1  0.427676  0.805305  0.953622  1
  O  O35  1  0.420357  0.303021  0.442134  1
  O  O36  1  0.329327  0.136633  0.921411  1
  O  O37  1  0.333413  0.817404  0.620669  1
  O  O38  1  0.324567  0.334305  0.098044  1
  O  O39  1  0.330286  0.630993  0.431823  1
  O  O40  1  0.179481  0.106503  0.638926  1
  O  O41  1  0.180564  0.615728  0.142295  1
  O  O42  1  0.136345  0.405294  0.344989  1
  O  O43  1  0.139375  0.899617  0.849236  1
  O  O44  1  0.057929  0.470231  0.778899  1
  O  O45  1  0.052881  0.960821  0.291679  1
