# generated using pymatgen
data_LiCu2PO4
_symmetry_space_group_name_H-M   'P 1'
_cell_length_a   6.28636325
_cell_length_b   5.37187896
_cell_length_c   5.19135468
_cell_angle_alpha   90.00000000
_cell_angle_beta   89.63680092
_cell_angle_gamma   90.00000000
_symmetry_Int_Tables_number   1
_chemical_formula_structural   LiCu2PO4
_chemical_formula_sum   'Li2 Cu4 P2 O8'
_cell_volume   175.30635808
_cell_formula_units_Z   2
loop_
 _symmetry_equiv_pos_site_id
 _symmetry_equiv_pos_as_xyz
  1  'x, y, z'
loop_
 _atom_site_type_symbol
 _atom_site_label
 _atom_site_symmetry_multiplicity
 _atom_site_fract_x
 _atom_site_fract_y
 _atom_site_fract_z
 _atom_site_occupancy
  Li  Li0  1  0.003984  0.181803  0.006519  1
  Li  Li1  1  0.503984  0.818197  0.506519  1
  Cu  Cu2  1  0.004460  0.814072  0.516522  1
  Cu  Cu3  1  0.252834  0.293355  0.498628  1
  Cu  Cu4  1  0.504460  0.185928  0.016522  1
  Cu  Cu5  1  0.752834  0.706645  0.998628  1
  P  P6  1  0.255166  0.678059  0.008971  1
  P  P7  1  0.755166  0.321941  0.508971  1
  O  O8  1  0.053699  0.826269  0.916143  1
  O  O9  1  0.240239  0.404018  0.910957  1
  O  O10  1  0.266684  0.688140  0.305211  1
  O  O11  1  0.456165  0.804936  0.886479  1
  O  O12  1  0.553699  0.173731  0.416143  1
  O  O13  1  0.740239  0.595982  0.410957  1
  O  O14  1  0.766684  0.311860  0.805211  1
  O  O15  1  0.956165  0.195064  0.386479  1
