# generated using pymatgen
data_Li3V3P8O29
_symmetry_space_group_name_H-M   'P 1'
_cell_length_a   9.78381581
_cell_length_b   9.75640991
_cell_length_c   14.23165204
_cell_angle_alpha   89.97658318
_cell_angle_beta   90.29213939
_cell_angle_gamma   60.00764987
_symmetry_Int_Tables_number   1
_chemical_formula_structural   Li3V3P8O29
_chemical_formula_sum   'Li6 V6 P16 O58'
_cell_volume   1176.54773006
_cell_formula_units_Z   2
loop_
 _symmetry_equiv_pos_site_id
 _symmetry_equiv_pos_as_xyz
  1  'x, y, z'
loop_
 _atom_site_type_symbol
 _atom_site_label
 _atom_site_symmetry_multiplicity
 _atom_site_fract_x
 _atom_site_fract_y
 _atom_site_fract_z
 _atom_site_occupancy
  Li  Li0  1  0.916206  0.776241  0.055918  1
  Li  Li1  1  0.777543  0.308061  0.056210  1
  Li  Li2  1  0.307436  0.915696  0.057873  1
  Li  Li3  1  0.327779  0.769331  0.559184  1
  Li  Li4  1  0.333101  0.329098  0.605997  1
  Li  Li5  1  0.949097  0.030725  0.506542  1
  V  V6  1  0.565280  0.433739  0.253079  1
  V  V7  1  0.430957  0.569836  0.753810  1
  V  V8  1  0.574766  0.994245  0.749754  1
  V  V9  1  0.437269  0.002097  0.253636  1
  V  V10  1  0.000574  0.561748  0.255698  1
  V  V11  1  0.995860  0.431905  0.746912  1
  P  P12  1  0.918687  0.767080  0.840722  1
  P  P13  1  0.778022  0.916545  0.343420  1
  P  P14  1  0.917819  0.303631  0.344034  1
  P  P15  1  0.666735  0.666262  0.132478  1
  P  P16  1  0.662732  0.667732  0.629175  1
  P  P17  1  0.771188  0.315367  0.840552  1
  P  P18  1  0.688749  0.222547  0.659280  1
  P  P19  1  0.317167  0.916915  0.843188  1
  P  P20  1  0.685636  0.086020  0.158969  1
  P  P21  1  0.315452  0.772940  0.342781  1
  P  P22  1  0.226939  0.684414  0.162216  1
  P  P23  1  0.334659  0.333571  0.369288  1
  P  P24  1  0.332631  0.330109  0.867354  1
  P  P25  1  0.088138  0.691505  0.657725  1
  P  P26  1  0.222942  0.087588  0.660845  1
  P  P27  1  0.086583  0.228282  0.159961  1
  O  O28  1  0.006380  0.794728  0.576309  1
  O  O29  1  0.911767  0.741649  0.329771  1
  O  O30  1  0.767465  0.993237  0.074546  1
  O  O31  1  0.748446  0.912484  0.829726  1
  O  O32  1  0.908185  0.617255  0.816643  1
  O  O33  1  0.817690  0.662204  0.175497  1
  O  O34  1  0.918061  0.463970  0.329782  1
  O  O35  1  0.994075  0.238130  0.075023  1
  O  O36  1  0.914910  0.341241  0.829374  1
  O  O37  1  0.661521  0.815786  0.675365  1
  O  O38  1  0.617614  0.918041  0.328657  1
  O  O39  1  0.813277  0.521143  0.672805  1
  O  O40  1  0.665022  0.667676  0.028007  1
  O  O41  1  0.655928  0.674118  0.525205  1
  O  O42  1  0.664253  0.516941  0.173448  1
  O  O43  1  0.476391  0.906446  0.819890  1
  O  O44  1  0.519884  0.817489  0.175415  1
  O  O45  1  0.743331  0.343844  0.328685  1
  O  O46  1  0.787127  0.201347  0.755948  1
  O  O47  1  0.787941  0.204766  0.577411  1
  O  O48  1  0.760055  0.252447  0.932803  1
  O  O49  1  0.619754  0.476958  0.817315  1
  O  O50  1  0.513235  0.667512  0.670345  1
  O  O51  1  0.658795  0.257037  0.160342  1
  O  O52  1  0.475166  0.616689  0.324805  1
  O  O53  1  0.344951  0.913777  0.328157  1
  O  O54  1  0.791831  0.005513  0.251787  1
  O  O55  1  0.792965  0.990971  0.429774  1
  O  O56  1  0.212916  0.992663  0.582299  1
  O  O57  1  0.651270  0.084408  0.666376  1
  O  O58  1  0.526449  0.377049  0.667969  1
  O  O59  1  0.341950  0.746098  0.830276  1
  O  O60  1  0.483433  0.331929  0.326631  1
  O  O61  1  0.381229  0.523717  0.179858  1
  O  O62  1  0.236105  0.771750  0.079677  1
  O  O63  1  0.245617  0.775242  0.435162  1
  O  O64  1  0.201398  0.786236  0.258091  1
  O  O65  1  0.264948  0.654367  0.662051  1
  O  O66  1  0.475881  0.181469  0.821863  1
  O  O67  1  0.524745  0.094186  0.178583  1
  O  O68  1  0.341666  0.475598  0.821011  1
  O  O69  1  0.331642  0.334867  0.971036  1
  O  O70  1  0.335207  0.334145  0.473700  1
  O  O71  1  0.186538  0.483131  0.326706  1
  O  O72  1  0.375463  0.098996  0.667374  1
  O  O73  1  0.332346  0.186275  0.326254  1
  O  O74  1  0.083072  0.658337  0.162107  1
  O  O75  1  0.016534  0.784329  0.756303  1
  O  O76  1  0.991822  0.758551  0.933203  1
  O  O77  1  0.097236  0.527553  0.666192  1
  O  O78  1  0.181814  0.341014  0.819604  1
  O  O79  1  0.092794  0.382220  0.180058  1
  O  O80  1  0.257824  0.085116  0.161441  1
  O  O81  1  0.251590  0.987868  0.935365  1
  O  O82  1  0.200291  0.016887  0.759342  1
  O  O83  1  0.082625  0.261737  0.662359  1
  O  O84  1  0.989962  0.214539  0.431095  1
  O  O85  1  0.006633  0.201745  0.252321  1
