# generated using pymatgen
data_Fe7O9
_symmetry_space_group_name_H-M   'P 1'
_cell_length_a   8.77775052
_cell_length_b   8.58476678
_cell_length_c   8.62024269
_cell_angle_alpha   89.39269646
_cell_angle_beta   89.30478407
_cell_angle_gamma   88.95293130
_symmetry_Int_Tables_number   1
_chemical_formula_structural   Fe7O9
_chemical_formula_sum   'Fe21 O27'
_cell_volume   649.38661691
_cell_formula_units_Z   3
loop_
 _symmetry_equiv_pos_site_id
 _symmetry_equiv_pos_as_xyz
  1  'x, y, z'
loop_
 _atom_site_type_symbol
 _atom_site_label
 _atom_site_symmetry_multiplicity
 _atom_site_fract_x
 _atom_site_fract_y
 _atom_site_fract_z
 _atom_site_occupancy
  Fe  Fe0  1  0.968914  0.512573  0.489923  1
  Fe  Fe1  1  0.085026  0.634290  0.177301  1
  Fe  Fe2  1  0.128004  0.328383  0.917632  1
  Fe  Fe3  1  0.143770  0.087788  0.629463  1
  Fe  Fe4  1  0.257723  0.755557  0.756636  1
  Fe  Fe5  1  0.269962  0.269429  0.264268  1
  Fe  Fe6  1  0.356993  0.904858  0.129752  1
  Fe  Fe7  1  0.362938  0.629815  0.403273  1
  Fe  Fe8  1  0.411751  0.356354  0.627239  1
  Fe  Fe9  1  0.471087  0.491004  0.965435  1
  Fe  Fe10  1  0.469996  0.963889  0.518090  1
  Fe  Fe11  1  0.600468  0.877674  0.871878  1
  Fe  Fe12  1  0.629813  0.144627  0.085115  1
  Fe  Fe13  1  0.630981  0.627747  0.619233  1
  Fe  Fe14  1  0.642320  0.403521  0.331612  1
  Fe  Fe15  1  0.737728  0.773852  0.238172  1
  Fe  Fe16  1  0.777377  0.245881  0.734633  1
  Fe  Fe17  1  0.841331  0.590918  0.881602  1
  Fe  Fe18  1  0.875671  0.874065  0.593979  1
  Fe  Fe19  1  0.913845  0.138459  0.360924  1
  Fe  Fe20  1  0.008447  0.004377  0.033943  1
  O  O21  1  0.129725  0.157796  0.390888  1
  O  O22  1  0.081380  0.858426  0.670310  1
  O  O23  1  0.112538  0.119818  0.867549  1
  O  O24  1  0.166240  0.407964  0.118918  1
  O  O25  1  0.149212  0.594318  0.394147  1
  O  O26  1  0.144025  0.850433  0.121585  1
  O  O27  1  0.370202  0.142003  0.610557  1
  O  O28  1  0.308550  0.410010  0.822291  1
  O  O29  1  0.400823  0.620123  0.621339  1
  O  O30  1  0.384992  0.843590  0.347218  1
  O  O31  1  0.395021  0.127381  0.145511  1
  O  O32  1  0.404415  0.396374  0.391645  1
  O  O33  1  0.386668  0.792265  0.933040  1
  O  O34  1  0.631451  0.384113  0.630242  1
  O  O35  1  0.608933  0.903739  0.111892  1
  O  O36  1  0.625206  0.638573  0.383840  1
  O  O37  1  0.598860  0.367859  0.108203  1
  O  O38  1  0.661591  0.113399  0.866118  1
  O  O39  1  0.641887  0.865583  0.637978  1
  O  O40  1  0.629684  0.621776  0.857595  1
  O  O41  1  0.855021  0.354901  0.385220  1
  O  O42  1  0.845620  0.122282  0.147949  1
  O  O43  1  0.859901  0.895399  0.372437  1
  O  O44  1  0.860233  0.642911  0.650724  1
  O  O45  1  0.920601  0.387105  0.839088  1
  O  O46  1  0.870974  0.671894  0.082952  1
  O  O47  1  0.884206  0.107006  0.598562  1
