# generated using pymatgen
data_LiCoPO4
_symmetry_space_group_name_H-M   'P 1'
_cell_length_a   10.20263294
_cell_length_b   6.83051204
_cell_length_c   5.04508415
_cell_angle_alpha   90.00000000
_cell_angle_beta   90.00000000
_cell_angle_gamma   90.00000000
_symmetry_Int_Tables_number   1
_chemical_formula_structural   LiCoPO4
_chemical_formula_sum   'Li4 Co4 P4 O16'
_cell_volume   351.58791435
_cell_formula_units_Z   4
loop_
 _symmetry_equiv_pos_site_id
 _symmetry_equiv_pos_as_xyz
  1  'x, y, z'
loop_
 _atom_site_type_symbol
 _atom_site_label
 _atom_site_symmetry_multiplicity
 _atom_site_fract_x
 _atom_site_fract_y
 _atom_site_fract_z
 _atom_site_occupancy
  Li  Li0  1  0.146372  0.507557  0.244944  1
  Li  Li1  1  0.353628  0.007557  0.744944  1
  Li  Li2  1  0.646372  0.992443  0.244944  1
  Li  Li3  1  0.853628  0.492443  0.744944  1
  Co  Co4  1  0.163052  0.006875  0.247031  1
  Co  Co5  1  0.336948  0.506875  0.747031  1
  Co  Co6  1  0.663052  0.493125  0.247031  1
  Co  Co7  1  0.836948  0.993125  0.747031  1
  P  P8  1  0.096524  0.761241  0.749877  1
  P  P9  1  0.403476  0.261241  0.249877  1
  P  P10  1  0.596524  0.738759  0.749877  1
  P  P11  1  0.903476  0.238759  0.249877  1
  O  O12  1  0.052500  0.240678  0.189577  1
  O  O13  1  0.122758  0.760331  0.054092  1
  O  O14  1  0.155731  0.571830  0.627706  1
  O  O15  1  0.164998  0.945777  0.632623  1
  O  O16  1  0.335002  0.445777  0.132623  1
  O  O17  1  0.344269  0.071830  0.127706  1
  O  O18  1  0.377242  0.260331  0.554092  1
  O  O19  1  0.447500  0.740678  0.689577  1
  O  O20  1  0.552501  0.259322  0.189577  1
  O  O21  1  0.622758  0.739669  0.054092  1
  O  O22  1  0.655731  0.928170  0.627706  1
  O  O23  1  0.664998  0.554223  0.632623  1
  O  O24  1  0.835002  0.054223  0.132623  1
  O  O25  1  0.844269  0.428169  0.127706  1
  O  O26  1  0.877242  0.239669  0.554092  1
  O  O27  1  0.947499  0.759322  0.689577  1
