# generated using pymatgen
data_LiMn2(PO4)2
_symmetry_space_group_name_H-M   'P 1'
_cell_length_a   6.71605073
_cell_length_b   9.09633577
_cell_length_c   9.09345185
_cell_angle_alpha   94.74473445
_cell_angle_beta   64.53018489
_cell_angle_gamma   115.52428359
_symmetry_Int_Tables_number   1
_chemical_formula_structural   LiMn2(PO4)2
_chemical_formula_sum   'Li3 Mn6 P6 O24'
_cell_volume   448.98989891
_cell_formula_units_Z   3
loop_
 _symmetry_equiv_pos_site_id
 _symmetry_equiv_pos_as_xyz
  1  'x, y, z'
loop_
 _atom_site_type_symbol
 _atom_site_label
 _atom_site_symmetry_multiplicity
 _atom_site_fract_x
 _atom_site_fract_y
 _atom_site_fract_z
 _atom_site_occupancy
  Li  Li0  1  0.500875  0.500672  0.499224  1
  Li  Li1  1  0.250267  0.988551  0.988330  1
  Li  Li2  1  0.999117  0.499239  0.500850  1
  Mn  Mn3  1  0.805812  0.378996  0.935067  1
  Mn  Mn4  1  0.749898  0.735573  0.735770  1
  Mn  Mn5  1  0.303951  0.065500  0.615077  1
  Mn  Mn6  1  0.693837  0.935077  0.379794  1
  Mn  Mn7  1  0.250107  0.270236  0.270024  1
  Mn  Mn8  1  0.195198  0.614637  0.065665  1
  P  P9  1  0.844772  0.128721  0.653108  1
  P  P10  1  0.749887  0.290296  0.290825  1
  P  P11  1  0.347211  0.343492  0.871190  1
  P  P12  1  0.655245  0.654032  0.129358  1
  P  P13  1  0.250337  0.710412  0.709808  1
  P  P14  1  0.152896  0.871430  0.344018  1
  O  O15  1  0.722087  0.176874  0.825123  1
  O  O16  1  0.867910  0.171204  0.267584  1
  O  O17  1  0.638752  0.042569  0.592567  1
  O  O18  1  0.955646  0.465755  0.275340  1
  O  O19  1  0.941253  0.722026  0.471178  1
  O  O20  1  0.929346  0.999723  0.669692  1
  O  O21  1  0.571128  0.669938  0.999744  1
  O  O22  1  0.558783  0.470961  0.721763  1
  O  O23  1  0.544846  0.275283  0.465580  1
  O  O24  1  0.861801  0.593748  0.043088  1
  O  O25  1  0.631371  0.267225  0.171793  1
  O  O26  1  0.244790  0.168138  0.823148  1
  O  O27  1  0.776575  0.825481  0.177955  1
  O  O28  1  0.366495  0.736427  0.831475  1
  O  O29  1  0.138407  0.402532  0.955333  1
  O  O30  1  0.455229  0.726045  0.534409  1
  O  O31  1  0.441632  0.529741  0.280141  1
  O  O32  1  0.424486  0.324491  0.004412  1
  O  O33  1  0.075387  0.004579  0.324821  1
  O  O34  1  0.058331  0.279875  0.529713  1
  O  O35  1  0.045598  0.535134  0.725145  1
  O  O36  1  0.360628  0.955225  0.402607  1
  O  O37  1  0.133990  0.831445  0.736273  1
  O  O38  1  0.256121  0.823249  0.167540  1
