# generated using pymatgen
data_LiFe2(BO3)2
_symmetry_space_group_name_H-M   'P 1'
_cell_length_a   5.28479602
_cell_length_b   9.07932033
_cell_length_c   11.35869887
_cell_angle_alpha   113.35446884
_cell_angle_beta   77.56489717
_cell_angle_gamma   89.83907652
_symmetry_Int_Tables_number   1
_chemical_formula_structural   LiFe2(BO3)2
_chemical_formula_sum   'Li4 Fe8 B8 O24'
_cell_volume   486.25683081
_cell_formula_units_Z   4
loop_
 _symmetry_equiv_pos_site_id
 _symmetry_equiv_pos_as_xyz
  1  'x, y, z'
loop_
 _atom_site_type_symbol
 _atom_site_label
 _atom_site_symmetry_multiplicity
 _atom_site_fract_x
 _atom_site_fract_y
 _atom_site_fract_z
 _atom_site_occupancy
  Li  Li0  1  0.171130  0.161819  0.341253  1
  Li  Li1  1  0.608671  0.049034  0.084872  1
  Li  Li2  1  0.934516  0.430828  0.833453  1
  Li  Li3  1  0.671427  0.656391  0.342004  1
  Fe  Fe4  1  0.406220  0.270064  0.868650  1
  Fe  Fe5  1  0.096754  0.231978  0.117064  1
  Fe  Fe6  1  0.840913  0.141305  0.623264  1
  Fe  Fe7  1  0.650215  0.344724  0.377953  1
  Fe  Fe8  1  0.349917  0.649333  0.631490  1
  Fe  Fe9  1  0.155246  0.844536  0.367256  1
  Fe  Fe10  1  0.903170  0.781883  0.865499  1
  Fe  Fe11  1  0.602315  0.715341  0.111960  1
  B  B12  1  0.641190  0.011119  0.371442  1
  B  B13  1  0.890116  0.111273  0.876811  1
  B  B14  1  0.154330  0.518916  0.372121  1
  B  B15  1  0.403654  0.597422  0.866876  1
  B  B16  1  0.850432  0.481810  0.623805  1
  B  B17  1  0.599546  0.389013  0.129629  1
  B  B18  1  0.354251  0.974566  0.614976  1
  B  B19  1  0.090811  0.904307  0.129704  1
  O  O20  1  0.113590  0.145982  0.925385  1
  O  O21  1  0.474365  0.116464  0.654914  1
  O  O22  1  0.214566  0.044013  0.139837  1
  O  O23  1  0.515854  0.136357  0.363706  1
  O  O24  1  0.882215  0.028212  0.410016  1
  O  O25  1  0.816301  0.212339  0.819018  1
  O  O26  1  0.268111  0.471735  0.870206  1
  O  O27  1  0.056546  0.366681  0.328743  1
  O  O28  1  0.717403  0.272968  0.160841  1
  O  O29  1  0.626758  0.480604  0.579308  1
  O  O30  1  0.940966  0.346823  0.635151  1
  O  O31  1  0.381290  0.347275  0.079144  1
  O  O32  1  0.643948  0.619402  0.903777  1
  O  O33  1  0.384185  0.537148  0.414580  1
  O  O34  1  0.303169  0.708325  0.826223  1
  O  O35  1  0.982430  0.618918  0.656074  1
  O  O36  1  0.698390  0.531247  0.148765  1
  O  O37  1  0.201375  0.802227  0.174677  1
  O  O38  1  0.129256  0.974516  0.566487  1
  O  O39  1  0.453485  0.839673  0.618522  1
  O  O40  1  0.023747  0.648834  0.368520  1
  O  O41  1  0.745966  0.994075  0.890927  1
  O  O42  1  0.539125  0.861709  0.341367  1
  O  O43  1  0.865884  0.876847  0.084850  1
