# generated using pymatgen
data_CsErZnSe3
_symmetry_space_group_name_H-M   'P 1'
_cell_length_a   4.16036768
_cell_length_b   8.40679027
_cell_length_c   10.94724470
_cell_angle_alpha   90.00000000
_cell_angle_beta   90.00000000
_cell_angle_gamma   104.32612998
_symmetry_Int_Tables_number   1
_chemical_formula_structural   CsErZnSe3
_chemical_formula_sum   'Cs2 Er2 Zn2 Se6'
_cell_volume   370.97705279
_cell_formula_units_Z   2
loop_
 _symmetry_equiv_pos_site_id
 _symmetry_equiv_pos_as_xyz
  1  'x, y, z'
loop_
 _atom_site_type_symbol
 _atom_site_label
 _atom_site_symmetry_multiplicity
 _atom_site_fract_x
 _atom_site_fract_y
 _atom_site_fract_z
 _atom_site_occupancy
  Zn  Zn0  1  0.537107  0.074214  0.250000  1
  Zn  Zn1  1  0.462893  0.925786  0.750000  1
  Se  Se2  1  0.944364  0.888728  0.250000  1
  Se  Se3  1  0.055636  0.111272  0.750000  1
  Se  Se4  1  0.385270  0.770540  0.942111  1
  Se  Se5  1  0.614730  0.229460  0.057889  1
  Se  Se6  1  0.614730  0.229460  0.442111  1
  Se  Se7  1  0.385270  0.770540  0.557889  1
  Cs  Cs8  1  0.255877  0.511753  0.250000  1
  Cs  Cs9  1  0.744123  0.488247  0.750000  1
  Er  Er10  1  0.000000  0.000000  0.500000  1
  Er  Er11  1  0.000000  0.000000  0.000000  1
