# generated using pymatgen
data_Ba2Na7Ti16Bi7O48
_symmetry_space_group_name_H-M   'P 1'
_cell_length_a   5.65480628
_cell_length_b   5.65447357
_cell_length_c   45.04228970
_cell_angle_alpha   59.00811644
_cell_angle_beta   59.00670238
_cell_angle_gamma   58.70216123
_symmetry_Int_Tables_number   1
_chemical_formula_structural   Ba2Na7Ti16Bi7O48
_chemical_formula_sum   'Ba2 Na7 Ti16 Bi7 O48'
_cell_volume   992.93803827
_cell_formula_units_Z   1
loop_
 _symmetry_equiv_pos_site_id
 _symmetry_equiv_pos_as_xyz
  1  'x, y, z'
loop_
 _atom_site_type_symbol
 _atom_site_label
 _atom_site_symmetry_multiplicity
 _atom_site_fract_x
 _atom_site_fract_y
 _atom_site_fract_z
 _atom_site_occupancy
  Ba  Ba0  1  0.764550  0.764534  0.843245  1
  Ba  Ba1  1  0.758003  0.758188  0.971538  1
  Na  Na2  1  0.266652  0.264470  0.038194  1
  Na  Na3  1  0.278663  0.276913  0.159938  1
  Na  Na4  1  0.278524  0.278322  0.284659  1
  Na  Na5  1  0.279066  0.278766  0.409527  1
  Na  Na6  1  0.279470  0.279082  0.534443  1
  Na  Na7  1  0.283215  0.280293  0.658355  1
  Na  Na8  1  0.288135  0.288501  0.780316  1
  Ti  Ti9  1  0.997059  0.991107  0.007378  1
  Ti  Ti10  1  0.022885  0.015900  0.128410  1
  Ti  Ti11  1  0.514733  0.516850  0.065531  1
  Ti  Ti12  1  0.019905  0.019374  0.252524  1
  Ti  Ti13  1  0.511370  0.510892  0.189980  1
  Ti  Ti14  1  0.020996  0.020993  0.377231  1
  Ti  Ti15  1  0.515681  0.514251  0.314038  1
  Ti  Ti16  1  0.022046  0.020887  0.501996  1
  Ti  Ti17  1  0.516364  0.514773  0.438829  1
  Ti  Ti18  1  0.023938  0.022405  0.626660  1
  Ti  Ti19  1  0.516418  0.515483  0.563720  1
  Ti  Ti20  1  0.023272  0.040771  0.749581  1
  Ti  Ti21  1  0.522883  0.517739  0.687290  1
  Ti  Ti22  1  0.024923  0.021657  0.872057  1
  Ti  Ti23  1  0.521722  0.518602  0.812091  1
  Ti  Ti24  1  0.518319  0.511629  0.941104  1
  Bi  Bi25  1  0.794872  0.783575  0.100185  1
  Bi  Bi26  1  0.789129  0.790605  0.223765  1
  Bi  Bi27  1  0.790935  0.792073  0.348364  1
  Bi  Bi28  1  0.791406  0.792097  0.473298  1
  Bi  Bi29  1  0.793837  0.794770  0.597381  1
  Bi  Bi30  1  0.796158  0.791612  0.723446  1
  Bi  Bi31  1  0.279925  0.282370  0.913379  1
  O  O32  1  0.187656  0.303413  0.096407  1
  O  O33  1  0.267262  0.743354  0.030822  1
  O  O34  1  0.746552  0.223545  0.037124  1
  O  O35  1  0.226759  0.802015  0.089356  1
  O  O36  1  0.693969  0.229714  0.101643  1
  O  O37  1  0.185311  0.309258  0.219570  1
  O  O38  1  0.778768  0.715948  0.034100  1
  O  O39  1  0.310668  0.742232  0.149962  1
  O  O40  1  0.746179  0.182135  0.165251  1
  O  O41  1  0.231294  0.803888  0.212100  1
  O  O42  1  0.689594  0.231731  0.226431  1
  O  O43  1  0.186176  0.310105  0.344169  1
  O  O44  1  0.802704  0.683762  0.155515  1
  O  O45  1  0.310621  0.747203  0.273746  1
  O  O46  1  0.749001  0.185170  0.289389  1
  O  O47  1  0.232274  0.804799  0.336575  1
  O  O48  1  0.691070  0.233952  0.350795  1
  O  O49  1  0.186503  0.310373  0.469080  1
  O  O50  1  0.803089  0.688926  0.279887  1
  O  O51  1  0.310582  0.747816  0.398611  1
  O  O52  1  0.749489  0.186047  0.414211  1
  O  O53  1  0.232775  0.805015  0.461476  1
  O  O54  1  0.691375  0.234536  0.475666  1
  O  O55  1  0.188742  0.312168  0.593467  1
  O  O56  1  0.802992  0.690275  0.404603  1
  O  O57  1  0.311042  0.748122  0.523461  1
  O  O58  1  0.750598  0.185560  0.539070  1
  O  O59  1  0.235274  0.805873  0.586127  1
  O  O60  1  0.692852  0.235064  0.600405  1
  O  O61  1  0.204498  0.314084  0.715833  1
  O  O62  1  0.804109  0.690428  0.529402  1
  O  O63  1  0.318864  0.752288  0.647452  1
  O  O64  1  0.757344  0.188007  0.663299  1
  O  O65  1  0.236403  0.800003  0.711641  1
  O  O66  1  0.699309  0.236399  0.723890  1
  O  O67  1  0.239643  0.265751  0.843293  1
  O  O68  1  0.808639  0.694426  0.653782  1
  O  O69  1  0.285595  0.773590  0.775510  1
  O  O70  1  0.745283  0.248068  0.781725  1
  O  O71  1  0.259791  0.782361  0.838929  1
  O  O72  1  0.724677  0.258710  0.846479  1
  O  O73  1  0.229943  0.261226  0.967435  1
  O  O74  1  0.799768  0.713776  0.778721  1
  O  O75  1  0.259056  0.728481  0.904202  1
  O  O76  1  0.726141  0.227026  0.908095  1
  O  O77  1  0.254788  0.786223  0.964917  1
  O  O78  1  0.720784  0.253011  0.973364  1
  O  O79  1  0.783539  0.709061  0.906347  1
