# generated using pymatgen
data_Li4Cr3Co3(NiO8)2
_symmetry_space_group_name_H-M   'P 1'
_cell_length_a   5.75418964
_cell_length_b   5.76753402
_cell_length_c   9.56453573
_cell_angle_alpha   89.98992002
_cell_angle_beta   89.99723362
_cell_angle_gamma   120.08509458
_symmetry_Int_Tables_number   1
_chemical_formula_structural   Li4Cr3Co3(NiO8)2
_chemical_formula_sum   'Li4 Cr3 Co3 Ni2 O16'
_cell_volume   274.66025300
_cell_formula_units_Z   1
loop_
 _symmetry_equiv_pos_site_id
 _symmetry_equiv_pos_as_xyz
  1  'x, y, z'
loop_
 _atom_site_type_symbol
 _atom_site_label
 _atom_site_symmetry_multiplicity
 _atom_site_fract_x
 _atom_site_fract_y
 _atom_site_fract_z
 _atom_site_occupancy
  Li  Li0  1  0.340181  0.670093  0.891538  1
  Li  Li1  1  0.989833  0.994919  0.996439  1
  Li  Li2  1  0.990983  0.995466  0.498872  1
  Li  Li3  1  0.673992  0.337067  0.396226  1
  Cr  Cr4  1  0.168091  0.831505  0.214431  1
  Cr  Cr5  1  0.168139  0.336643  0.214425  1
  Cr  Cr6  1  0.337661  0.168838  0.714449  1
  Co  Co7  1  0.661629  0.830871  0.214180  1
  Co  Co8  1  0.832111  0.663010  0.713474  1
  Co  Co9  1  0.832092  0.169140  0.713482  1
  Ni  Ni10  1  0.333564  0.666609  0.491501  1
  Ni  Ni11  1  0.666606  0.333235  0.989328  1
  O  O12  1  0.156881  0.839811  0.608794  1
  O  O13  1  0.037171  0.518569  0.328781  1
  O  O14  1  0.338957  0.669557  0.104071  1
  O  O15  1  0.990416  0.995196  0.314588  1
  O  O16  1  0.990361  0.995180  0.811660  1
  O  O17  1  0.156891  0.317094  0.608798  1
  O  O18  1  0.486170  0.964382  0.328936  1
  O  O19  1  0.486143  0.521838  0.328961  1
  O  O20  1  0.319200  0.159666  0.107895  1
  O  O21  1  0.682127  0.841100  0.612852  1
  O  O22  1  0.522418  0.485111  0.826686  1
  O  O23  1  0.522412  0.037346  0.826676  1
  O  O24  1  0.674916  0.337494  0.607351  1
  O  O25  1  0.838660  0.681842  0.109435  1
  O  O26  1  0.963689  0.481846  0.824601  1
  O  O27  1  0.838707  0.156872  0.109406  1
