# generated using pymatgen
data_La2ThTa(ClO2)3
_symmetry_space_group_name_H-M   'P 1'
_cell_length_a   9.44742324
_cell_length_b   9.44840019
_cell_length_c   16.44985489
_cell_angle_alpha   90.00000000
_cell_angle_beta   90.00000000
_cell_angle_gamma   119.99680482
_symmetry_Int_Tables_number   1
_chemical_formula_structural   La2ThTa(ClO2)3
_chemical_formula_sum   'La12 Th6 Ta6 Cl18 O36'
_cell_volume   1271.68145100
_cell_formula_units_Z   6
loop_
 _symmetry_equiv_pos_site_id
 _symmetry_equiv_pos_as_xyz
  1  'x, y, z'
loop_
 _atom_site_type_symbol
 _atom_site_label
 _atom_site_symmetry_multiplicity
 _atom_site_fract_x
 _atom_site_fract_y
 _atom_site_fract_z
 _atom_site_occupancy
  La  La0  1  0.320859  0.913442  0.583333  1
  La  La1  1  0.088332  0.406213  0.250062  1
  La  La2  1  0.088332  0.406213  0.916605  1
  La  La3  1  0.406162  0.322622  0.083333  1
  La  La4  1  0.594168  0.682065  0.249085  1
  La  La5  1  0.593936  0.685734  0.583333  1
  La  La6  1  0.594168  0.682065  0.917582  1
  La  La7  1  0.912652  0.593699  0.415706  1
  La  La8  1  0.912652  0.593699  0.750961  1
  La  La9  1  0.683886  0.088359  0.083333  1
  La  La10  1  0.682733  0.088427  0.749985  1
  La  La11  1  0.682733  0.088427  0.416682  1
  Th  Th12  1  0.326678  0.912497  0.250678  1
  Th  Th13  1  0.326678  0.912497  0.915989  1
  Th  Th14  1  0.084769  0.411785  0.583333  1
  Th  Th15  1  0.413653  0.326053  0.417458  1
  Th  Th16  1  0.413653  0.326053  0.749209  1
  Th  Th17  1  0.908876  0.584867  0.083333  1
  Ta  Ta18  1  0.330819  0.665010  0.083333  1
  Ta  Ta19  1  0.333683  0.665837  0.416744  1
  Ta  Ta20  1  0.333683  0.665837  0.749923  1
  Ta  Ta21  1  0.665892  0.332049  0.250035  1
  Ta  Ta22  1  0.666355  0.332760  0.583333  1
  Ta  Ta23  1  0.665892  0.332049  0.916632  1
  Cl  Cl24  1  0.189761  0.949653  0.083333  1
  Cl  Cl25  1  0.193819  0.956655  0.415872  1
  Cl  Cl26  1  0.193819  0.956655  0.750795  1
  Cl  Cl27  1  0.048989  0.240102  0.083333  1
  Cl  Cl28  1  0.051910  0.239883  0.418043  1
  Cl  Cl29  1  0.051910  0.239883  0.748624  1
  Cl  Cl30  1  0.240145  0.188490  0.251492  1
  Cl  Cl31  1  0.236749  0.193664  0.583333  1
  Cl  Cl32  1  0.240145  0.188490  0.915175  1
  Cl  Cl33  1  0.762225  0.806763  0.083333  1
  Cl  Cl34  1  0.758825  0.807694  0.416179  1
  Cl  Cl35  1  0.758825  0.807694  0.750488  1
  Cl  Cl36  1  0.957182  0.763073  0.248829  1
  Cl  Cl37  1  0.950114  0.757619  0.583333  1
  Cl  Cl38  1  0.957182  0.763073  0.917838  1
  Cl  Cl39  1  0.812438  0.052314  0.583333  1
  Cl  Cl40  1  0.808510  0.049655  0.249726  1
  Cl  Cl41  1  0.808510  0.049655  0.916941  1
  O  O42  1  0.153759  0.638250  0.005563  1
  O  O43  1  0.162807  0.642957  0.337899  1
  O  O44  1  0.156382  0.628494  0.670232  1
  O  O45  1  0.153759  0.638250  0.161103  1
  O  O46  1  0.156382  0.628494  0.496435  1
  O  O47  1  0.162807  0.642957  0.828768  1
  O  O48  1  0.472829  0.842738  0.162532  1
  O  O49  1  0.477218  0.840372  0.493686  1
  O  O50  1  0.472829  0.842738  0.004134  1
  O  O51  1  0.474645  0.843279  0.335462  1
  O  O52  1  0.477218  0.840372  0.672981  1
  O  O53  1  0.474645  0.843279  0.831205  1
  O  O54  1  0.362909  0.523205  0.162224  1
  O  O55  1  0.366978  0.519044  0.825657  1
  O  O56  1  0.362909  0.523205  0.004442  1
  O  O57  1  0.359518  0.514781  0.495615  1
  O  O58  1  0.366978  0.519044  0.341010  1
  O  O59  1  0.359518  0.514781  0.671052  1
  O  O60  1  0.628865  0.471966  0.330040  1
  O  O61  1  0.630255  0.474252  0.662644  1
  O  O62  1  0.643016  0.480437  0.995343  1
  O  O63  1  0.643016  0.480437  0.171324  1
  O  O64  1  0.630255  0.474252  0.504022  1
  O  O65  1  0.628865  0.471966  0.836627  1
  O  O66  1  0.519634  0.151879  0.174109  1
  O  O67  1  0.520753  0.161998  0.662732  1
  O  O68  1  0.514450  0.155063  0.328861  1
  O  O69  1  0.520753  0.161998  0.503934  1
  O  O70  1  0.519634  0.151879  0.992558  1
  O  O71  1  0.514450  0.155063  0.837806  1
  O  O72  1  0.846439  0.364712  0.506228  1
  O  O73  1  0.842906  0.368208  0.168920  1
  O  O74  1  0.840484  0.363730  0.326910  1
  O  O75  1  0.846439  0.364712  0.660438  1
  O  O76  1  0.840484  0.363730  0.839757  1
  O  O77  1  0.842906  0.368208  0.997747  1
