# generated using pymatgen
data_LiMnF4
_symmetry_space_group_name_H-M   'P 1'
_cell_length_a   9.65037315
_cell_length_b   5.75646664
_cell_length_c   5.19436980
_cell_angle_alpha   90.00000000
_cell_angle_beta   90.00000000
_cell_angle_gamma   90.00000000
_symmetry_Int_Tables_number   1
_chemical_formula_structural   LiMnF4
_chemical_formula_sum   'Li4 Mn4 F16'
_cell_volume   288.55789657
_cell_formula_units_Z   4
loop_
 _symmetry_equiv_pos_site_id
 _symmetry_equiv_pos_as_xyz
  1  'x, y, z'
loop_
 _atom_site_type_symbol
 _atom_site_label
 _atom_site_symmetry_multiplicity
 _atom_site_fract_x
 _atom_site_fract_y
 _atom_site_fract_z
 _atom_site_occupancy
  Li  Li0  1  0.989745  0.487119  0.004749  1
  Li  Li1  1  0.510255  0.987119  0.504749  1
  Li  Li2  1  0.489745  0.487119  0.495251  1
  Li  Li3  1  0.010255  0.987119  0.995251  1
  Mn  Mn4  1  0.148804  0.332101  0.535109  1
  Mn  Mn5  1  0.351196  0.832101  0.035108  1
  Mn  Mn6  1  0.648804  0.332101  0.964891  1
  Mn  Mn7  1  0.851196  0.832101  0.464891  1
  F  F8  1  0.011136  0.729006  0.286635  1
  F  F9  1  0.059726  0.239065  0.232848  1
  F  F10  1  0.205685  0.966444  0.858492  1
  F  F11  1  0.197849  0.483194  0.835371  1
  F  F12  1  0.302151  0.983194  0.335371  1
  F  F13  1  0.294315  0.466444  0.358492  1
  F  F14  1  0.440274  0.739065  0.732848  1
  F  F15  1  0.488864  0.229006  0.786635  1
  F  F16  1  0.511136  0.729006  0.213365  1
  F  F17  1  0.559726  0.239065  0.267152  1
  F  F18  1  0.705685  0.966444  0.641508  1
  F  F19  1  0.697849  0.483194  0.664629  1
  F  F20  1  0.802151  0.983194  0.164629  1
  F  F21  1  0.794315  0.466444  0.141508  1
  F  F22  1  0.940274  0.739065  0.767152  1
  F  F23  1  0.988864  0.229006  0.713365  1
