# generated using pymatgen
data_LiSO3F
_symmetry_space_group_name_H-M   'P 1'
_cell_length_a   5.30769569
_cell_length_b   5.77250687
_cell_length_c   5.77250687
_cell_angle_alpha   96.48849177
_cell_angle_beta   88.77908358
_cell_angle_gamma   91.22091646
_symmetry_Int_Tables_number   1
_chemical_formula_structural   LiSO3F
_chemical_formula_sum   'Li2 S2 O6 F2'
_cell_volume   175.65758923
_cell_formula_units_Z   2
loop_
 _symmetry_equiv_pos_site_id
 _symmetry_equiv_pos_as_xyz
  1  'x, y, z'
loop_
 _atom_site_type_symbol
 _atom_site_label
 _atom_site_symmetry_multiplicity
 _atom_site_fract_x
 _atom_site_fract_y
 _atom_site_fract_z
 _atom_site_occupancy
  Li  Li0  1  0.000000  0.807116  0.807116  1
  Li  Li1  1  0.000000  0.192884  0.192884  1
  O  O2  1  0.210684  0.214320  0.465564  1
  O  O3  1  0.789316  0.465564  0.214320  1
  O  O4  1  0.158373  0.130624  0.869376  1
  O  O5  1  0.841627  0.869376  0.130624  1
  O  O6  1  0.210684  0.534436  0.785680  1
  O  O7  1  0.789316  0.785680  0.534436  1
  F  F8  1  0.445767  0.728454  0.271546  1
  F  F9  1  0.554233  0.271546  0.728454  1
  S  S10  1  0.744428  0.708062  0.291938  1
  S  S11  1  0.255572  0.291938  0.708062  1
