# generated using pymatgen
data_NaCu3O4
_symmetry_space_group_name_H-M   'P 1'
_cell_length_a   5.48114223
_cell_length_b   5.48120076
_cell_length_c   5.48144898
_cell_angle_alpha   89.99857569
_cell_angle_beta   89.99912478
_cell_angle_gamma   90.00034213
_symmetry_Int_Tables_number   1
_chemical_formula_structural   NaCu3O4
_chemical_formula_sum   'Na2 Cu6 O8'
_cell_volume   164.68049246
_cell_formula_units_Z   2
loop_
 _symmetry_equiv_pos_site_id
 _symmetry_equiv_pos_as_xyz
  1  'x, y, z'
loop_
 _atom_site_type_symbol
 _atom_site_label
 _atom_site_symmetry_multiplicity
 _atom_site_fract_x
 _atom_site_fract_y
 _atom_site_fract_z
 _atom_site_occupancy
  Na  Na0  1  0.999981  0.000011  0.000004  1
  Na  Na1  1  0.500019  0.499989  0.499995  1
  Cu  Cu2  1  0.999990  0.499995  0.249999  1
  Cu  Cu3  1  0.999989  0.499994  0.750001  1
  Cu  Cu4  1  0.250004  0.000008  0.499998  1
  Cu  Cu5  1  0.500008  0.249998  0.000002  1
  Cu  Cu6  1  0.500013  0.750001  0.000006  1
  Cu  Cu7  1  0.749996  0.000005  0.499995  1
  O  O8  1  0.249994  0.249958  0.250048  1
  O  O9  1  0.250040  0.750041  0.250002  1
  O  O10  1  0.249976  0.249975  0.749952  1
  O  O11  1  0.250022  0.750025  0.749997  1
  O  O12  1  0.750006  0.250018  0.249988  1
  O  O13  1  0.750023  0.250035  0.750012  1
  O  O14  1  0.749962  0.749982  0.249943  1
  O  O15  1  0.749978  0.749966  0.750057  1
