# generated using pymatgen
data_Li2Mn3NiO8
_symmetry_space_group_name_H-M   'P 1'
_cell_length_a   5.93003521
_cell_length_b   5.82899585
_cell_length_c   5.81439936
_cell_angle_alpha   59.91305979
_cell_angle_beta   61.08745143
_cell_angle_gamma   89.99582251
_symmetry_Int_Tables_number   1
_chemical_formula_structural   Li2Mn3NiO8
_chemical_formula_sum   'Li2 Mn3 Ni1 O8'
_cell_volume   144.22749213
_cell_formula_units_Z   1
loop_
 _symmetry_equiv_pos_site_id
 _symmetry_equiv_pos_as_xyz
  1  'x, y, z'
loop_
 _atom_site_type_symbol
 _atom_site_label
 _atom_site_symmetry_multiplicity
 _atom_site_fract_x
 _atom_site_fract_y
 _atom_site_fract_z
 _atom_site_occupancy
  Li  Li0  1  0.500000  0.000000  0.000001  1
  Li  Li1  1  0.500000  0.500001  0.999999  1
  Mn  Mn2  1  0.000000  0.000001  0.500000  1
  Mn  Mn3  1  0.000000  0.500000  0.000001  1
  Mn  Mn4  1  0.000000  0.499999  0.500000  1
  Ni  Ni5  1  0.000000  0.000000  0.000000  1
  O  O6  1  0.213085  0.244404  0.038652  1
  O  O7  1  0.213027  0.716934  0.038697  1
  O  O8  1  0.205862  0.245526  0.508922  1
  O  O9  1  0.206104  0.736138  0.527670  1
  O  O10  1  0.793897  0.263861  0.472330  1
  O  O11  1  0.794138  0.754474  0.491078  1
  O  O12  1  0.786972  0.283066  0.961304  1
  O  O13  1  0.786915  0.755597  0.961347  1
