# generated using pymatgen
data_ZnP2H14C2(NO)6
_symmetry_space_group_name_H-M   'P 1'
_cell_length_a   9.29857535
_cell_length_b   9.71390213
_cell_length_c   9.71390213
_cell_angle_alpha   104.60480114
_cell_angle_beta   67.00652079
_cell_angle_gamma   67.00652079
_symmetry_Int_Tables_number   1
_chemical_formula_structural   ZnP2H14C2(NO)6
_chemical_formula_sum   'Zn2 P4 H28 C4 N12 O12'
_cell_volume   653.24029784
_cell_formula_units_Z   2
loop_
 _symmetry_equiv_pos_site_id
 _symmetry_equiv_pos_as_xyz
  1  'x, y, z'
loop_
 _atom_site_type_symbol
 _atom_site_label
 _atom_site_symmetry_multiplicity
 _atom_site_fract_x
 _atom_site_fract_y
 _atom_site_fract_z
 _atom_site_occupancy
  Zn  Zn0  1  0.660106  0.669947  0.669947  1
  Zn  Zn1  1  0.160106  0.919947  0.419947  1
  P  P2  1  0.817977  0.302205  0.638581  1
  P  P3  1  0.317977  0.793442  0.629818  1
  P  P4  1  0.817977  0.879818  0.543442  1
  P  P5  1  0.317977  0.888581  0.052205  1
  H  H6  1  0.003953  0.101361  0.956770  1
  H  H7  1  0.405219  0.106061  0.941503  1
  H  H8  1  0.905219  0.191503  0.856061  1
  H  H9  1  0.503953  0.206770  0.851361  1
  H  H10  1  0.376743  0.489397  0.995815  1
  H  H11  1  0.376743  0.133859  0.627441  1
  H  H12  1  0.176284  0.206096  0.616109  1
  H  H13  1  0.503953  0.289277  0.644686  1
  H  H14  1  0.804541  0.231233  0.500734  1
  H  H15  1  0.304541  0.750734  0.981233  1
  H  H16  1  0.405219  0.488719  0.653278  1
  H  H17  1  0.041705  0.470950  0.621692  1
  H  H18  1  0.676284  0.866109  0.956096  1
  H  H19  1  0.141335  0.592087  0.639845  1
  H  H20  1  0.876743  0.877441  0.883859  1
  H  H21  1  0.876743  0.245815  0.239397  1
  H  H22  1  0.141335  0.266577  0.218820  1
  H  H23  1  0.676284  0.457607  0.367620  1
  H  H24  1  0.041705  0.487344  0.336601  1
  H  H25  1  0.304541  0.944726  0.714226  1
  H  H26  1  0.804541  0.964226  0.694726  1
  H  H27  1  0.541705  0.586601  0.237344  1
  H  H28  1  0.176284  0.617620  0.207607  1
  H  H29  1  0.641335  0.468820  0.016577  1
  H  H30  1  0.641335  0.889845  0.342087  1
  H  H31  1  0.541705  0.871692  0.220950  1
  H  H32  1  0.905219  0.903278  0.238719  1
  H  H33  1  0.003953  0.894686  0.039277  1
  C  C34  1  0.272762  0.363964  0.633453  1
  C  C35  1  0.772762  0.343785  0.113274  1
  C  C36  1  0.272762  0.363274  0.093785  1
  C  C37  1  0.772762  0.883453  0.113964  1
  N  N38  1  0.902488  0.201041  0.963985  1
  N  N39  1  0.402488  0.213985  0.951040  1
  N  N40  1  0.272912  0.224727  0.627594  1
  N  N41  1  0.402488  0.383528  0.646472  1
  N  N42  1  0.144240  0.483112  0.626782  1
  N  N43  1  0.772912  0.877594  0.974727  1
  N  N44  1  0.772912  0.349493  0.252360  1
  N  N45  1  0.144240  0.372648  0.228978  1
  N  N46  1  0.644240  0.478978  0.122648  1
  N  N47  1  0.272912  0.502360  0.099493  1
  N  N48  1  0.644240  0.876782  0.233112  1
  N  N49  1  0.902488  0.896472  0.133528  1
  O  O50  1  0.001744  0.157852  0.604142  1
  O  O51  1  0.645309  0.359501  0.803637  1
  O  O52  1  0.845860  0.445720  0.621945  1
  O  O53  1  0.145309  0.053637  0.109501  1
  O  O54  1  0.501744  0.854142  0.907852  1
  O  O55  1  0.501744  0.644114  0.590404  1
  O  O56  1  0.145309  0.801054  0.745190  1
  O  O57  1  0.845860  0.708419  0.532195  1
  O  O58  1  0.345860  0.782195  0.458419  1
  O  O59  1  0.645309  0.995190  0.551054  1
  O  O60  1  0.001744  0.840404  0.394114  1
  O  O61  1  0.345860  0.871945  0.195720  1
