# generated using pymatgen
data_Cu6OF11
_symmetry_space_group_name_H-M   'P 1'
_cell_length_a   3.27614083
_cell_length_b   10.39573413
_cell_length_c   6.43031124
_cell_angle_alpha   107.12494793
_cell_angle_beta   85.76759224
_cell_angle_gamma   86.43242156
_symmetry_Int_Tables_number   1
_chemical_formula_structural   Cu6OF11
_chemical_formula_sum   'Cu6 O1 F11'
_cell_volume   207.91109658
_cell_formula_units_Z   1
loop_
 _symmetry_equiv_pos_site_id
 _symmetry_equiv_pos_as_xyz
  1  'x, y, z'
loop_
 _atom_site_type_symbol
 _atom_site_label
 _atom_site_symmetry_multiplicity
 _atom_site_fract_x
 _atom_site_fract_y
 _atom_site_fract_z
 _atom_site_occupancy
  Cu  Cu0  1  0.501259  0.666704  0.834104  1
  Cu  Cu1  1  0.478862  0.000212  0.470950  1
  Cu  Cu2  1  0.499334  0.333179  0.166322  1
  Cu  Cu3  1  -0.000312  0.667325  0.333681  1
  Cu  Cu4  1  0.000022  0.333010  0.666389  1
  Cu  Cu5  1  0.002151  0.000224  0.013698  1
  O  O6  1  0.974022  0.999040  0.299934  1
  F  F7  1  0.972898  0.666582  0.632384  1
  F  F8  1  0.975735  0.333302  0.965717  1
  F  F9  1  0.447168  0.862956  0.934788  1
  F  F10  1  0.531003  0.469406  0.734934  1
  F  F11  1  0.535164  0.803014  0.400498  1
  F  F12  1  0.462516  0.196767  0.595576  1
  F  F13  1  0.468747  0.530713  0.264944  1
  F  F14  1  0.556180  0.136112  0.072299  1
  F  F15  1  0.025314  0.666289  0.033950  1
  F  F16  1  0.044892  0.000895  0.712240  1
  F  F17  1  0.025044  0.334272  0.367589  1
