# generated using pymatgen
data_VOF
_symmetry_space_group_name_H-M   'P 1'
_cell_length_a   4.75418684
_cell_length_b   18.98500937
_cell_length_c   3.09834056
_cell_angle_alpha   90.00000000
_cell_angle_beta   90.00000000
_cell_angle_gamma   93.81029306
_symmetry_Int_Tables_number   1
_chemical_formula_structural   VOF
_chemical_formula_sum   'V8 O8 F8'
_cell_volume   279.03273936
_cell_formula_units_Z   8
loop_
 _symmetry_equiv_pos_site_id
 _symmetry_equiv_pos_as_xyz
  1  'x, y, z'
loop_
 _atom_site_type_symbol
 _atom_site_label
 _atom_site_symmetry_multiplicity
 _atom_site_fract_x
 _atom_site_fract_y
 _atom_site_fract_z
 _atom_site_occupancy
  V  V0  1  0.007553  0.250385  0.000000  1
  V  V1  1  0.045091  0.999369  0.000000  1
  V  V2  1  0.998350  0.499734  0.000000  1
  V  V3  1  0.984378  0.749782  0.000000  1
  V  V4  1  0.517959  0.125243  0.500000  1
  V  V5  1  0.449496  0.875560  0.500000  1
  V  V6  1  0.501831  0.375118  0.500000  1
  V  V7  1  0.493494  0.624552  0.500000  1
  O  O8  1  0.201486  0.949986  0.500000  1
  O  O9  1  0.284718  0.824011  0.000000  1
  O  O10  1  0.315010  0.076939  0.000000  1
  O  O11  1  0.296641  0.574680  0.000000  1
  O  O12  1  0.303030  0.325614  0.000000  1
  O  O13  1  0.712366  0.175232  0.000000  1
  O  O14  1  0.700662  0.425146  0.000000  1
  O  O15  1  0.691444  0.674872  0.000000  1
  F  F16  1  0.205466  0.201606  0.500000  1
  F  F17  1  0.195397  0.451099  0.500000  1
  F  F18  1  0.186079  0.701301  0.500000  1
  F  F19  1  0.697559  0.924391  0.000000  1
  F  F20  1  0.811478  0.046057  0.500000  1
  F  F21  1  0.807751  0.298952  0.500000  1
  F  F22  1  0.802411  0.548996  0.500000  1
  F  F23  1  0.790348  0.801376  0.500000  1
