# generated using pymatgen
data_Li3NbS4
_symmetry_space_group_name_H-M   'P 1'
_cell_length_a   13.83108646
_cell_length_b   7.57606134
_cell_length_c   13.31386022
_cell_angle_alpha   73.46996839
_cell_angle_beta   85.53079866
_cell_angle_gamma   74.10483479
_symmetry_Int_Tables_number   1
_chemical_formula_structural   Li3NbS4
_chemical_formula_sum   'Li24 Nb8 S32'
_cell_volume   1286.29905440
_cell_formula_units_Z   8
loop_
 _symmetry_equiv_pos_site_id
 _symmetry_equiv_pos_as_xyz
  1  'x, y, z'
loop_
 _atom_site_type_symbol
 _atom_site_label
 _atom_site_symmetry_multiplicity
 _atom_site_fract_x
 _atom_site_fract_y
 _atom_site_fract_z
 _atom_site_occupancy
  Li  Li0  1  0.000000  0.993156  0.000000  1
  Li  Li1  1  0.000000  0.479277  0.000000  1
  Li  Li2  1  0.491566  0.773708  0.998406  1
  Li  Li3  1  0.753019  0.328570  0.050261  1
  Li  Li4  1  0.278344  0.164275  0.189048  1
  Li  Li5  1  0.685181  0.722246  0.224788  1
  Li  Li6  1  0.942484  0.631175  0.242960  1
  Li  Li7  1  0.442484  0.624136  0.257040  1
  Li  Li8  1  0.185181  0.697033  0.275212  1
  Li  Li9  1  0.778344  0.103322  0.310952  1
  Li  Li10  1  0.253019  0.128831  0.449739  1
  Li  Li11  1  0.991566  0.522115  0.501594  1
  Li  Li12  1  0.500000  0.743156  0.500000  1
  Li  Li13  1  0.500000  0.229277  0.500000  1
  Li  Li14  1  0.008434  0.015275  0.498406  1
  Li  Li15  1  0.746981  0.831588  0.550261  1
  Li  Li16  1  0.221656  0.192619  0.689048  1
  Li  Li17  1  0.814819  0.157426  0.724788  1
  Li  Li18  1  0.557516  0.323659  0.742960  1
  Li  Li19  1  0.057516  0.816620  0.757040  1
  Li  Li20  1  0.314819  0.632214  0.775212  1
  Li  Li21  1  0.721656  0.631666  0.810952  1
  Li  Li22  1  0.246981  0.131849  0.949739  1
  Li  Li23  1  0.508434  0.263681  0.001594  1
  Nb  Nb24  1  0.230409  0.676432  0.019659  1
  Nb  Nb25  1  0.012258  0.169152  0.244407  1
  Nb  Nb26  1  0.512258  0.163558  0.255593  1
  Nb  Nb27  1  0.730409  0.446090  0.480341  1
  Nb  Nb28  1  0.269591  0.656840  0.519659  1
  Nb  Nb29  1  0.487742  0.931409  0.744407  1
  Nb  Nb30  1  0.987742  0.425816  0.755593  1
  Nb  Nb31  1  0.769591  0.926499  0.980341  1
  S  S32  1  0.683126  0.703596  0.995450  1
  S  S33  1  0.327360  0.792848  0.101332  1
  S  S34  1  0.086674  0.649095  0.113518  1
  S  S35  1  0.109643  0.147868  0.098504  1
  S  S36  1  0.811034  0.942551  0.141123  1
  S  S37  1  0.576239  0.393635  0.143916  1
  S  S38  1  0.502884  0.959547  0.161263  1
  S  S39  1  0.857959  0.377443  0.190535  1
  S  S40  1  0.357959  0.317979  0.309465  1
  S  S41  1  0.002884  0.870809  0.338737  1
  S  S42  1  0.076239  0.287551  0.356084  1
  S  S43  1  0.311034  0.833674  0.358877  1
  S  S44  1  0.609643  0.996373  0.401496  1
  S  S45  1  0.586674  0.512613  0.386482  1
  S  S46  1  0.827360  0.644180  0.398668  1
  S  S47  1  0.183126  0.449046  0.504550  1
  S  S48  1  0.816874  0.136723  0.495450  1
  S  S49  1  0.172640  0.870208  0.601332  1
  S  S50  1  0.413326  0.485769  0.613518  1
  S  S51  1  0.390357  0.007511  0.598504  1
  S  S52  1  0.688966  0.503586  0.641123  1
  S  S53  1  0.923761  0.719873  0.643916  1
  S  S54  1  0.997116  0.212431  0.661263  1
  S  S55  1  0.642041  0.985403  0.690535  1
  S  S56  1  0.142041  0.425938  0.809465  1
  S  S57  1  0.497116  0.623693  0.838737  1
  S  S58  1  0.423761  0.113790  0.856084  1
  S  S59  1  0.188966  0.894708  0.858877  1
  S  S60  1  0.890357  0.356015  0.901496  1
  S  S61  1  0.913326  0.849286  0.886482  1
  S  S62  1  0.672640  0.221538  0.898668  1
  S  S63  1  0.316874  0.382173  0.004550  1
