# generated using pymatgen
data_Li4Mn2Nb3Co3O16
_symmetry_space_group_name_H-M   'P 1'
_cell_length_a   5.97673548
_cell_length_b   6.01879254
_cell_length_c   9.84991454
_cell_angle_alpha   90.01518888
_cell_angle_beta   88.30916490
_cell_angle_gamma   120.24335696
_symmetry_Int_Tables_number   1
_chemical_formula_structural   Li4Mn2Nb3Co3O16
_chemical_formula_sum   'Li4 Mn2 Nb3 Co3 O16'
_cell_volume   305.92508737
_cell_formula_units_Z   1
loop_
 _symmetry_equiv_pos_site_id
 _symmetry_equiv_pos_as_xyz
  1  'x, y, z'
loop_
 _atom_site_type_symbol
 _atom_site_label
 _atom_site_symmetry_multiplicity
 _atom_site_fract_x
 _atom_site_fract_y
 _atom_site_fract_z
 _atom_site_occupancy
  Li  Li0  1  0.321175  0.660649  0.901976  1
  Li  Li1  1  0.037785  0.018828  0.001782  1
  Li  Li2  1  0.065549  0.032808  0.488575  1
  Li  Li3  1  0.657060  0.328556  0.379431  1
  Mn  Mn4  1  0.302949  0.651492  0.477537  1
  Mn  Mn5  1  0.661426  0.330680  0.009253  1
  Nb  Nb6  1  0.650613  0.825316  0.208665  1
  Nb  Nb7  1  0.822008  0.659619  0.712245  1
  Nb  Nb8  1  0.822319  0.162746  0.712343  1
  Co  Co9  1  0.162155  0.829394  0.219085  1
  Co  Co10  1  0.162107  0.332681  0.219081  1
  Co  Co11  1  0.345357  0.172593  0.712870  1
  O  O12  1  0.165157  0.831128  0.598409  1
  O  O13  1  0.019484  0.509801  0.322292  1
  O  O14  1  0.324410  0.662168  0.107396  1
  O  O15  1  0.995383  0.997706  0.312655  1
  O  O16  1  0.987885  0.993973  0.815654  1
  O  O17  1  0.165221  0.334083  0.598452  1
  O  O18  1  0.459360  0.948757  0.342743  1
  O  O19  1  0.459344  0.510664  0.342782  1
  O  O20  1  0.315487  0.157674  0.119151  1
  O  O21  1  0.690883  0.845483  0.598316  1
  O  O22  1  0.523220  0.496888  0.835583  1
  O  O23  1  0.523295  0.026425  0.835601  1
  O  O24  1  0.696361  0.348158  0.592773  1
  O  O25  1  0.846783  0.690392  0.108761  1
  O  O26  1  0.970440  0.485335  0.825708  1
  O  O27  1  0.846784  0.156302  0.108721  1
