# generated using pymatgen
data_P2H9(CBr)3
_symmetry_space_group_name_H-M   'P 1'
_cell_length_a   7.30214521
_cell_length_b   17.16143340
_cell_length_c   8.38769886
_cell_angle_alpha   90.00000000
_cell_angle_beta   106.28590973
_cell_angle_gamma   90.00000000
_symmetry_Int_Tables_number   1
_chemical_formula_structural   P2H9(CBr)3
_chemical_formula_sum   'P8 H36 C12 Br12'
_cell_volume   1008.93040711
_cell_formula_units_Z   4
loop_
 _symmetry_equiv_pos_site_id
 _symmetry_equiv_pos_as_xyz
  1  'x, y, z'
loop_
 _atom_site_type_symbol
 _atom_site_label
 _atom_site_symmetry_multiplicity
 _atom_site_fract_x
 _atom_site_fract_y
 _atom_site_fract_z
 _atom_site_occupancy
  P  P0  1  0.049584  0.915009  0.211885  1
  P  P1  1  0.169173  0.373127  0.331030  1
  P  P2  1  0.330827  0.873127  0.168970  1
  P  P3  1  0.549584  0.584991  0.711885  1
  P  P4  1  0.450416  0.415009  0.288115  1
  P  P5  1  0.669172  0.126873  0.831030  1
  P  P6  1  0.830828  0.626873  0.668970  1
  P  P7  1  0.950416  0.084991  0.788115  1
  H  H8  1  0.031904  0.601972  0.944219  1
  H  H9  1  0.007805  0.743568  0.676615  1
  H  H10  1  0.042350  0.522673  0.809053  1
  H  H11  1  0.031532  0.384866  0.559629  1
  H  H12  1  0.164436  0.613034  0.795576  1
  H  H13  1  0.215073  0.868185  0.870712  1
  H  H14  1  0.301758  0.962658  0.941928  1
  H  H15  1  0.198242  0.462658  0.558072  1
  H  H16  1  0.284927  0.368185  0.629288  1
  H  H17  1  0.147950  0.248505  0.191045  1
  H  H18  1  0.242788  0.238216  0.410166  1
  H  H19  1  0.335564  0.113034  0.704424  1
  H  H20  1  0.468468  0.884866  0.940371  1
  H  H21  1  0.457650  0.022673  0.690947  1
  H  H22  1  0.257212  0.738216  0.089834  1
  H  H23  1  0.492195  0.243568  0.823385  1
  H  H24  1  0.352050  0.748505  0.308955  1
  H  H25  1  0.468096  0.101972  0.555781  1
  H  H26  1  0.531904  0.898028  0.444219  1
  H  H27  1  0.647950  0.251495  0.691045  1
  H  H28  1  0.507805  0.756432  0.176615  1
  H  H29  1  0.742788  0.261784  0.910166  1
  H  H30  1  0.542350  0.977327  0.309053  1
  H  H31  1  0.531532  0.115134  0.059629  1
  H  H32  1  0.664436  0.886966  0.295576  1
  H  H33  1  0.757212  0.761784  0.589834  1
  H  H34  1  0.852050  0.751495  0.808955  1
  H  H35  1  0.715073  0.631815  0.370712  1
  H  H36  1  0.801758  0.537342  0.441928  1
  H  H37  1  0.698242  0.037342  0.058072  1
  H  H38  1  0.784927  0.131815  0.129288  1
  H  H39  1  0.835564  0.386966  0.204424  1
  H  H40  1  0.968468  0.615134  0.440371  1
  H  H41  1  0.957650  0.477327  0.190947  1
  H  H42  1  0.992195  0.256432  0.323385  1
  H  H43  1  0.968096  0.398028  0.055781  1
  C  C44  1  0.037434  0.586215  0.818393  1
  C  C45  1  0.170344  0.400016  0.540236  1
  C  C46  1  0.329656  0.900016  0.959764  1
  C  C47  1  0.136169  0.268730  0.311881  1
  C  C48  1  0.462566  0.086215  0.681607  1
  C  C49  1  0.363831  0.768730  0.188119  1
  C  C50  1  0.636169  0.231270  0.811881  1
  C  C51  1  0.537434  0.913785  0.318393  1
  C  C52  1  0.863831  0.731270  0.688119  1
  C  C53  1  0.670344  0.099984  0.040236  1
  C  C54  1  0.829656  0.599984  0.459764  1
  C  C55  1  0.962566  0.413785  0.181607  1
  Br  Br56  1  0.096410  0.216773  0.830891  1
  Br  Br57  1  0.152467  0.904417  0.494439  1
  Br  Br58  1  0.189396  0.057758  0.196654  1
  Br  Br59  1  0.403590  0.716773  0.669109  1
  Br  Br60  1  0.310604  0.557758  0.303346  1
  Br  Br61  1  0.652467  0.595583  0.994439  1
  Br  Br62  1  0.347533  0.404417  0.005561  1
  Br  Br63  1  0.689396  0.442242  0.696654  1
  Br  Br64  1  0.596410  0.283227  0.330891  1
  Br  Br65  1  0.810604  0.942242  0.803346  1
  Br  Br66  1  0.847533  0.095583  0.505561  1
  Br  Br67  1  0.903590  0.783227  0.169109  1
