# generated using pymatgen
data_Li32Ti3Cr13O48
_symmetry_space_group_name_H-M   'P 1'
_cell_length_a   5.06604602
_cell_length_b   8.72442795
_cell_length_c   19.55797187
_cell_angle_alpha   98.25723733
_cell_angle_beta   95.08585705
_cell_angle_gamma   89.90572262
_symmetry_Int_Tables_number   1
_chemical_formula_structural   Li32Ti3Cr13O48
_chemical_formula_sum   'Li32 Ti3 Cr13 O48'
_cell_volume   852.04693672
_cell_formula_units_Z   1
loop_
 _symmetry_equiv_pos_site_id
 _symmetry_equiv_pos_as_xyz
  1  'x, y, z'
loop_
 _atom_site_type_symbol
 _atom_site_label
 _atom_site_symmetry_multiplicity
 _atom_site_fract_x
 _atom_site_fract_y
 _atom_site_fract_z
 _atom_site_occupancy
  Li  Li0  1  0.993540  0.171174  0.249985  1
  Li  Li1  1  0.874293  0.375387  0.374915  1
  Li  Li2  1  0.747111  0.251300  0.999814  1
  Li  Li3  1  0.741811  0.918987  0.999914  1
  Li  Li4  1  0.994003  0.171184  0.750525  1
  Li  Li5  1  0.759406  0.580569  0.500213  1
  Li  Li6  1  0.875320  0.375793  0.875264  1
  Li  Li7  1  0.741753  0.252930  0.500083  1
  Li  Li8  1  0.745663  0.920044  0.499417  1
  Li  Li9  1  0.626313  0.125008  0.124822  1
  Li  Li10  1  0.762117  0.581571  0.000120  1
  Li  Li11  1  0.510467  0.330681  0.249679  1
  Li  Li12  1  0.625977  0.125717  0.625061  1
  Li  Li13  1  0.500714  0.999322  0.249769  1
  Li  Li14  1  0.491941  0.668966  0.249321  1
  Li  Li15  1  0.514036  0.331595  0.749802  1
  Li  Li16  1  0.373784  0.875358  0.375570  1
  Li  Li17  1  0.498959  0.000385  0.749439  1
  Li  Li18  1  0.249457  0.749224  0.000492  1
  Li  Li19  1  0.490313  0.667107  0.749091  1
  Li  Li20  1  0.241410  0.420261  0.000252  1
  Li  Li21  1  0.376241  0.874972  0.874821  1
  Li  Li22  1  0.256063  0.078034  0.499742  1
  Li  Li23  1  0.249730  0.749346  0.499878  1
  Li  Li24  1  0.125650  0.624953  0.125159  1
  Li  Li25  1  0.244209  0.420924  0.500457  1
  Li  Li26  1  0.008665  0.829568  0.250558  1
  Li  Li27  1  0.256294  0.079271  0.000588  1
  Li  Li28  1  0.126954  0.624981  0.624424  1
  Li  Li29  1  0.993445  0.501012  0.250173  1
  Li  Li30  1  0.007356  0.829641  0.751044  1
  Li  Li31  1  0.992105  0.500950  0.750649  1
  Ti  Ti32  1  0.375421  0.538003  0.373188  1
  Ti  Ti33  1  0.376432  0.539050  0.875778  1
  Ti  Ti34  1  0.127983  0.289090  0.626469  1
  Cr  Cr35  1  0.870165  0.711329  0.375097  1
  Cr  Cr36  1  0.878879  0.047020  0.375839  1
  Cr  Cr37  1  0.876379  0.712511  0.875396  1
  Cr  Cr38  1  0.874002  0.047593  0.874731  1
  Cr  Cr39  1  0.619625  0.793694  0.124111  1
  Cr  Cr40  1  0.630435  0.457139  0.125774  1
  Cr  Cr41  1  0.622612  0.797505  0.624257  1
  Cr  Cr42  1  0.628015  0.462004  0.624880  1
  Cr  Cr43  1  0.375448  0.202513  0.374773  1
  Cr  Cr44  1  0.373401  0.202709  0.874943  1
  Cr  Cr45  1  0.117776  0.955935  0.123988  1
  Cr  Cr46  1  0.132448  0.293532  0.126058  1
  Cr  Cr47  1  0.122162  0.952552  0.624772  1
  O  O48  1  0.966169  0.104461  0.068772  1
  O  O49  1  0.929604  0.785740  0.068997  1
  O  O50  1  0.927673  0.423297  0.068181  1
  O  O51  1  0.964489  0.103568  0.568868  1
  O  O52  1  0.820939  0.961226  0.181276  1
  O  O53  1  0.821777  0.322836  0.182261  1
  O  O54  1  0.935642  0.787961  0.568928  1
  O  O55  1  0.919862  0.428580  0.567516  1
  O  O56  1  0.783262  0.642289  0.180527  1
  O  O57  1  0.716677  0.855763  0.319786  1
  O  O58  1  0.815620  0.959853  0.681619  1
  O  O59  1  0.825439  0.321025  0.683607  1
  O  O60  1  0.675355  0.533142  0.317314  1
  O  O61  1  0.683962  0.172842  0.317273  1
  O  O62  1  0.782528  0.641839  0.679661  1
  O  O63  1  0.713746  0.860458  0.819313  1
  O  O64  1  0.467118  0.608516  0.068941  1
  O  O65  1  0.579691  0.717074  0.431153  1
  O  O66  1  0.565805  0.075458  0.432277  1
  O  O67  1  0.680090  0.536126  0.818580  1
  O  O68  1  0.683440  0.174329  0.817622  1
  O  O69  1  0.428405  0.927224  0.067557  1
  O  O70  1  0.428180  0.289491  0.069000  1
  O  O71  1  0.535251  0.390597  0.431077  1
  O  O72  1  0.463057  0.611038  0.568575  1
  O  O73  1  0.577134  0.716193  0.931324  1
  O  O74  1  0.565070  0.075130  0.932519  1
  O  O75  1  0.322318  0.825699  0.182038  1
  O  O76  1  0.321776  0.463980  0.181187  1
  O  O77  1  0.432793  0.924905  0.567447  1
  O  O78  1  0.430593  0.286359  0.568751  1
  O  O79  1  0.536743  0.389890  0.931606  1
  O  O80  1  0.282543  0.144035  0.180638  1
  O  O81  1  0.213018  0.353070  0.318125  1
  O  O82  1  0.314910  0.824957  0.682309  1
  O  O83  1  0.326397  0.466702  0.681203  1
  O  O84  1  0.173997  0.679733  0.317494  1
  O  O85  1  0.186644  0.038082  0.318708  1
  O  O86  1  0.287668  0.139816  0.681771  1
  O  O87  1  0.214680  0.353459  0.818606  1
  O  O88  1  0.070316  0.574192  0.432092  1
  O  O89  1  0.065233  0.212104  0.431265  1
  O  O90  1  0.169602  0.678291  0.817562  1
  O  O91  1  0.185663  0.037971  0.819023  1
  O  O92  1  0.038323  0.897572  0.431191  1
  O  O93  1  0.074849  0.571321  0.933627  1
  O  O94  1  0.065601  0.210675  0.931591  1
  O  O95  1  0.034071  0.892741  0.930145  1
