# generated using pymatgen
data_LiMn2(BO3)2
_symmetry_space_group_name_H-M   'P 1'
_cell_length_a   5.29937995
_cell_length_b   13.98104392
_cell_length_c   10.38423583
_cell_angle_alpha   89.71890448
_cell_angle_beta   91.69827990
_cell_angle_gamma   79.52774415
_symmetry_Int_Tables_number   1
_chemical_formula_structural   LiMn2(BO3)2
_chemical_formula_sum   'Li6 Mn12 B12 O36'
_cell_volume   756.18773505
_cell_formula_units_Z   6
loop_
 _symmetry_equiv_pos_site_id
 _symmetry_equiv_pos_as_xyz
  1  'x, y, z'
loop_
 _atom_site_type_symbol
 _atom_site_label
 _atom_site_symmetry_multiplicity
 _atom_site_fract_x
 _atom_site_fract_y
 _atom_site_fract_z
 _atom_site_occupancy
  Li  Li0  1  0.838674  0.998493  0.342280  1
  Li  Li1  1  0.532293  0.661784  0.319273  1
  Li  Li2  1  0.535238  0.673169  0.831659  1
  Li  Li3  1  0.207271  0.331401  0.337727  1
  Li  Li4  1  0.174886  0.338632  0.825798  1
  Li  Li5  1  0.141593  0.009288  0.657806  1
  Mn  Mn6  1  0.959177  0.785559  0.363320  1
  Mn  Mn7  1  0.939573  0.432976  0.114447  1
  Mn  Mn8  1  0.720504  0.887712  0.617620  1
  Mn  Mn9  1  0.636824  0.454203  0.369765  1
  Mn  Mn10  1  0.712647  0.226962  0.876515  1
  Mn  Mn11  1  0.411164  0.888916  0.865768  1
  Mn  Mn12  1  0.568975  0.127575  0.134702  1
  Mn  Mn13  1  0.258611  0.774789  0.106908  1
  Mn  Mn14  1  0.381250  0.566449  0.612233  1
  Mn  Mn15  1  0.283651  0.098804  0.384412  1
  Mn  Mn16  1  0.094378  0.543053  0.868353  1
  Mn  Mn17  1  0.033813  0.218333  0.624954  1
  B  B18  1  0.956497  0.767928  0.863265  1
  B  B19  1  0.701396  0.893664  0.129155  1
  B  B20  1  0.941082  0.448890  0.624802  1
  B  B21  1  0.726422  0.228457  0.380198  1
  B  B22  1  0.384217  0.880367  0.369858  1
  B  B23  1  0.613058  0.446835  0.865541  1
  B  B24  1  0.393091  0.545359  0.124887  1
  B  B25  1  0.606881  0.110382  0.622918  1
  B  B26  1  0.272708  0.788428  0.624285  1
  B  B27  1  0.066393  0.558796  0.363735  1
  B  B28  1  0.268477  0.118134  0.871956  1
  B  B29  1  0.056106  0.207602  0.140757  1
  O  O30  1  0.874017  0.810370  0.177907  1
  O  O31  1  0.725736  0.983491  0.164791  1
  O  O32  1  0.001382  0.468403  0.328595  1
  O  O33  1  0.893864  0.642810  0.360893  1
  O  O34  1  0.886453  0.679673  0.873383  1
  O  O35  1  0.785236  0.849351  0.815869  1
  O  O36  1  0.978349  0.217089  0.435811  1
  O  O37  1  0.638821  0.879452  0.411189  1
  O  O38  1  0.872407  0.441057  0.905146  1
  O  O39  1  0.833730  0.196323  0.073606  1
  O  O40  1  0.501494  0.872472  0.047961  1
  O  O41  1  0.713208  0.472599  0.551643  1
  O  O42  1  0.784038  0.028575  0.603185  1
  O  O43  1  0.556784  0.464257  0.183893  1
  O  O44  1  0.436026  0.635840  0.142588  1
  O  O45  1  0.677035  0.193971  0.672089  1
  O  O46  1  0.430838  0.703938  0.650303  1
  O  O47  1  0.655326  0.143504  0.327603  1
  O  O48  1  0.329937  0.876976  0.676158  1
  O  O49  1  0.566796  0.315083  0.377556  1
  O  O50  1  0.324604  0.793536  0.320262  1
  O  O51  1  0.470775  0.538006  0.827568  1
  O  O52  1  0.201765  0.960973  0.382143  1
  O  O53  1  0.505206  0.366505  0.867299  1
  O  O54  1  0.322968  0.557367  0.405023  1
  O  O55  1  0.206292  0.779204  0.902717  1
  O  O56  1  0.460851  0.141000  0.952535  1
  O  O57  1  0.187656  0.522802  0.050517  1
  O  O58  1  0.047233  0.797602  0.548921  1
  O  O59  1  0.345939  0.111981  0.587141  1
  O  O60  1  0.219962  0.122747  0.185648  1
  O  O61  1  0.116871  0.295800  0.163902  1
  O  O62  1  0.035739  0.527492  0.681483  1
  O  O63  1  0.067904  0.357024  0.644531  1
  O  O64  1  0.110603  0.202329  0.813771  1
  O  O65  1  0.233673  0.027975  0.841604  1
