# generated using pymatgen
data_Ca5Ta4O15
_symmetry_space_group_name_H-M   'P 1'
_cell_length_a   5.63269932
_cell_length_b   5.63274803
_cell_length_c   11.50209347
_cell_angle_alpha   89.99943321
_cell_angle_beta   89.99971301
_cell_angle_gamma   119.99909427
_symmetry_Int_Tables_number   1
_chemical_formula_structural   Ca5Ta4O15
_chemical_formula_sum   'Ca5 Ta4 O15'
_cell_volume   316.04460460
_cell_formula_units_Z   1
loop_
 _symmetry_equiv_pos_site_id
 _symmetry_equiv_pos_as_xyz
  1  'x, y, z'
loop_
 _atom_site_type_symbol
 _atom_site_label
 _atom_site_symmetry_multiplicity
 _atom_site_fract_x
 _atom_site_fract_y
 _atom_site_fract_z
 _atom_site_occupancy
  Ca  Ca0  1  0.333307  0.666701  0.459659  1
  Ca  Ca1  1  0.333323  0.666662  0.761270  1
  Ca  Ca2  1  0.000030  -0.000000  0.999996  1
  Ca  Ca3  1  0.666679  0.333346  0.238734  1
  Ca  Ca4  1  0.666601  0.333295  0.540346  1
  Ta  Ta5  1  0.333321  0.666660  0.103630  1
  Ta  Ta6  1  0.000009  0.999989  0.315093  1
  Ta  Ta7  1  0.000005  0.000012  0.684906  1
  Ta  Ta8  1  0.666661  0.333336  0.896370  1
  O  O9  1  0.171843  0.828225  0.607779  1
  O  O10  1  0.999893  0.499984  0.000040  1
  O  O11  1  0.162292  0.837685  0.192593  1
  O  O12  1  0.162318  0.324576  0.192578  1
  O  O13  1  0.171803  0.343640  0.607770  1
  O  O14  1  0.343614  0.171778  0.392219  1
  O  O15  1  0.675411  0.837684  0.192564  1
  O  O16  1  0.499908  0.500022  0.999959  1
  O  O17  1  0.324613  0.162315  0.807404  1
  O  O18  1  0.656363  0.828179  0.607780  1
  O  O19  1  0.499893  -0.000000  0.000001  1
  O  O20  1  0.837746  0.675424  0.807421  1
  O  O21  1  0.828169  0.656358  0.392226  1
  O  O22  1  0.837725  0.162315  0.807440  1
  O  O23  1  0.828174  0.171813  0.392220  1
