# generated using pymatgen
data_Li6Mn3Cu(PO4)6
_symmetry_space_group_name_H-M   'P 1'
_cell_length_a   8.42636106
_cell_length_b   8.47764927
_cell_length_c   8.80748287
_cell_angle_alpha   61.24927172
_cell_angle_beta   61.76742442
_cell_angle_gamma   62.46691258
_symmetry_Int_Tables_number   1
_chemical_formula_structural   Li6Mn3Cu(PO4)6
_chemical_formula_sum   'Li6 Mn3 Cu1 P6 O24'
_cell_volume   463.00159334
_cell_formula_units_Z   1
loop_
 _symmetry_equiv_pos_site_id
 _symmetry_equiv_pos_as_xyz
  1  'x, y, z'
loop_
 _atom_site_type_symbol
 _atom_site_label
 _atom_site_symmetry_multiplicity
 _atom_site_fract_x
 _atom_site_fract_y
 _atom_site_fract_z
 _atom_site_occupancy
  Li  Li0  1  0.022356  0.991133  0.988510  1
  Li  Li1  1  0.753024  0.149808  0.358413  1
  Li  Li2  1  0.483662  0.515392  0.486306  1
  Li  Li3  1  0.228472  0.843433  0.660604  1
  Li  Li4  1  0.660542  0.211980  0.854403  1
  Li  Li5  1  0.836307  0.676765  0.204515  1
  Mn  Mn6  1  0.142099  0.145452  0.136559  1
  Mn  Mn7  1  0.359073  0.358839  0.355480  1
  Mn  Mn8  1  0.648370  0.642845  0.649240  1
  Cu  Cu9  1  0.855496  0.852943  0.839420  1
  P  P10  1  0.058040  0.749135  0.449268  1
  P  P11  1  0.447613  0.051085  0.745006  1
  P  P12  1  0.750089  0.453250  0.050322  1
  P  P13  1  0.253470  0.541370  0.967502  1
  P  P14  1  0.537218  0.967537  0.249770  1
  P  P15  1  0.952463  0.249855  0.539556  1
  O  O16  1  0.127888  0.298895  0.491574  1
  O  O17  1  0.311646  0.503377  0.125107  1
  O  O18  1  0.054673  0.918137  0.266044  1
  O  O19  1  0.516945  0.120643  0.312552  1
  O  O20  1  0.246612  0.585647  0.423788  1
  O  O21  1  0.051976  0.796743  0.599467  1
  O  O22  1  0.254154  0.071541  0.891408  1
  O  O23  1  0.453499  0.236390  0.570176  1
  O  O24  1  0.591337  0.429823  0.244025  1
  O  O25  1  0.197569  0.380430  0.994393  1
  O  O26  1  0.091888  0.732904  0.951083  1
  O  O27  1  0.365377  0.012301  0.202839  1
  O  O28  1  0.604671  0.032490  0.802139  1
  O  O29  1  0.905639  0.256910  0.081426  1
  O  O30  1  0.804501  0.617384  0.023751  1
  O  O31  1  0.412320  0.566244  0.775376  1
  O  O32  1  0.560137  0.768832  0.399559  1
  O  O33  1  0.723646  0.962303  0.085929  1
  O  O34  1  0.952543  0.210240  0.388545  1
  O  O35  1  0.761116  0.408962  0.582118  1
  O  O36  1  0.492127  0.884530  0.688270  1
  O  O37  1  0.949659  0.079519  0.724583  1
  O  O38  1  0.696016  0.478627  0.897952  1
  O  O39  1  0.885768  0.695310  0.494023  1
