# generated using pymatgen
data_LiMnP2(HO4)2
_symmetry_space_group_name_H-M   'P 1'
_cell_length_a   5.28222943
_cell_length_b   8.03786834
_cell_length_c   6.97961169
_cell_angle_alpha   90.00000000
_cell_angle_beta   90.00000000
_cell_angle_gamma   90.00000000
_symmetry_Int_Tables_number   1
_chemical_formula_structural   LiMnP2(HO4)2
_chemical_formula_sum   'Li2 Mn2 P4 H4 O16'
_cell_volume   296.33940879
_cell_formula_units_Z   2
loop_
 _symmetry_equiv_pos_site_id
 _symmetry_equiv_pos_as_xyz
  1  'x, y, z'
loop_
 _atom_site_type_symbol
 _atom_site_label
 _atom_site_symmetry_multiplicity
 _atom_site_fract_x
 _atom_site_fract_y
 _atom_site_fract_z
 _atom_site_occupancy
  Li  Li0  1  0.665595  0.500000  0.000000  1
  Li  Li1  1  0.834405  0.000000  0.500000  1
  Mn  Mn2  1  0.986167  0.000000  0.000000  1
  Mn  Mn3  1  0.513833  0.500000  0.500000  1
  P  P4  1  0.016026  0.648269  0.287213  1
  P  P5  1  0.016026  0.351731  0.712787  1
  P  P6  1  0.483974  0.148269  0.212787  1
  P  P7  1  0.483974  0.851731  0.787213  1
  H  H8  1  0.193816  0.215334  0.482715  1
  H  H9  1  0.193816  0.784666  0.517285  1
  H  H10  1  0.306184  0.284666  0.982715  1
  H  H11  1  0.306184  0.715334  0.017285  1
  O  O12  1  0.015820  0.219165  0.543539  1
  O  O13  1  0.026957  0.731170  0.089284  1
  O  O14  1  0.026957  0.268830  0.910716  1
  O  O15  1  0.015820  0.780835  0.456461  1
  O  O16  1  0.253481  0.460630  0.691592  1
  O  O17  1  0.253481  0.539370  0.308408  1
  O  O18  1  0.246519  0.039370  0.191592  1
  O  O19  1  0.246519  0.960630  0.808408  1
  O  O20  1  0.473043  0.231170  0.410716  1
  O  O21  1  0.484180  0.280835  0.043539  1
  O  O22  1  0.484180  0.719165  0.956461  1
  O  O23  1  0.473043  0.768830  0.589284  1
  O  O24  1  0.732861  0.953264  0.797710  1
  O  O25  1  0.732861  0.046736  0.202290  1
  O  O26  1  0.767139  0.453264  0.702290  1
  O  O27  1  0.767139  0.546736  0.297710  1
