# generated using pymatgen
data_Na(NiO2)2
_symmetry_space_group_name_H-M   'P 1'
_cell_length_a   4.84896941
_cell_length_b   5.74514102
_cell_length_c   11.17133031
_cell_angle_alpha   89.71532116
_cell_angle_beta   89.98428137
_cell_angle_gamma   90.01267970
_symmetry_Int_Tables_number   1
_chemical_formula_structural   Na(NiO2)2
_chemical_formula_sum   'Na4 Ni8 O16'
_cell_volume   311.20720471
_cell_formula_units_Z   4
loop_
 _symmetry_equiv_pos_site_id
 _symmetry_equiv_pos_as_xyz
  1  'x, y, z'
loop_
 _atom_site_type_symbol
 _atom_site_label
 _atom_site_symmetry_multiplicity
 _atom_site_fract_x
 _atom_site_fract_y
 _atom_site_fract_z
 _atom_site_occupancy
  Na  Na0  1  0.018015  0.750009  0.249960  1
  Na  Na1  1  0.356934  0.750011  0.750100  1
  Na  Na2  1  0.643046  0.249990  0.249899  1
  Na  Na3  1  0.982015  0.249993  0.750049  1
  Ni  Ni4  1  0.001943  0.247914  0.003570  1
  Ni  Ni5  1  0.998044  0.752091  0.996424  1
  Ni  Ni6  1  0.001909  0.252101  0.496428  1
  Ni  Ni7  1  0.998106  0.747893  0.503579  1
  Ni  Ni8  1  0.499995  0.499984  0.999999  1
  Ni  Ni9  1  0.499990  0.000012  0.999999  1
  Ni  Ni10  1  0.500006  0.000024  0.500000  1
  Ni  Ni11  1  0.500006  0.499978  0.499999  1
  O  O12  1  0.175836  0.001413  0.591874  1
  O  O13  1  0.177928  0.001818  0.907484  1
  O  O14  1  0.177864  0.498079  0.592524  1
  O  O15  1  0.175859  0.498562  0.908123  1
  O  O16  1  0.334384  0.241497  0.087639  1
  O  O17  1  0.334431  0.258585  0.412325  1
  O  O18  1  0.321754  0.761712  0.085694  1
  O  O19  1  0.322042  0.738377  0.414328  1
  O  O20  1  0.677991  0.261620  0.585688  1
  O  O21  1  0.678244  0.238289  0.914295  1
  O  O22  1  0.665551  0.741412  0.587665  1
  O  O23  1  0.665586  0.758504  0.912365  1
  O  O24  1  0.824182  0.998751  0.408124  1
  O  O25  1  0.822147  0.501766  0.407470  1
  O  O26  1  0.822057  0.998278  0.092520  1
  O  O27  1  0.824134  0.501337  0.091878  1
