# generated using pymatgen
data_Li4Co2(PO4)3
_symmetry_space_group_name_H-M   'P 1'
_cell_length_a   9.10950475
_cell_length_b   8.51903386
_cell_length_c   8.38508362
_cell_angle_alpha   59.11149143
_cell_angle_beta   63.44315653
_cell_angle_gamma   62.54398285
_symmetry_Int_Tables_number   1
_chemical_formula_structural   Li4Co2(PO4)3
_chemical_formula_sum   'Li8 Co4 P6 O24'
_cell_volume   476.23977812
_cell_formula_units_Z   2
loop_
 _symmetry_equiv_pos_site_id
 _symmetry_equiv_pos_as_xyz
  1  'x, y, z'
loop_
 _atom_site_type_symbol
 _atom_site_label
 _atom_site_symmetry_multiplicity
 _atom_site_fract_x
 _atom_site_fract_y
 _atom_site_fract_z
 _atom_site_occupancy
  Li  Li0  1  0.145242  0.664319  0.273988  1
  Li  Li1  1  0.138594  0.270560  0.919226  1
  Li  Li2  1  0.102672  0.928873  0.690918  1
  Li  Li3  1  0.583538  0.212998  0.465790  1
  Li  Li4  1  0.416462  0.787002  0.534210  1
  Li  Li5  1  0.897328  0.071127  0.309082  1
  Li  Li6  1  0.861406  0.729440  0.080774  1
  Li  Li7  1  0.854758  0.335681  0.726012  1
  Co  Co8  1  0.040167  0.647892  0.660603  1
  Co  Co9  1  0.559353  0.144774  0.141745  1
  Co  Co10  1  0.440647  0.855226  0.858255  1
  Co  Co11  1  0.959833  0.352108  0.339397  1
  P  P12  1  0.239238  0.244779  0.553137  1
  P  P13  1  0.253258  0.952508  0.255768  1
  P  P14  1  0.251967  0.544548  0.953947  1
  P  P15  1  0.748033  0.455452  0.046053  1
  P  P16  1  0.746742  0.047492  0.744232  1
  P  P17  1  0.760762  0.755221  0.446863  1
  O  O18  1  0.106452  0.148584  0.202585  1
  O  O19  1  0.103771  0.556011  0.142432  1
  O  O20  1  0.089888  0.204694  0.547547  1
  O  O21  1  0.192612  0.458586  0.512047  1
  O  O22  1  0.257682  0.118893  0.761868  1
  O  O23  1  0.410729  0.184757  0.410659  1
  O  O24  1  0.271841  0.849194  0.138454  1
  O  O25  1  0.200130  0.830141  0.478288  1
  O  O26  1  0.199306  0.493004  0.838579  1
  O  O27  1  0.577779  0.598733  0.000497  1
  O  O28  1  0.716871  0.254432  0.174829  1
  O  O29  1  0.576304  0.024324  0.779938  1
  O  O30  1  0.423696  0.975676  0.220062  1
  O  O31  1  0.283129  0.745568  0.825171  1
  O  O32  1  0.422221  0.401267  -0.000497  1
  O  O33  1  0.800694  0.506996  0.161421  1
  O  O34  1  0.799870  0.169859  0.521712  1
  O  O35  1  0.728159  0.150806  0.861546  1
  O  O36  1  0.589271  0.815243  0.589341  1
  O  O37  1  0.742318  0.881107  0.238132  1
  O  O38  1  0.807388  0.541414  0.487953  1
  O  O39  1  0.910112  0.795306  0.452453  1
  O  O40  1  0.896229  0.443989  0.857568  1
  O  O41  1  0.893548  0.851416  0.797415  1
