# generated using pymatgen
data_LiCr4(PO4)3
_symmetry_space_group_name_H-M   'P 1'
_cell_length_a   6.46077694
_cell_length_b   16.34409158
_cell_length_c   9.97460305
_cell_angle_alpha   90.00000000
_cell_angle_beta   90.00000000
_cell_angle_gamma   90.00000000
_symmetry_Int_Tables_number   1
_chemical_formula_structural   LiCr4(PO4)3
_chemical_formula_sum   'Li4 Cr16 P12 O48'
_cell_volume   1053.27349546
_cell_formula_units_Z   4
loop_
 _symmetry_equiv_pos_site_id
 _symmetry_equiv_pos_as_xyz
  1  'x, y, z'
loop_
 _atom_site_type_symbol
 _atom_site_label
 _atom_site_symmetry_multiplicity
 _atom_site_fract_x
 _atom_site_fract_y
 _atom_site_fract_z
 _atom_site_occupancy
  Li  Li0  1  0.000000  0.471569  0.282909  1
  Li  Li1  1  0.000000  0.528431  0.717091  1
  Li  Li2  1  0.500000  0.028431  0.782909  1
  Li  Li3  1  0.500000  0.971569  0.217091  1
  Cr  Cr4  1  0.000000  0.098303  0.542120  1
  Cr  Cr5  1  0.000000  0.144058  0.981183  1
  Cr  Cr6  1  0.000000  0.855943  0.018817  1
  Cr  Cr7  1  0.000000  0.901697  0.457880  1
  Cr  Cr8  1  0.248941  0.295388  0.753983  1
  Cr  Cr9  1  0.248941  0.704612  0.246017  1
  Cr  Cr10  1  0.251059  0.204612  0.253983  1
  Cr  Cr11  1  0.251059  0.795388  0.746017  1
  Cr  Cr12  1  0.500000  0.598303  0.957880  1
  Cr  Cr13  1  0.500000  0.355942  0.481183  1
  Cr  Cr14  1  0.500000  0.401697  0.042120  1
  Cr  Cr15  1  0.500000  0.644057  0.518817  1
  Cr  Cr16  1  0.748941  0.204612  0.253983  1
  Cr  Cr17  1  0.748941  0.795388  0.746017  1
  Cr  Cr18  1  0.751059  0.295388  0.753983  1
  Cr  Cr19  1  0.751059  0.704612  0.246017  1
  P  P20  1  0.000000  0.027435  0.214922  1
  P  P21  1  0.000000  0.335467  0.045746  1
  P  P22  1  0.000000  0.289876  0.465621  1
  P  P23  1  0.000000  0.710124  0.534379  1
  P  P24  1  0.000000  0.664533  0.954254  1
  P  P25  1  0.000000  0.972565  0.785078  1
  P  P26  1  0.500000  0.210124  0.965621  1
  P  P27  1  0.500000  0.472565  0.714922  1
  P  P28  1  0.500000  0.527435  0.285078  1
  P  P29  1  0.500000  0.789876  0.034379  1
  P  P30  1  0.500000  0.164533  0.545746  1
  P  P31  1  0.500000  0.835467  0.454254  1
  O  O32  1  0.000000  0.013679  0.369222  1
  O  O33  1  0.000000  0.245398  0.116742  1
  O  O34  1  0.000000  0.199252  0.398591  1
  O  O35  1  0.000000  0.056879  0.848663  1
  O  O36  1  0.000000  0.276314  0.621291  1
  O  O37  1  0.000000  0.682134  0.109626  1
  O  O38  1  0.000000  0.317866  0.890374  1
  O  O39  1  0.000000  0.723686  0.378709  1
  O  O40  1  0.000000  0.943121  0.151337  1
  O  O41  1  0.000000  0.800748  0.601409  1
  O  O42  1  0.000000  0.754602  0.883258  1
  O  O43  1  0.000000  0.986321  0.630778  1
  O  O44  1  0.192565  0.380905  0.091049  1
  O  O45  1  0.192565  0.619095  0.908951  1
  O  O46  1  0.195373  0.331176  0.414748  1
  O  O47  1  0.195373  0.668824  0.585252  1
  O  O48  1  0.198285  0.076428  0.174961  1
  O  O49  1  0.198285  0.923572  0.825039  1
  O  O50  1  0.301715  0.576428  0.325039  1
  O  O51  1  0.301715  0.423572  0.674961  1
  O  O52  1  0.304627  0.168824  0.914748  1
  O  O53  1  0.304627  0.831176  0.085252  1
  O  O54  1  0.307435  0.880905  0.408951  1
  O  O55  1  0.307435  0.119095  0.591049  1
  O  O56  1  0.500000  0.443121  0.348663  1
  O  O57  1  0.500000  0.486321  0.869222  1
  O  O58  1  0.500000  0.513679  0.130778  1
  O  O59  1  0.500000  0.556879  0.651337  1
  O  O60  1  0.500000  0.776314  0.878709  1
  O  O61  1  0.500000  0.817866  0.609626  1
  O  O62  1  0.500000  0.254602  0.616742  1
  O  O63  1  0.500000  0.300748  0.898591  1
  O  O64  1  0.500000  0.699252  0.101409  1
  O  O65  1  0.500000  0.182134  0.390374  1
  O  O66  1  0.500000  0.223686  0.121291  1
  O  O67  1  0.500000  0.745398  0.383258  1
  O  O68  1  0.692565  0.119095  0.591049  1
  O  O69  1  0.692565  0.880905  0.408951  1
  O  O70  1  0.695373  0.168824  0.914748  1
  O  O71  1  0.695373  0.831176  0.085252  1
  O  O72  1  0.698285  0.423572  0.674961  1
  O  O73  1  0.698285  0.576428  0.325039  1
  O  O74  1  0.801715  0.076428  0.174961  1
  O  O75  1  0.801715  0.923572  0.825039  1
  O  O76  1  0.804627  0.331176  0.414748  1
  O  O77  1  0.804627  0.668824  0.585252  1
  O  O78  1  0.807435  0.380905  0.091049  1
  O  O79  1  0.807435  0.619095  0.908951  1
