# generated using pymatgen
data_Li2Ti3BiO8
_symmetry_space_group_name_H-M   'P 1'
_cell_length_a   6.00948061
_cell_length_b   6.00948034
_cell_length_c   6.68617045
_cell_angle_alpha   63.29504108
_cell_angle_beta   116.70495173
_cell_angle_gamma   120.00000419
_symmetry_Int_Tables_number   1
_chemical_formula_structural   Li2Ti3BiO8
_chemical_formula_sum   'Li2 Ti3 Bi1 O8'
_cell_volume   178.75516649
_cell_formula_units_Z   1
loop_
 _symmetry_equiv_pos_site_id
 _symmetry_equiv_pos_as_xyz
  1  'x, y, z'
loop_
 _atom_site_type_symbol
 _atom_site_label
 _atom_site_symmetry_multiplicity
 _atom_site_fract_x
 _atom_site_fract_y
 _atom_site_fract_z
 _atom_site_occupancy
  Li  Li0  1  0.905857  0.094143  0.717572  1
  Li  Li1  1  0.094143  0.905857  0.282428  1
  Ti  Ti2  1  0.500000  0.500000  0.000000  1
  Ti  Ti3  1  0.500000  0.000000  0.000000  1
  Ti  Ti4  1  0.000000  0.500000  0.000000  1
  Bi  Bi5  1  0.500000  0.500000  0.500000  1
  O  O6  1  0.755870  0.709990  0.801749  1
  O  O7  1  0.755870  0.244130  0.801749  1
  O  O8  1  0.273455  0.726545  0.820365  1
  O  O9  1  0.290010  0.244130  0.801749  1
  O  O10  1  0.709990  0.755870  0.198251  1
  O  O11  1  0.726545  0.273455  0.179635  1
  O  O12  1  0.244130  0.755870  0.198251  1
  O  O13  1  0.244130  0.290010  0.198251  1
