# generated using pymatgen
data_PH5N2O3
_symmetry_space_group_name_H-M   'P 1'
_cell_length_a   8.23957122
_cell_length_b   8.22674455
_cell_length_c   8.58559727
_cell_angle_alpha   103.81283840
_cell_angle_beta   117.53115232
_cell_angle_gamma   93.50198311
_symmetry_Int_Tables_number   1
_chemical_formula_structural   PH5N2O3
_chemical_formula_sum   'P4 H20 N8 O12'
_cell_volume   491.11363755
_cell_formula_units_Z   4
loop_
 _symmetry_equiv_pos_site_id
 _symmetry_equiv_pos_as_xyz
  1  'x, y, z'
loop_
 _atom_site_type_symbol
 _atom_site_label
 _atom_site_symmetry_multiplicity
 _atom_site_fract_x
 _atom_site_fract_y
 _atom_site_fract_z
 _atom_site_occupancy
  P  P0  1  0.622409  0.751772  0.284585  1
  P  P1  1  0.377591  0.248228  0.715415  1
  P  P2  1  0.243657  0.746389  0.974240  1
  P  P3  1  0.756343  0.253611  0.025760  1
  H  H4  1  -0.000272  0.791097  0.003801  1
  H  H5  1  0.000272  0.208903  0.996199  1
  H  H6  1  0.744461  0.985902  0.052746  1
  H  H7  1  0.255539  0.014098  0.947254  1
  H  H8  1  0.492212  0.478726  0.229161  1
  H  H9  1  0.507788  0.521274  0.770839  1
  H  H10  1  0.859214  0.442136  0.605402  1
  H  H11  1  0.140786  0.557864  0.394598  1
  H  H12  1  0.206327  0.144690  0.293016  1
  H  H13  1  0.793673  0.855310  0.706984  1
  H  H14  1  0.183584  0.922981  0.493634  1
  H  H15  1  0.816416  0.077019  0.506366  1
  H  H16  1  0.141414  0.807523  0.611436  1
  H  H17  1  0.858586  0.192477  0.388564  1
  H  H18  1  0.527412  0.738659  0.615920  1
  H  H19  1  0.472588  0.261341  0.384080  1
  H  H20  1  0.785257  0.307593  0.684569  1
  H  H21  1  0.214743  0.692407  0.315431  1
  H  H22  1  0.026009  0.230295  0.616551  1
  H  H23  1  0.973991  0.769705  0.383449  1
  N  N24  1  0.621152  0.729330  0.745951  1
  N  N25  1  0.378848  0.270670  0.254049  1
  N  N26  1  0.781598  0.323184  0.568033  1
  N  N27  1  0.218402  0.676816  0.431967  1
  N  N28  1  0.784066  0.799415  0.801975  1
  N  N29  1  0.215934  0.200585  0.198025  1
  N  N30  1  0.118709  0.799390  0.480209  1
  N  N31  1  0.881291  0.200610  0.519791  1
  O  O32  1  0.511908  0.597490  0.303569  1
  O  O33  1  0.488092  0.402510  0.696431  1
  O  O34  1  0.287240  0.111489  0.529757  1
  O  O35  1  0.712760  0.888511  0.470243  1
  O  O36  1  0.254774  0.303328  0.795844  1
  O  O37  1  0.745226  0.696672  0.204156  1
  O  O38  1  0.543467  0.170770  0.853817  1
  O  O39  1  0.456533  0.829230  0.146183  1
  O  O40  1  0.136617  0.803404  0.093536  1
  O  O41  1  0.863383  0.196596  0.906464  1
  O  O42  1  0.778204  0.105259  0.129589  1
  O  O43  1  0.221796  0.894741  0.870411  1
