# generated using pymatgen
data_TiBi2O5
_symmetry_space_group_name_H-M   'P 1'
_cell_length_a   5.68903218
_cell_length_b   8.45556212
_cell_length_c   5.61132020
_cell_angle_alpha   90.01986549
_cell_angle_beta   90.00000000
_cell_angle_gamma   70.34183861
_symmetry_Int_Tables_number   1
_chemical_formula_structural   TiBi2O5
_chemical_formula_sum   'Ti2 Bi4 O10'
_cell_volume   254.19444319
_cell_formula_units_Z   2
loop_
 _symmetry_equiv_pos_site_id
 _symmetry_equiv_pos_as_xyz
  1  'x, y, z'
loop_
 _atom_site_type_symbol
 _atom_site_label
 _atom_site_symmetry_multiplicity
 _atom_site_fract_x
 _atom_site_fract_y
 _atom_site_fract_z
 _atom_site_occupancy
  Ti  Ti0  1  0.311000  0.997104  0.725928  1
  Ti  Ti1  1  0.691896  0.997104  0.225928  1
  Bi  Bi2  1  0.965858  0.655593  0.772829  1
  Bi  Bi3  1  0.378550  0.655593  0.272829  1
  Bi  Bi4  1  0.624446  0.337329  0.769977  1
  Bi  Bi5  1  0.038225  0.337329  0.269977  1
  O  O6  1  0.246913  0.806736  0.655313  1
  O  O7  1  0.946350  0.806736  0.155313  1
  O  O8  1  0.235231  0.493313  0.492660  1
  O  O9  1  0.271457  0.493313  0.992660  1
  O  O10  1  0.769398  0.499060  0.990415  1
  O  O11  1  0.731542  0.499060  0.490415  1
  O  O12  1  0.053423  0.184286  0.651849  1
  O  O13  1  0.762291  0.184286  0.151849  1
  O  O14  1  0.580888  0.999620  0.541218  1
  O  O15  1  0.419493  0.999620  0.041218  1
