# generated using pymatgen
data_LiMnP3H8O13
_symmetry_space_group_name_H-M   'P 1'
_cell_length_a   7.71211238
_cell_length_b   10.01930000
_cell_length_c   7.13654088
_cell_angle_alpha   105.62689375
_cell_angle_beta   101.83381328
_cell_angle_gamma   84.01389316
_symmetry_Int_Tables_number   1
_chemical_formula_structural   LiMnP3H8O13
_chemical_formula_sum   'Li2 Mn2 P6 H16 O26'
_cell_volume   519.06602805
_cell_formula_units_Z   2
loop_
 _symmetry_equiv_pos_site_id
 _symmetry_equiv_pos_as_xyz
  1  'x, y, z'
loop_
 _atom_site_type_symbol
 _atom_site_label
 _atom_site_symmetry_multiplicity
 _atom_site_fract_x
 _atom_site_fract_y
 _atom_site_fract_z
 _atom_site_occupancy
  Li  Li0  1  0.000000  0.000000  0.000000  1
  Li  Li1  1  0.500000  0.500000  0.000000  1
  Mn  Mn2  1  0.190988  0.238035  0.818640  1
  Mn  Mn3  1  0.809012  0.761965  0.181360  1
  P  P4  1  0.194502  0.257191  0.326879  1
  P  P5  1  0.195369  0.522505  0.240656  1
  P  P6  1  0.538998  0.269095  0.594126  1
  P  P7  1  0.461002  0.730905  0.405874  1
  P  P8  1  0.804631  0.477495  0.759344  1
  P  P9  1  0.805498  0.742809  0.673121  1
  H  H10  1  0.018953  0.034038  0.360827  1
  H  H11  1  0.181361  0.569657  0.818451  1
  H  H12  1  0.136214  0.898200  0.309868  1
  H  H13  1  0.259074  0.795488  0.920999  1
  H  H14  1  0.305372  0.601762  0.690389  1
  H  H15  1  0.338072  0.988535  0.856408  1
  H  H16  1  0.375130  0.994689  0.649465  1
  H  H17  1  0.341857  0.915065  0.099241  1
  H  H18  1  0.658142  0.084935  0.900759  1
  H  H19  1  0.624870  0.005311  0.350535  1
  H  H20  1  0.661928  0.011465  0.143592  1
  H  H21  1  0.694628  0.398238  0.309611  1
  H  H22  1  0.740926  0.204512  0.079001  1
  H  H23  1  0.863786  0.101800  0.690132  1
  H  H24  1  0.818639  0.430343  0.181549  1
  H  H25  1  0.981047  0.965962  0.639173  1
  O  O26  1  0.121966  0.208698  0.476132  1
  O  O27  1  0.015570  0.939880  0.270692  1
  O  O28  1  0.039971  0.617580  0.192823  1
  O  O29  1  0.139601  0.423246  0.362483  1
  O  O30  1  0.145394  0.187261  0.111096  1
  O  O31  1  0.253242  0.898227  0.976300  1
  O  O32  1  0.285434  0.620114  0.826531  1
  O  O33  1  0.376936  0.052185  0.786755  1
  O  O34  1  0.437541  0.325857  0.759903  1
  O  O35  1  0.289135  0.436586  0.079893  1
  O  O36  1  0.343001  0.608362  0.419336  1
  O  O37  1  0.409985  0.253282  0.380780  1
  O  O38  1  0.348016  0.863023  0.414143  1
  O  O39  1  0.651984  0.136977  0.585857  1
  O  O40  1  0.590015  0.746718  0.619220  1
  O  O41  1  0.656999  0.391638  0.580664  1
  O  O42  1  0.710865  0.563414  0.920107  1
  O  O43  1  0.562459  0.674143  0.240097  1
  O  O44  1  0.623064  0.947815  0.213245  1
  O  O45  1  0.714566  0.379886  0.173469  1
  O  O46  1  0.746758  0.101774  0.023700  1
  O  O47  1  0.854606  0.812739  0.888904  1
  O  O48  1  0.860399  0.576754  0.637517  1
  O  O49  1  0.960029  0.382420  0.807177  1
  O  O50  1  0.984430  0.060120  0.729308  1
  O  O51  1  0.878034  0.791302  0.523868  1
