# generated using pymatgen
data_Li2MnP2O7
_symmetry_space_group_name_H-M   'P 1'
_cell_length_a   7.34985698
_cell_length_b   8.46208321
_cell_length_c   10.09641272
_cell_angle_alpha   90.01493539
_cell_angle_beta   112.33365638
_cell_angle_gamma   90.00172965
_symmetry_Int_Tables_number   1
_chemical_formula_structural   Li2MnP2O7
_chemical_formula_sum   'Li8 Mn4 P8 O28'
_cell_volume   580.84295527
_cell_formula_units_Z   4
loop_
 _symmetry_equiv_pos_site_id
 _symmetry_equiv_pos_as_xyz
  1  'x, y, z'
loop_
 _atom_site_type_symbol
 _atom_site_label
 _atom_site_symmetry_multiplicity
 _atom_site_fract_x
 _atom_site_fract_y
 _atom_site_fract_z
 _atom_site_occupancy
  Li  Li0  1  0.794417  0.137859  0.125374  1
  Li  Li1  1  0.705592  0.637851  0.374617  1
  Li  Li2  1  0.468274  0.919725  0.414774  1
  Li  Li3  1  0.399404  0.115452  0.634262  1
  Li  Li4  1  0.031732  0.419729  0.085235  1
  Li  Li5  1  0.376397  0.913814  0.967997  1
  Li  Li6  1  0.123607  0.413823  0.532003  1
  Li  Li7  1  0.100583  0.615430  0.865738  1
  Mn  Mn8  1  0.519580  0.499392  0.000670  1
  Mn  Mn9  1  0.499954  0.488318  0.516672  1
  Mn  Mn10  1  0.000060  0.988328  0.983346  1
  Mn  Mn11  1  0.980434  0.999408  0.499342  1
  P  P12  1  0.862958  0.762929  0.208126  1
  P  P13  1  0.636980  0.263134  0.292013  1
  P  P14  1  0.748239  0.804203  0.674102  1
  P  P15  1  0.751660  0.304385  0.825796  1
  P  P16  1  0.254910  0.694251  0.178201  1
  P  P17  1  0.245159  0.194421  0.321883  1
  P  P18  1  0.349963  0.748245  0.705994  1
  P  P19  1  0.150159  0.248588  0.793939  1
  O  O20  1  0.831128  0.908144  0.111888  1
  O  O21  1  0.920080  0.792796  0.368001  1
  O  O22  1  0.808977  0.147315  0.335667  1
  O  O23  1  0.691133  0.647443  0.164348  1
  O  O24  1  0.958954  0.339130  0.805670  1
  O  O25  1  0.579911  0.292743  0.131921  1
  O  O26  1  0.745012  0.942826  0.575022  1
  O  O27  1  0.913350  0.801592  0.823292  1
  O  O28  1  0.668857  0.407968  0.388014  1
  O  O29  1  0.736789  0.644823  0.599408  1
  O  O30  1  0.763259  0.144690  0.900660  1
  O  O31  1  0.458433  0.160550  0.311591  1
  O  O32  1  0.586733  0.301561  0.676786  1
  O  O33  1  0.755026  0.442764  0.924987  1
  O  O34  1  0.255326  0.555308  0.079627  1
  O  O35  1  0.411978  0.694830  0.330761  1
  O  O36  1  0.541058  0.839159  0.694349  1
  O  O37  1  0.253266  0.855117  0.106395  1
  O  O38  1  0.246703  0.355004  0.393520  1
  O  O39  1  0.309075  0.601168  0.611299  1
  O  O40  1  0.087941  0.194792  0.169164  1
  O  O41  1  0.244645  0.055270  0.420377  1
  O  O42  1  0.395092  0.714096  0.865843  1
  O  O43  1  0.041544  0.660604  0.188379  1
  O  O44  1  0.300327  0.379884  0.840570  1
  O  O45  1  0.199500  0.880060  0.659400  1
  O  O46  1  0.104900  0.214074  0.634186  1
  O  O47  1  0.190929  0.100994  0.888786  1
