# generated using pymatgen
data_Li3V3P8O29
_symmetry_space_group_name_H-M   'P 1'
_cell_length_a   9.76026386
_cell_length_b   9.79433127
_cell_length_c   13.94801190
_cell_angle_alpha   90.02406004
_cell_angle_beta   90.31931213
_cell_angle_gamma   59.89817615
_symmetry_Int_Tables_number   1
_chemical_formula_structural   Li3V3P8O29
_chemical_formula_sum   'Li6 V6 P16 O58'
_cell_volume   1153.51802973
_cell_formula_units_Z   2
loop_
 _symmetry_equiv_pos_site_id
 _symmetry_equiv_pos_as_xyz
  1  'x, y, z'
loop_
 _atom_site_type_symbol
 _atom_site_label
 _atom_site_symmetry_multiplicity
 _atom_site_fract_x
 _atom_site_fract_y
 _atom_site_fract_z
 _atom_site_occupancy
  Li  Li0  1  0.773699  0.904662  0.557299  1
  Li  Li1  1  0.774505  0.321043  0.057058  1
  Li  Li2  1  0.318437  0.907572  0.058973  1
  Li  Li3  1  0.684595  0.227749  0.440504  1
  Li  Li4  1  0.318497  0.774055  0.558804  1
  Li  Li5  1  0.682495  0.089183  0.940805  1
  V  V6  1  0.565147  0.437716  0.249705  1
  V  V7  1  0.429071  0.564571  0.754200  1
  V  V8  1  0.565296  0.996891  0.750049  1
  V  V9  1  0.428878  0.006281  0.254274  1
  V  V10  1  0.998468  0.566010  0.248996  1
  V  V11  1  0.998308  0.435983  0.749297  1
  P  P12  1  0.918584  0.769415  0.846259  1
  P  P13  1  0.772625  0.910531  0.340032  1
  P  P14  1  0.917895  0.312614  0.345908  1
  P  P15  1  0.663974  0.669497  0.127808  1
  P  P16  1  0.663983  0.666556  0.627932  1
  P  P17  1  0.772754  0.316876  0.840058  1
  P  P18  1  0.681408  0.229799  0.657076  1
  P  P19  1  0.314728  0.913117  0.842601  1
  P  P20  1  0.681312  0.088644  0.156929  1
  P  P21  1  0.314625  0.771978  0.342699  1
  P  P22  1  0.225264  0.686244  0.157979  1
  P  P23  1  0.333571  0.336163  0.372800  1
  P  P24  1  0.333332  0.330394  0.872738  1
  P  P25  1  0.083443  0.686528  0.657845  1
  P  P26  1  0.225097  0.088740  0.658116  1
  P  P27  1  0.083473  0.230233  0.157382  1
  O  O28  1  0.993024  0.768567  0.570417  1
  O  O29  1  0.915542  0.742975  0.336190  1
  O  O30  1  0.752818  0.008749  0.065494  1
  O  O31  1  0.745052  0.914564  0.837145  1
  O  O32  1  0.909715  0.616949  0.823464  1
  O  O33  1  0.813099  0.666745  0.174032  1
  O  O34  1  0.908314  0.474336  0.322751  1
  O  O35  1  0.994030  0.238818  0.069401  1
  O  O36  1  0.915595  0.341544  0.836313  1
  O  O37  1  0.668497  0.817452  0.670204  1
  O  O38  1  0.617796  0.904005  0.322161  1
  O  O39  1  0.813138  0.520647  0.674396  1
  O  O40  1  0.664915  0.661226  0.021515  1
  O  O41  1  0.665238  0.673027  0.521588  1
  O  O42  1  0.668704  0.514003  0.170334  1
  O  O43  1  0.477416  0.903895  0.821779  1
  O  O44  1  0.512694  0.817658  0.168305  1
  O  O45  1  0.744351  0.340047  0.337305  1
  O  O46  1  0.792825  0.206153  0.749445  1
  O  O47  1  0.752856  0.238415  0.565741  1
  O  O48  1  0.756330  0.243690  0.930341  1
  O  O49  1  0.617834  0.478000  0.822227  1
  O  O50  1  0.512793  0.669600  0.668527  1
  O  O51  1  0.659253  0.257738  0.161711  1
  O  O52  1  0.477337  0.618651  0.321571  1
  O  O53  1  0.342652  0.914030  0.332805  1
  O  O54  1  0.792720  0.001042  0.249312  1
  O  O55  1  0.756453  0.999876  0.430350  1
  O  O56  1  0.240569  0.994624  0.572070  1
  O  O57  1  0.659286  0.082904  0.662070  1
  O  O58  1  0.521917  0.382271  0.678519  1
  O  O59  1  0.342813  0.743131  0.832689  1
  O  O60  1  0.488099  0.330539  0.330676  1
  O  O61  1  0.381374  0.524452  0.178205  1
  O  O62  1  0.240923  0.764951  0.072006  1
  O  O63  1  0.249173  0.759061  0.434945  1
  O  O64  1  0.202483  0.792137  0.253358  1
  O  O65  1  0.254997  0.660329  0.660368  1
  O  O66  1  0.488081  0.181225  0.830950  1
  O  O67  1  0.521968  0.095524  0.178493  1
  O  O68  1  0.334794  0.480201  0.826615  1
  O  O69  1  0.341696  0.330990  0.978684  1
  O  O70  1  0.342145  0.326880  0.478622  1
  O  O71  1  0.186196  0.480025  0.326685  1
  O  O72  1  0.381716  0.093481  0.678521  1
  O  O73  1  0.334979  0.184830  0.326556  1
  O  O74  1  0.084762  0.656955  0.163990  1
  O  O75  1  0.001935  0.791705  0.751749  1
  O  O76  1  0.000830  0.764736  0.935962  1
  O  O77  1  0.093245  0.524688  0.675867  1
  O  O78  1  0.186399  0.333269  0.826552  1
  O  O79  1  0.093494  0.382138  0.175699  1
  O  O80  1  0.254757  0.084566  0.160406  1
  O  O81  1  0.249210  0.991354  0.935072  1
  O  O82  1  0.202792  0.005123  0.753347  1
  O  O83  1  0.084737  0.258499  0.664317  1
  O  O84  1  -0.000013  0.235450  0.434990  1
  O  O85  1  0.000630  0.207189  0.250858  1
