# generated using pymatgen
data_Li3Bi(BO3)2
_symmetry_space_group_name_H-M   'P 1'
_cell_length_a   7.64171200
_cell_length_b   4.83476756
_cell_length_c   8.90827155
_cell_angle_alpha   90.76749247
_cell_angle_beta   68.87907053
_cell_angle_gamma   87.85294559
_symmetry_Int_Tables_number   1
_chemical_formula_structural   Li3Bi(BO3)2
_chemical_formula_sum   'Li6 Bi2 B4 O12'
_cell_volume   306.67095552
_cell_formula_units_Z   2
loop_
 _symmetry_equiv_pos_site_id
 _symmetry_equiv_pos_as_xyz
  1  'x, y, z'
loop_
 _atom_site_type_symbol
 _atom_site_label
 _atom_site_symmetry_multiplicity
 _atom_site_fract_x
 _atom_site_fract_y
 _atom_site_fract_z
 _atom_site_occupancy
  Li  Li0  1  0.339689  0.042740  0.259250  1
  Li  Li1  1  0.592951  0.664944  0.374856  1
  Li  Li2  1  0.348300  0.769052  0.752693  1
  Li  Li3  1  0.651700  0.230948  0.247307  1
  Li  Li4  1  0.407049  0.335056  0.625144  1
  Li  Li5  1  0.660311  0.957260  0.740750  1
  Bi  Bi6  1  0.957013  0.403844  0.802877  1
  Bi  Bi7  1  0.042987  0.596156  0.197123  1
  B  B8  1  0.258916  0.553477  0.456630  1
  B  B9  1  0.714827  0.728389  0.054797  1
  B  B10  1  0.285173  0.271611  0.945203  1
  B  B11  1  0.741084  0.446523  0.543370  1
  O  O12  1  0.188689  0.711880  0.361030  1
  O  O13  1  0.216391  0.198635  0.109874  1
  O  O14  1  0.199482  0.621648  0.622509  1
  O  O15  1  0.398720  0.349148  0.398258  1
  O  O16  1  0.604248  0.884613  0.182993  1
  O  O17  1  0.214205  0.533833  0.921827  1
  O  O18  1  0.785795  0.466167  0.078173  1
  O  O19  1  0.395752  0.115387  0.817007  1
  O  O20  1  0.601280  0.650852  0.601742  1
  O  O21  1  0.800518  0.378352  0.377491  1
  O  O22  1  0.783609  0.801365  0.890126  1
  O  O23  1  0.811311  0.288120  0.638970  1
