# generated using pymatgen
data_LiVOF2
_symmetry_space_group_name_H-M   'P 1'
_cell_length_a   5.27548697
_cell_length_b   8.82417828
_cell_length_c   9.56357799
_cell_angle_alpha   93.40074402
_cell_angle_beta   90.00000000
_cell_angle_gamma   90.00000000
_symmetry_Int_Tables_number   1
_chemical_formula_structural   LiVOF2
_chemical_formula_sum   'Li8 V8 O8 F16'
_cell_volume   444.41815351
_cell_formula_units_Z   8
loop_
 _symmetry_equiv_pos_site_id
 _symmetry_equiv_pos_as_xyz
  1  'x, y, z'
loop_
 _atom_site_type_symbol
 _atom_site_label
 _atom_site_symmetry_multiplicity
 _atom_site_fract_x
 _atom_site_fract_y
 _atom_site_fract_z
 _atom_site_occupancy
  Li  Li0  1  0.177755  0.168532  0.998801  1
  Li  Li1  1  0.157091  0.832732  0.785549  1
  Li  Li2  1  0.342909  0.332732  0.285549  1
  Li  Li3  1  0.322245  0.668532  0.498801  1
  Li  Li4  1  0.676947  0.359417  0.994040  1
  Li  Li5  1  0.662171  0.649582  0.803520  1
  Li  Li6  1  0.837829  0.149582  0.303520  1
  Li  Li7  1  0.823053  0.859416  0.494040  1
  V  V8  1  0.172512  0.487080  0.809043  1
  V  V9  1  0.208571  0.142319  0.579730  1
  V  V10  1  0.291429  0.642319  0.079730  1
  V  V11  1  0.327488  0.987080  0.309043  1
  V  V12  1  0.645668  0.014081  0.804311  1
  V  V13  1  0.639656  0.326962  0.565592  1
  V  V14  1  0.860344  0.826962  0.065592  1
  V  V15  1  0.854332  0.514081  0.304311  1
  O  O16  1  0.045693  0.020255  0.437021  1
  O  O17  1  0.012139  0.672471  0.931944  1
  O  O18  1  0.174151  0.836568  0.173121  1
  O  O19  1  0.156200  0.504748  0.204084  1
  O  O20  1  0.343800  0.004748  0.704084  1
  O  O21  1  0.325849  0.336568  0.673121  1
  O  O22  1  0.487861  0.172471  0.431944  1
  O  O23  1  0.454307  0.520255  0.937021  1
  F  F24  1  0.009586  0.332771  0.925997  1
  F  F25  1  0.169892  0.157122  0.195966  1
  F  F26  1  0.330108  0.657122  0.695966  1
  F  F27  1  0.490414  0.832771  0.425997  1
  F  F28  1  0.525053  0.169460  0.942808  1
  F  F29  1  0.527505  0.493723  0.433139  1
  F  F30  1  0.538694  0.838976  0.936363  1
  F  F31  1  0.670672  0.664383  0.177987  1
  F  F32  1  0.678726  0.344201  0.197034  1
  F  F33  1  0.670936  0.984614  0.192729  1
  F  F34  1  0.829064  0.484614  0.692729  1
  F  F35  1  0.821274  0.844201  0.697033  1
  F  F36  1  0.829328  0.164383  0.677987  1
  F  F37  1  0.961306  0.338976  0.436363  1
  F  F38  1  0.972495  0.993723  0.933139  1
  F  F39  1  0.974947  0.669460  0.442808  1
