# generated using pymatgen
data_Na5Mn2P(CO4)4
_symmetry_space_group_name_H-M   'P 1'
_cell_length_a   9.96005417
_cell_length_b   10.04430260
_cell_length_c   10.08983063
_cell_angle_alpha   120.70254953
_cell_angle_beta   60.12366129
_cell_angle_gamma   119.42111176
_symmetry_Int_Tables_number   1
_chemical_formula_structural   Na5Mn2P(CO4)4
_chemical_formula_sum   'Na10 Mn4 P2 C8 O32'
_cell_volume   713.57412255
_cell_formula_units_Z   2
loop_
 _symmetry_equiv_pos_site_id
 _symmetry_equiv_pos_as_xyz
  1  'x, y, z'
loop_
 _atom_site_type_symbol
 _atom_site_label
 _atom_site_symmetry_multiplicity
 _atom_site_fract_x
 _atom_site_fract_y
 _atom_site_fract_z
 _atom_site_occupancy
  Na  Na0  1  0.919819  0.169819  0.330181  1
  Na  Na1  1  0.916007  0.166007  0.916007  1
  Na  Na2  1  0.916365  0.583635  0.333635  1
  Na  Na3  1  0.667815  0.417815  0.082185  1
  Na  Na4  1  0.333635  0.166365  0.916365  1
  Na  Na5  1  0.664718  0.835282  0.085282  1
  Na  Na6  1  0.330181  0.580181  0.919819  1
  Na  Na7  1  0.333993  0.583993  0.333993  1
  Na  Na8  1  0.085282  0.414718  0.664718  1
  Na  Na9  1  0.082185  0.832185  0.667815  1
  Mn  Mn10  1  0.495327  0.997729  0.000836  1
  Mn  Mn11  1  0.502271  0.004673  0.501565  1
  Mn  Mn12  1  0.501565  0.499164  0.502271  1
  Mn  Mn13  1  0.000836  0.998435  0.495327  1
  P  P14  1  0.875000  0.625000  0.875000  1
  P  P15  1  0.125000  0.375000  0.125000  1
  C  C16  1  0.716103  0.147089  0.712798  1
  C  C17  1  0.648536  0.215105  0.277925  1
  C  C18  1  0.277925  0.211357  0.648536  1
  C  C19  1  0.288643  0.222075  0.284895  1
  C  C20  1  0.712798  0.781811  0.716103  1
  C  C21  1  0.718189  0.787202  0.352911  1
  C  C22  1  0.352911  0.783897  0.718189  1
  C  C23  1  0.284895  0.851464  0.288643  1
  O  O24  1  0.859708  0.152495  0.691300  1
  O  O25  1  0.654562  0.102444  0.299729  1
  O  O26  1  0.692766  0.136265  0.592150  1
  O  O27  1  0.646519  0.188673  0.137156  1
  O  O28  1  0.604014  0.155847  0.853673  1
  O  O29  1  0.937074  0.556471  0.933371  1
  O  O30  1  0.943529  0.562926  0.686025  1
  O  O31  1  0.651258  0.357535  0.391112  1
  O  O32  1  0.315164  0.108888  0.142465  1
  O  O33  1  0.391112  0.184836  0.651258  1
  O  O34  1  0.933371  0.813975  0.937074  1
  O  O35  1  0.686025  0.566629  0.943529  1
  O  O36  1  0.698160  0.646327  0.344153  1
  O  O37  1  0.853673  0.801840  0.604014  1
  O  O38  1  0.404999  0.362844  0.311327  1
  O  O39  1  0.137156  0.095001  0.646519  1
  O  O40  1  0.851349  0.907850  0.363735  1
  O  O41  1  0.592150  0.648651  0.692766  1
  O  O42  1  0.299729  0.351848  0.654562  1
  O  O43  1  0.148152  0.200271  0.397556  1
  O  O44  1  0.315000  0.437551  0.063691  1
  O  O45  1  0.062449  0.185000  0.058860  1
  O  O46  1  0.601487  0.808700  0.347505  1
  O  O47  1  0.691300  0.898513  0.859708  1
  O  O48  1  0.347505  0.640292  0.601487  1
  O  O49  1  0.063691  0.441140  0.315000  1
  O  O50  1  0.058860  0.436309  0.062449  1
  O  O51  1  0.397556  0.845438  0.148152  1
  O  O52  1  0.363735  0.807234  0.851349  1
  O  O53  1  0.311327  0.853481  0.404999  1
  O  O54  1  0.344153  0.895986  0.698160  1
  O  O55  1  0.142465  0.848742  0.315164  1
