# generated using pymatgen
data_FeCo(PO4)2
_symmetry_space_group_name_H-M   'P 1'
_cell_length_a   9.90424859
_cell_length_b   5.84796611
_cell_length_c   4.82165990
_cell_angle_alpha   90.00000000
_cell_angle_beta   90.51898333
_cell_angle_gamma   90.00000000
_symmetry_Int_Tables_number   1
_chemical_formula_structural   FeCo(PO4)2
_chemical_formula_sum   'Fe2 Co2 P4 O16'
_cell_volume   279.25768710
_cell_formula_units_Z   2
loop_
 _symmetry_equiv_pos_site_id
 _symmetry_equiv_pos_as_xyz
  1  'x, y, z'
loop_
 _atom_site_type_symbol
 _atom_site_label
 _atom_site_symmetry_multiplicity
 _atom_site_fract_x
 _atom_site_fract_y
 _atom_site_fract_z
 _atom_site_occupancy
  Fe  Fe0  1  0.224855  0.750000  0.462831  1
  Fe  Fe1  1  0.775145  0.250000  0.537169  1
  Co  Co2  1  0.281907  0.250000  0.938677  1
  Co  Co3  1  0.718093  0.750000  0.061323  1
  P  P4  1  0.100907  0.250000  0.410819  1
  P  P5  1  0.407662  0.750000  0.923616  1
  P  P6  1  0.592338  0.250000  0.076384  1
  P  P7  1  0.899093  0.750000  0.589181  1
  O  O8  1  0.050875  0.750000  0.650762  1
  O  O9  1  0.117817  0.250000  0.730601  1
  O  O10  1  0.174130  0.044089  0.268279  1
  O  O11  1  0.174130  0.455911  0.268279  1
  O  O12  1  0.328742  0.953051  0.772722  1
  O  O13  1  0.328742  0.546949  0.772722  1
  O  O14  1  0.388812  0.750000  0.234946  1
  O  O15  1  0.443439  0.250000  0.161118  1
  O  O16  1  0.556561  0.750000  0.838882  1
  O  O17  1  0.611188  0.250000  0.765054  1
  O  O18  1  0.671258  0.046949  0.227278  1
  O  O19  1  0.671258  0.453051  0.227278  1
  O  O20  1  0.825870  0.544089  0.731721  1
  O  O21  1  0.825870  0.955911  0.731721  1
  O  O22  1  0.882183  0.750000  0.269399  1
  O  O23  1  0.949125  0.250000  0.349238  1
