# generated using pymatgen
data_Cs2ZnH12(SO7)2
_symmetry_space_group_name_H-M   'P 1'
_cell_length_a   9.37166910
_cell_length_b   12.91086323
_cell_length_c   6.43542363
_cell_angle_alpha   90.00000000
_cell_angle_beta   106.65726922
_cell_angle_gamma   90.00000000
_symmetry_Int_Tables_number   1
_chemical_formula_structural   Cs2ZnH12(SO7)2
_chemical_formula_sum   'Cs4 Zn2 H24 S4 O28'
_cell_volume   745.98731198
_cell_formula_units_Z   2
loop_
 _symmetry_equiv_pos_site_id
 _symmetry_equiv_pos_as_xyz
  1  'x, y, z'
loop_
 _atom_site_type_symbol
 _atom_site_label
 _atom_site_symmetry_multiplicity
 _atom_site_fract_x
 _atom_site_fract_y
 _atom_site_fract_z
 _atom_site_occupancy
  Cs  Cs0  1  0.127491  0.356185  0.356016  1
  Cs  Cs1  1  0.372509  0.856185  0.643984  1
  Cs  Cs2  1  0.627491  0.143815  0.356016  1
  Cs  Cs3  1  0.872509  0.643815  0.643984  1
  Zn  Zn4  1  0.000000  0.000000  0.000000  1
  Zn  Zn5  1  0.500000  0.500000  0.000000  1
  H  H6  1  0.094149  0.059206  0.662877  1
  H  H7  1  0.026202  0.860259  0.313282  1
  H  H8  1  0.224175  0.403188  0.933704  1
  H  H9  1  0.264081  0.630462  0.917695  1
  H  H10  1  0.209174  0.101654  0.315070  1
  H  H11  1  0.350064  0.317067  0.990951  1
  H  H12  1  0.149936  0.817067  0.009049  1
  H  H13  1  0.290826  0.601654  0.684930  1
  H  H14  1  0.235919  0.130462  0.082305  1
  H  H15  1  0.275825  0.903188  0.066296  1
  H  H16  1  0.473798  0.360259  0.686718  1
  H  H17  1  0.405851  0.559206  0.337123  1
  H  H18  1  0.594149  0.440794  0.662877  1
  H  H19  1  0.526202  0.639741  0.313282  1
  H  H20  1  0.724175  0.096812  0.933704  1
  H  H21  1  0.764081  0.869538  0.917695  1
  H  H22  1  0.709174  0.398346  0.315070  1
  H  H23  1  0.850064  0.182933  0.990951  1
  H  H24  1  0.649936  0.682933  0.009049  1
  H  H25  1  0.790826  0.898346  0.684930  1
  H  H26  1  0.735919  0.369538  0.082305  1
  H  H27  1  0.775825  0.596812  0.066296  1
  H  H28  1  0.973798  0.139741  0.686718  1
  H  H29  1  0.905851  0.940794  0.337123  1
  S  S30  1  0.104522  0.647299  0.258713  1
  S  S31  1  0.395478  0.147299  0.741287  1
  S  S32  1  0.604522  0.852701  0.258713  1
  S  S33  1  0.895478  0.352701  0.741287  1
  O  O34  1  0.999340  0.064377  0.701355  1
  O  O35  1  0.031681  0.418167  0.801110  1
  O  O36  1  0.170696  0.890579  0.980771  1
  O  O37  1  0.082151  0.739307  0.386598  1
  O  O38  1  0.141889  0.682969  0.058147  1
  O  O39  1  0.160158  0.113472  0.158113  1
  O  O40  1  0.268219  0.084928  0.602241  1
  O  O41  1  0.231781  0.584928  0.397759  1
  O  O42  1  0.339842  0.613472  0.841887  1
  O  O43  1  0.358111  0.182969  0.941853  1
  O  O44  1  0.417849  0.239307  0.613402  1
  O  O45  1  0.329304  0.390579  0.019229  1
  O  O46  1  0.499340  0.435623  0.701355  1
  O  O47  1  0.531681  0.081833  0.801110  1
  O  O48  1  0.468319  0.918167  0.198890  1
  O  O49  1  0.500660  0.564377  0.298645  1
  O  O50  1  0.670696  0.609421  0.980771  1
  O  O51  1  0.582151  0.760693  0.386598  1
  O  O52  1  0.641889  0.817031  0.058147  1
  O  O53  1  0.660158  0.386528  0.158113  1
  O  O54  1  0.768219  0.415072  0.602241  1
  O  O55  1  0.731781  0.915072  0.397759  1
  O  O56  1  0.839842  0.886528  0.841887  1
  O  O57  1  0.858111  0.317031  0.941853  1
  O  O58  1  0.917849  0.260693  0.613402  1
  O  O59  1  0.829304  0.109421  0.019229  1
  O  O60  1  0.968319  0.581833  0.198890  1
  O  O61  1  0.000660  0.935623  0.298645  1
