# generated using pymatgen
data_Dy2TeO6
_symmetry_space_group_name_H-M   'P 1'
_cell_length_a   4.99922684
_cell_length_b   4.99904435
_cell_length_c   10.10404781
_cell_angle_alpha   90.00000000
_cell_angle_beta   90.00000000
_cell_angle_gamma   90.00055564
_symmetry_Int_Tables_number   1
_chemical_formula_structural   Dy2TeO6
_chemical_formula_sum   'Dy4 Te2 O12'
_cell_volume   252.51386282
_cell_formula_units_Z   2
loop_
 _symmetry_equiv_pos_site_id
 _symmetry_equiv_pos_as_xyz
  1  'x, y, z'
loop_
 _atom_site_type_symbol
 _atom_site_label
 _atom_site_symmetry_multiplicity
 _atom_site_fract_x
 _atom_site_fract_y
 _atom_site_fract_z
 _atom_site_occupancy
  Dy  Dy0  1  0.999995  0.000000  0.334569  1
  Dy  Dy1  1  0.999995  0.000000  0.665431  1
  Dy  Dy2  1  0.500042  0.500039  0.165428  1
  Dy  Dy3  1  0.500042  0.500039  0.834572  1
  Te  Te4  1  0.000043  0.000032  0.000000  1
  Te  Te5  1  0.500005  0.500017  0.500000  1
  O  O6  1  0.183022  0.183017  0.145721  1
  O  O7  1  0.183022  0.183017  0.854279  1
  O  O8  1  0.222330  0.222184  0.500000  1
  O  O9  1  0.277801  0.722319  0.000000  1
  O  O10  1  0.316972  0.682935  0.354289  1
  O  O11  1  0.316972  0.682935  0.645711  1
  O  O12  1  0.683026  0.317068  0.354292  1
  O  O13  1  0.683026  0.317068  0.645708  1
  O  O14  1  0.722324  0.277803  0.000000  1
  O  O15  1  0.777665  0.777809  0.500000  1
  O  O16  1  0.817060  0.817058  0.145698  1
  O  O17  1  0.817060  0.817058  0.854302  1
