# generated using pymatgen
data_Li4Si4Bi2O13
_symmetry_space_group_name_H-M   'P 1'
_cell_length_a   10.26288156
_cell_length_b   9.12309083
_cell_length_c   7.10095412
_cell_angle_alpha   79.25103746
_cell_angle_beta   90.48116793
_cell_angle_gamma   112.85657785
_symmetry_Int_Tables_number   1
_chemical_formula_structural   Li4Si4Bi2O13
_chemical_formula_sum   'Li8 Si8 Bi4 O26'
_cell_volume   600.39431699
_cell_formula_units_Z   2
loop_
 _symmetry_equiv_pos_site_id
 _symmetry_equiv_pos_as_xyz
  1  'x, y, z'
loop_
 _atom_site_type_symbol
 _atom_site_label
 _atom_site_symmetry_multiplicity
 _atom_site_fract_x
 _atom_site_fract_y
 _atom_site_fract_z
 _atom_site_occupancy
  Li  Li0  1  0.018979  0.829697  0.807939  1
  Li  Li1  1  0.022332  0.874314  0.434312  1
  Li  Li2  1  0.400983  0.886160  0.443385  1
  Li  Li3  1  0.422722  0.920539  0.858154  1
  Li  Li4  1  0.577278  0.079461  0.141846  1
  Li  Li5  1  0.599017  0.113840  0.556616  1
  Li  Li6  1  0.977668  0.125686  0.565688  1
  Li  Li7  1  0.981021  0.170303  0.192061  1
  Si  Si8  1  0.184978  0.650408  0.710525  1
  Si  Si9  1  0.283597  0.331684  0.305475  1
  Si  Si10  1  0.279236  0.103823  0.646599  1
  Si  Si11  1  0.261138  0.031053  0.101578  1
  Si  Si12  1  0.738862  0.968947  0.898422  1
  Si  Si13  1  0.720764  0.896177  0.353401  1
  Si  Si14  1  0.716403  0.668316  0.694525  1
  Si  Si15  1  0.815022  0.349592  0.289475  1
  Bi  Bi16  1  0.131740  0.658897  0.202110  1
  Bi  Bi17  1  0.351592  0.441153  0.834429  1
  Bi  Bi18  1  0.648408  0.558847  0.165571  1
  Bi  Bi19  1  0.868260  0.341103  0.797890  1
  O  O20  1  0.099221  0.893015  0.152324  1
  O  O21  1  0.105069  0.448821  0.784751  1
  O  O22  1  0.146304  0.718093  0.499365  1
  O  O23  1  0.158488  0.742659  0.872475  1
  O  O24  1  0.132958  0.342889  0.286455  1
  O  O25  1  0.115533  0.018050  0.607495  1
  O  O26  1  0.371842  0.943026  0.140926  1
  O  O27  1  0.392961  0.031521  0.607617  1
  O  O28  1  0.357534  0.679510  0.704335  1
  O  O29  1  0.410129  0.493476  0.167088  1
  O  O30  1  0.288708  0.134430  0.875020  1
  O  O31  1  0.334123  0.306503  0.532185  1
  O  O32  1  0.289816  0.177385  0.220462  1
  O  O33  1  0.710184  0.822615  0.779538  1
  O  O34  1  0.665877  0.693497  0.467815  1
  O  O35  1  0.711292  0.865570  0.124980  1
  O  O36  1  0.589871  0.506524  0.832912  1
  O  O37  1  0.642466  0.320490  0.295665  1
  O  O38  1  0.607039  0.968479  0.392383  1
  O  O39  1  0.628158  0.056974  0.859074  1
  O  O40  1  0.884467  0.981950  0.392505  1
  O  O41  1  0.867042  0.657111  0.713545  1
  O  O42  1  0.841512  0.257341  0.127525  1
  O  O43  1  0.853696  0.281907  0.500635  1
  O  O44  1  0.894931  0.551179  0.215249  1
  O  O45  1  0.900779  0.106986  0.847676  1
