# generated using pymatgen
data_ZrCrCu2(PO4)3
_symmetry_space_group_name_H-M   'P 1'
_cell_length_a   8.86895050
_cell_length_b   8.94319048
_cell_length_c   8.94035240
_cell_angle_alpha   60.53821581
_cell_angle_beta   59.55511511
_cell_angle_gamma   60.09518677
_symmetry_Int_Tables_number   1
_chemical_formula_structural   ZrCrCu2(PO4)3
_chemical_formula_sum   'Zr2 Cr2 Cu4 P6 O24'
_cell_volume   502.06327343
_cell_formula_units_Z   2
loop_
 _symmetry_equiv_pos_site_id
 _symmetry_equiv_pos_as_xyz
  1  'x, y, z'
loop_
 _atom_site_type_symbol
 _atom_site_label
 _atom_site_symmetry_multiplicity
 _atom_site_fract_x
 _atom_site_fract_y
 _atom_site_fract_z
 _atom_site_occupancy
  Zr  Zr0  1  0.142709  0.145053  0.137705  1
  Zr  Zr1  1  0.865887  0.854898  0.858315  1
  Cr  Cr2  1  0.360926  0.356428  0.356968  1
  Cr  Cr3  1  0.637685  0.644616  0.643691  1
  Cu  Cu4  1  0.050449  0.271026  0.785012  1
  Cu  Cu5  1  0.443024  0.647796  0.389244  1
  Cu  Cu6  1  0.553693  0.352419  0.614587  1
  Cu  Cu7  1  0.950421  0.884675  0.141433  1
  P  P8  1  0.039644  0.738731  0.460848  1
  P  P9  1  0.466832  0.035070  0.739465  1
  P  P10  1  0.735692  0.469631  0.032553  1
  P  P11  1  0.262289  0.534593  0.966923  1
  P  P12  1  0.536050  0.962888  0.262659  1
  P  P13  1  0.955378  0.258705  0.543730  1
  O  O14  1  0.111357  0.307166  0.526622  1
  O  O15  1  0.298920  0.498716  0.132068  1
  O  O16  1  0.055195  0.905874  0.276517  1
  O  O17  1  0.497356  0.119974  0.312309  1
  O  O18  1  0.007750  0.794246  0.615256  1
  O  O19  1  0.234089  0.586050  0.430237  1
  O  O20  1  0.279134  0.063229  0.902861  1
  O  O21  1  0.448840  0.224618  0.581367  1
  O  O22  1  0.209656  0.377568  0.995410  1
  O  O23  1  0.580878  0.440620  0.220726  1
  O  O24  1  0.094328  0.716731  0.948051  1
  O  O25  1  0.385426  0.992426  0.200378  1
  O  O26  1  0.622590  0.004927  0.794284  1
  O  O27  1  0.912777  0.289888  0.038585  1
  O  O28  1  0.423348  0.552699  0.781144  1
  O  O29  1  0.787811  0.625378  0.004644  1
  O  O30  1  0.550511  0.775086  0.420285  1
  O  O31  1  0.727097  0.936971  0.099836  1
  O  O32  1  0.764999  0.415551  0.567163  1
  O  O33  1  0.005832  0.214081  0.374729  1
  O  O34  1  0.498953  0.879731  0.690982  1
  O  O35  1  0.936287  0.091313  0.717624  1
  O  O36  1  0.694466  0.503119  0.871268  1
  O  O37  1  0.883124  0.686909  0.494923  1
