# generated using pymatgen
data_Li4Cr3Fe3(SbO8)2
_symmetry_space_group_name_H-M   'P 1'
_cell_length_a   5.95488414
_cell_length_b   5.96858730
_cell_length_c   9.65235876
_cell_angle_alpha   89.99111064
_cell_angle_beta   89.82775121
_cell_angle_gamma   120.06525147
_symmetry_Int_Tables_number   1
_chemical_formula_structural   Li4Cr3Fe3(SbO8)2
_chemical_formula_sum   'Li4 Cr3 Fe3 Sb2 O16'
_cell_volume   296.90687871
_cell_formula_units_Z   1
loop_
 _symmetry_equiv_pos_site_id
 _symmetry_equiv_pos_as_xyz
  1  'x, y, z'
loop_
 _atom_site_type_symbol
 _atom_site_label
 _atom_site_symmetry_multiplicity
 _atom_site_fract_x
 _atom_site_fract_y
 _atom_site_fract_z
 _atom_site_occupancy
  Li  Li0  1  0.331322  0.665619  0.907600  1
  Li  Li1  1  0.000995  0.000432  0.996597  1
  Li  Li2  1  0.003308  0.001749  0.498679  1
  Li  Li3  1  0.666616  0.333320  0.411722  1
  Cr  Cr4  1  0.657450  0.828722  0.220857  1
  Cr  Cr5  1  0.830536  0.660706  0.720888  1
  Cr  Cr6  1  0.830476  0.169819  0.720924  1
  Fe  Fe7  1  0.167941  0.828599  0.221656  1
  Fe  Fe8  1  0.167957  0.339346  0.221660  1
  Fe  Fe9  1  0.343294  0.171672  0.720797  1
  Sb  Sb10  1  0.336249  0.668139  0.498316  1
  Sb  Sb11  1  0.663135  0.331616  0.991747  1
  O  O12  1  0.169024  0.838639  0.603680  1
  O  O13  1  0.037211  0.518616  0.358103  1
  O  O14  1  0.328855  0.664405  0.113741  1
  O  O15  1  0.999279  0.999659  0.311535  1
  O  O16  1  0.010054  0.004957  0.810812  1
  O  O17  1  0.169001  0.330429  0.603722  1
  O  O18  1  0.485642  0.963733  0.353379  1
  O  O19  1  0.485749  0.521998  0.353435  1
  O  O20  1  0.672021  0.836089  0.604316  1
  O  O21  1  0.332360  0.166213  0.101918  1
  O  O22  1  0.514563  0.479500  0.848319  1
  O  O23  1  0.514539  0.035114  0.848377  1
  O  O24  1  0.829897  0.665563  0.100986  1
  O  O25  1  0.660394  0.330290  0.617862  1
  O  O26  1  0.962229  0.481045  0.849237  1
  O  O27  1  0.829901  0.164311  0.100975  1
