# generated using pymatgen
data_LiFe4(BO3)4
_symmetry_space_group_name_H-M   'P 1'
_cell_length_a   5.24822802
_cell_length_b   9.13174281
_cell_length_c   11.55303577
_cell_angle_alpha   66.29776348
_cell_angle_beta   76.83237394
_cell_angle_gamma   89.13368619
_symmetry_Int_Tables_number   1
_chemical_formula_structural   LiFe4(BO3)4
_chemical_formula_sum   'Li2 Fe8 B8 O24'
_cell_volume   491.83172832
_cell_formula_units_Z   2
loop_
 _symmetry_equiv_pos_site_id
 _symmetry_equiv_pos_as_xyz
  1  'x, y, z'
loop_
 _atom_site_type_symbol
 _atom_site_label
 _atom_site_symmetry_multiplicity
 _atom_site_fract_x
 _atom_site_fract_y
 _atom_site_fract_z
 _atom_site_occupancy
  Li  Li0  1  0.002859  0.986992  0.666930  1
  Li  Li1  1  0.237123  0.246652  0.160777  1
  Fe  Fe2  1  0.975345  0.649075  0.377636  1
  Fe  Fe3  1  0.736542  0.064840  0.882238  1
  Fe  Fe4  1  0.530627  0.837725  0.625713  1
  Fe  Fe5  1  0.764051  0.442585  0.125905  1
  Fe  Fe6  1  0.236134  0.568277  0.871127  1
  Fe  Fe7  1  0.487005  0.147823  0.385170  1
  Fe  Fe8  1  0.011214  0.352629  0.632587  1
  Fe  Fe9  1  0.265915  0.928950  0.123927  1
  B  B10  1  0.980471  0.319608  0.374743  1
  B  B11  1  0.731954  0.398226  0.879389  1
  B  B12  1  0.515094  0.186412  0.626185  1
  B  B13  1  0.762951  0.106909  0.131776  1
  B  B14  1  0.473068  0.817103  0.369733  1
  B  B15  1  0.238068  0.890054  0.876797  1
  B  B16  1  0.034383  0.688463  0.624673  1
  B  B17  1  0.263419  0.600221  0.130563  1
  O  O18  1  0.004553  0.926986  0.846825  1
  O  O19  1  0.866965  0.306283  0.819545  1
  O  O20  1  0.868992  0.474171  0.935227  1
  O  O21  1  0.904693  0.819904  0.619461  1
  O  O22  1  0.965158  0.586541  0.570236  1
  O  O23  1  0.759363  0.167489  0.658897  1
  O  O24  1  0.750857  0.329932  0.330163  1
  O  O25  1  0.471664  0.410036  0.891377  1
  O  O26  1  0.380076  0.778152  0.839939  1
  O  O27  1  0.524120  0.926443  0.419427  1
  O  O28  1  0.633966  0.700597  0.370484  1
  O  O29  1  0.350646  0.964701  0.940500  1
  O  O30  1  0.628446  0.020004  0.087432  1
  O  O31  1  0.357341  0.298478  0.639551  1
  O  O32  1  0.432948  0.078857  0.577542  1
  O  O33  1  0.618798  0.217151  0.174324  1
  O  O34  1  0.520949  0.589296  0.129414  1
  O  O35  1  0.245131  0.651285  0.682577  1
  O  O36  1  0.245776  0.829621  0.321833  1
  O  O37  1  0.029854  0.419580  0.432309  1
  O  O38  1  0.155280  0.215072  0.353433  1
  O  O39  1  0.139130  0.500769  0.088880  1
  O  O40  1  0.115609  0.703361  0.175484  1
  O  O41  1  0.023133  0.092421  0.133594  1
