# generated using pymatgen
data_V5P6WO24
_symmetry_space_group_name_H-M   'P 1'
_cell_length_a   8.65685450
_cell_length_b   8.70851050
_cell_length_c   8.70851098
_cell_angle_alpha   59.99999784
_cell_angle_beta   59.80241728
_cell_angle_gamma   59.80240988
_symmetry_Int_Tables_number   1
_chemical_formula_structural   V5P6WO24
_chemical_formula_sum   'V5 P6 W1 O24'
_cell_volume   462.83840892
_cell_formula_units_Z   1
loop_
 _symmetry_equiv_pos_site_id
 _symmetry_equiv_pos_as_xyz
  1  'x, y, z'
loop_
 _atom_site_type_symbol
 _atom_site_label
 _atom_site_symmetry_multiplicity
 _atom_site_fract_x
 _atom_site_fract_y
 _atom_site_fract_z
 _atom_site_occupancy
  V  V0  1  0.008077  0.997307  0.997307  1
  V  V1  1  0.073068  0.642310  0.642310  1
  V  V2  1  0.502066  0.499312  0.499312  1
  V  V3  1  0.432083  0.855972  0.855972  1
  V  V4  1  0.926994  0.357669  0.357669  1
  P  P5  1  0.245534  0.251662  0.548400  1
  P  P6  1  0.245534  0.954403  0.251662  1
  P  P7  1  0.245534  0.548400  0.954403  1
  P  P8  1  0.748969  0.460934  0.043528  1
  P  P9  1  0.748969  0.043528  0.746569  1
  P  P10  1  0.748969  0.746569  0.460934  1
  W  W11  1  0.568778  0.143741  0.143741  1
  O  O12  1  0.072001  0.111242  0.315779  1
  O  O13  1  0.072001  0.500978  0.111242  1
  O  O14  1  0.072001  0.315779  0.500978  1
  O  O15  1  0.231947  0.089447  0.739443  1
  O  O16  1  0.430551  0.182408  0.387637  1
  O  O17  1  0.275662  0.408343  0.555391  1
  O  O18  1  0.231947  0.939162  0.089447  1
  O  O19  1  0.275662  0.760604  0.408343  1
  O  O20  1  0.568501  0.609989  0.004730  1
  O  O21  1  0.275662  0.555391  0.760604  1
  O  O22  1  0.762397  0.260070  0.064859  1
  O  O23  1  0.568501  0.004730  0.816779  1
  O  O24  1  0.430551  0.999405  0.182408  1
  O  O25  1  0.231947  0.739443  0.939162  1
  O  O26  1  0.730126  0.437976  0.240312  1
  O  O27  1  0.430551  0.387637  0.999405  1
  O  O28  1  0.730126  0.240312  0.591585  1
  O  O29  1  0.762397  0.064859  0.912675  1
  O  O30  1  0.730126  0.591585  0.437976  1
  O  O31  1  0.568501  0.816779  0.609989  1
  O  O32  1  0.762397  0.912675  0.260070  1
  O  O33  1  0.930623  0.690281  0.491680  1
  O  O34  1  0.930623  0.491680  0.887414  1
  O  O35  1  0.930623  0.887414  0.690281  1
