# generated using pymatgen
data_Mn12O7F17
_symmetry_space_group_name_H-M   'P 1'
_cell_length_a   5.57366936
_cell_length_b   4.90878165
_cell_length_c   16.11408290
_cell_angle_alpha   89.68868175
_cell_angle_beta   96.69044895
_cell_angle_gamma   86.64324724
_symmetry_Int_Tables_number   1
_chemical_formula_structural   Mn12O7F17
_chemical_formula_sum   'Mn12 O7 F17'
_cell_volume   437.09310125
_cell_formula_units_Z   1
loop_
 _symmetry_equiv_pos_site_id
 _symmetry_equiv_pos_as_xyz
  1  'x, y, z'
loop_
 _atom_site_type_symbol
 _atom_site_label
 _atom_site_symmetry_multiplicity
 _atom_site_fract_x
 _atom_site_fract_y
 _atom_site_fract_z
 _atom_site_occupancy
  Mn  Mn0  1  0.899896  0.030526  0.001845  1
  Mn  Mn1  1  0.172808  0.491931  0.164103  1
  Mn  Mn2  1  0.008890  0.984519  0.331620  1
  Mn  Mn3  1  0.934380  0.485917  0.510376  1
  Mn  Mn4  1  0.932069  0.047423  0.664165  1
  Mn  Mn5  1  0.045476  0.541746  0.815646  1
  Mn  Mn6  1  0.602114  0.989058  0.173083  1
  Mn  Mn7  1  0.416112  0.473855  0.001379  1
  Mn  Mn8  1  0.393464  0.517609  0.666043  1
  Mn  Mn9  1  0.430334  0.088451  0.531403  1
  Mn  Mn10  1  0.531137  0.477674  0.325729  1
  Mn  Mn11  1  0.559653  0.993829  0.837992  1
  O  O12  1  0.162693  0.261012  0.607403  1
  O  O13  1  0.144940  0.748358  0.711996  1
  O  O14  1  0.394721  0.275673  0.105681  1
  O  O15  1  0.435097  0.676551  0.220629  1
  O  O16  1  0.619627  0.213430  0.947685  1
  O  O17  1  0.647294  0.287544  0.619980  1
  O  O18  1  0.706528  0.175639  0.277686  1
  F  F19  1  0.205493  0.244666  0.272224  1
  F  F20  1  0.159955  0.753774  0.049456  1
  F  F21  1  0.311877  0.747890  0.372517  1
  F  F22  1  0.108946  0.276093  0.940531  1
  F  F23  1  0.287037  0.715541  0.544869  1
  F  F24  1  0.352938  0.707695  0.895519  1
  F  F25  1  0.336304  0.280014  0.778113  1
  F  F26  1  0.123470  0.204001  0.439602  1
  F  F27  1  0.654953  0.792445  0.062071  1
  F  F28  1  0.832547  0.700998  0.389665  1
  F  F29  1  0.642022  0.731563  0.736055  1
  F  F30  1  0.612810  0.291861  0.439965  1
  F  F31  1  0.909335  0.264564  0.108750  1
  F  F32  1  0.856630  0.189095  0.781580  1
  F  F33  1  0.775290  0.826648  0.560225  1
  F  F34  1  0.854181  0.765178  0.900402  1
  F  F35  1  0.938976  0.747227  0.214009  1
