# generated using pymatgen
data_KMnH5(SO5)2
_symmetry_space_group_name_H-M   'P 1'
_cell_length_a   6.97520373
_cell_length_b   6.71967322
_cell_length_c   6.25716951
_cell_angle_alpha   108.96559009
_cell_angle_beta   99.37202907
_cell_angle_gamma   84.07219738
_symmetry_Int_Tables_number   1
_chemical_formula_structural   KMnH5(SO5)2
_chemical_formula_sum   'K1 Mn1 H5 S2 O10'
_cell_volume   273.25835111
_cell_formula_units_Z   1
loop_
 _symmetry_equiv_pos_site_id
 _symmetry_equiv_pos_as_xyz
  1  'x, y, z'
loop_
 _atom_site_type_symbol
 _atom_site_label
 _atom_site_symmetry_multiplicity
 _atom_site_fract_x
 _atom_site_fract_y
 _atom_site_fract_z
 _atom_site_occupancy
  K  K0  1  0.924800  0.815845  0.399816  1
  Mn  Mn1  1  0.215876  0.150438  0.023577  1
  H  H2  1  0.688675  0.186718  0.252258  1
  H  H3  1  0.504347  0.743263  0.389384  1
  H  H4  1  0.434588  0.125939  0.691427  1
  H  H5  1  0.257341  0.280190  0.652910  1
  H  H6  1  0.283035  0.724518  0.681838  1
  S  S7  1  0.324817  0.794015  0.075415  1
  S  S8  1  0.757673  0.273648  0.972151  1
  O  O9  1  0.289952  0.151731  0.695192  1
  O  O10  1  0.682525  0.089244  0.777003  1
  O  O11  1  0.426312  0.236187  0.282808  1
  O  O12  1  0.154444  0.842264  0.868848  1
  O  O13  1  0.322888  0.409973  0.226847  1
  O  O14  1  0.415886  0.645245  0.658056  1
  O  O15  1  0.965627  0.308072  0.944644  1
  O  O16  1  0.496168  0.688759  0.895626  1
  O  O17  1  0.547037  0.800689  0.280164  1
  O  O18  1  0.818007  0.181261  0.198035  1
