# generated using pymatgen
data_K3MgPCO7
_symmetry_space_group_name_H-M   'P 1'
_cell_length_a   9.62412673
_cell_length_b   6.92906094
_cell_length_c   5.65247844
_cell_angle_alpha   90.00000000
_cell_angle_beta   90.31333735
_cell_angle_gamma   90.00000000
_symmetry_Int_Tables_number   1
_chemical_formula_structural   K3MgPCO7
_chemical_formula_sum   'K6 Mg2 P2 C2 O14'
_cell_volume   376.93644845
_cell_formula_units_Z   2
loop_
 _symmetry_equiv_pos_site_id
 _symmetry_equiv_pos_as_xyz
  1  'x, y, z'
loop_
 _atom_site_type_symbol
 _atom_site_label
 _atom_site_symmetry_multiplicity
 _atom_site_fract_x
 _atom_site_fract_y
 _atom_site_fract_z
 _atom_site_occupancy
  K  K0  1  0.073799  0.250000  0.760715  1
  K  K1  1  0.280427  0.012951  0.259393  1
  K  K2  1  0.280427  0.487049  0.259393  1
  K  K3  1  0.719573  0.512951  0.740607  1
  K  K4  1  0.719573  0.987049  0.740607  1
  K  K5  1  0.926201  0.750000  0.239285  1
  Mg  Mg6  1  0.358286  0.750000  0.770139  1
  Mg  Mg7  1  0.641714  0.250000  0.229861  1
  P  P8  1  0.425861  0.250000  0.726657  1
  P  P9  1  0.574139  0.750000  0.273343  1
  C  C10  1  0.088970  0.750000  0.742694  1
  C  C11  1  0.911030  0.250000  0.257306  1
  O  O12  1  0.045770  0.250000  0.262831  1
  O  O13  1  0.157129  0.750000  0.943365  1
  O  O14  1  0.162238  0.750000  0.548924  1
  O  O15  1  0.333579  0.066867  0.758187  1
  O  O16  1  0.333579  0.433133  0.758187  1
  O  O17  1  0.488306  0.250000  0.471956  1
  O  O18  1  0.454037  0.750000  0.088665  1
  O  O19  1  0.545963  0.250000  0.911335  1
  O  O20  1  0.511694  0.750000  0.528044  1
  O  O21  1  0.666421  0.566867  0.241813  1
  O  O22  1  0.666421  0.933133  0.241813  1
  O  O23  1  0.837762  0.250000  0.451076  1
  O  O24  1  0.842871  0.250000  0.056635  1
  O  O25  1  0.954230  0.750000  0.737169  1
