# generated using pymatgen
data_BaY3Cl11
_symmetry_space_group_name_H-M   'P 1'
_cell_length_a   19.27918966
_cell_length_b   10.30999816
_cell_length_c   5.33905081
_cell_angle_alpha   90.00000000
_cell_angle_beta   90.00000000
_cell_angle_gamma   90.00000000
_symmetry_Int_Tables_number   1
_chemical_formula_structural   BaY3Cl11
_chemical_formula_sum   'Ba2 Y6 Cl22'
_cell_volume   1061.23463999
_cell_formula_units_Z   2
loop_
 _symmetry_equiv_pos_site_id
 _symmetry_equiv_pos_as_xyz
  1  'x, y, z'
loop_
 _atom_site_type_symbol
 _atom_site_label
 _atom_site_symmetry_multiplicity
 _atom_site_fract_x
 _atom_site_fract_y
 _atom_site_fract_z
 _atom_site_occupancy
  Ba  Ba0  1  0.014212  0.500000  0.000000  1
  Ba  Ba1  1  0.985788  0.000000  0.000000  1
  Y  Y2  1  0.235758  0.249366  0.000000  1
  Y  Y3  1  0.235758  0.750634  0.000000  1
  Y  Y4  1  0.500000  0.250000  0.000000  1
  Y  Y5  1  0.500000  0.750000  0.000000  1
  Y  Y6  1  0.764242  0.250634  0.000000  1
  Y  Y7  1  0.764242  0.749366  0.000000  1
  Cl  Cl8  1  0.069049  0.500000  0.500000  1
  Cl  Cl9  1  0.100806  0.212833  0.000000  1
  Cl  Cl10  1  0.100806  0.787167  0.000000  1
  Cl  Cl11  1  0.203269  0.500000  0.000000  1
  Cl  Cl12  1  0.239234  0.246220  0.500000  1
  Cl  Cl13  1  0.239234  0.753780  0.500000  1
  Cl  Cl14  1  0.267756  0.000000  0.000000  1
  Cl  Cl15  1  0.368213  0.319152  0.000000  1
  Cl  Cl16  1  0.368213  0.680848  0.000000  1
  Cl  Cl17  1  0.464202  0.000000  0.000000  1
  Cl  Cl18  1  0.500000  0.250000  0.500000  1
  Cl  Cl19  1  0.500000  0.750000  0.500000  1
  Cl  Cl20  1  0.535798  0.500000  0.000000  1
  Cl  Cl21  1  0.631787  0.180848  0.000000  1
  Cl  Cl22  1  0.631787  0.819152  0.000000  1
  Cl  Cl23  1  0.732244  0.500000  0.000000  1
  Cl  Cl24  1  0.760766  0.253780  0.500000  1
  Cl  Cl25  1  0.760766  0.746220  0.500000  1
  Cl  Cl26  1  0.796731  0.000000  0.000000  1
  Cl  Cl27  1  0.899194  0.287167  0.000000  1
  Cl  Cl28  1  0.899194  0.712833  0.000000  1
  Cl  Cl29  1  0.930951  0.000000  0.500000  1
