# generated using pymatgen
data_LiFe(PO3)4
_symmetry_space_group_name_H-M   'P 1'
_cell_length_a   7.28117261
_cell_length_b   13.15797099
_cell_length_c   9.53576467
_cell_angle_alpha   90.00000000
_cell_angle_beta   92.24051508
_cell_angle_gamma   90.00000000
_symmetry_Int_Tables_number   1
_chemical_formula_structural   LiFe(PO3)4
_chemical_formula_sum   'Li4 Fe4 P16 O48'
_cell_volume   912.87989087
_cell_formula_units_Z   4
loop_
 _symmetry_equiv_pos_site_id
 _symmetry_equiv_pos_as_xyz
  1  'x, y, z'
loop_
 _atom_site_type_symbol
 _atom_site_label
 _atom_site_symmetry_multiplicity
 _atom_site_fract_x
 _atom_site_fract_y
 _atom_site_fract_z
 _atom_site_occupancy
  Li  Li0  1  0.971312  0.200460  0.026912  1
  Li  Li1  1  0.528688  0.700460  0.473088  1
  Li  Li2  1  0.471312  0.299540  0.526912  1
  Li  Li3  1  0.028688  0.799540  0.973088  1
  Fe  Fe4  1  0.983166  0.290405  0.437806  1
  Fe  Fe5  1  0.516834  0.790405  0.062194  1
  Fe  Fe6  1  0.483166  0.209595  0.937806  1
  Fe  Fe7  1  0.016834  0.709595  0.562194  1
  P  P8  1  0.078717  0.618315  0.259583  1
  P  P9  1  0.112560  0.130257  0.693343  1
  P  P10  1  0.165768  0.911978  0.707481  1
  P  P11  1  0.290981  0.899688  0.221971  1
  P  P12  1  0.209019  0.399688  0.278029  1
  P  P13  1  0.334232  0.411978  0.792519  1
  P  P14  1  0.387440  0.630257  0.806657  1
  P  P15  1  0.421283  0.118315  0.240417  1
  P  P16  1  0.578717  0.881685  0.759583  1
  P  P17  1  0.612560  0.369743  0.193343  1
  P  P18  1  0.665768  0.588022  0.207481  1
  P  P19  1  0.790981  0.600312  0.721971  1
  P  P20  1  0.709019  0.100312  0.778029  1
  P  P21  1  0.834232  0.088022  0.292519  1
  P  P22  1  0.887440  0.869743  0.306657  1
  P  P23  1  0.921283  0.381685  0.740417  1
  O  O24  1  0.106753  0.877614  0.295316  1
  O  O25  1  0.033873  0.901780  0.821005  1
  O  O26  1  0.129602  0.416097  0.728457  1
  O  O27  1  0.057383  0.326822  0.226740  1
  O  O28  1  0.108762  0.692026  0.144922  1
  O  O29  1  0.204100  0.144573  0.835098  1
  O  O30  1  0.140671  0.645079  0.409731  1
  O  O31  1  0.280622  0.889655  0.062668  1
  O  O32  1  0.174137  0.512005  0.221752  1
  O  O33  1  0.156215  0.020575  0.627266  1
  O  O34  1  0.144961  0.208320  0.579985  1
  O  O35  1  0.345112  0.334314  0.910528  1
  O  O36  1  0.154888  0.834314  0.589472  1
  O  O37  1  0.325863  0.012005  0.278248  1
  O  O38  1  0.355039  0.708320  0.920015  1
  O  O39  1  0.219378  0.389655  0.437332  1
  O  O40  1  0.343785  0.520575  0.872734  1
  O  O41  1  0.359329  0.145079  0.090269  1
  O  O42  1  0.295900  0.644573  0.664902  1
  O  O43  1  0.391238  0.192026  0.355078  1
  O  O44  1  0.442617  0.826822  0.273260  1
  O  O45  1  0.370398  0.916097  0.771543  1
  O  O46  1  0.393247  0.377614  0.204684  1
  O  O47  1  0.466127  0.401780  0.678995  1
  O  O48  1  0.533873  0.598220  0.321005  1
  O  O49  1  0.606753  0.622386  0.795316  1
  O  O50  1  0.629602  0.083903  0.228457  1
  O  O51  1  0.557383  0.173178  0.726740  1
  O  O52  1  0.608762  0.807974  0.644922  1
  O  O53  1  0.704100  0.355427  0.335098  1
  O  O54  1  0.640671  0.854921  0.909731  1
  O  O55  1  0.656215  0.479425  0.127266  1
  O  O56  1  0.780622  0.610345  0.562668  1
  O  O57  1  0.644961  0.291680  0.079985  1
  O  O58  1  0.674137  0.987995  0.721752  1
  O  O59  1  0.845112  0.165686  0.410528  1
  O  O60  1  0.654888  0.665686  0.089472  1
  O  O61  1  0.855039  0.791680  0.420015  1
  O  O62  1  0.843785  0.979425  0.372734  1
  O  O63  1  0.825863  0.487995  0.778248  1
  O  O64  1  0.719378  0.110345  0.937332  1
  O  O65  1  0.859329  0.354921  0.590269  1
  O  O66  1  0.795900  0.855427  0.164902  1
  O  O67  1  0.891238  0.307974  0.855078  1
  O  O68  1  0.942617  0.673178  0.773260  1
  O  O69  1  0.870398  0.583903  0.271543  1
  O  O70  1  0.966127  0.098220  0.178995  1
  O  O71  1  0.893247  0.122386  0.704684  1
