# generated using pymatgen
data_CdNi2H24(ClO2)6
_symmetry_space_group_name_H-M   'P 1'
_cell_length_a   9.99512435
_cell_length_b   9.97577879
_cell_length_c   11.40731706
_cell_angle_alpha   90.27416734
_cell_angle_beta   89.63217767
_cell_angle_gamma   120.23921056
_symmetry_Int_Tables_number   1
_chemical_formula_structural   CdNi2H24(ClO2)6
_chemical_formula_sum   'Cd2 Ni4 H48 Cl12 O24'
_cell_volume   982.62454704
_cell_formula_units_Z   2
loop_
 _symmetry_equiv_pos_site_id
 _symmetry_equiv_pos_as_xyz
  1  'x, y, z'
loop_
 _atom_site_type_symbol
 _atom_site_label
 _atom_site_symmetry_multiplicity
 _atom_site_fract_x
 _atom_site_fract_y
 _atom_site_fract_z
 _atom_site_occupancy
  Cd  Cd0  1  0.999985  0.000304  0.002980  1
  Cd  Cd1  1  0.333265  0.666586  0.532097  1
  Ni  Ni2  1  0.999928  0.999889  0.513120  1
  Ni  Ni3  1  0.666722  0.333469  0.117437  1
  Ni  Ni4  1  0.666710  0.333373  0.612809  1
  Ni  Ni5  1  0.333265  0.666688  0.030803  1
  H  H6  1  0.859962  0.319218  0.967392  1
  H  H7  1  0.459965  0.140222  0.967920  1
  H  H8  1  0.681104  0.539905  0.967922  1
  H  H9  1  0.956692  0.441714  0.065100  1
  H  H10  1  0.484631  0.043023  0.065016  1
  H  H11  1  0.557924  0.514156  0.065360  1
  H  H12  1  0.374997  0.242319  0.191637  1
  H  H13  1  0.867802  0.625432  0.191582  1
  H  H14  1  0.757636  0.133172  0.190756  1
  H  H15  1  0.488012  0.322349  0.295341  1
  H  H16  1  0.833582  0.511438  0.294834  1
  H  H17  1  0.677588  0.166763  0.294764  1
  H  H18  1  0.860495  0.546001  0.768177  1
  H  H19  1  0.685310  0.140246  0.767477  1
  H  H20  1  0.454020  0.314332  0.768184  1
  H  H21  1  0.955517  0.475718  0.703110  1
  H  H22  1  0.519861  0.043887  0.703371  1
  H  H23  1  0.524354  0.479802  0.703182  1
  H  H24  1  0.473405  0.105392  0.475470  1
  H  H25  1  0.632639  0.526208  0.475964  1
  H  H26  1  0.894650  0.368196  0.475284  1
  H  H27  1  0.377696  0.175430  0.533835  1
  H  H28  1  0.798179  0.622927  0.533806  1
  H  H29  1  0.824602  0.202468  0.533768  1
  H  H30  1  0.577309  0.722167  0.146328  1
  H  H31  1  0.143744  0.422068  0.146738  1
  H  H32  1  0.278168  0.856089  0.147506  1
  H  H33  1  0.443371  0.576634  0.214517  1
  H  H34  1  0.132060  0.555633  0.215453  1
  H  H35  1  0.422971  0.867979  0.215255  1
  H  H36  1  0.530148  0.773876  0.846768  1
  H  H37  1  0.244089  0.469696  0.846889  1
  H  H38  1  0.227085  0.756096  0.847347  1
  H  H39  1  0.565420  0.917029  0.929026  1
  H  H40  1  0.351112  0.434866  0.928587  1
  H  H41  1  0.084332  0.648179  0.929963  1
  H  H42  1  0.188237  0.246214  0.632274  1
  H  H43  1  0.057559  0.812064  0.631671  1
  H  H44  1  0.753867  0.941753  0.632255  1
  H  H45  1  0.197989  0.111851  0.694453  1
  H  H46  1  0.913101  0.801411  0.694868  1
  H  H47  1  0.888109  0.086934  0.694797  1
  H  H48  1  0.131433  0.849218  0.424200  1
  H  H49  1  0.718048  0.868746  0.424598  1
  H  H50  1  0.151091  0.282504  0.424251  1
  H  H51  1  0.130169  0.953855  0.326394  1
  H  H52  1  0.824559  0.869673  0.326548  1
  H  H53  1  0.045585  0.175432  0.326737  1
  Cl  Cl54  1  0.153200  0.433523  0.672866  1
  Cl  Cl55  1  0.279939  0.846432  0.672924  1
  Cl  Cl56  1  0.565923  0.719605  0.672632  1
  Cl  Cl57  1  0.088542  0.600533  0.399470  1
  Cl  Cl58  1  0.512423  0.911703  0.399283  1
  Cl  Cl59  1  0.399494  0.487611  0.399309  1
  Cl  Cl60  1  0.071898  0.842744  0.156395  1
  Cl  Cl61  1  0.771098  0.928363  0.156742  1
  Cl  Cl62  1  0.157856  0.229660  0.156523  1
  Cl  Cl63  1  0.864424  0.742017  0.875416  1
  Cl  Cl64  1  0.877536  0.135180  0.875616  1
  Cl  Cl65  1  0.258108  0.122602  0.875088  1
  O  O66  1  0.863849  0.404128  0.015693  1
  O  O67  1  0.540389  0.136867  0.015387  1
  O  O68  1  0.597104  0.458931  0.016314  1
  O  O69  1  0.473559  0.259796  0.224891  1
  O  O70  1  0.786073  0.525753  0.225256  1
  O  O71  1  0.738908  0.214337  0.224353  1
  O  O72  1  0.852119  0.459011  0.721786  1
  O  O73  1  0.606445  0.147795  0.721966  1
  O  O74  1  0.541362  0.393725  0.722197  1
  O  O75  1  0.480975  0.201817  0.504488  1
  O  O76  1  0.721284  0.519256  0.504338  1
  O  O77  1  0.798162  0.278527  0.504298  1
  O  O78  1  0.478973  0.619975  0.135201  1
  O  O79  1  0.139883  0.519873  0.135746  1
  O  O80  1  0.379883  0.860188  0.135969  1
  O  O81  1  0.518209  0.804791  0.927245  1
  O  O82  1  0.285924  0.481436  0.927173  1
  O  O83  1  0.196270  0.713402  0.927809  1
  O  O84  1  0.190691  0.149268  0.615591  1
  O  O85  1  0.958418  0.809228  0.615575  1
  O  O86  1  0.850869  0.041621  0.615746  1
  O  O87  1  0.143649  0.952762  0.412084  1
  O  O88  1  0.809035  0.856256  0.412244  1
  O  O89  1  0.047476  0.190683  0.412524  1
