# generated using pymatgen
data_Co3Cu(PO4)4
_symmetry_space_group_name_H-M   'P 1'
_cell_length_a   4.78818955
_cell_length_b   9.83444372
_cell_length_c   5.82810987
_cell_angle_alpha   90.00000000
_cell_angle_beta   90.00000000
_cell_angle_gamma   90.24338642
_symmetry_Int_Tables_number   1
_chemical_formula_structural   Co3Cu(PO4)4
_chemical_formula_sum   'Co3 Cu1 P4 O16'
_cell_volume   274.43844278
_cell_formula_units_Z   1
loop_
 _symmetry_equiv_pos_site_id
 _symmetry_equiv_pos_as_xyz
  1  'x, y, z'
loop_
 _atom_site_type_symbol
 _atom_site_label
 _atom_site_symmetry_multiplicity
 _atom_site_fract_x
 _atom_site_fract_y
 _atom_site_fract_z
 _atom_site_occupancy
  Co  Co0  1  0.055147  0.720850  0.750000  1
  Co  Co1  1  0.440538  0.219229  0.750000  1
  Co  Co2  1  0.551289  0.779655  0.250000  1
  Cu  Cu3  1  0.938724  0.280454  0.250000  1
  P  P4  1  0.081872  0.593737  0.250000  1
  P  P5  1  0.420904  0.097467  0.250000  1
  P  P6  1  0.586709  0.907231  0.750000  1
  P  P7  1  0.909801  0.401811  0.750000  1
  O  O8  1  0.162461  0.442993  0.250000  1
  O  O9  1  0.232246  0.670893  0.045491  1
  O  O10  1  0.232246  0.670893  0.454509  1
  O  O11  1  0.228137  0.384602  0.750000  1
  O  O12  1  0.270382  0.888001  0.750000  1
  O  O13  1  0.278381  0.171508  0.042014  1
  O  O14  1  0.278381  0.171508  0.457987  1
  O  O15  1  0.339229  0.946288  0.250000  1
  O  O16  1  0.667821  0.058129  0.750000  1
  O  O17  1  0.732473  0.830363  0.543467  1
  O  O18  1  0.732473  0.830363  0.956533  1
  O  O19  1  0.741583  0.111061  0.250000  1
  O  O20  1  0.766255  0.612387  0.250000  1
  O  O21  1  0.756009  0.328273  0.546391  1
  O  O22  1  0.756009  0.328273  0.953609  1
  O  O23  1  0.840930  0.554030  0.750000  1
