# generated using pymatgen
data_H4NClO4
_symmetry_space_group_name_H-M   'P 1'
_cell_length_a   9.06356781
_cell_length_b   6.01235847
_cell_length_c   7.36555288
_cell_angle_alpha   90.00000000
_cell_angle_beta   90.00000000
_cell_angle_gamma   90.00000000
_symmetry_Int_Tables_number   1
_chemical_formula_structural   H4NClO4
_chemical_formula_sum   'H16 N4 Cl4 O16'
_cell_volume   401.37415698
_cell_formula_units_Z   4
loop_
 _symmetry_equiv_pos_site_id
 _symmetry_equiv_pos_as_xyz
  1  'x, y, z'
loop_
 _atom_site_type_symbol
 _atom_site_label
 _atom_site_symmetry_multiplicity
 _atom_site_fract_x
 _atom_site_fract_y
 _atom_site_fract_z
 _atom_site_occupancy
  H  H0  1  0.715592  0.250000  0.884608  1
  H  H1  1  0.215592  0.250000  0.615392  1
  H  H2  1  0.284408  0.750000  0.115392  1
  H  H3  1  0.784408  0.750000  0.384608  1
  H  H4  1  0.809357  0.250000  0.686530  1
  H  H5  1  0.309357  0.250000  0.813470  1
  H  H6  1  0.190643  0.750000  0.313470  1
  H  H7  1  0.690643  0.750000  0.186530  1
  H  H8  1  0.876210  0.389443  0.866395  1
  H  H9  1  0.376210  0.110557  0.633605  1
  H  H10  1  0.123790  0.889443  0.133605  1
  H  H11  1  0.623790  0.610557  0.366395  1
  H  H12  1  0.123790  0.610557  0.133605  1
  H  H13  1  0.623790  0.889443  0.366395  1
  H  H14  1  0.876210  0.110557  0.866395  1
  H  H15  1  0.376210  0.389443  0.633605  1
  N  N16  1  0.818733  0.250000  0.826662  1
  N  N17  1  0.318733  0.250000  0.673338  1
  N  N18  1  0.181267  0.750000  0.173338  1
  N  N19  1  0.681267  0.750000  0.326662  1
  Cl  Cl20  1  0.925345  0.250000  0.307126  1
  Cl  Cl21  1  0.425345  0.250000  0.192874  1
  Cl  Cl22  1  0.074655  0.750000  0.692874  1
  Cl  Cl23  1  0.574655  0.750000  0.807126  1
  O  O24  1  0.794552  0.250000  0.424918  1
  O  O25  1  0.294552  0.250000  0.075082  1
  O  O26  1  0.205448  0.750000  0.575082  1
  O  O27  1  0.705448  0.750000  0.924918  1
  O  O28  1  0.058568  0.250000  0.416159  1
  O  O29  1  0.558568  0.250000  0.083841  1
  O  O30  1  0.941432  0.750000  0.583841  1
  O  O31  1  0.441432  0.750000  0.916159  1
  O  O32  1  0.921731  0.051689  0.191910  1
  O  O33  1  0.421731  0.448311  0.308090  1
  O  O34  1  0.078269  0.551689  0.808090  1
  O  O35  1  0.578269  0.948311  0.691910  1
  O  O36  1  0.078269  0.948311  0.808090  1
  O  O37  1  0.578269  0.551689  0.691910  1
  O  O38  1  0.921731  0.448311  0.191910  1
  O  O39  1  0.421731  0.051689  0.308090  1
