# generated using pymatgen
data_LiCrPH2O5
_symmetry_space_group_name_H-M   'P 1'
_cell_length_a   9.86693984
_cell_length_b   7.29328340
_cell_length_c   6.05726360
_cell_angle_alpha   90.00000000
_cell_angle_beta   94.20468725
_cell_angle_gamma   90.00000000
_symmetry_Int_Tables_number   1
_chemical_formula_structural   LiCrPH2O5
_chemical_formula_sum   'Li4 Cr4 P4 H8 O20'
_cell_volume   434.72193744
_cell_formula_units_Z   4
loop_
 _symmetry_equiv_pos_site_id
 _symmetry_equiv_pos_as_xyz
  1  'x, y, z'
loop_
 _atom_site_type_symbol
 _atom_site_label
 _atom_site_symmetry_multiplicity
 _atom_site_fract_x
 _atom_site_fract_y
 _atom_site_fract_z
 _atom_site_occupancy
  Li  Li0  1  0.350645  0.559661  0.578755  1
  Li  Li1  1  0.350645  0.940339  0.078755  1
  Li  Li2  1  0.649355  0.059660  0.921245  1
  Li  Li3  1  0.649355  0.440339  0.421245  1
  Cr  Cr4  1  0.012653  0.805564  0.791599  1
  Cr  Cr5  1  0.012653  0.694436  0.291599  1
  Cr  Cr6  1  0.987347  0.305564  0.708401  1
  Cr  Cr7  1  0.987347  0.194436  0.208401  1
  P  P8  1  0.201760  0.471611  0.996014  1
  P  P9  1  0.201760  0.028389  0.496014  1
  P  P10  1  0.798240  0.971611  0.503986  1
  P  P11  1  0.798240  0.528389  0.003986  1
  H  H12  1  0.415617  0.266982  0.855642  1
  H  H13  1  0.442028  0.104144  0.689864  1
  H  H14  1  0.415617  0.233018  0.355642  1
  H  H15  1  0.442028  0.395856  0.189864  1
  H  H16  1  0.557972  0.604144  0.810136  1
  H  H17  1  0.584383  0.766982  0.644358  1
  H  H18  1  0.557972  0.895856  0.310136  1
  H  H19  1  0.584383  0.733018  0.144358  1
  O  O20  1  0.092121  0.544900  0.808162  1
  O  O21  1  0.092121  0.955100  0.308162  1
  O  O22  1  0.153395  0.225768  0.546463  1
  O  O23  1  0.153395  0.274232  0.046463  1
  O  O24  1  0.197613  0.896931  0.697569  1
  O  O25  1  0.197613  0.603069  0.197569  1
  O  O26  1  0.341672  0.470849  0.904404  1
  O  O27  1  0.341672  0.029151  0.404404  1
  O  O28  1  0.459924  0.144214  0.844724  1
  O  O29  1  0.459924  0.355786  0.344724  1
  O  O30  1  0.540076  0.644214  0.655276  1
  O  O31  1  0.540076  0.855786  0.155276  1
  O  O32  1  0.658328  0.970849  0.595596  1
  O  O33  1  0.658328  0.529151  0.095596  1
  O  O34  1  0.802387  0.396931  0.802431  1
  O  O35  1  0.802387  0.103069  0.302431  1
  O  O36  1  0.846605  0.725768  0.953537  1
  O  O37  1  0.846605  0.774232  0.453537  1
  O  O38  1  0.907879  0.044900  0.691838  1
  O  O39  1  0.907879  0.455100  0.191838  1
