# generated using pymatgen
data_Li6V3P8O29
_symmetry_space_group_name_H-M   'P 1'
_cell_length_a   9.81191005
_cell_length_b   9.79793061
_cell_length_c   13.94529276
_cell_angle_alpha   90.34291920
_cell_angle_beta   90.26529080
_cell_angle_gamma   60.19586021
_symmetry_Int_Tables_number   1
_chemical_formula_structural   Li6V3P8O29
_chemical_formula_sum   'Li12 V6 P16 O58'
_cell_volume   1163.29903786
_cell_formula_units_Z   2
loop_
 _symmetry_equiv_pos_site_id
 _symmetry_equiv_pos_as_xyz
  1  'x, y, z'
loop_
 _atom_site_type_symbol
 _atom_site_label
 _atom_site_symmetry_multiplicity
 _atom_site_fract_x
 _atom_site_fract_y
 _atom_site_fract_z
 _atom_site_occupancy
  Li  Li0  1  0.909750  0.774557  0.062759  1
  Li  Li1  1  0.905056  0.331302  0.560080  1
  Li  Li2  1  0.666151  0.667700  0.887355  1
  Li  Li3  1  0.775409  0.313398  0.060870  1
  Li  Li4  1  0.309834  0.918418  0.064559  1
  Li  Li5  1  0.669853  0.232197  0.435951  1
  Li  Li6  1  0.332429  0.766477  0.556347  1
  Li  Li7  1  0.682150  0.092274  0.940519  1
  Li  Li8  1  0.225543  0.687357  0.941903  1
  Li  Li9  1  0.331697  0.326873  0.611759  1
  Li  Li10  1  0.091866  0.673386  0.437076  1
  Li  Li11  1  0.997427  0.001238  0.493852  1
  V  V12  1  0.567338  0.431438  0.248463  1
  V  V13  1  0.435399  0.565979  0.749961  1
  V  V14  1  0.566617  0.994821  0.745352  1
  V  V15  1  0.429775  0.004571  0.255258  1
  V  V16  1  0.998825  0.565854  0.250202  1
  V  V17  1  0.003446  0.431233  0.753035  1
  P  P18  1  0.911203  0.770094  0.840429  1
  P  P19  1  0.776371  0.915910  0.341810  1
  P  P20  1  0.912069  0.314244  0.344724  1
  P  P21  1  0.664886  0.668168  0.128205  1
  P  P22  1  0.668369  0.662220  0.627035  1
  P  P23  1  0.770787  0.321496  0.842903  1
  P  P24  1  0.683012  0.226081  0.657834  1
  P  P25  1  0.319771  0.911692  0.847663  1
  P  P26  1  0.679780  0.084598  0.156506  1
  P  P27  1  0.317590  0.771229  0.341113  1
  P  P28  1  0.232237  0.678793  0.158500  1
  P  P29  1  0.332537  0.336619  0.372952  1
  P  P30  1  0.337496  0.331850  0.871789  1
  P  P31  1  0.090435  0.683749  0.653862  1
  P  P32  1  0.222726  0.084576  0.659780  1
  P  P33  1  0.084805  0.229173  0.160403  1
  O  O34  1  0.008880  0.770099  0.564656  1
  O  O35  1  0.918742  0.744749  0.338392  1
  O  O36  1  0.754100  0.996899  0.064962  1
  O  O37  1  0.748989  0.920459  0.841725  1
  O  O38  1  0.884960  0.627347  0.824612  1
  O  O39  1  0.813613  0.673704  0.166600  1
  O  O40  1  0.905999  0.471862  0.330393  1
  O  O41  1  0.990181  0.239139  0.075215  1
  O  O42  1  0.916804  0.339059  0.841348  1
  O  O43  1  0.663655  0.812611  0.672337  1
  O  O44  1  0.621873  0.914869  0.333552  1
  O  O45  1  0.819053  0.514507  0.667751  1
  O  O46  1  0.668127  0.665961  0.019900  1
  O  O47  1  0.660599  0.660821  0.520928  1
  O  O48  1  0.671876  0.512704  0.164884  1
  O  O49  1  0.487109  0.886976  0.827160  1
  O  O50  1  0.513472  0.814487  0.166750  1
  O  O51  1  0.742755  0.337101  0.334481  1
  O  O52  1  0.786301  0.213753  0.750952  1
  O  O53  1  0.768796  0.231832  0.569709  1
  O  O54  1  0.750451  0.246243  0.930857  1
  O  O55  1  0.625767  0.488581  0.826707  1
  O  O56  1  0.517902  0.663464  0.670293  1
  O  O57  1  0.661533  0.250607  0.156326  1
  O  O58  1  0.472365  0.618124  0.330127  1
  O  O59  1  0.343228  0.913872  0.335700  1
  O  O60  1  0.796939  0.992094  0.243015  1
  O  O61  1  0.795761  0.005655  0.423167  1
  O  O62  1  0.219035  0.987785  0.577754  1
  O  O63  1  0.660764  0.082869  0.659980  1
  O  O64  1  0.518711  0.375894  0.669447  1
  O  O65  1  0.332625  0.746962  0.841798  1
  O  O66  1  0.488772  0.324729  0.334588  1
  O  O67  1  0.380025  0.518507  0.177669  1
  O  O68  1  0.247598  0.755282  0.069073  1
  O  O69  1  0.224450  0.779519  0.429688  1
  O  O70  1  0.208727  0.791061  0.248957  1
  O  O71  1  0.256772  0.664692  0.658622  1
  O  O72  1  0.480744  0.179686  0.828629  1
  O  O73  1  0.521656  0.094265  0.177777  1
  O  O74  1  0.341296  0.479515  0.827989  1
  O  O75  1  0.338373  0.337974  0.977775  1
  O  O76  1  0.335557  0.339418  0.481068  1
  O  O77  1  0.187564  0.493024  0.336060  1
  O  O78  1  0.372936  0.101480  0.667687  1
  O  O79  1  0.322138  0.195746  0.329834  1
  O  O80  1  0.083491  0.663323  0.157608  1
  O  O81  1  0.000675  0.785680  0.748494  1
  O  O82  1  0.004903  0.751414  0.930003  1
  O  O83  1  0.104469  0.519638  0.666645  1
  O  O84  1  0.184893  0.342923  0.824910  1
  O  O85  1  0.092517  0.382843  0.178873  1
  O  O86  1  0.252563  0.085837  0.160812  1
  O  O87  1  0.249784  0.994503  0.938665  1
  O  O88  1  0.208940  0.008868  0.758836  1
  O  O89  1  0.079048  0.252607  0.658413  1
  O  O90  1  0.981698  0.229294  0.436720  1
  O  O91  1  0.007441  0.202855  0.256207  1
