# generated using pymatgen
data_Hf2N2O
_symmetry_space_group_name_H-M   'P 1'
_cell_length_a   5.81515261
_cell_length_b   5.48971436
_cell_length_c   7.93103862
_cell_angle_alpha   89.99999479
_cell_angle_beta   94.69860104
_cell_angle_gamma   90.00000021
_symmetry_Int_Tables_number   1
_chemical_formula_structural   Hf2N2O
_chemical_formula_sum   'Hf8 N8 O4'
_cell_volume   252.33586161
_cell_formula_units_Z   4
loop_
 _symmetry_equiv_pos_site_id
 _symmetry_equiv_pos_as_xyz
  1  'x, y, z'
loop_
 _atom_site_type_symbol
 _atom_site_label
 _atom_site_symmetry_multiplicity
 _atom_site_fract_x
 _atom_site_fract_y
 _atom_site_fract_z
 _atom_site_occupancy
  Hf  Hf0  1  0.720816  0.000265  0.143050  1
  Hf  Hf1  1  0.720816  0.999735  0.643050  1
  Hf  Hf2  1  0.789414  0.512026  0.354430  1
  Hf  Hf3  1  0.789414  0.487974  0.854430  1
  Hf  Hf4  1  0.210586  0.512026  0.145570  1
  Hf  Hf5  1  0.210586  0.487974  0.645570  1
  Hf  Hf6  1  0.279184  0.000265  0.356950  1
  Hf  Hf7  1  0.279184  0.999735  0.856950  1
  N  N8  1  0.847678  0.348491  0.100164  1
  N  N9  1  0.847678  0.651509  0.600164  1
  N  N10  1  0.500000  0.715939  0.250000  1
  N  N11  1  0.500000  0.284061  0.750000  1
  N  N12  1  0.152322  0.348491  0.399836  1
  N  N13  1  0.152322  0.651509  0.899836  1
  N  N14  1  0.000000  0.807779  0.250000  1
  N  N15  1  0.000000  0.192221  0.750000  1
  O  O16  1  0.649293  0.153387  0.398537  1
  O  O17  1  0.649293  0.846613  0.898537  1
  O  O18  1  0.350707  0.153387  0.101463  1
  O  O19  1  0.350707  0.846613  0.601463  1
