# generated using pymatgen
data_TiO2
_symmetry_space_group_name_H-M   'P 1'
_cell_length_a   8.99516195
_cell_length_b   10.75815545
_cell_length_c   2.99020662
_cell_angle_alpha   90.00000000
_cell_angle_beta   90.00000000
_cell_angle_gamma   90.00000000
_symmetry_Int_Tables_number   1
_chemical_formula_structural   TiO2
_chemical_formula_sum   'Ti8 O16'
_cell_volume   289.36633306
_cell_formula_units_Z   8
loop_
 _symmetry_equiv_pos_site_id
 _symmetry_equiv_pos_as_xyz
  1  'x, y, z'
loop_
 _atom_site_type_symbol
 _atom_site_label
 _atom_site_symmetry_multiplicity
 _atom_site_fract_x
 _atom_site_fract_y
 _atom_site_fract_z
 _atom_site_occupancy
  Ti  Ti0  1  0.056640  0.115002  0.750000  1
  Ti  Ti1  1  0.082710  0.602777  0.750000  1
  Ti  Ti2  1  0.417290  0.102777  0.250000  1
  Ti  Ti3  1  0.443360  0.615002  0.250000  1
  Ti  Ti4  1  0.556640  0.384998  0.750000  1
  Ti  Ti5  1  0.582710  0.897223  0.750000  1
  Ti  Ti6  1  0.917290  0.397223  0.250000  1
  Ti  Ti7  1  0.943360  0.884998  0.250000  1
  O  O8  1  0.023154  0.716811  0.250000  1
  O  O9  1  0.072224  0.927196  0.750000  1
  O  O10  1  0.111705  0.488543  0.250000  1
  O  O11  1  0.204456  0.137833  0.250000  1
  O  O12  1  0.295544  0.637833  0.750000  1
  O  O13  1  0.388295  0.988543  0.750000  1
  O  O14  1  0.427776  0.427196  0.250000  1
  O  O15  1  0.476847  0.216811  0.750000  1
  O  O16  1  0.523154  0.783189  0.250000  1
  O  O17  1  0.572224  0.572804  0.750000  1
  O  O18  1  0.611705  0.011457  0.250000  1
  O  O19  1  0.704456  0.362167  0.250000  1
  O  O20  1  0.795544  0.862167  0.750000  1
  O  O21  1  0.888295  0.511457  0.750000  1
  O  O22  1  0.927776  0.072804  0.250000  1
  O  O23  1  0.976846  0.283189  0.750000  1
