# generated using pymatgen
data_Rb7U8V2ClO32
_symmetry_space_group_name_H-M   'P 1'
_cell_length_a   11.91407000
_cell_length_b   14.44647822
_cell_length_c   21.60299251
_cell_angle_alpha   90.00000000
_cell_angle_beta   90.00000000
_cell_angle_gamma   90.00000000
_symmetry_Int_Tables_number   1
_chemical_formula_structural   Rb7U8V2ClO32
_chemical_formula_sum   'Rb28 U32 V8 Cl4 O128'
_cell_volume   3718.22827966
_cell_formula_units_Z   4
loop_
 _symmetry_equiv_pos_site_id
 _symmetry_equiv_pos_as_xyz
  1  'x, y, z'
loop_
 _atom_site_type_symbol
 _atom_site_label
 _atom_site_symmetry_multiplicity
 _atom_site_fract_x
 _atom_site_fract_y
 _atom_site_fract_z
 _atom_site_occupancy
  Rb  Rb0  1  0.921674  0.523337  0.353399  1
  Rb  Rb1  1  0.755905  0.980463  0.976065  1
  Rb  Rb2  1  0.578326  0.023337  0.353399  1
  Rb  Rb3  1  0.045432  0.971884  0.846540  1
  Rb  Rb4  1  0.045432  0.971884  0.653460  1
  Rb  Rb5  1  0.244095  0.019537  0.476065  1
  Rb  Rb6  1  0.755905  0.980463  0.523935  1
  Rb  Rb7  1  0.954568  0.028116  0.346540  1
  Rb  Rb8  1  0.744095  0.480463  0.523935  1
  Rb  Rb9  1  0.954568  0.028116  0.153460  1
  Rb  Rb10  1  0.578326  0.023337  0.146601  1
  Rb  Rb11  1  0.454568  0.471884  0.846540  1
  Rb  Rb12  1  0.255905  0.519537  0.476065  1
  Rb  Rb13  1  0.421674  0.976663  0.853399  1
  Rb  Rb14  1  0.078326  0.476663  0.646601  1
  Rb  Rb15  1  0.764475  0.368803  0.750000  1
  Rb  Rb16  1  0.545432  0.528116  0.346540  1
  Rb  Rb17  1  0.235525  0.631197  0.250000  1
  Rb  Rb18  1  0.921674  0.523337  0.146601  1
  Rb  Rb19  1  0.735525  0.868803  0.750000  1
  Rb  Rb20  1  0.244095  0.019537  0.023935  1
  Rb  Rb21  1  0.078326  0.476663  0.853399  1
  Rb  Rb22  1  0.421674  0.976663  0.646601  1
  Rb  Rb23  1  0.264475  0.131197  0.250000  1
  Rb  Rb24  1  0.454568  0.471884  0.653460  1
  Rb  Rb25  1  0.255905  0.519537  0.023935  1
  Rb  Rb26  1  0.545432  0.528116  0.153460  1
  Rb  Rb27  1  0.744095  0.480463  0.976065  1
  U  U28  1  0.481107  0.222429  0.750000  1
  U  U29  1  0.542574  0.728620  0.575799  1
  U  U30  1  0.451660  0.730319  0.750000  1
  U  U31  1  0.930197  0.721133  0.576471  1
  U  U32  1  0.457426  0.271380  0.424201  1
  U  U33  1  0.548340  0.269681  0.250000  1
  U  U34  1  0.042574  0.771380  0.424201  1
  U  U35  1  0.957426  0.228620  0.924201  1
  U  U36  1  0.957426  0.228620  0.575799  1
  U  U37  1  0.018893  0.722429  0.750000  1
  U  U38  1  0.736044  0.748925  0.405874  1
  U  U39  1  0.930197  0.721133  0.923529  1
  U  U40  1  0.736044  0.748925  0.094126  1
  U  U41  1  0.763956  0.248925  0.094126  1
  U  U42  1  0.763956  0.248925  0.405874  1
  U  U43  1  0.981107  0.277571  0.250000  1
  U  U44  1  0.542574  0.728620  0.924201  1
  U  U45  1  0.518893  0.777571  0.250000  1
  U  U46  1  0.430197  0.778867  0.423529  1
  U  U47  1  0.042574  0.771380  0.075799  1
  U  U48  1  0.263956  0.251075  0.594126  1
  U  U49  1  0.951660  0.769681  0.250000  1
  U  U50  1  0.569803  0.221133  0.576471  1
  U  U51  1  0.236044  0.751075  0.905874  1
  U  U52  1  0.048340  0.230319  0.750000  1
  U  U53  1  0.069803  0.278867  0.076471  1
  U  U54  1  0.430197  0.778867  0.076471  1
  U  U55  1  0.236044  0.751075  0.594126  1
  U  U56  1  0.569803  0.221133  0.923529  1
  U  U57  1  0.069803  0.278867  0.423529  1
  U  U58  1  0.263956  0.251075  0.905874  1
  U  U59  1  0.457426  0.271380  0.075799  1
  V  V60  1  0.766832  0.133070  0.662059  1
  V  V61  1  0.233168  0.866930  0.337941  1
  V  V62  1  0.766832  0.133070  0.837941  1
  V  V63  1  0.233168  0.866930  0.162059  1
  V  V64  1  0.733168  0.633070  0.837941  1
  V  V65  1  0.266832  0.366930  0.337941  1
  V  V66  1  0.733168  0.633070  0.662059  1
  V  V67  1  0.266832  0.366930  0.162059  1
  Cl  Cl68  1  0.733832  0.680260  0.250000  1
  Cl  Cl69  1  0.233832  0.819740  0.750000  1
  Cl  Cl70  1  0.766168  0.180260  0.250000  1
  Cl  Cl71  1  0.266168  0.319740  0.750000  1
  O  O72  1  0.391367  0.309994  0.185551  1
  O  O73  1  0.413926  0.150436  0.089729  1
  O  O74  1  0.760577  0.377052  0.408473  1
  O  O75  1  0.764767  0.167153  0.916604  1
  O  O76  1  0.260577  0.122948  0.908473  1
  O  O77  1  0.225141  0.981410  0.330890  1
  O  O78  1  0.108633  0.809994  0.314449  1
  O  O79  1  0.380588  0.762187  0.524983  1
  O  O80  1  0.225141  0.981410  0.169110  1
  O  O81  1  0.608981  0.343075  0.590317  1
  O  O82  1  0.862388  0.682339  0.685761  1
  O  O83  1  0.264767  0.332847  0.416604  1
  O  O84  1  0.119412  0.262187  0.975017  1
  O  O85  1  0.091641  0.754831  0.525305  1
  O  O86  1  0.928334  0.262596  0.149925  1
  O  O87  1  0.108981  0.156925  0.409683  1
  O  O88  1  0.091641  0.754831  0.974695  1
  O  O89  1  0.774859  0.018590  0.669110  1
  O  O90  1  0.000251  0.647822  0.250000  1
  O  O91  1  0.468971  0.656088  0.250000  1
  O  O92  1  0.511155  0.604518  0.935308  1
  O  O93  1  0.541373  0.096403  0.933858  1
  O  O94  1  0.362388  0.817661  0.185761  1
  O  O95  1  0.391019  0.656925  0.409683  1
  O  O96  1  0.571666  0.762596  0.149925  1
  O  O97  1  0.927697  0.397383  0.250000  1
  O  O98  1  0.071666  0.737404  0.850075  1
  O  O99  1  0.908359  0.245169  0.474695  1
  O  O100  1  0.913926  0.349564  0.910271  1
  O  O101  1  0.011155  0.895482  0.064692  1
  O  O102  1  0.586074  0.849564  0.910271  1
  O  O103  1  0.400832  0.746035  0.850430  1
  O  O104  1  0.274859  0.481410  0.330890  1
  O  O105  1  0.488845  0.395482  0.064692  1
  O  O106  1  0.880588  0.737813  0.024983  1
  O  O107  1  0.274859  0.481410  0.169110  1
  O  O108  1  0.913926  0.349564  0.589729  1
  O  O109  1  0.071666  0.737404  0.649925  1
  O  O110  1  0.362388  0.817661  0.314239  1
  O  O111  1  0.499749  0.147822  0.250000  1
  O  O112  1  0.541373  0.096403  0.566142  1
  O  O113  1  0.391019  0.656925  0.090317  1
  O  O114  1  0.488845  0.395482  0.435308  1
  O  O115  1  0.768578  0.120047  0.403324  1
  O  O116  1  0.511155  0.604518  0.564692  1
  O  O117  1  0.086074  0.650436  0.089729  1
  O  O118  1  0.774859  0.018590  0.830890  1
  O  O119  1  0.958627  0.596403  0.933858  1
  O  O120  1  0.231422  0.879953  0.596676  1
  O  O121  1  0.041373  0.403597  0.066142  1
  O  O122  1  0.928334  0.262596  0.350075  1
  O  O123  1  0.119412  0.262187  0.524983  1
  O  O124  1  0.011155  0.895482  0.435308  1
  O  O125  1  0.908359  0.245169  0.025305  1
  O  O126  1  0.862388  0.682339  0.814239  1
  O  O127  1  0.264767  0.332847  0.083396  1
  O  O128  1  0.097648  0.109205  0.750000  1
  O  O129  1  0.608981  0.343075  0.909683  1
  O  O130  1  0.731422  0.620047  0.403324  1
  O  O131  1  0.731422  0.620047  0.096676  1
  O  O132  1  0.968971  0.843912  0.750000  1
  O  O133  1  0.260577  0.122948  0.591527  1
  O  O134  1  0.402352  0.609205  0.750000  1
  O  O135  1  0.764767  0.167153  0.583396  1
  O  O136  1  0.902352  0.890795  0.250000  1
  O  O137  1  0.108981  0.156925  0.090317  1
  O  O138  1  0.891019  0.843075  0.909683  1
  O  O139  1  0.619412  0.237813  0.475017  1
  O  O140  1  0.760577  0.377052  0.091527  1
  O  O141  1  0.739423  0.877052  0.091527  1
  O  O142  1  0.571666  0.762596  0.350075  1
  O  O143  1  0.988845  0.104518  0.564692  1
  O  O144  1  0.239423  0.622948  0.591527  1
  O  O145  1  0.637612  0.182339  0.685761  1
  O  O146  1  0.268578  0.379953  0.903324  1
  O  O147  1  0.608633  0.690006  0.814449  1
  O  O148  1  0.988845  0.104518  0.935308  1
  O  O149  1  0.586074  0.849564  0.589729  1
  O  O150  1  0.235233  0.832847  0.416604  1
  O  O151  1  0.231422  0.879953  0.903324  1
  O  O152  1  0.458627  0.903597  0.433858  1
  O  O153  1  0.458627  0.903597  0.066142  1
  O  O154  1  0.072303  0.602617  0.750000  1
  O  O155  1  0.086074  0.650436  0.410271  1
  O  O156  1  0.428334  0.237404  0.850075  1
  O  O157  1  0.608633  0.690006  0.685551  1
  O  O158  1  0.619412  0.237813  0.024983  1
  O  O159  1  0.599168  0.253965  0.149570  1
  O  O160  1  0.427698  0.102617  0.750000  1
  O  O161  1  0.891367  0.190006  0.685551  1
  O  O162  1  0.137612  0.317661  0.185761  1
  O  O163  1  0.880588  0.737813  0.475017  1
  O  O164  1  0.413926  0.150436  0.410271  1
  O  O165  1  0.099168  0.246035  0.649570  1
  O  O166  1  0.591641  0.745169  0.474695  1
  O  O167  1  0.391367  0.309994  0.314449  1
  O  O168  1  0.235233  0.832847  0.083396  1
  O  O169  1  0.768578  0.120047  0.096676  1
  O  O170  1  0.725141  0.518590  0.669110  1
  O  O171  1  0.725141  0.518590  0.830890  1
  O  O172  1  0.591641  0.745169  0.025305  1
  O  O173  1  0.400832  0.746035  0.649570  1
  O  O174  1  0.597648  0.390795  0.250000  1
  O  O175  1  0.099168  0.246035  0.850430  1
  O  O176  1  0.137612  0.317661  0.314239  1
  O  O177  1  0.408359  0.254831  0.525305  1
  O  O178  1  0.031029  0.156088  0.250000  1
  O  O179  1  0.500251  0.852178  0.750000  1
  O  O180  1  0.891367  0.190006  0.814449  1
  O  O181  1  0.108633  0.809994  0.185551  1
  O  O182  1  0.428334  0.237404  0.649925  1
  O  O183  1  0.900832  0.753965  0.350430  1
  O  O184  1  0.599168  0.253965  0.350430  1
  O  O185  1  0.041373  0.403597  0.433858  1
  O  O186  1  0.900832  0.753965  0.149570  1
  O  O187  1  0.408359  0.254831  0.974695  1
  O  O188  1  0.739423  0.877052  0.408473  1
  O  O189  1  0.572303  0.897383  0.250000  1
  O  O190  1  0.531029  0.343912  0.750000  1
  O  O191  1  0.637612  0.182339  0.814239  1
  O  O192  1  0.958627  0.596403  0.566142  1
  O  O193  1  0.239423  0.622948  0.908473  1
  O  O194  1  0.268578  0.379953  0.596676  1
  O  O195  1  0.999749  0.352178  0.750000  1
  O  O196  1  0.735233  0.667153  0.916604  1
  O  O197  1  0.380588  0.762187  0.975017  1
  O  O198  1  0.891019  0.843075  0.590317  1
  O  O199  1  0.735233  0.667153  0.583396  1
