# generated using pymatgen
data_Li3Cr2(NiO4)2
_symmetry_space_group_name_H-M   'P 1'
_cell_length_a   5.82299214
_cell_length_b   5.88978326
_cell_length_c   5.90733687
_cell_angle_alpha   59.88756937
_cell_angle_beta   59.52903737
_cell_angle_gamma   89.65921439
_symmetry_Int_Tables_number   1
_chemical_formula_structural   Li3Cr2(NiO4)2
_chemical_formula_sum   'Li3 Cr2 Ni2 O8'
_cell_volume   142.41679932
_cell_formula_units_Z   1
loop_
 _symmetry_equiv_pos_site_id
 _symmetry_equiv_pos_as_xyz
  1  'x, y, z'
loop_
 _atom_site_type_symbol
 _atom_site_label
 _atom_site_symmetry_multiplicity
 _atom_site_fract_x
 _atom_site_fract_y
 _atom_site_fract_z
 _atom_site_occupancy
  Li  Li0  1  0.500000  0.500000  0.500000  1
  Li  Li1  1  0.500000  0.000000  0.500000  1
  Li  Li2  1  0.500000  0.500000  0.000000  1
  Cr  Cr3  1  0.000000  0.000000  0.500000  1
  Cr  Cr4  1  0.000000  0.000000  0.000000  1
  Ni  Ni5  1  0.000000  0.500000  0.500000  1
  Ni  Ni6  1  0.500000  0.000000  0.000000  1
  O  O7  1  0.255324  0.773424  0.456799  1
  O  O8  1  0.743752  0.783298  0.986418  1
  O  O9  1  0.255288  0.772172  0.015832  1
  O  O10  1  0.232383  0.229638  0.518550  1
  O  O11  1  0.767617  0.770362  0.481450  1
  O  O12  1  0.744712  0.227828  0.984168  1
  O  O13  1  0.256248  0.216702  0.013582  1
  O  O14  1  0.744676  0.226576  0.543201  1
