# generated using pymatgen
data_Mn6OF11
_symmetry_space_group_name_H-M   'P 1'
_cell_length_a   4.96169383
_cell_length_b   5.89098106
_cell_length_c   16.23566257
_cell_angle_alpha   90.25899608
_cell_angle_beta   89.66725517
_cell_angle_gamma   89.17352088
_symmetry_Int_Tables_number   1
_chemical_formula_structural   Mn6OF11
_chemical_formula_sum   'Mn12 O2 F22'
_cell_volume   474.49374640
_cell_formula_units_Z   2
loop_
 _symmetry_equiv_pos_site_id
 _symmetry_equiv_pos_as_xyz
  1  'x, y, z'
loop_
 _atom_site_type_symbol
 _atom_site_label
 _atom_site_symmetry_multiplicity
 _atom_site_fract_x
 _atom_site_fract_y
 _atom_site_fract_z
 _atom_site_occupancy
  Mn  Mn0  1  0.005972  0.167139  0.414541  1
  Mn  Mn1  1  0.028147  0.816561  0.250473  1
  Mn  Mn2  1  0.971853  0.183439  0.082861  1
  Mn  Mn3  1  0.006922  0.171461  0.751284  1
  Mn  Mn4  1  0.993078  0.828539  0.582049  1
  Mn  Mn5  1  0.994028  0.832861  0.918792  1
  Mn  Mn6  1  0.497561  0.332683  0.582209  1
  Mn  Mn7  1  0.512388  0.331634  0.923373  1
  Mn  Mn8  1  0.490592  0.352379  0.252017  1
  Mn  Mn9  1  0.509408  0.647621  0.081316  1
  Mn  Mn10  1  0.487612  0.668366  0.409961  1
  Mn  Mn11  1  0.502439  0.667317  0.751125  1
  O  O12  1  0.292511  0.589266  0.300950  1
  O  O13  1  0.707489  0.410734  0.032384  1
  F  F14  1  0.242548  0.102757  0.303224  1
  F  F15  1  0.229335  0.105010  0.640025  1
  F  F16  1  0.210566  0.116668  0.974848  1
  F  F17  1  0.239801  0.875195  0.133302  1
  F  F18  1  0.233087  0.895322  0.473448  1
  F  F19  1  0.226506  0.891219  0.808886  1
  F  F20  1  0.270400  0.384638  0.145026  1
  F  F21  1  0.265641  0.394234  0.473438  1
  F  F22  1  0.266689  0.605483  0.641908  1
  F  F23  1  0.280792  0.389361  0.812665  1
  F  F24  1  0.271332  0.620169  0.979229  1
  F  F25  1  0.729600  0.615362  0.188307  1
  F  F26  1  0.728668  0.379831  0.354104  1
  F  F27  1  0.719208  0.610639  0.520668  1
  F  F28  1  0.734359  0.605766  0.859895  1
  F  F29  1  0.733311  0.394517  0.691425  1
  F  F30  1  0.760199  0.124805  0.200032  1
  F  F31  1  0.773494  0.108781  0.524447  1
  F  F32  1  0.789434  0.883332  0.358486  1
  F  F33  1  0.757452  0.897243  0.030109  1
  F  F34  1  0.766913  0.104678  0.859886  1
  F  F35  1  0.770665  0.894990  0.693308  1
