# generated using pymatgen
data_CoSiC4Cl3O4
_symmetry_space_group_name_H-M   'P 1'
_cell_length_a   8.88941664
_cell_length_b   11.34231968
_cell_length_c   12.13828464
_cell_angle_alpha   90.00000000
_cell_angle_beta   99.41446546
_cell_angle_gamma   90.00000000
_symmetry_Int_Tables_number   1
_chemical_formula_structural   CoSiC4Cl3O4
_chemical_formula_sum   'Co4 Si4 C16 Cl12 O16'
_cell_volume   1207.37770829
_cell_formula_units_Z   4
loop_
 _symmetry_equiv_pos_site_id
 _symmetry_equiv_pos_as_xyz
  1  'x, y, z'
loop_
 _atom_site_type_symbol
 _atom_site_label
 _atom_site_symmetry_multiplicity
 _atom_site_fract_x
 _atom_site_fract_y
 _atom_site_fract_z
 _atom_site_occupancy
  Co  Co0  1  0.224295  0.033028  0.778071  1
  Co  Co1  1  0.224295  0.466972  0.278071  1
  Co  Co2  1  0.775705  0.966972  0.221929  1
  Co  Co3  1  0.775705  0.533028  0.721929  1
  Si  Si4  1  0.301096  0.152526  0.646143  1
  Si  Si5  1  0.698904  0.652526  0.853857  1
  Si  Si6  1  0.301096  0.347474  0.146143  1
  Si  Si7  1  0.698904  0.847474  0.353857  1
  C  C8  1  0.385714  0.091375  0.866588  1
  C  C9  1  0.614286  0.908625  0.133412  1
  C  C10  1  0.385714  0.408625  0.366588  1
  C  C11  1  0.050654  0.387572  0.248075  1
  C  C12  1  0.255568  0.585082  0.187696  1
  C  C13  1  0.255568  0.914918  0.687696  1
  C  C14  1  0.835348  0.054559  0.114759  1
  C  C15  1  0.744432  0.414918  0.812304  1
  C  C16  1  0.744432  0.085082  0.312304  1
  C  C17  1  0.835348  0.445441  0.614759  1
  C  C18  1  0.050654  0.112428  0.748075  1
  C  C19  1  0.949346  0.887572  0.251925  1
  C  C20  1  0.614286  0.591375  0.633412  1
  C  C21  1  0.164652  0.945441  0.885241  1
  C  C22  1  0.164652  0.554559  0.385241  1
  C  C23  1  0.949346  0.612428  0.751925  1
  Cl  Cl24  1  0.477448  0.621215  0.876014  1
  Cl  Cl25  1  0.291458  0.170109  0.185201  1
  Cl  Cl26  1  0.168362  0.365900  0.990474  1
  Cl  Cl27  1  0.291458  0.329891  0.685201  1
  Cl  Cl28  1  0.522552  0.121215  0.623986  1
  Cl  Cl29  1  0.708542  0.670109  0.314799  1
  Cl  Cl30  1  0.831638  0.865900  0.509526  1
  Cl  Cl31  1  0.477448  0.878785  0.376014  1
  Cl  Cl32  1  0.522552  0.378785  0.123986  1
  Cl  Cl33  1  0.708542  0.829891  0.814799  1
  Cl  Cl34  1  0.831638  0.634100  0.009526  1
  Cl  Cl35  1  0.168362  0.134100  0.490474  1
  O  O36  1  0.490741  0.374388  0.427084  1
  O  O37  1  0.725490  0.336734  0.869440  1
  O  O38  1  0.509259  0.874388  0.072916  1
  O  O39  1  0.874581  0.108598  0.044200  1
  O  O40  1  0.725490  0.163266  0.369440  1
  O  O41  1  0.874581  0.391402  0.544200  1
  O  O42  1  0.064545  0.837947  0.269199  1
  O  O43  1  0.274510  0.663266  0.130560  1
  O  O44  1  0.125419  0.891402  0.955800  1
  O  O45  1  0.509259  0.625612  0.572916  1
  O  O46  1  0.274510  0.836734  0.630560  1
  O  O47  1  0.935455  0.337947  0.230801  1
  O  O48  1  0.125419  0.608598  0.455800  1
  O  O49  1  0.490741  0.125612  0.927084  1
  O  O50  1  0.064545  0.662053  0.769199  1
  O  O51  1  0.935455  0.162053  0.730801  1
