# generated using pymatgen
data_Li4Nb5Cr3O16
_symmetry_space_group_name_H-M   'P 1'
_cell_length_a   6.15438877
_cell_length_b   6.06868149
_cell_length_c   10.08991030
_cell_angle_alpha   89.99326759
_cell_angle_beta   89.50303160
_cell_angle_gamma   119.55570937
_symmetry_Int_Tables_number   1
_chemical_formula_structural   Li4Nb5Cr3O16
_chemical_formula_sum   'Li4 Nb5 Cr3 O16'
_cell_volume   327.79497374
_cell_formula_units_Z   1
loop_
 _symmetry_equiv_pos_site_id
 _symmetry_equiv_pos_as_xyz
  1  'x, y, z'
loop_
 _atom_site_type_symbol
 _atom_site_label
 _atom_site_symmetry_multiplicity
 _atom_site_fract_x
 _atom_site_fract_y
 _atom_site_fract_z
 _atom_site_occupancy
  Li  Li0  1  0.344238  0.672235  0.909758  1
  Li  Li1  1  0.012128  0.005942  0.988666  1
  Li  Li2  1  0.995637  0.997915  0.490651  1
  Li  Li3  1  0.671220  0.335824  0.394628  1
  Nb  Nb4  1  0.309363  0.654814  0.492103  1
  Nb  Nb5  1  0.658007  0.828880  0.224343  1
  Nb  Nb6  1  0.664971  0.332452  0.999437  1
  Nb  Nb7  1  0.815201  0.630092  0.715654  1
  Nb  Nb8  1  0.815111  0.185237  0.715680  1
  Cr  Cr9  1  0.169254  0.830939  0.210366  1
  Cr  Cr10  1  0.168505  0.337795  0.210344  1
  Cr  Cr11  1  0.326908  0.163567  0.709451  1
  O  O12  1  0.149913  0.816511  0.590252  1
  O  O13  1  0.054749  0.528018  0.358241  1
  O  O14  1  0.350193  0.674865  0.108662  1
  O  O15  1  0.998389  0.998834  0.305817  1
  O  O16  1  0.998789  0.999495  0.804327  1
  O  O17  1  0.149647  0.333610  0.590058  1
  O  O18  1  0.497162  0.968818  0.340921  1
  O  O19  1  0.496374  0.528201  0.341161  1
  O  O20  1  0.346568  0.172487  0.081820  1
  O  O21  1  0.659285  0.829829  0.591705  1
  O  O22  1  0.541626  0.495561  0.847671  1
  O  O23  1  0.541811  0.045998  0.847713  1
  O  O24  1  0.636570  0.318391  0.588064  1
  O  O25  1  0.823086  0.665403  0.098109  1
  O  O26  1  0.981983  0.491068  0.854099  1
  O  O27  1  0.823313  0.157523  0.098138  1
