# generated using pymatgen
data_Na3CuSiCO7
_symmetry_space_group_name_H-M   'P 1'
_cell_length_a   9.10060461
_cell_length_b   6.54588380
_cell_length_c   5.15325323
_cell_angle_alpha   90.00000000
_cell_angle_beta   88.98788335
_cell_angle_gamma   90.00000000
_symmetry_Int_Tables_number   1
_chemical_formula_structural   Na3CuSiCO7
_chemical_formula_sum   'Na6 Cu2 Si2 C2 O14'
_cell_volume   306.93913070
_cell_formula_units_Z   2
loop_
 _symmetry_equiv_pos_site_id
 _symmetry_equiv_pos_as_xyz
  1  'x, y, z'
loop_
 _atom_site_type_symbol
 _atom_site_label
 _atom_site_symmetry_multiplicity
 _atom_site_fract_x
 _atom_site_fract_y
 _atom_site_fract_z
 _atom_site_occupancy
  Na  Na0  1  0.089899  0.250000  0.764657  1
  Na  Na1  1  0.266996  0.008905  0.252167  1
  Na  Na2  1  0.266996  0.491095  0.252167  1
  Na  Na3  1  0.733004  0.508905  0.747833  1
  Na  Na4  1  0.733004  0.991095  0.747833  1
  Na  Na5  1  0.910101  0.750000  0.235343  1
  Cu  Cu6  1  0.349111  0.750000  0.789357  1
  Cu  Cu7  1  0.650889  0.250000  0.210643  1
  Si  Si8  1  0.423559  0.250000  0.707109  1
  Si  Si9  1  0.576441  0.750000  0.292891  1
  C  C10  1  0.059767  0.750000  0.728222  1
  C  C11  1  0.940233  0.250000  0.271778  1
  O  O12  1  0.081368  0.250000  0.284740  1
  O  O13  1  0.122969  0.750000  0.952303  1
  O  O14  1  0.141482  0.750000  0.519895  1
  O  O15  1  0.315310  0.054397  0.779902  1
  O  O16  1  0.315310  0.445603  0.779902  1
  O  O17  1  0.458277  0.250000  0.390252  1
  O  O18  1  0.417998  0.750000  0.149443  1
  O  O19  1  0.582002  0.250000  0.850557  1
  O  O20  1  0.541723  0.750000  0.609748  1
  O  O21  1  0.684690  0.554397  0.220098  1
  O  O22  1  0.684690  0.945603  0.220098  1
  O  O23  1  0.858518  0.250000  0.480105  1
  O  O24  1  0.877031  0.250000  0.047697  1
  O  O25  1  0.918632  0.750000  0.715260  1
