# generated using pymatgen
data_Li2VFe3O8
_symmetry_space_group_name_H-M   'P 1'
_cell_length_a   8.48116733
_cell_length_b   8.48128769
_cell_length_c   8.48050126
_cell_angle_alpha   90.00180348
_cell_angle_beta   90.00102191
_cell_angle_gamma   89.99915905
_symmetry_Int_Tables_number   1
_chemical_formula_structural   Li2VFe3O8
_chemical_formula_sum   'Li8 V4 Fe12 O32'
_cell_volume   610.01280223
_cell_formula_units_Z   4
loop_
 _symmetry_equiv_pos_site_id
 _symmetry_equiv_pos_as_xyz
  1  'x, y, z'
loop_
 _atom_site_type_symbol
 _atom_site_label
 _atom_site_symmetry_multiplicity
 _atom_site_fract_x
 _atom_site_fract_y
 _atom_site_fract_z
 _atom_site_occupancy
  Li  Li0  1  0.999502  0.999487  0.999472  1
  Li  Li1  1  0.250468  0.250497  0.250518  1
  Li  Li2  1  0.249515  0.749507  0.750512  1
  Li  Li3  1  0.500551  0.000521  0.499440  1
  Li  Li4  1  0.499491  0.500507  0.000519  1
  Li  Li5  1  0.750454  0.249554  0.749558  1
  Li  Li6  1  0.749511  0.750461  0.249564  1
  Li  Li7  1  0.000535  0.499486  0.500458  1
  V  V8  1  0.125008  0.875030  0.375021  1
  V  V9  1  0.375010  0.125005  0.874980  1
  V  V10  1  0.625016  0.624989  0.625035  1
  V  V11  1  0.875028  0.374978  0.124996  1
  Fe  Fe12  1  0.124540  0.125398  0.625041  1
  Fe  Fe13  1  0.125020  0.375453  0.874587  1
  Fe  Fe14  1  0.125364  0.625038  0.124581  1
  Fe  Fe15  1  0.374618  0.374972  0.624573  1
  Fe  Fe16  1  0.374976  0.624559  0.374595  1
  Fe  Fe17  1  0.375426  0.874632  0.125008  1
  Fe  Fe18  1  0.624574  0.374614  0.374956  1
  Fe  Fe19  1  0.625018  0.124598  0.125394  1
  Fe  Fe20  1  0.625427  0.874975  0.875461  1
  Fe  Fe21  1  0.874613  0.125025  0.375456  1
  Fe  Fe22  1  0.874962  0.875427  0.625391  1
  Fe  Fe23  1  0.875427  0.625377  0.874998  1
  O  O24  1  0.118628  0.101233  0.381929  1
  O  O25  1  0.118051  0.881369  0.601254  1
  O  O26  1  0.111992  0.612029  0.887977  1
  O  O27  1  0.148839  0.131336  0.868136  1
  O  O28  1  0.101222  0.381929  0.118664  1
  O  O29  1  0.138055  0.361922  0.638012  1
  O  O30  1  0.131849  0.648858  0.368672  1
  O  O31  1  0.131291  0.868163  0.148852  1
  O  O32  1  0.368693  0.131833  0.648836  1
  O  O33  1  0.368149  0.351179  0.868685  1
  O  O34  1  0.361930  0.638068  0.137987  1
  O  O35  1  0.398789  0.618054  0.618676  1
  O  O36  1  0.351148  0.868706  0.368136  1
  O  O37  1  0.387958  0.387949  0.387972  1
  O  O38  1  0.381932  0.118692  0.101230  1
  O  O39  1  0.381372  0.898798  0.881920  1
  O  O40  1  0.618659  0.398777  0.618072  1
  O  O41  1  0.618049  0.618637  0.398779  1
  O  O42  1  0.612037  0.887997  0.112046  1
  O  O43  1  0.648832  0.368690  0.131847  1
  O  O44  1  0.601232  0.118062  0.881344  1
  O  O45  1  0.638104  0.138056  0.361968  1
  O  O46  1  0.631856  0.851159  0.631332  1
  O  O47  1  0.631311  0.631836  0.851183  1
  O  O48  1  0.868714  0.368156  0.351140  1
  O  O49  1  0.868165  0.148851  0.131308  1
  O  O50  1  0.861950  0.861907  0.861952  1
  O  O51  1  0.898770  0.881928  0.381358  1
  O  O52  1  0.851160  0.631272  0.631845  1
  O  O53  1  0.887960  0.112025  0.612058  1
  O  O54  1  0.881937  0.381367  0.898764  1
  O  O55  1  0.881317  0.601214  0.118092  1
