# generated using pymatgen
data_FeOF
_symmetry_space_group_name_H-M   'P 1'
_cell_length_a   14.32313583
_cell_length_b   14.41516646
_cell_length_c   3.10876864
_cell_angle_alpha   90.00000000
_cell_angle_beta   90.00000000
_cell_angle_gamma   90.13883600
_symmetry_Int_Tables_number   1
_chemical_formula_structural   FeOF
_chemical_formula_sum   'Fe18 O18 F18'
_cell_volume   641.86678060
_cell_formula_units_Z   18
loop_
 _symmetry_equiv_pos_site_id
 _symmetry_equiv_pos_as_xyz
  1  'x, y, z'
loop_
 _atom_site_type_symbol
 _atom_site_label
 _atom_site_symmetry_multiplicity
 _atom_site_fract_x
 _atom_site_fract_y
 _atom_site_fract_z
 _atom_site_occupancy
  Fe  Fe0  1  0.014175  0.998469  0.000000  1
  Fe  Fe1  1  0.013271  0.331771  0.000000  1
  Fe  Fe2  1  0.003272  0.671244  0.000000  1
  Fe  Fe3  1  0.153477  0.164945  0.500000  1
  Fe  Fe4  1  0.165526  0.485371  0.500000  1
  Fe  Fe5  1  0.152666  0.830328  0.500000  1
  Fe  Fe6  1  0.346655  0.998553  0.000000  1
  Fe  Fe7  1  0.333494  0.345480  0.000000  1
  Fe  Fe8  1  0.347002  0.665117  0.000000  1
  Fe  Fe9  1  0.486776  0.497808  0.500000  1
  Fe  Fe10  1  0.500659  0.152239  0.500000  1
  Fe  Fe11  1  0.486246  0.831692  0.500000  1
  Fe  Fe12  1  0.671540  0.006730  0.000000  1
  Fe  Fe13  1  0.680369  0.331497  0.000000  1
  Fe  Fe14  1  0.680211  0.665548  0.000000  1
  Fe  Fe15  1  0.820331  0.164805  0.500000  1
  Fe  Fe16  1  0.820007  0.497772  0.500000  1
  Fe  Fe17  1  0.815841  0.836956  0.500000  1
  O  O18  1  0.066002  0.270277  0.500000  1
  O  O19  1  0.064274  0.935040  0.500000  1
  O  O20  1  0.102140  0.102780  0.000000  1
  O  O21  1  0.099588  0.438100  0.000000  1
  O  O22  1  0.103524  0.767961  0.000000  1
  O  O23  1  0.269537  0.397383  0.500000  1
  O  O24  1  0.397369  0.600812  0.500000  1
  O  O25  1  0.398253  0.936559  0.500000  1
  O  O26  1  0.436005  0.103763  0.000000  1
  O  O27  1  0.439008  0.432491  0.000000  1
  O  O28  1  0.434843  0.768256  0.000000  1
  O  O29  1  0.603447  0.062415  0.500000  1
  O  O30  1  0.731163  0.269023  0.500000  1
  O  O31  1  0.733611  0.603794  0.500000  1
  O  O32  1  0.727135  0.938843  0.500000  1
  O  O33  1  0.771663  0.102479  0.000000  1
  O  O34  1  0.768980  0.436135  0.000000  1
  O  O35  1  0.765899  0.772905  0.000000  1
  F  F36  1  0.066939  0.599256  0.500000  1
  F  F37  1  0.235065  0.228962  0.000000  1
  F  F38  1  0.229087  0.567599  0.000000  1
  F  F39  1  0.232105  0.899107  0.000000  1
  F  F40  1  0.268459  0.065243  0.500000  1
  F  F41  1  0.269014  0.732149  0.500000  1
  F  F42  1  0.399406  0.267699  0.500000  1
  F  F43  1  0.563744  0.234062  0.000000  1
  F  F44  1  0.565947  0.566086  0.000000  1
  F  F45  1  0.563450  0.894064  0.000000  1
  F  F46  1  0.603096  0.399771  0.500000  1
  F  F47  1  0.602070  0.730746  0.500000  1
  F  F48  1  0.899750  0.233720  0.000000  1
  F  F49  1  0.901016  0.565471  0.000000  1
  F  F50  1  0.896410  0.900355  0.000000  1
  F  F51  1  0.936227  0.065339  0.500000  1
  F  F52  1  0.934350  0.399588  0.500000  1
  F  F53  1  0.929904  0.735442  0.500000  1
