# generated using pymatgen
data_LiVSi3O8
_symmetry_space_group_name_H-M   'P 1'
_cell_length_a   7.67494000
_cell_length_b   12.80143325
_cell_length_c   7.15354638
_cell_angle_alpha   90.00000000
_cell_angle_beta   62.57134192
_cell_angle_gamma   90.00000000
_symmetry_Int_Tables_number   1
_chemical_formula_structural   LiVSi3O8
_chemical_formula_sum   'Li4 V4 Si12 O32'
_cell_volume   623.82816865
_cell_formula_units_Z   4
loop_
 _symmetry_equiv_pos_site_id
 _symmetry_equiv_pos_as_xyz
  1  'x, y, z'
loop_
 _atom_site_type_symbol
 _atom_site_label
 _atom_site_symmetry_multiplicity
 _atom_site_fract_x
 _atom_site_fract_y
 _atom_site_fract_z
 _atom_site_occupancy
  Li  Li0  1  0.942459  0.178855  0.172947  1
  Li  Li1  1  0.442459  0.321145  0.672947  1
  Li  Li2  1  0.557541  0.678855  0.327053  1
  Li  Li3  1  0.057541  0.821145  0.827053  1
  V  V4  1  0.238373  0.031610  0.863029  1
  V  V5  1  0.261627  0.531610  0.636971  1
  V  V6  1  0.738373  0.468390  0.363029  1
  V  V7  1  0.761627  0.968390  0.136971  1
  Si  Si8  1  0.042660  0.843491  0.283144  1
  Si  Si9  1  0.376469  0.910427  0.395832  1
  Si  Si10  1  0.319199  0.121571  0.262569  1
  Si  Si11  1  0.542660  0.656509  0.783144  1
  Si  Si12  1  0.123531  0.410428  0.104168  1
  Si  Si13  1  0.180802  0.621571  0.237431  1
  Si  Si14  1  0.819199  0.378429  0.762569  1
  Si  Si15  1  0.876469  0.589573  0.895832  1
  Si  Si16  1  0.457340  0.343491  0.216856  1
  Si  Si17  1  0.623531  0.089572  0.604168  1
  Si  Si18  1  0.680801  0.878429  0.737431  1
  Si  Si19  1  0.957340  0.156509  0.716856  1
  O  O20  1  0.254165  0.429651  0.855601  1
  O  O21  1  0.360824  0.618416  -0.000010  1
  O  O22  1  0.139176  0.118416  0.500010  1
  O  O23  1  0.245835  0.929651  0.644399  1
  O  O24  1  0.026768  0.716552  0.268925  1
  O  O25  1  0.911684  0.353065  0.179923  1
  O  O26  1  0.960163  0.094042  0.916815  1
  O  O27  1  0.039837  0.905958  0.083185  1
  O  O28  1  0.248224  0.855744  0.294131  1
  O  O29  1  0.217634  0.112528  0.109090  1
  O  O30  1  0.041156  0.518886  0.254302  1
  O  O31  1  0.458844  0.018886  0.245698  1
  O  O32  1  0.411684  0.146935  0.679923  1
  O  O33  1  0.526768  0.783448  0.768925  1
  O  O34  1  0.282366  0.612528  0.390910  1
  O  O35  1  0.251777  0.355744  0.205869  1
  O  O36  1  0.539837  0.594042  0.583185  1
  O  O37  1  0.460163  0.405958  0.416815  1
  O  O38  1  0.717634  0.387472  0.609090  1
  O  O39  1  0.748224  0.644256  0.794131  1
  O  O40  1  0.473232  0.216552  0.231075  1
  O  O41  1  0.588316  0.853065  0.320077  1
  O  O42  1  0.541156  0.981114  0.754302  1
  O  O43  1  0.958844  0.481114  0.745698  1
  O  O44  1  0.751776  0.144256  0.705869  1
  O  O45  1  0.782366  0.887472  0.890910  1
  O  O46  1  0.973232  0.283448  0.731075  1
  O  O47  1  0.088316  0.646935  0.820077  1
  O  O48  1  0.754165  0.070349  0.355601  1
  O  O49  1  0.860824  0.881584  0.499990  1
  O  O50  1  0.639176  0.381584  0.000010  1
  O  O51  1  0.745835  0.570349  0.144399  1
