# generated using pymatgen
data_Ni(IO3)2
_symmetry_space_group_name_H-M   'P 1'
_cell_length_a   6.66021508
_cell_length_b   10.87177240
_cell_length_c   8.08545672
_cell_angle_alpha   90.00000000
_cell_angle_beta   109.34387248
_cell_angle_gamma   90.00000000
_symmetry_Int_Tables_number   1
_chemical_formula_structural   Ni(IO3)2
_chemical_formula_sum   'Ni4 I8 O24'
_cell_volume   552.40420270
_cell_formula_units_Z   4
loop_
 _symmetry_equiv_pos_site_id
 _symmetry_equiv_pos_as_xyz
  1  'x, y, z'
loop_
 _atom_site_type_symbol
 _atom_site_label
 _atom_site_symmetry_multiplicity
 _atom_site_fract_x
 _atom_site_fract_y
 _atom_site_fract_z
 _atom_site_occupancy
  Ni  Ni0  1  0.195047  0.905472  0.085749  1
  Ni  Ni1  1  0.304953  0.405472  0.414251  1
  Ni  Ni2  1  0.695047  0.594528  0.585749  1
  Ni  Ni3  1  0.804953  0.094528  0.914251  1
  I  I4  1  0.288039  0.206420  0.926901  1
  I  I5  1  0.211961  0.706420  0.573099  1
  I  I6  1  0.245679  0.083082  0.476780  1
  I  I7  1  0.254321  0.583082  0.023220  1
  I  I8  1  0.745679  0.416918  0.976780  1
  I  I9  1  0.754321  0.916918  0.523220  1
  I  I10  1  0.788039  0.293580  0.426901  1
  I  I11  1  0.711961  0.793580  0.073099  1
  O  O12  1  0.129956  0.077944  0.981641  1
  O  O13  1  0.040537  0.899167  0.641976  1
  O  O14  1  0.000954  0.609263  0.594725  1
  O  O15  1  0.135697  0.217339  0.693910  1
  O  O16  1  0.364303  0.717339  0.806090  1
  O  O17  1  0.156908  0.718387  0.112892  1
  O  O18  1  0.192085  0.458968  0.156894  1
  O  O19  1  0.499046  0.109263  0.905275  1
  O  O20  1  0.307915  0.958968  0.343106  1
  O  O21  1  0.343092  0.218387  0.387108  1
  O  O22  1  0.459463  0.399167  0.858024  1
  O  O23  1  0.370044  0.577944  0.518359  1
  O  O24  1  0.629956  0.422056  0.481641  1
  O  O25  1  0.540537  0.600833  0.141976  1
  O  O26  1  0.656908  0.781613  0.612892  1
  O  O27  1  0.692085  0.041032  0.656894  1
  O  O28  1  0.500954  0.890737  0.094725  1
  O  O29  1  0.807915  0.541032  0.843106  1
  O  O30  1  0.843092  0.281613  0.887108  1
  O  O31  1  0.635697  0.282661  0.193910  1
  O  O32  1  0.864303  0.782661  0.306090  1
  O  O33  1  0.999046  0.390737  0.405275  1
  O  O34  1  0.959463  0.100833  0.358024  1
  O  O35  1  0.870044  0.922056  0.018359  1
