# generated using pymatgen
data_V4(OF3)3
_symmetry_space_group_name_H-M   'P 1'
_cell_length_a   5.28776941
_cell_length_b   7.20503418
_cell_length_c   5.49268839
_cell_angle_alpha   92.78757494
_cell_angle_beta   90.00000000
_cell_angle_gamma   90.00000000
_symmetry_Int_Tables_number   1
_chemical_formula_structural   V4(OF3)3
_chemical_formula_sum   'V4 O3 F9'
_cell_volume   209.01589469
_cell_formula_units_Z   1
loop_
 _symmetry_equiv_pos_site_id
 _symmetry_equiv_pos_as_xyz
  1  'x, y, z'
loop_
 _atom_site_type_symbol
 _atom_site_label
 _atom_site_symmetry_multiplicity
 _atom_site_fract_x
 _atom_site_fract_y
 _atom_site_fract_z
 _atom_site_occupancy
  V  V0  1  0.500994  0.499516  0.500073  1
  V  V1  1  0.500994  0.000484  0.499927  1
  V  V2  1  0.004881  0.509954  0.999783  1
  V  V3  1  0.004881  0.990046  0.000217  1
  O  O4  1  0.571775  0.250000  0.500000  1
  O  O5  1  0.428124  0.750000  0.500000  1
  O  O6  1  0.087445  0.750000  0.000000  1
  F  F7  1  0.900448  0.250000  0.000000  1
  F  F8  1  0.802932  0.545029  0.304964  1
  F  F9  1  0.802932  0.954971  0.695036  1
  F  F10  1  0.698098  0.953696  0.196486  1
  F  F11  1  0.698098  0.546304  0.803514  1
  F  F12  1  0.301160  0.447982  0.196994  1
  F  F13  1  0.301160  0.052018  0.803006  1
  F  F14  1  0.198039  0.050256  0.303975  1
  F  F15  1  0.198039  0.449744  0.696025  1
