# generated using pymatgen
data_Li3BePCO7
_symmetry_space_group_name_H-M   'P 1'
_cell_length_a   8.15487524
_cell_length_b   4.78967212
_cell_length_c   6.84458468
_cell_angle_alpha   90.00000000
_cell_angle_beta   90.00000000
_cell_angle_gamma   89.86797942
_symmetry_Int_Tables_number   1
_chemical_formula_structural   Li3BePCO7
_chemical_formula_sum   'Li6 Be2 P2 C2 O14'
_cell_volume   267.34314577
_cell_formula_units_Z   2
loop_
 _symmetry_equiv_pos_site_id
 _symmetry_equiv_pos_as_xyz
  1  'x, y, z'
loop_
 _atom_site_type_symbol
 _atom_site_label
 _atom_site_symmetry_multiplicity
 _atom_site_fract_x
 _atom_site_fract_y
 _atom_site_fract_z
 _atom_site_occupancy
  Li  Li0  1  0.979601  0.052245  0.519211  1
  Li  Li1  1  0.181377  0.423051  0.226311  1
  Li  Li2  1  0.539340  0.456687  0.392977  1
  Li  Li3  1  0.460660  0.543313  0.892977  1
  Li  Li4  1  0.818623  0.576949  0.726311  1
  Li  Li5  1  0.020399  0.947755  0.019211  1
  Be  Be6  1  0.300919  0.016268  0.688709  1
  Be  Be7  1  0.699081  0.983732  0.188709  1
  P  P8  1  0.346209  0.959559  0.258354  1
  P  P9  1  0.653791  0.040441  0.758354  1
  C  C10  1  0.149228  0.505366  0.733408  1
  C  C11  1  0.850772  0.494634  0.233408  1
  O  O12  1  0.014159  0.382333  0.689406  1
  O  O13  1  0.150525  0.778550  0.758343  1
  O  O14  1  0.232831  0.082736  0.102132  1
  O  O15  1  0.263047  0.044566  0.456796  1
  O  O16  1  0.281518  0.360233  0.757313  1
  O  O17  1  0.368370  0.642635  0.237148  1
  O  O18  1  0.521474  0.096104  0.254495  1
  O  O19  1  0.478526  0.903896  0.754495  1
  O  O20  1  0.631630  0.357365  0.737148  1
  O  O21  1  0.718482  0.639767  0.257313  1
  O  O22  1  0.736953  0.955434  0.956796  1
  O  O23  1  0.767169  0.917264  0.602132  1
  O  O24  1  0.849475  0.221450  0.258343  1
  O  O25  1  0.985841  0.617667  0.189406  1
