# generated using pymatgen
data_SrTaNO2
_symmetry_space_group_name_H-M   'P 1'
_cell_length_a   5.77452356
_cell_length_b   5.79524273
_cell_length_c   8.06741843
_cell_angle_alpha   90.00000000
_cell_angle_beta   90.00000000
_cell_angle_gamma   89.61593457
_symmetry_Int_Tables_number   1
_chemical_formula_structural   SrTaNO2
_chemical_formula_sum   'Sr4 Ta4 N4 O8'
_cell_volume   269.96820234
_cell_formula_units_Z   4
loop_
 _symmetry_equiv_pos_site_id
 _symmetry_equiv_pos_as_xyz
  1  'x, y, z'
loop_
 _atom_site_type_symbol
 _atom_site_label
 _atom_site_symmetry_multiplicity
 _atom_site_fract_x
 _atom_site_fract_y
 _atom_site_fract_z
 _atom_site_occupancy
  Sr  Sr0  1  0.004330  0.004857  0.246995  1
  Sr  Sr1  1  0.505446  0.505717  0.248877  1
  Sr  Sr2  1  0.494554  0.494283  0.748877  1
  Sr  Sr3  1  0.995670  0.995143  0.746995  1
  Ta  Ta4  1  0.004167  0.483579  0.498495  1
  Ta  Ta5  1  0.995833  0.516421  0.998495  1
  Ta  Ta6  1  0.495365  0.983567  0.997971  1
  Ta  Ta7  1  0.504635  0.016433  0.497971  1
  N  N8  1  0.236393  0.766227  0.000018  1
  N  N9  1  0.263427  0.266289  0.474563  1
  N  N10  1  0.736573  0.733711  0.974563  1
  N  N11  1  0.763607  0.233773  0.500018  1
  O  O12  1  0.222733  0.771444  0.501611  1
  O  O13  1  0.525633  0.969264  0.250902  1
  O  O14  1  0.029457  0.473241  0.750726  1
  O  O15  1  0.276696  0.270509  0.029843  1
  O  O16  1  0.723304  0.729491  0.529843  1
  O  O17  1  0.474367  0.030736  0.750902  1
  O  O18  1  0.970543  0.526759  0.250727  1
  O  O19  1  0.777267  0.228556  0.001611  1
