# generated using pymatgen
data_Li16Fe4SiO16
_symmetry_space_group_name_H-M   'P 1'
_cell_length_a   6.40739834
_cell_length_b   10.96354309
_cell_length_c   5.48009444
_cell_angle_alpha   89.85840957
_cell_angle_beta   90.44638200
_cell_angle_gamma   90.95164821
_symmetry_Int_Tables_number   1
_chemical_formula_structural   Li16Fe4SiO16
_chemical_formula_sum   'Li16 Fe4 Si1 O16'
_cell_volume   384.89867481
_cell_formula_units_Z   1
loop_
 _symmetry_equiv_pos_site_id
 _symmetry_equiv_pos_as_xyz
  1  'x, y, z'
loop_
 _atom_site_type_symbol
 _atom_site_label
 _atom_site_symmetry_multiplicity
 _atom_site_fract_x
 _atom_site_fract_y
 _atom_site_fract_z
 _atom_site_occupancy
  Li  Li0  1  0.019825  0.340882  0.891000  1
  Li  Li1  1  0.015537  0.842262  0.600917  1
  Li  Li2  1  0.242907  0.589040  0.874814  1
  Li  Li3  1  0.232388  0.066223  0.643492  1
  Li  Li4  1  0.221526  0.175699  0.024807  1
  Li  Li5  1  0.294358  0.691147  0.490198  1
  Li  Li6  1  0.484804  0.869457  0.597297  1
  Li  Li7  1  0.522418  0.649656  0.165109  1
  Li  Li8  1  0.514951  0.155040  0.341825  1
  Li  Li9  1  0.549874  0.826050  0.940676  1
  Li  Li10  1  0.760502  0.427920  0.164509  1
  Li  Li11  1  0.753815  0.922863  0.327363  1
  Li  Li12  1  0.843703  0.300726  0.541791  1
  Li  Li13  1  0.938819  0.822933  0.944670  1
  Li  Li14  1  0.980167  0.652214  0.196748  1
  Li  Li15  1  0.992967  0.146392  0.354223  1
  Fe  Fe16  1  0.251566  0.413172  0.336556  1
  Fe  Fe17  1  0.251368  0.917240  0.162454  1
  Fe  Fe18  1  0.740049  0.596407  0.661705  1
  Fe  Fe19  1  0.767214  0.085401  0.861048  1
  Si  Si20  1  0.502706  0.335363  0.829372  1
  O  O21  1  0.005744  0.327883  0.247503  1
  O  O22  1  0.010379  0.828836  0.268455  1
  O  O23  1  0.253731  0.075768  0.296637  1
  O  O24  1  0.299363  0.402655  0.699606  1
  O  O25  1  0.249102  0.571689  0.232783  1
  O  O26  1  0.254446  0.912904  0.812363  1
  O  O27  1  0.457502  0.322459  0.128028  1
  O  O28  1  0.485197  0.824371  0.272990  1
  O  O29  1  0.498445  0.674239  0.777204  1
  O  O30  1  0.532345  0.196482  0.714061  1
  O  O31  1  0.741470  0.571709  0.327199  1
  O  O32  1  0.750268  0.086185  0.198231  1
  O  O33  1  0.726753  0.411844  0.792480  1
  O  O34  1  0.752505  0.923078  0.738739  1
  O  O35  1  0.987729  0.670657  0.782967  1
  O  O36  1  0.004047  0.177356  0.741961  1
