# generated using pymatgen
data_BaB2(HO)8
_symmetry_space_group_name_H-M   'P 1'
_cell_length_a   8.92113707
_cell_length_b   17.99996431
_cell_length_c   11.91972428
_cell_angle_alpha   90.00000000
_cell_angle_beta   109.33991362
_cell_angle_gamma   90.00000000
_symmetry_Int_Tables_number   1
_chemical_formula_structural   BaB2(HO)8
_chemical_formula_sum   'Ba8 B16 H64 O64'
_cell_volume   1806.06098296
_cell_formula_units_Z   8
loop_
 _symmetry_equiv_pos_site_id
 _symmetry_equiv_pos_as_xyz
  1  'x, y, z'
loop_
 _atom_site_type_symbol
 _atom_site_label
 _atom_site_symmetry_multiplicity
 _atom_site_fract_x
 _atom_site_fract_y
 _atom_site_fract_z
 _atom_site_occupancy
  Ba  Ba0  1  0.332114  0.718832  0.199912  1
  Ba  Ba1  1  0.832114  0.781168  0.699912  1
  Ba  Ba2  1  0.667886  0.281168  0.800088  1
  Ba  Ba3  1  0.167886  0.218832  0.300088  1
  Ba  Ba4  1  0.336186  0.575662  0.753284  1
  Ba  Ba5  1  0.836186  0.924338  0.253284  1
  Ba  Ba6  1  0.663814  0.424338  0.246716  1
  Ba  Ba7  1  0.163814  0.075662  0.746716  1
  B  B8  1  0.257006  0.506429  0.060463  1
  B  B9  1  0.757006  0.993571  0.560463  1
  B  B10  1  0.742994  0.493571  0.939537  1
  B  B11  1  0.242994  0.006429  0.439537  1
  B  B12  1  0.184061  0.733831  0.915899  1
  B  B13  1  0.684061  0.766169  0.415899  1
  B  B14  1  0.815939  0.266169  0.084101  1
  B  B15  1  0.315939  0.233831  0.584101  1
  B  B16  1  0.044178  0.520860  0.309328  1
  B  B17  1  0.544178  0.979140  0.809328  1
  B  B18  1  0.955822  0.479140  0.690672  1
  B  B19  1  0.455822  0.020860  0.190672  1
  B  B20  1  0.344353  0.798156  0.579378  1
  B  B21  1  0.844353  0.701844  0.079378  1
  B  B22  1  0.655647  0.201844  0.420622  1
  B  B23  1  0.155647  0.298156  0.920622  1
  H  H24  1  0.224544  0.563120  0.195657  1
  H  H25  1  0.724544  0.936880  0.695657  1
  H  H26  1  0.775456  0.436880  0.804343  1
  H  H27  1  0.275456  0.063120  0.304343  1
  H  H28  1  0.095333  0.437132  0.201890  1
  H  H29  1  0.595333  0.062868  0.701890  1
  H  H30  1  0.904667  0.562868  0.798110  1
  H  H31  1  0.404667  0.937132  0.298110  1
  H  H32  1  0.004890  0.248185  0.784890  1
  H  H33  1  0.504890  0.251815  0.284890  1
  H  H34  1  0.995110  0.751815  0.215110  1
  H  H35  1  0.495110  0.748185  0.715110  1
  H  H36  1  0.388944  0.449446  0.392851  1
  H  H37  1  0.888944  0.050554  0.892851  1
  H  H38  1  0.611056  0.550554  0.607149  1
  H  H39  1  0.111056  0.949446  0.107149  1
  H  H40  1  0.429384  0.776772  0.838191  1
  H  H41  1  0.929384  0.723228  0.338191  1
  H  H42  1  0.570616  0.223228  0.161809  1
  H  H43  1  0.070616  0.276772  0.661809  1
  H  H44  1  0.439128  0.770835  0.028336  1
  H  H45  1  0.939128  0.729165  0.528336  1
  H  H46  1  0.560872  0.229165  0.971664  1
  H  H47  1  0.060872  0.270835  0.471664  1
  H  H48  1  0.587889  0.076263  0.117420  1
  H  H49  1  0.087889  0.423737  0.617420  1
  H  H50  1  0.412111  0.923737  0.882580  1
  H  H51  1  0.912111  0.576263  0.382580  1
  H  H52  1  0.191809  0.161101  0.984866  1
  H  H53  1  0.691809  0.338899  0.484866  1
  H  H54  1  0.808191  0.838899  0.015134  1
  H  H55  1  0.308191  0.661101  0.515134  1
  H  H56  1  0.019030  0.719059  0.572545  1
  H  H57  1  0.519030  0.780941  0.072545  1
  H  H58  1  0.980970  0.280941  0.427455  1
  H  H59  1  0.480970  0.219059  0.927455  1
  H  H60  1  0.532060  0.627080  0.552683  1
  H  H61  1  0.032060  0.872920  0.052683  1
  H  H62  1  0.467940  0.372920  0.447317  1
  H  H63  1  0.967940  0.127080  0.947317  1
  H  H64  1  0.753067  0.222342  0.376307  1
  H  H65  1  0.253067  0.277658  0.876307  1
  H  H66  1  0.246933  0.777658  0.623693  1
  H  H67  1  0.746933  0.722342  0.123693  1
  H  H68  1  0.803118  0.397477  0.556134  1
  H  H69  1  0.303118  0.102523  0.056134  1
  H  H70  1  0.196882  0.602523  0.443866  1
  H  H71  1  0.696882  0.897477  0.943866  1
  H  H72  1  0.196565  0.449527  0.915937  1
  H  H73  1  0.696565  0.050473  0.415937  1
  H  H74  1  0.803435  0.550473  0.084063  1
  H  H75  1  0.303435  0.949527  0.584063  1
  H  H76  1  0.114988  0.859993  0.852195  1
  H  H77  1  0.614988  0.640007  0.352195  1
  H  H78  1  0.885012  0.140007  0.147805  1
  H  H79  1  0.385012  0.359993  0.647805  1
  H  H80  1  0.516142  0.783767  0.871083  1
  H  H81  1  0.016142  0.716233  0.371083  1
  H  H82  1  0.483858  0.216233  0.128917  1
  H  H83  1  0.983858  0.283767  0.628917  1
  H  H84  1  0.217471  0.894477  0.425196  1
  H  H85  1  0.717471  0.605523  0.925196  1
  H  H86  1  0.782529  0.105523  0.574804  1
  H  H87  1  0.282529  0.394477  0.074804  1
  O  O88  1  0.666963  0.553740  0.875806  1
  O  O89  1  0.166963  0.946260  0.375806  1
  O  O90  1  0.333037  0.446260  0.124194  1
  O  O91  1  0.833037  0.053740  0.624194  1
  O  O92  1  0.234132  0.571342  0.114837  1
  O  O93  1  0.734132  0.928658  0.614837  1
  O  O94  1  0.765868  0.428658  0.885163  1
  O  O95  1  0.265868  0.071342  0.385163  1
  O  O96  1  0.483778  0.622948  0.026021  1
  O  O97  1  0.983778  0.877052  0.526021  1
  O  O98  1  0.516222  0.377052  0.973979  1
  O  O99  1  0.016222  0.122948  0.473979  1
  O  O100  1  0.433814  0.401121  0.871305  1
  O  O101  1  0.933814  0.098879  0.371306  1
  O  O102  1  0.566186  0.598879  0.128694  1
  O  O103  1  0.066186  0.901121  0.628695  1
  O  O104  1  0.816847  0.659320  0.985013  1
  O  O105  1  0.316846  0.840680  0.485013  1
  O  O106  1  0.183153  0.340680  0.014987  1
  O  O107  1  0.683153  0.159320  0.514987  1
  O  O108  1  0.172783  0.755188  0.813731  1
  O  O109  1  0.672783  0.744812  0.313731  1
  O  O110  1  0.827217  0.244812  0.186269  1
  O  O111  1  0.327217  0.255188  0.686269  1
  O  O112  1  0.804112  0.497512  0.064481  1
  O  O113  1  0.304112  0.002488  0.564481  1
  O  O114  1  0.195888  0.502488  0.935519  1
  O  O115  1  0.695888  0.997512  0.435519  1
  O  O116  1  0.931210  0.556641  0.724686  1
  O  O117  1  0.431210  0.943359  0.224686  1
  O  O118  1  0.068790  0.443359  0.275314  1
  O  O119  1  0.568790  0.056641  0.775314  1
  O  O120  1  0.912546  0.527335  0.347228  1
  O  O121  1  0.412546  0.972665  0.847228  1
  O  O122  1  0.087454  0.472665  0.652772  1
  O  O123  1  0.587454  0.027335  0.152772  1
  O  O124  1  0.152561  0.568390  0.306191  1
  O  O125  1  0.652561  0.931610  0.806191  1
  O  O126  1  0.847439  0.431610  0.693809  1
  O  O127  1  0.347439  0.068390  0.193809  1
  O  O128  1  0.518538  0.618239  0.362369  1
  O  O129  1  0.018538  0.881761  0.862369  1
  O  O130  1  0.481462  0.381761  0.637631  1
  O  O131  1  0.981462  0.118239  0.137631  1
  O  O132  1  0.558863  0.594078  0.625686  1
  O  O133  1  0.058863  0.905922  0.125686  1
  O  O134  1  0.441137  0.405922  0.374314  1
  O  O135  1  0.941137  0.094078  0.874314  1
  O  O136  1  0.532954  0.878855  0.218423  1
  O  O137  1  0.032954  0.621145  0.718423  1
  O  O138  1  0.467046  0.121145  0.781577  1
  O  O139  1  0.967046  0.378855  0.281577  1
  O  O140  1  0.223145  0.628719  0.522395  1
  O  O141  1  0.723145  0.871281  0.022395  1
  O  O142  1  0.776855  0.371281  0.477605  1
  O  O143  1  0.276855  0.128719  0.977605  1
  O  O144  1  0.500240  0.769553  0.641388  1
  O  O145  1  0.000240  0.730447  0.141388  1
  O  O146  1  0.499760  0.230447  0.358612  1
  O  O147  1  -0.000240  0.269553  0.858612  1
  O  O148  1  0.482941  0.678953  0.436096  1
  O  O149  1  0.982941  0.821047  0.936096  1
  O  O150  1  0.517059  0.321047  0.563904  1
  O  O151  1  0.017059  0.178953  0.063904  1
