# generated using pymatgen
data_Mn12O7F17
_symmetry_space_group_name_H-M   'P 1'
_cell_length_a   4.83184668
_cell_length_b   5.82377041
_cell_length_c   15.75863233
_cell_angle_alpha   90.63555047
_cell_angle_beta   89.10096751
_cell_angle_gamma   92.12044176
_symmetry_Int_Tables_number   1
_chemical_formula_structural   Mn12O7F17
_chemical_formula_sum   'Mn12 O7 F17'
_cell_volume   443.05835664
_cell_formula_units_Z   1
loop_
 _symmetry_equiv_pos_site_id
 _symmetry_equiv_pos_as_xyz
  1  'x, y, z'
loop_
 _atom_site_type_symbol
 _atom_site_label
 _atom_site_symmetry_multiplicity
 _atom_site_fract_x
 _atom_site_fract_y
 _atom_site_fract_z
 _atom_site_occupancy
  Mn  Mn0  1  0.042741  0.164449  0.411373  1
  Mn  Mn1  1  0.994481  0.832997  0.246092  1
  Mn  Mn2  1  0.955839  0.185477  0.078572  1
  Mn  Mn3  1  0.054380  0.159584  0.752894  1
  Mn  Mn4  1  0.995607  0.855032  0.587890  1
  Mn  Mn5  1  0.029621  0.845149  0.912024  1
  Mn  Mn6  1  0.472063  0.324202  0.581472  1
  Mn  Mn7  1  0.507229  0.361256  0.916113  1
  Mn  Mn8  1  0.489385  0.341483  0.250891  1
  Mn  Mn9  1  0.519766  0.639219  0.087464  1
  Mn  Mn10  1  0.498916  0.646205  0.420534  1
  Mn  Mn11  1  0.467563  0.655618  0.753174  1
  O  O12  1  0.233895  0.121507  0.305022  1
  O  O13  1  0.207863  0.113707  0.640489  1
  O  O14  1  0.232594  0.883095  0.801847  1
  O  O15  1  0.291516  0.369917  0.471913  1
  O  O16  1  0.290732  0.400114  0.813771  1
  O  O17  1  0.699988  0.399643  0.022818  1
  O  O18  1  0.708434  0.588396  0.192066  1
  F  F19  1  0.240147  0.131267  0.969964  1
  F  F20  1  0.246544  0.864028  0.134244  1
  F  F21  1  0.236954  0.877323  0.477682  1
  F  F22  1  0.244694  0.367739  0.147211  1
  F  F23  1  0.263534  0.614220  0.308974  1
  F  F24  1  0.252077  0.611174  0.637480  1
  F  F25  1  0.279230  0.631368  0.982611  1
  F  F26  1  0.737713  0.391107  0.355062  1
  F  F27  1  0.732537  0.612445  0.534399  1
  F  F28  1  0.742564  0.615324  0.862385  1
  F  F29  1  0.703408  0.388423  0.691399  1
  F  F30  1  0.746334  0.094806  0.193467  1
  F  F31  1  0.790239  0.120730  0.517870  1
  F  F32  1  0.783123  0.890960  0.367133  1
  F  F33  1  0.778222  0.891335  0.020111  1
  F  F34  1  0.793462  0.130947  0.857386  1
  F  F35  1  0.736604  0.879755  0.696199  1
