# generated using pymatgen
data_Ca8MgAl6Si5O28
_symmetry_space_group_name_H-M   'P 1'
_cell_length_a   12.29702766
_cell_length_b   8.51200427
_cell_length_c   9.05354721
_cell_angle_alpha   77.57295662
_cell_angle_beta   49.32194854
_cell_angle_gamma   62.56119101
_symmetry_Int_Tables_number   1
_chemical_formula_structural   Ca8MgAl6Si5O28
_chemical_formula_sum   'Ca8 Mg1 Al6 Si5 O28'
_cell_volume   632.71172998
_cell_formula_units_Z   1
loop_
 _symmetry_equiv_pos_site_id
 _symmetry_equiv_pos_as_xyz
  1  'x, y, z'
loop_
 _atom_site_type_symbol
 _atom_site_label
 _atom_site_symmetry_multiplicity
 _atom_site_fract_x
 _atom_site_fract_y
 _atom_site_fract_z
 _atom_site_occupancy
  Ca  Ca0  1  0.773686  0.485832  0.049443  1
  Ca  Ca1  1  0.109287  0.682929  0.348195  1
  Ca  Ca2  1  0.178675  0.363972  0.645042  1
  Ca  Ca3  1  0.625295  0.187115  0.034256  1
  Ca  Ca4  1  0.107056  0.920218  0.653281  1
  Ca  Ca5  1  0.791790  0.829526  0.296206  1
  Ca  Ca6  1  0.839764  0.188676  0.505099  1
  Ca  Ca7  1  0.297512  0.983441  0.036202  1
  Mg  Mg8  1  0.477044  0.922835  0.271967  1
  Al  Al9  1  0.175254  0.692838  0.950463  1
  Al  Al10  1  0.876886  0.521448  0.620066  1
  Al  Al11  1  0.985562  0.099587  0.073560  1
  Al  Al12  1  0.250800  0.225210  0.290759  1
  Al  Al13  1  0.583542  0.325620  0.444916  1
  Al  Al14  1  0.554691  0.533307  0.861906  1
  Si  Si15  1  0.479393  0.722705  0.596399  1
  Si  Si16  1  0.968427  0.443395  0.220097  1
  Si  Si17  1  0.392883  0.367161  0.863467  1
  Si  Si18  1  0.414612  0.572963  0.292810  1
  Si  Si19  1  0.802192  0.827043  0.761882  1
  O  O20  1  0.444193  0.268160  0.671242  1
  O  O21  1  0.494870  0.728848  0.767790  1
  O  O22  1  0.229966  0.024068  0.337225  1
  O  O23  1  0.397656  0.574636  0.122905  1
  O  O24  1  0.104809  0.881647  0.109171  1
  O  O25  1  0.090678  0.414936  0.462061  1
  O  O26  1  0.907108  0.945791  0.646919  1
  O  O27  1  0.022945  0.220674  0.871097  1
  O  O28  1  0.388856  0.186948  0.320785  1
  O  O29  1  0.569369  0.328489  0.806886  1
  O  O30  1  0.500871  0.693627  0.238418  1
  O  O31  1  0.234172  0.620234  0.496746  1
  O  O32  1  0.905042  0.984008  0.009087  1
  O  O33  1  0.003544  0.785272  0.945854  1
  O  O34  1  0.548930  0.369986  0.273290  1
  O  O35  1  0.806776  0.767499  0.590026  1
  O  O36  1  0.855893  0.560169  0.165496  1
  O  O37  1  0.542698  0.860623  0.440732  1
  O  O38  1  0.637326  0.933429  0.974992  1
  O  O39  1  0.051821  0.224195  0.148577  1
  O  O40  1  0.577256  0.515193  0.500709  1
  O  O41  1  0.783854  0.165139  0.316412  1
  O  O42  1  0.289079  0.786696  0.716071  1
  O  O43  1  0.730663  0.449229  0.830888  1
  O  O44  1  0.058624  0.571020  0.167450  1
  O  O45  1  0.330281  0.237633  0.040326  1
  O  O46  1  0.864225  0.444097  0.461344  1
  O  O47  1  0.897161  0.619802  0.779127  1
