# generated using pymatgen
data_Li24Ti11CrO36
_symmetry_space_group_name_H-M   'P 1'
_cell_length_a   8.85234381
_cell_length_b   8.81933752
_cell_length_c   10.69775329
_cell_angle_alpha   114.34343420
_cell_angle_beta   97.48248969
_cell_angle_gamma   60.12326144
_symmetry_Int_Tables_number   1
_chemical_formula_structural   Li24Ti11CrO36
_chemical_formula_sum   'Li24 Ti11 Cr1 O36'
_cell_volume   656.81865774
_cell_formula_units_Z   1
loop_
 _symmetry_equiv_pos_site_id
 _symmetry_equiv_pos_as_xyz
  1  'x, y, z'
loop_
 _atom_site_type_symbol
 _atom_site_label
 _atom_site_symmetry_multiplicity
 _atom_site_fract_x
 _atom_site_fract_y
 _atom_site_fract_z
 _atom_site_occupancy
  Li  Li0  1  0.166255  0.004139  0.998954  1
  Li  Li1  1  0.083305  0.083375  0.749924  1
  Li  Li2  1  0.000247  0.500474  0.498751  1
  Li  Li3  1  0.334526  0.171078  0.500082  1
  Li  Li4  1  0.248951  0.251329  0.250473  1
  Li  Li5  1  0.498808  0.338853  0.999918  1
  Li  Li6  1  0.166544  0.328650  0.001004  1
  Li  Li7  1  0.500024  0.000136  0.999887  1
  Li  Li8  1  0.416667  0.416692  0.750000  1
  Li  Li9  1  0.332739  0.494651  0.499934  1
  Li  Li10  1  0.666024  0.168502  0.500841  1
  Li  Li11  1  0.000657  0.836717  0.499626  1
  Li  Li12  1  0.167310  0.667017  0.999159  1
  Li  Li13  1  0.998899  0.162116  0.499276  1
  Li  Li14  1  0.333310  0.833605  0.500113  1
  Li  Li15  1  0.667078  0.504773  0.501046  1
  Li  Li16  1  0.584382  0.583140  0.249527  1
  Li  Li17  1  0.832677  0.671081  0.000374  1
  Li  Li18  1  0.500595  0.660789  0.000066  1
  Li  Li19  1  0.833086  0.335302  0.001249  1
  Li  Li20  1  0.750028  0.750089  0.750076  1
  Li  Li21  1  0.666789  0.827524  0.498996  1
  Li  Li22  1  0.916667  0.916559  0.250000  1
  Li  Li23  1  0.834434  0.995073  0.000724  1
  Ti  Ti24  1  0.083287  0.415658  0.749798  1
  Ti  Ti25  1  0.416667  0.084161  0.750000  1
  Ti  Ti26  1  0.083121  0.750784  0.749791  1
  Ti  Ti27  1  0.750046  0.082481  0.750202  1
  Ti  Ti28  1  0.250720  0.581185  0.252958  1
  Ti  Ti29  1  0.584466  0.249122  0.249825  1
  Ti  Ti30  1  0.416667  0.748811  0.750000  1
  Ti  Ti31  1  0.750213  0.417447  0.750209  1
  Ti  Ti32  1  0.248868  0.917096  0.250175  1
  Ti  Ti33  1  0.916667  0.252411  0.250000  1
  Ti  Ti34  1  0.582613  0.912281  0.247042  1
  Cr  Cr35  1  0.916667  0.587592  0.250000  1
  O  O36  1  0.308585  0.028276  0.865399  1
  O  O37  1  0.215549  0.139051  0.637193  1
  O  O38  1  0.117866  0.194173  0.362876  1
  O  O39  1  0.284378  0.361055  0.863190  1
  O  O40  1  0.024345  0.309202  0.136685  1
  O  O41  1  0.617785  0.050741  0.862807  1
  O  O42  1  0.191344  0.471665  0.634702  1
  O  O43  1  0.548955  0.115577  0.636810  1
  O  O44  1  0.119900  0.549559  0.362970  1
  O  O45  1  0.477659  0.193507  0.365475  1
  O  O46  1  0.951469  0.027712  0.863045  1
  O  O47  1  0.044098  0.615279  0.138490  1
  O  O48  1  0.284635  0.717313  0.862895  1
  O  O49  1  0.641989  0.361642  0.865298  1
  O  O50  1  0.382091  0.305706  0.137014  1
  O  O51  1  0.215465  0.782418  0.636979  1
  O  O52  1  0.857698  0.138347  0.634541  1
  O  O53  1  0.548699  0.472385  0.637105  1
  O  O54  1  0.450196  0.528267  0.363320  1
  O  O55  1  0.141153  0.862263  0.365318  1
  O  O56  1  0.784623  0.218843  0.363215  1
  O  O57  1  0.617868  0.694236  0.863021  1
  O  O58  1  0.355675  0.639023  0.134525  1
  O  O59  1  0.715468  0.282495  0.137124  1
  O  O60  1  0.951158  0.383862  0.862602  1
  O  O61  1  0.048711  0.973584  0.136785  1
  O  O62  1  0.524748  0.804796  0.634601  1
  O  O63  1  0.881865  0.449470  0.636955  1
  O  O64  1  0.451243  0.884116  0.362986  1
  O  O65  1  0.808988  0.530196  0.363315  1
  O  O66  1  0.383137  0.948478  0.136680  1
  O  O67  1  0.975635  0.694839  0.865459  1
  O  O68  1  0.713433  0.639822  0.137030  1
  O  O69  1  0.882175  0.805752  0.637398  1
  O  O70  1  0.789235  0.854220  0.361510  1
  O  O71  1  0.692180  0.971433  0.134682  1
