# generated using pymatgen
data_Na2FeBPO7
_symmetry_space_group_name_H-M   'P 1'
_cell_length_a   9.07968972
_cell_length_b   6.64449832
_cell_length_c   5.28717934
_cell_angle_alpha   90.00000000
_cell_angle_beta   88.65551890
_cell_angle_gamma   90.00000000
_symmetry_Int_Tables_number   1
_chemical_formula_structural   Na2FeBPO7
_chemical_formula_sum   'Na4 Fe2 B2 P2 O14'
_cell_volume   318.88762478
_cell_formula_units_Z   2
loop_
 _symmetry_equiv_pos_site_id
 _symmetry_equiv_pos_as_xyz
  1  'x, y, z'
loop_
 _atom_site_type_symbol
 _atom_site_label
 _atom_site_symmetry_multiplicity
 _atom_site_fract_x
 _atom_site_fract_y
 _atom_site_fract_z
 _atom_site_occupancy
  Na  Na0  1  0.233724  0.496527  0.238289  1
  Na  Na1  1  0.233724  0.003473  0.238289  1
  Na  Na2  1  0.766276  0.503473  0.761711  1
  Na  Na3  1  0.766276  0.996527  0.761711  1
  Fe  Fe4  1  0.349933  0.750000  0.779277  1
  Fe  Fe5  1  0.650067  0.250000  0.220723  1
  B  B6  1  0.081313  0.750000  0.726936  1
  B  B7  1  0.918687  0.250000  0.273064  1
  P  P8  1  0.427666  0.250000  0.722524  1
  P  P9  1  0.572334  0.750000  0.277476  1
  O  O10  1  0.064775  0.250000  0.299679  1
  O  O11  1  0.146883  0.750000  0.959073  1
  O  O12  1  0.186158  0.750000  0.531986  1
  O  O13  1  0.336568  0.060281  0.789882  1
  O  O14  1  0.336568  0.439719  0.789882  1
  O  O15  1  0.425127  0.750000  0.131906  1
  O  O16  1  0.465794  0.250000  0.430675  1
  O  O17  1  0.534206  0.750000  0.569325  1
  O  O18  1  0.574873  0.250000  0.868094  1
  O  O19  1  0.663432  0.560281  0.210118  1
  O  O20  1  0.663432  0.939719  0.210118  1
  O  O21  1  0.813842  0.250000  0.468014  1
  O  O22  1  0.853117  0.250000  0.040927  1
  O  O23  1  0.935225  0.750000  0.700321  1
