# generated using pymatgen
data_Li3MnV(PO4)3
_symmetry_space_group_name_H-M   'P 1'
_cell_length_a   9.03844992
_cell_length_b   8.54316899
_cell_length_c   8.54316846
_cell_angle_alpha   120.00000346
_cell_angle_beta   90.00000075
_cell_angle_gamma   61.79670799
_symmetry_Int_Tables_number   1
_chemical_formula_structural   Li3MnV(PO4)3
_chemical_formula_sum   'Li6 Mn2 V2 P6 O24'
_cell_volume   478.73159320
_cell_formula_units_Z   2
loop_
 _symmetry_equiv_pos_site_id
 _symmetry_equiv_pos_as_xyz
  1  'x, y, z'
loop_
 _atom_site_type_symbol
 _atom_site_label
 _atom_site_symmetry_multiplicity
 _atom_site_fract_x
 _atom_site_fract_y
 _atom_site_fract_z
 _atom_site_occupancy
  Li  Li0  1  0.147385  0.187319  0.915916  1
  Li  Li1  1  0.147385  0.581212  0.665296  1
  Li  Li2  1  0.147385  0.936698  0.271402  1
  Li  Li3  1  0.852615  0.063302  0.728598  1
  Li  Li4  1  0.852615  0.418788  0.334704  1
  Li  Li5  1  0.852615  0.812681  0.084084  1
  Mn  Mn6  1  0.049506  0.300329  0.650165  1
  Mn  Mn7  1  0.950494  0.699671  0.349835  1
  V  V8  1  0.552896  0.298069  0.149035  1
  V  V9  1  0.447104  0.701931  0.850965  1
  P  P10  1  0.251590  0.205157  0.241714  1
  P  P11  1  0.251590  0.506696  0.963444  1
  P  P12  1  0.251590  0.784966  0.543252  1
  P  P13  1  0.748410  0.215034  0.456748  1
  P  P14  1  0.748410  0.493304  0.036556  1
  P  P15  1  0.748410  0.794843  0.758286  1
  O  O16  1  0.096001  0.347873  0.198666  1
  O  O17  1  0.207584  0.292653  0.452885  1
  O  O18  1  0.207584  0.339532  0.839768  1
  O  O19  1  0.096001  0.705332  0.149207  1
  O  O20  1  0.096001  0.754793  0.556125  1
  O  O21  1  0.421110  0.190805  0.178489  1
  O  O22  1  0.282903  0.600500  0.858845  1
  O  O23  1  0.421110  0.400401  0.012317  1
  O  O24  1  0.207584  0.952648  0.499764  1
  O  O25  1  0.282903  0.858252  0.741654  1
  O  O26  1  0.421110  0.566573  0.388084  1
  O  O27  1  0.282903  0.975443  0.116598  1
  O  O28  1  0.717097  0.024557  0.883402  1
  O  O29  1  0.578890  0.433427  0.611916  1
  O  O30  1  0.717097  0.141748  0.258346  1
  O  O31  1  0.792416  0.047352  0.500236  1
  O  O32  1  0.578890  0.599599  0.987683  1
  O  O33  1  0.717097  0.399500  0.141155  1
  O  O34  1  0.578890  0.809195  0.821511  1
  O  O35  1  0.903999  0.245207  0.443875  1
  O  O36  1  0.903999  0.294668  0.850793  1
  O  O37  1  0.792416  0.660468  0.160232  1
  O  O38  1  0.792416  0.707347  0.547115  1
  O  O39  1  0.903999  0.652127  0.801334  1
