# generated using pymatgen
data_Li2Fe3CuO8
_symmetry_space_group_name_H-M   'P 1'
_cell_length_a   5.90426593
_cell_length_b   5.90426617
_cell_length_c   5.90426598
_cell_angle_alpha   60.20988584
_cell_angle_beta   60.20988978
_cell_angle_gamma   60.20989834
_symmetry_Int_Tables_number   1
_chemical_formula_structural   Li2Fe3CuO8
_chemical_formula_sum   'Li2 Fe3 Cu1 O8'
_cell_volume   146.23179672
_cell_formula_units_Z   1
loop_
 _symmetry_equiv_pos_site_id
 _symmetry_equiv_pos_as_xyz
  1  'x, y, z'
loop_
 _atom_site_type_symbol
 _atom_site_label
 _atom_site_symmetry_multiplicity
 _atom_site_fract_x
 _atom_site_fract_y
 _atom_site_fract_z
 _atom_site_occupancy
  Li  Li0  1  0.118996  0.118996  0.118996  1
  Li  Li1  1  0.498094  0.498094  0.498094  1
  Fe  Fe2  1  0.007915  0.497136  0.497136  1
  Fe  Fe3  1  0.497136  0.007915  0.497136  1
  Fe  Fe4  1  0.497136  0.497136  0.007915  1
  Cu  Cu5  1  0.879611  0.879611  0.879611  1
  O  O6  1  0.255415  0.255415  0.255415  1
  O  O7  1  0.253119  0.253119  0.708906  1
  O  O8  1  0.253119  0.708906  0.253119  1
  O  O9  1  0.708906  0.253119  0.253119  1
  O  O10  1  0.284346  0.749435  0.749435  1
  O  O11  1  0.749435  0.284346  0.749435  1
  O  O12  1  0.749435  0.749435  0.284346  1
  O  O13  1  0.747335  0.747335  0.747335  1
