# generated using pymatgen
data_Na2Ni3O5
_symmetry_space_group_name_H-M   'P 1'
_cell_length_a   5.17042366
_cell_length_b   6.11480134
_cell_length_c   6.92372837
_cell_angle_alpha   104.76177140
_cell_angle_beta   98.73178601
_cell_angle_gamma   106.17568630
_symmetry_Int_Tables_number   1
_chemical_formula_structural   Na2Ni3O5
_chemical_formula_sum   'Na4 Ni6 O10'
_cell_volume   197.35995901
_cell_formula_units_Z   2
loop_
 _symmetry_equiv_pos_site_id
 _symmetry_equiv_pos_as_xyz
  1  'x, y, z'
loop_
 _atom_site_type_symbol
 _atom_site_label
 _atom_site_symmetry_multiplicity
 _atom_site_fract_x
 _atom_site_fract_y
 _atom_site_fract_z
 _atom_site_occupancy
  Na  Na0  1  0.800538  0.099180  0.605405  1
  Na  Na1  1  0.599462  0.700820  0.194595  1
  Na  Na2  1  0.406707  0.303201  0.806137  1
  Na  Na3  1  0.993293  0.496799  0.993863  1
  Ni  Ni4  1  0.800525  0.602388  0.593497  1
  Ni  Ni5  1  0.599475  0.197612  0.206503  1
  Ni  Ni6  1  0.402784  0.800374  0.793731  1
  Ni  Ni7  1  0.200000  0.400000  0.400000  1
  Ni  Ni8  1  0.200000  0.900000  0.400000  1
  Ni  Ni9  1  0.997216  0.999626  0.006269  1
  O  O10  1  0.934282  0.084786  0.308984  1
  O  O11  1  0.922783  0.533017  0.319012  1
  O  O12  1  0.694070  0.108736  0.919618  1
  O  O13  1  0.705930  0.691264  0.880382  1
  O  O14  1  0.477217  0.266983  0.480988  1
  O  O15  1  0.465718  0.715214  0.491016  1
  O  O16  1  0.270923  0.318256  0.127982  1
  O  O17  1  0.276589  0.875306  0.100586  1
  O  O18  1  0.129077  0.481744  0.672018  1
  O  O19  1  0.123411  0.924694  0.699414  1
