# generated using pymatgen
data_ThH20C4S2N8O15
_symmetry_space_group_name_H-M   'P 1'
_cell_length_a   9.08642216
_cell_length_b   9.08642216
_cell_length_c   32.36221583
_cell_angle_alpha   86.61233822
_cell_angle_beta   93.38766178
_cell_angle_gamma   125.94170516
_symmetry_Int_Tables_number   1
_chemical_formula_structural   ThH20C4S2N8O15
_chemical_formula_sum   'Th4 H80 C16 S8 N32 O60'
_cell_volume   2158.46355522
_cell_formula_units_Z   4
loop_
 _symmetry_equiv_pos_site_id
 _symmetry_equiv_pos_as_xyz
  1  'x, y, z'
loop_
 _atom_site_type_symbol
 _atom_site_label
 _atom_site_symmetry_multiplicity
 _atom_site_fract_x
 _atom_site_fract_y
 _atom_site_fract_z
 _atom_site_occupancy
  Th  Th0  1  0.155880  0.686315  0.621139  1
  Th  Th1  1  0.686315  0.155880  0.878861  1
  Th  Th2  1  0.844120  0.313685  0.378861  1
  Th  Th3  1  0.313685  0.844120  0.121139  1
  H  H4  1  0.388338  0.182533  0.733974  1
  H  H5  1  0.182533  0.388338  0.766026  1
  H  H6  1  0.611662  0.817467  0.266026  1
  H  H7  1  0.817467  0.611662  0.233974  1
  H  H8  1  0.370870  0.989049  0.720517  1
  H  H9  1  0.989049  0.370870  0.779483  1
  H  H10  1  0.629130  0.010951  0.279483  1
  H  H11  1  0.010951  0.629130  0.220517  1
  H  H12  1  0.274199  0.305498  0.683375  1
  H  H13  1  0.305498  0.274199  0.816625  1
  H  H14  1  0.725801  0.694502  0.316625  1
  H  H15  1  0.694502  0.725801  0.183375  1
  H  H16  1  0.202672  0.208282  0.634561  1
  H  H17  1  0.208282  0.202672  0.865439  1
  H  H18  1  0.797328  0.791718  0.365439  1
  H  H19  1  0.791718  0.797328  0.134561  1
  H  H20  1  0.656640  0.334055  0.576827  1
  H  H21  1  0.334055  0.656640  0.923173  1
  H  H22  1  0.343360  0.665945  0.423173  1
  H  H23  1  0.665945  0.343360  0.076827  1
  H  H24  1  0.466615  0.181700  0.607299  1
  H  H25  1  0.181700  0.466615  0.892701  1
  H  H26  1  0.533385  0.818300  0.392701  1
  H  H27  1  0.818300  0.533385  0.107299  1
  H  H28  1  0.770807  0.211919  0.534933  1
  H  H29  1  0.211919  0.770807  0.965067  1
  H  H30  1  0.229193  0.788081  0.465067  1
  H  H31  1  0.788081  0.229193  0.034933  1
  H  H32  1  0.627160  0.976895  0.528937  1
  H  H33  1  0.976895  0.627160  0.971063  1
  H  H34  1  0.372840  0.023105  0.471063  1
  H  H35  1  0.023105  0.372840  0.028937  1
  H  H36  1  0.547514  0.631118  0.635356  1
  H  H37  1  0.631118  0.547514  0.864644  1
  H  H38  1  0.452486  0.368882  0.364644  1
  H  H39  1  0.368882  0.452486  0.135356  1
  H  H40  1  0.673329  0.619631  0.597762  1
  H  H41  1  0.619631  0.673329  0.902238  1
  H  H42  1  0.326671  0.380369  0.402238  1
  H  H43  1  0.380369  0.326671  0.097762  1
  H  H44  1  0.607321  0.595901  0.707013  1
  H  H45  1  0.595901  0.607321  0.792987  1
  H  H46  1  0.392679  0.404099  0.292987  1
  H  H47  1  0.404099  0.392679  0.207013  1
  H  H48  1  0.793750  0.591058  0.719805  1
  H  H49  1  0.591058  0.793750  0.780195  1
  H  H50  1  0.206250  0.408942  0.280195  1
  H  H51  1  0.408942  0.206250  0.219805  1
  H  H52  1  0.694440  0.955605  0.653064  1
  H  H53  1  0.955605  0.694440  0.846936  1
  H  H54  1  0.305560  0.044395  0.346936  1
  H  H55  1  0.044395  0.305560  0.153064  1
  H  H56  1  0.870842  0.070411  0.616433  1
  H  H57  1  0.070411  0.870842  0.883567  1
  H  H58  1  0.129158  0.929589  0.383567  1
  H  H59  1  0.929589  0.129158  0.116433  1
  H  H60  1  0.710789  0.132006  0.707967  1
  H  H61  1  0.132006  0.710789  0.792033  1
  H  H62  1  0.289211  0.867994  0.292033  1
  H  H63  1  0.867994  0.289211  0.207967  1
  H  H64  1  0.868845  0.369454  0.702965  1
  H  H65  1  0.369454  0.868845  0.797035  1
  H  H66  1  0.131155  0.630546  0.297035  1
  H  H67  1  0.630546  0.131155  0.202965  1
  H  H68  1  0.214196  0.413058  0.580754  1
  H  H69  1  0.413058  0.214196  0.919246  1
  H  H70  1  0.785804  0.586942  0.419246  1
  H  H71  1  0.586942  0.785804  0.080754  1
  H  H72  1  0.365571  0.600644  0.558928  1
  H  H73  1  0.600644  0.365571  0.941072  1
  H  H74  1  0.634429  0.399356  0.441072  1
  H  H75  1  0.399356  0.634429  0.058928  1
  H  H76  1  0.032277  0.174763  0.548068  1
  H  H77  1  0.174763  0.032277  0.951932  1
  H  H78  1  0.967723  0.825237  0.451932  1
  H  H79  1  0.825237  0.967723  0.048068  1
  H  H80  1  0.043431  0.025753  0.572276  1
  H  H81  1  0.025753  0.043431  0.927724  1
  H  H82  1  0.956569  0.974247  0.427724  1
  H  H83  1  0.974247  0.956569  0.072276  1
  C  C84  1  0.282280  0.085205  0.675085  1
  C  C85  1  0.085205  0.282280  0.824915  1
  C  C86  1  0.717720  0.914795  0.324915  1
  C  C87  1  0.914795  0.717720  0.175085  1
  C  C88  1  0.537143  0.063249  0.570079  1
  C  C89  1  0.063249  0.537143  0.929921  1
  C  C90  1  0.462857  0.936751  0.429921  1
  C  C91  1  0.936751  0.462857  0.070079  1
  C  C92  1  0.752209  0.611542  0.657923  1
  C  C93  1  0.611542  0.752209  0.842077  1
  C  C94  1  0.247791  0.388458  0.342077  1
  C  C95  1  0.388458  0.247791  0.157923  1
  C  C96  1  0.879637  0.232451  0.657862  1
  C  C97  1  0.232451  0.879637  0.842138  1
  C  C98  1  0.120363  0.767549  0.342138  1
  C  C99  1  0.767549  0.120363  0.157862  1
  S  S100  1  0.367387  0.693644  0.704668  1
  S  S101  1  0.693644  0.367387  0.795332  1
  S  S102  1  0.632613  0.306356  0.295332  1
  S  S103  1  0.306356  0.632613  0.204668  1
  S  S104  1  0.926068  0.672278  0.540562  1
  S  S105  1  0.672278  0.926068  0.959438  1
  S  S106  1  0.073932  0.327722  0.459438  1
  S  S107  1  0.327722  0.073932  0.040562  1
  N  N108  1  0.343453  0.081747  0.713600  1
  N  N109  1  0.081747  0.343453  0.786400  1
  N  N110  1  0.656547  0.918253  0.286400  1
  N  N111  1  0.918253  0.656547  0.213600  1
  N  N112  1  0.254643  0.212124  0.663549  1
  N  N113  1  0.212124  0.254643  0.836451  1
  N  N114  1  0.745357  0.787876  0.336451  1
  N  N115  1  0.787876  0.745357  0.163549  1
  N  N116  1  0.562675  0.206191  0.587915  1
  N  N117  1  0.206191  0.562675  0.912085  1
  N  N118  1  0.437325  0.793809  0.412085  1
  N  N119  1  0.793809  0.437325  0.087915  1
  N  N120  1  0.652767  0.089428  0.541786  1
  N  N121  1  0.089428  0.652767  0.958214  1
  N  N122  1  0.347233  0.910572  0.458214  1
  N  N123  1  0.910572  0.347233  0.041786  1
  N  N124  1  0.647388  0.618587  0.628240  1
  N  N125  1  0.618587  0.647388  0.871760  1
  N  N126  1  0.352612  0.381413  0.371760  1
  N  N127  1  0.381413  0.352612  0.128240  1
  N  N128  1  0.722277  0.613035  0.698010  1
  N  N129  1  0.613035  0.722277  0.801990  1
  N  N130  1  0.277723  0.386965  0.301990  1
  N  N131  1  0.386965  0.277723  0.198010  1
  N  N132  1  0.812561  0.069897  0.642769  1
  N  N133  1  0.069897  0.812561  0.857231  1
  N  N134  1  0.187439  0.930103  0.357231  1
  N  N135  1  0.930103  0.187439  0.142769  1
  N  N136  1  0.808238  0.244044  0.691683  1
  N  N137  1  0.244044  0.808238  0.808317  1
  N  N138  1  0.191762  0.755956  0.308317  1
  N  N139  1  0.755956  0.191762  0.191683  1
  O  O140  1  0.433467  0.741692  0.660325  1
  O  O141  1  0.741692  0.433467  0.839675  1
  O  O142  1  0.566533  0.258308  0.339675  1
  O  O143  1  0.258308  0.566533  0.160325  1
  O  O144  1  0.181476  0.652113  0.701026  1
  O  O145  1  0.652113  0.181476  0.798974  1
  O  O146  1  0.818524  0.347887  0.298974  1
  O  O147  1  0.347887  0.818524  0.201026  1
  O  O148  1  0.489915  0.852878  0.730897  1
  O  O149  1  0.852878  0.489915  0.769103  1
  O  O150  1  0.510085  0.147122  0.269103  1
  O  O151  1  0.147122  0.510085  0.230897  1
  O  O152  1  0.361600  0.533482  0.720051  1
  O  O153  1  0.533482  0.361600  0.779949  1
  O  O154  1  0.638400  0.466518  0.279949  1
  O  O155  1  0.466518  0.638400  0.220051  1
  O  O156  1  0.040096  0.827352  0.570294  1
  O  O157  1  0.827352  0.040096  0.929706  1
  O  O158  1  0.959904  0.172648  0.429706  1
  O  O159  1  0.172648  0.959904  0.070294  1
  O  O160  1  0.950708  0.529578  0.559042  1
  O  O161  1  0.529578  0.950708  0.940958  1
  O  O162  1  0.049292  0.470422  0.440958  1
  O  O163  1  0.470422  0.049292  0.059042  1
  O  O164  1  0.994535  0.728028  0.498597  1
  O  O165  1  0.728028  0.994535  0.001403  1
  O  O166  1  0.005465  0.271972  0.501403  1
  O  O167  1  0.271972  0.005465  0.998597  1
  O  O168  1  0.731302  0.597699  0.542672  1
  O  O169  1  0.597699  0.731302  0.957328  1
  O  O170  1  0.268698  0.402301  0.457328  1
  O  O171  1  0.402301  0.268698  0.042672  1
  O  O172  1  0.253366  0.970608  0.648607  1
  O  O173  1  0.970608  0.253366  0.851393  1
  O  O174  1  0.746634  0.029392  0.351393  1
  O  O175  1  0.029392  0.746634  0.148607  1
  O  O176  1  0.403738  0.900714  0.580021  1
  O  O177  1  0.900714  0.403738  0.919979  1
  O  O178  1  0.596262  0.099286  0.419979  1
  O  O179  1  0.099286  0.596262  0.080021  1
  O  O180  1  0.882100  0.602543  0.648565  1
  O  O181  1  0.602543  0.882100  0.851435  1
  O  O182  1  0.117900  0.397457  0.351435  1
  O  O183  1  0.397457  0.117900  0.148565  1
  O  O184  1  0.013746  0.375953  0.640215  1
  O  O185  1  0.375953  0.013746  0.859785  1
  O  O186  1  0.986254  0.624047  0.359785  1
  O  O187  1  0.624047  0.986254  0.140215  1
  O  O188  1  0.289711  0.544713  0.583973  1
  O  O189  1  0.544713  0.289711  0.916027  1
  O  O190  1  0.710289  0.455287  0.416027  1
  O  O191  1  0.455287  0.710289  0.083973  1
  O  O192  1  0.037663  0.129550  0.576335  1
  O  O193  1  0.129550  0.037663  0.923665  1
  O  O194  1  0.962337  0.870450  0.423665  1
  O  O195  1  0.870450  0.962337  0.076335  1
  O  O196  1  0.526562  0.708368  0.519355  1
  O  O197  1  0.708368  0.526562  0.980645  1
  O  O198  1  0.473438  0.291632  0.480645  1
  O  O199  1  0.291632  0.473438  0.019355  1
