# generated using pymatgen
data_Zr2N2O
_symmetry_space_group_name_H-M   'P 1'
_cell_length_a   3.50637729
_cell_length_b   10.94084235
_cell_length_c   6.74049356
_cell_angle_alpha   88.05276909
_cell_angle_beta   105.07575454
_cell_angle_gamma   80.78877759
_symmetry_Int_Tables_number   1
_chemical_formula_structural   Zr2N2O
_chemical_formula_sum   'Zr8 N8 O4'
_cell_volume   245.68745922
_cell_formula_units_Z   4
loop_
 _symmetry_equiv_pos_site_id
 _symmetry_equiv_pos_as_xyz
  1  'x, y, z'
loop_
 _atom_site_type_symbol
 _atom_site_label
 _atom_site_symmetry_multiplicity
 _atom_site_fract_x
 _atom_site_fract_y
 _atom_site_fract_z
 _atom_site_occupancy
  Zr  Zr0  1  0.980720  0.650498  0.612246  1
  Zr  Zr1  1  0.726122  0.392842  0.845044  1
  Zr  Zr2  1  0.518557  0.850205  0.887205  1
  Zr  Zr3  1  0.223010  0.900316  0.346405  1
  Zr  Zr4  1  0.278417  0.596570  0.153456  1
  Zr  Zr5  1  0.764619  0.112090  0.641236  1
  Zr  Zr6  1  0.484551  0.137993  0.107062  1
  Zr  Zr7  1  0.020593  0.356089  0.397182  1
  N  N8  1  0.824156  0.491162  0.139457  1
  N  N9  1  0.572856  0.244539  0.390124  1
  N  N10  1  0.678518  0.003544  0.360645  1
  N  N11  1  0.416769  0.761024  0.594716  1
  N  N12  1  0.505312  0.500143  0.510436  1
  N  N13  1  0.084547  0.740496  0.909571  1
  N  N14  1  0.249549  0.253164  0.752354  1
  N  N15  1  0.998771  0.004346  0.002049  1
  O  O16  1  0.921126  0.254184  0.096360  1
  O  O17  1  0.752121  0.747759  0.251963  1
  O  O18  1  0.326351  0.999016  0.651681  1
  O  O19  1  0.173415  0.504022  0.850808  1
