# generated using pymatgen
data_Ba2Na2O3
_symmetry_space_group_name_H-M   'P 1'
_cell_length_a   8.50811540
_cell_length_b   6.03864773
_cell_length_c   5.92133253
_cell_angle_alpha   90.00000000
_cell_angle_beta   114.18565231
_cell_angle_gamma   90.00000000
_symmetry_Int_Tables_number   1
_chemical_formula_structural   Ba2Na2O3
_chemical_formula_sum   'Ba4 Na4 O6'
_cell_volume   277.51944080
_cell_formula_units_Z   2
loop_
 _symmetry_equiv_pos_site_id
 _symmetry_equiv_pos_as_xyz
  1  'x, y, z'
loop_
 _atom_site_type_symbol
 _atom_site_label
 _atom_site_symmetry_multiplicity
 _atom_site_fract_x
 _atom_site_fract_y
 _atom_site_fract_z
 _atom_site_occupancy
  Ba  Ba0  1  0.332106  0.446166  0.637787  1
  Ba  Ba1  1  0.667894  0.946166  0.862213  1
  Ba  Ba2  1  0.332106  0.053834  0.137787  1
  Ba  Ba3  1  0.667894  0.553834  0.362213  1
  Na  Na4  1  0.062109  0.651138  0.882353  1
  Na  Na5  1  0.062109  0.848862  0.382353  1
  Na  Na6  1  0.937891  0.151138  0.617647  1
  Na  Na7  1  0.937891  0.348862  0.117647  1
  O  O8  1  0.000000  0.500000  0.500000  1
  O  O9  1  0.000000  0.000000  0.000000  1
  O  O10  1  0.315600  0.015458  0.678460  1
  O  O11  1  0.315600  0.484542  0.178460  1
  O  O12  1  0.684400  0.515458  0.821540  1
  O  O13  1  0.684400  0.984542  0.321540  1
