# generated using pymatgen
data_Li10Fe(SiO5)2
_symmetry_space_group_name_H-M   'P 1'
_cell_length_a   6.17261025
_cell_length_b   15.40500439
_cell_length_c   5.16096552
_cell_angle_alpha   79.60126262
_cell_angle_beta   89.95757929
_cell_angle_gamma   78.44047295
_symmetry_Int_Tables_number   1
_chemical_formula_structural   Li10Fe(SiO5)2
_chemical_formula_sum   'Li20 Fe2 Si4 O20'
_cell_volume   472.58099910
_cell_formula_units_Z   2
loop_
 _symmetry_equiv_pos_site_id
 _symmetry_equiv_pos_as_xyz
  1  'x, y, z'
loop_
 _atom_site_type_symbol
 _atom_site_label
 _atom_site_symmetry_multiplicity
 _atom_site_fract_x
 _atom_site_fract_y
 _atom_site_fract_z
 _atom_site_occupancy
  Li  Li0  1  0.508712  0.981927  0.758239  1
  Li  Li1  1  0.359305  0.865624  0.238326  1
  Li  Li2  1  0.773766  0.865354  0.237542  1
  Li  Li3  1  0.132161  0.736571  0.482716  1
  Li  Li4  1  0.345993  0.737925  0.021526  1
  Li  Li5  1  0.917176  0.737923  0.020889  1
  Li  Li6  1  0.673941  0.651278  0.414045  1
  Li  Li7  1  0.437769  0.610406  0.786477  1
  Li  Li8  1  0.951174  0.610499  0.785765  1
  Li  Li9  1  0.730902  0.540308  0.134764  1
  Li  Li10  1  0.268795  0.459513  0.863615  1
  Li  Li11  1  0.561885  0.390392  0.214004  1
  Li  Li12  1  0.048324  0.389874  0.215143  1
  Li  Li13  1  0.327109  0.346685  0.583204  1
  Li  Li14  1  0.083681  0.262087  0.978175  1
  Li  Li15  1  0.654983  0.262361  0.978299  1
  Li  Li16  1  0.869632  0.262266  0.517377  1
  Li  Li17  1  0.640093  0.133310  0.762297  1
  Li  Li18  1  0.228819  0.132173  0.767173  1
  Li  Li19  1  0.490543  0.016595  0.241684  1
  Fe  Fe20  1  0.035459  0.928333  0.895929  1
  Fe  Fe21  1  0.962811  0.070978  0.103560  1
  Si  Si22  1  0.600364  0.799440  0.691707  1
  Si  Si23  1  0.218874  0.562426  0.308373  1
  Si  Si24  1  0.780158  0.437871  0.692564  1
  Si  Si25  1  0.400078  0.200328  0.307712  1
  O  O26  1  0.549363  0.899919  0.499085  1
  O  O27  1  0.092216  0.815564  0.130192  1
  O  O28  1  0.596463  0.806988  0.009383  1
  O  O29  1  0.412552  0.742706  0.630591  1
  O  O30  1  0.845530  0.743066  0.630444  1
  O  O31  1  0.417556  0.613435  0.169194  1
  O  O32  1  0.969276  0.613391  0.169000  1
  O  O33  1  0.213073  0.573467  0.619982  1
  O  O34  1  0.727476  0.544427  0.735051  1
  O  O35  1  0.271961  0.456151  0.266032  1
  O  O36  1  0.786415  0.427390  0.380953  1
  O  O37  1  0.581090  0.387170  0.831252  1
  O  O38  1  0.028833  0.386869  0.833131  1
  O  O39  1  0.155973  0.257602  0.368684  1
  O  O40  1  0.588221  0.256928  0.369180  1
  O  O41  1  0.404115  0.192869  0.989780  1
  O  O42  1  0.908436  0.183932  0.870501  1
  O  O43  1  0.449702  0.099575  0.499777  1
  O  O44  1  0.249072  0.999755  0.999931  1
  O  O45  1  0.749572  0.999642  0.998208  1
