# generated using pymatgen
data_Fe41O56
_symmetry_space_group_name_H-M   'P 1'
_cell_length_a   10.43772261
_cell_length_b   10.43772261
_cell_length_c   10.43772261
_cell_angle_alpha   80.42713821
_cell_angle_beta   99.57286179
_cell_angle_gamma   80.42713821
_symmetry_Int_Tables_number   1
_chemical_formula_structural   Fe41O56
_chemical_formula_sum   'Fe41 O56'
_cell_volume   1083.47814098
_cell_formula_units_Z   1
loop_
 _symmetry_equiv_pos_site_id
 _symmetry_equiv_pos_as_xyz
  1  'x, y, z'
loop_
 _atom_site_type_symbol
 _atom_site_label
 _atom_site_symmetry_multiplicity
 _atom_site_fract_x
 _atom_site_fract_y
 _atom_site_fract_z
 _atom_site_occupancy
  Fe  Fe0  1  0.089512  0.699617  0.737344  1
  Fe  Fe1  1  0.282372  0.928727  0.643720  1
  Fe  Fe2  1  0.353932  0.784116  0.935309  1
  Fe  Fe3  1  0.998976  0.500587  0.499365  1
  Fe  Fe4  1  0.072439  0.356835  0.790660  1
  Fe  Fe5  1  0.340994  0.450446  0.986546  1
  Fe  Fe6  1  0.200832  0.730435  0.406697  1
  Fe  Fe7  1  0.002073  0.501993  0.000647  1
  Fe  Fe8  1  0.004945  -0.001010  0.500308  1
  Fe  Fe9  1  0.288421  0.429705  0.641677  1
  Fe  Fe10  1  0.569435  0.856496  0.787787  1
  Fe  Fe11  1  0.143492  0.210583  0.570463  1
  Fe  Fe12  1  0.287313  0.921834  0.139646  1
  Fe  Fe13  1  0.149595  0.717497  0.073027  1
  Fe  Fe14  1  0.426136  0.642193  0.714572  1
  Fe  Fe15  1  0.371812  0.119799  0.875227  1
  Fe  Fe16  1  0.514573  0.837324  0.443240  1
  Fe  Fe17  1  0.234105  0.413903  0.300287  1
  Fe  Fe18  1  0.142701  0.213423  0.068087  1
  Fe  Fe19  1  0.214932  0.069355  0.355150  1
  Fe  Fe20  1  0.784749  0.927936  0.646559  1
  Fe  Fe21  1  0.858006  0.789056  0.928416  1
  Fe  Fe22  1  0.500675  0.500177  0.498651  1
  Fe  Fe23  1  0.570842  0.357778  0.784690  1
  Fe  Fe24  1  0.429173  0.642255  0.214887  1
  Fe  Fe25  1  0.482626  0.163257  0.550814  1
  Fe  Fe26  1  0.620983  0.870597  0.126708  1
  Fe  Fe27  1  0.765099  0.588803  0.693886  1
  Fe  Fe28  1  0.860845  0.286680  0.929206  1
  Fe  Fe29  1  0.855962  0.783007  0.427438  1
  Fe  Fe30  1  0.712936  0.570754  0.356966  1
  Fe  Fe31  1  0.571251  0.358492  0.286389  1
  Fe  Fe32  1  0.714593  0.066483  0.858153  1
  Fe  Fe33  1  0.429236  0.142571  0.211850  1
  Fe  Fe34  1  0.951630  0.981916  0.157526  1
  Fe  Fe35  1  0.804769  0.266660  0.590483  1
  Fe  Fe36  1  0.657526  0.556856  0.019819  1
  Fe  Fe37  1  0.928857  0.645292  0.214950  1
  Fe  Fe38  1  0.641724  0.215466  0.074135  1
  Fe  Fe39  1  0.713651  0.072453  0.356556  1
  Fe  Fe40  1  0.908172  0.306329  0.268340  1
  O  O41  1  0.035471  0.688575  0.903647  1
  O  O42  1  0.201003  0.870425  0.986718  1
  O  O43  1  0.022780  0.672080  0.393175  1
  O  O44  1  0.177059  0.901768  0.471059  1
  O  O45  1  0.029185  0.206368  0.901408  1
  O  O46  1  0.169661  0.386083  0.962773  1
  O  O47  1  0.259076  0.753715  0.756476  1
  O  O48  1  0.106630  0.527424  0.679282  1
  O  O49  1  0.382854  0.953495  0.821186  1
  O  O50  1  0.453452  0.820477  0.611796  1
  O  O51  1  0.241450  0.256906  0.743226  1
  O  O52  1  0.518364  0.682075  0.889686  1
  O  O53  1  0.175123  0.391058  0.474032  1
  O  O54  1  0.103971  0.553064  0.175068  1
  O  O55  1  0.389353  0.967457  0.304079  1
  O  O56  1  0.685345  0.894370  0.955375  1
  O  O57  1  0.036264  0.176396  0.398027  1
  O  O58  1  0.328839  0.597223  0.551331  1
  O  O59  1  0.399349  0.463967  0.808494  1
  O  O60  1  0.115693  0.042244  0.650775  1
  O  O61  1  0.251057  0.756990  0.231705  1
  O  O62  1  0.464584  0.328428  0.612815  1
  O  O63  1  0.753240  0.753414  0.751455  1
  O  O64  1  0.445990  0.820372  0.100153  1
  O  O65  1  0.318015  0.105688  0.538955  1
  O  O66  1  0.865061  0.955735  0.814899  1
  O  O67  1  0.597273  0.532945  0.682015  1
  O  O68  1  0.314439  0.625438  0.036771  1
  O  O69  1  0.688317  0.896305  0.466084  1
  O  O70  1  0.544004  0.177861  0.892345  1
  O  O71  1  0.680370  0.383111  0.960838  1
  O  O72  1  0.537179  0.672497  0.392639  1
  O  O73  1  0.398931  0.464504  0.322893  1
  O  O74  1  0.250951  0.245347  0.239166  1
  O  O75  1  0.117933  0.035957  0.168568  1
  O  O76  1  0.746300  0.247498  0.761749  1
  O  O77  1  0.677662  0.393766  0.463377  1
  O  O78  1  0.606924  0.534250  0.184646  1
  O  O79  1  0.893568  0.964798  0.329718  1
  O  O80  1  0.957511  0.829978  0.600237  1
  O  O81  1  0.317714  0.100667  0.044790  1
  O  O82  1  0.827100  0.606845  0.528715  1
  O  O83  1  0.612312  0.035165  0.680747  1
  O  O84  1  0.474206  0.305812  0.114553  1
  O  O85  1  0.895033  0.459116  0.821978  1
  O  O86  1  0.765617  0.742590  0.259920  1
  O  O87  1  0.538483  0.175128  0.382988  1
  O  O88  1  0.896301  0.474155  0.324198  1
  O  O89  1  0.607461  0.048648  0.185063  1
  O  O90  1  0.743000  0.244328  0.250298  1
  O  O91  1  0.976035  0.325128  0.609645  1
  O  O92  1  0.823931  0.095394  0.532015  1
  O  O93  1  0.826082  0.617977  0.036666  1
  O  O94  1  0.970762  0.812353  0.103428  1
  O  O95  1  0.814523  0.113917  0.027165  1
  O  O96  1  0.965740  0.318188  0.103729  1
