# generated using pymatgen
data_K6Te2P6(H4O11)3
_symmetry_space_group_name_H-M   'P 1'
_cell_length_a   13.93864715
_cell_length_b   13.93864715
_cell_length_c   13.93864732
_cell_angle_alpha   56.67735555
_cell_angle_beta   56.67735555
_cell_angle_gamma   56.67735756
_symmetry_Int_Tables_number   1
_chemical_formula_structural   K6Te2P6(H4O11)3
_chemical_formula_sum   'K12 Te4 P12 H24 O66'
_cell_volume   1767.96675432
_cell_formula_units_Z   2
loop_
 _symmetry_equiv_pos_site_id
 _symmetry_equiv_pos_as_xyz
  1  'x, y, z'
loop_
 _atom_site_type_symbol
 _atom_site_label
 _atom_site_symmetry_multiplicity
 _atom_site_fract_x
 _atom_site_fract_y
 _atom_site_fract_z
 _atom_site_occupancy
  K  K0  1  0.686219  0.813781  0.250000  1
  K  K1  1  0.813781  0.250000  0.686219  1
  K  K2  1  0.250000  0.686219  0.813781  1
  K  K3  1  0.186219  0.750000  0.313781  1
  K  K4  1  0.750000  0.313781  0.186219  1
  K  K5  1  0.313781  0.186219  0.750000  1
  K  K6  1  0.500000  0.500000  0.000000  1
  K  K7  1  0.500000  0.000000  0.500000  1
  K  K8  1  0.000000  0.500000  0.500000  1
  K  K9  1  0.000000  0.500000  0.000000  1
  K  K10  1  0.500000  0.000000  0.000000  1
  K  K11  1  0.000000  0.000000  0.500000  1
  Te  Te12  1  0.361009  0.361009  0.361009  1
  Te  Te13  1  0.861009  0.861009  0.861009  1
  Te  Te14  1  0.638991  0.638991  0.638991  1
  Te  Te15  1  0.138991  0.138991  0.138991  1
  P  P16  1  0.757552  0.173253  0.022360  1
  P  P17  1  0.173253  0.022360  0.757552  1
  P  P18  1  0.022360  0.757552  0.173253  1
  P  P19  1  0.257552  0.522360  0.673253  1
  P  P20  1  0.522360  0.673253  0.257552  1
  P  P21  1  0.673253  0.257552  0.522360  1
  P  P22  1  0.242448  0.826747  0.977640  1
  P  P23  1  0.826747  0.977640  0.242448  1
  P  P24  1  0.977640  0.242448  0.826747  1
  P  P25  1  0.742448  0.477640  0.326747  1
  P  P26  1  0.477640  0.326747  0.742448  1
  P  P27  1  0.326747  0.742448  0.477640  1
  H  H28  1  0.241875  0.219658  0.538027  1
  H  H29  1  0.219658  0.538027  0.241875  1
  H  H30  1  0.538027  0.241875  0.219658  1
  H  H31  1  0.741875  0.038027  0.719658  1
  H  H32  1  0.038027  0.719658  0.741875  1
  H  H33  1  0.719658  0.741875  0.038027  1
  H  H34  1  0.758125  0.780342  0.461973  1
  H  H35  1  0.780342  0.461973  0.758125  1
  H  H36  1  0.461973  0.758125  0.780342  1
  H  H37  1  0.258125  0.961973  0.280342  1
  H  H38  1  0.961973  0.280342  0.258125  1
  H  H39  1  0.280342  0.258125  0.961973  1
  H  H40  1  0.536691  0.489416  0.737777  1
  H  H41  1  0.489416  0.737777  0.536691  1
  H  H42  1  0.737777  0.536691  0.489416  1
  H  H43  1  0.036691  0.237777  0.989416  1
  H  H44  1  0.237777  0.989416  0.036691  1
  H  H45  1  0.989416  0.036691  0.237777  1
  H  H46  1  0.463309  0.510584  0.262223  1
  H  H47  1  0.510584  0.262223  0.463309  1
  H  H48  1  0.262223  0.463309  0.510584  1
  H  H49  1  0.963309  0.762223  0.010584  1
  H  H50  1  0.762223  0.010584  0.963309  1
  H  H51  1  0.010584  0.963309  0.762223  1
  O  O52  1  0.271675  0.036016  0.204258  1
  O  O53  1  0.036016  0.204258  0.271675  1
  O  O54  1  0.204258  0.271675  0.036016  1
  O  O55  1  0.771675  0.704258  0.536016  1
  O  O56  1  0.704258  0.536016  0.771675  1
  O  O57  1  0.536016  0.771675  0.704258  1
  O  O58  1  0.728325  0.963984  0.795742  1
  O  O59  1  0.963984  0.795742  0.728325  1
  O  O60  1  0.795742  0.728325  0.963984  1
  O  O61  1  0.228325  0.295742  0.463984  1
  O  O62  1  0.295742  0.463984  0.228325  1
  O  O63  1  0.463984  0.228325  0.295742  1
  O  O64  1  0.429494  0.256079  0.492597  1
  O  O65  1  0.256079  0.492597  0.429494  1
  O  O66  1  0.492597  0.429494  0.256079  1
  O  O67  1  0.929494  0.992597  0.756079  1
  O  O68  1  0.992597  0.756079  0.929494  1
  O  O69  1  0.756079  0.929494  0.992597  1
  O  O70  1  0.570506  0.743921  0.507403  1
  O  O71  1  0.743921  0.507403  0.570506  1
  O  O72  1  0.507403  0.570506  0.743921  1
  O  O73  1  0.070506  0.007403  0.243921  1
  O  O74  1  0.007403  0.243921  0.070506  1
  O  O75  1  0.243921  0.070506  0.007403  1
  O  O76  1  0.262888  0.087427  0.655497  1
  O  O77  1  0.087427  0.655497  0.262888  1
  O  O78  1  0.655497  0.262888  0.087427  1
  O  O79  1  0.762888  0.155497  0.587427  1
  O  O80  1  0.155497  0.587427  0.762888  1
  O  O81  1  0.587427  0.762888  0.155497  1
  O  O82  1  0.737112  0.912573  0.344503  1
  O  O83  1  0.912573  0.344503  0.737112  1
  O  O84  1  0.344503  0.737112  0.912573  1
  O  O85  1  0.237112  0.844503  0.412573  1
  O  O86  1  0.844503  0.412573  0.237112  1
  O  O87  1  0.412573  0.237112  0.844503  1
  O  O88  1  0.341667  0.755444  0.567656  1
  O  O89  1  0.755444  0.567656  0.341667  1
  O  O90  1  0.567656  0.341667  0.755444  1
  O  O91  1  0.841667  0.067656  0.255444  1
  O  O92  1  0.067656  0.255444  0.841667  1
  O  O93  1  0.255444  0.841667  0.067656  1
  O  O94  1  0.658333  0.244556  0.432344  1
  O  O95  1  0.244556  0.432344  0.658333  1
  O  O96  1  0.432344  0.658333  0.244556  1
  O  O97  1  0.158333  0.932344  0.744556  1
  O  O98  1  0.932344  0.744556  0.158333  1
  O  O99  1  0.744556  0.158333  0.932344  1
  O  O100  1  0.463544  0.706469  0.378159  1
  O  O101  1  0.706469  0.378159  0.463544  1
  O  O102  1  0.378159  0.463544  0.706469  1
  O  O103  1  0.963544  0.878159  0.206469  1
  O  O104  1  0.878159  0.206469  0.963544  1
  O  O105  1  0.206469  0.963544  0.878159  1
  O  O106  1  0.536456  0.293531  0.621841  1
  O  O107  1  0.293531  0.621841  0.536456  1
  O  O108  1  0.621841  0.536456  0.293531  1
  O  O109  1  0.036456  0.121841  0.793531  1
  O  O110  1  0.121841  0.793531  0.036456  1
  O  O111  1  0.793531  0.036456  0.121841  1
  O  O112  1  0.461073  0.038927  0.250000  1
  O  O113  1  0.038927  0.250000  0.461073  1
  O  O114  1  0.250000  0.461073  0.038927  1
  O  O115  1  0.961073  0.750000  0.538927  1
  O  O116  1  0.750000  0.538927  0.961073  1
  O  O117  1  0.538927  0.961073  0.750000  1
