# generated using pymatgen
data_Li3Ti2V2O8
_symmetry_space_group_name_H-M   'P 1'
_cell_length_a   5.98981616
_cell_length_b   5.99297431
_cell_length_c   5.97081219
_cell_angle_alpha   60.14352134
_cell_angle_beta   60.10875582
_cell_angle_gamma   89.83278623
_symmetry_Int_Tables_number   1
_chemical_formula_structural   Li3Ti2V2O8
_chemical_formula_sum   'Li3 Ti2 V2 O8'
_cell_volume   152.34967591
_cell_formula_units_Z   1
loop_
 _symmetry_equiv_pos_site_id
 _symmetry_equiv_pos_as_xyz
  1  'x, y, z'
loop_
 _atom_site_type_symbol
 _atom_site_label
 _atom_site_symmetry_multiplicity
 _atom_site_fract_x
 _atom_site_fract_y
 _atom_site_fract_z
 _atom_site_occupancy
  Li  Li0  1  0.500000  0.500000  0.500000  1
  Li  Li1  1  0.500000  0.500000  0.000000  1
  Li  Li2  1  0.500000  0.000000  0.500000  1
  Ti  Ti3  1  0.000000  0.000000  0.500000  1
  Ti  Ti4  1  0.000000  0.000000  0.000000  1
  V  V5  1  0.000000  0.500000  0.500000  1
  V  V6  1  0.500000  0.000000  0.000000  1
  O  O7  1  0.246600  0.779081  0.473651  1
  O  O8  1  0.770930  0.779128  0.974885  1
  O  O9  1  0.246479  0.778941  0.000789  1
  O  O10  1  0.229041  0.229523  0.520800  1
  O  O11  1  0.770959  0.770477  0.479200  1
  O  O12  1  0.753521  0.221058  0.999211  1
  O  O13  1  0.229070  0.220872  0.025115  1
  O  O14  1  0.753400  0.220919  0.526349  1
