# generated using pymatgen
data_H3CSN2
_symmetry_space_group_name_H-M   'P 1'
_cell_length_a   12.43028241
_cell_length_b   12.43028241
_cell_length_c   14.64193862
_cell_angle_alpha   66.21167703
_cell_angle_beta   113.78832297
_cell_angle_gamma   160.13332050
_symmetry_Int_Tables_number   1
_chemical_formula_structural   H3CSN2
_chemical_formula_sum   'H24 C8 S8 N16'
_cell_volume   701.40476289
_cell_formula_units_Z   8
loop_
 _symmetry_equiv_pos_site_id
 _symmetry_equiv_pos_as_xyz
  1  'x, y, z'
loop_
 _atom_site_type_symbol
 _atom_site_label
 _atom_site_symmetry_multiplicity
 _atom_site_fract_x
 _atom_site_fract_y
 _atom_site_fract_z
 _atom_site_occupancy
  H  H0  1  0.196931  0.846057  0.646477  1
  H  H1  1  0.846057  0.196931  0.853523  1
  H  H2  1  0.803069  0.153943  0.353523  1
  H  H3  1  0.153943  0.803069  0.146477  1
  H  H4  1  0.987880  0.877670  0.595841  1
  H  H5  1  0.877670  0.987880  0.904159  1
  H  H6  1  0.012120  0.122330  0.404159  1
  H  H7  1  0.122330  0.012120  0.095841  1
  H  H8  1  0.662658  0.497435  0.729501  1
  H  H9  1  0.497435  0.662658  0.770499  1
  H  H10  1  0.337342  0.502565  0.270499  1
  H  H11  1  0.502565  0.337342  0.229501  1
  H  H12  1  0.439549  0.465204  0.565188  1
  H  H13  1  0.465204  0.439549  0.934812  1
  H  H14  1  0.560451  0.534796  0.434812  1
  H  H15  1  0.534796  0.560451  0.065188  1
  H  H16  1  0.247656  0.984308  0.417815  1
  H  H17  1  0.984308  0.247656  0.082185  1
  H  H18  1  0.752344  0.015692  0.582185  1
  H  H19  1  0.015692  0.752344  0.917815  1
  H  H20  1  0.781878  0.282633  0.698807  1
  H  H21  1  0.282633  0.781878  0.801193  1
  H  H22  1  0.218122  0.717367  0.301193  1
  H  H23  1  0.717367  0.218122  0.198807  1
  C  C24  1  0.934001  0.617017  0.759126  1
  C  C25  1  0.617017  0.934001  0.740874  1
  C  C26  1  0.065999  0.382983  0.240874  1
  C  C27  1  0.382983  0.065999  0.259126  1
  C  C28  1  0.007596  0.824577  0.494534  1
  C  C29  1  0.824577  0.007596  0.005466  1
  C  C30  1  0.992404  0.175423  0.505466  1
  C  C31  1  0.175423  0.992404  0.994534  1
  S  S32  1  0.051346  0.585834  0.851711  1
  S  S33  1  0.585834  0.051346  0.648289  1
  S  S34  1  0.948654  0.414166  0.148289  1
  S  S35  1  0.414166  0.948654  0.351711  1
  S  S36  1  0.822624  0.773649  0.389492  1
  S  S37  1  0.773649  0.822624  0.110508  1
  S  S38  1  0.177376  0.226351  0.610508  1
  S  S39  1  0.226351  0.177376  0.889492  1
  N  N40  1  0.052638  0.761450  0.667952  1
  N  N41  1  0.761450  0.052638  0.832048  1
  N  N42  1  0.947362  0.238550  0.332048  1
  N  N43  1  0.238550  0.947362  0.167952  1
  N  N44  1  0.922759  0.740093  0.587202  1
  N  N45  1  0.740093  0.922759  0.912798  1
  N  N46  1  0.077241  0.259907  0.412797  1
  N  N47  1  0.259907  0.077241  0.087203  1
  N  N48  1  0.742191  0.495657  0.787948  1
  N  N49  1  0.495657  0.742191  0.712052  1
  N  N50  1  0.257809  0.504343  0.212052  1
  N  N51  1  0.504343  0.257809  0.287948  1
  N  N52  1  0.198248  0.928403  0.488462  1
  N  N53  1  0.928403  0.198248  0.011538  1
  N  N54  1  0.801752  0.071597  0.511538  1
  N  N55  1  0.071597  0.801752  0.988462  1
