# generated using pymatgen
data_Li2V3P9O28
_symmetry_space_group_name_H-M   'P 1'
_cell_length_a   7.06421565
_cell_length_b   9.28587857
_cell_length_c   9.16352669
_cell_angle_alpha   68.52455031
_cell_angle_beta   98.87795344
_cell_angle_gamma   70.17802745
_symmetry_Int_Tables_number   1
_chemical_formula_structural   Li2V3P9O28
_chemical_formula_sum   'Li2 V3 P9 O28'
_cell_volume   498.89622256
_cell_formula_units_Z   1
loop_
 _symmetry_equiv_pos_site_id
 _symmetry_equiv_pos_as_xyz
  1  'x, y, z'
loop_
 _atom_site_type_symbol
 _atom_site_label
 _atom_site_symmetry_multiplicity
 _atom_site_fract_x
 _atom_site_fract_y
 _atom_site_fract_z
 _atom_site_occupancy
  Li  Li0  1  0.456241  0.027943  0.953753  1
  Li  Li1  1  0.043759  0.472057  0.046247  1
  V  V2  1  0.250000  0.250000  0.500000  1
  V  V3  1  0.509655  0.494044  0.015954  1
  V  V4  1  0.990345  0.005956  0.984046  1
  P  P5  1  0.537506  0.317114  0.763538  1
  P  P6  1  0.058850  0.796079  0.754574  1
  P  P7  1  0.903367  0.357901  0.677927  1
  P  P8  1  0.440675  0.830295  0.702062  1
  P  P9  1  0.750000  0.750000  0.500000  1
  P  P10  1  0.596633  0.142099  0.322073  1
  P  P11  1  0.059325  0.669705  0.297938  1
  P  P12  1  0.962494  0.182886  0.236462  1
  P  P13  1  0.441150  0.703921  0.245426  1
  O  O14  1  0.668742  0.131797  0.902800  1
  O  O15  1  0.168026  0.621627  0.908950  1
  O  O16  1  0.570617  0.695633  0.877951  1
  O  O17  1  0.036274  0.227351  0.856352  1
  O  O18  1  0.985949  0.946440  0.794027  1
  O  O19  1  0.490095  0.451598  0.824616  1
  O  O20  1  0.866125  0.543316  0.660294  1
  O  O21  1  0.387437  0.007553  0.692145  1
  O  O22  1  0.865244  0.813257  0.629721  1
  O  O23  1  0.336315  0.333231  0.661381  1
  O  O24  1  0.672967  0.359844  0.642038  1
  O  O25  1  0.219132  0.816385  0.650363  1
  O  O26  1  0.529848  0.798102  0.564377  1
  O  O27  1  0.976125  0.320206  0.544572  1
  O  O28  1  0.970152  0.701898  0.435623  1
  O  O29  1  0.523875  0.179794  0.455428  1
  O  O30  1  0.827033  0.140156  0.357962  1
  O  O31  1  0.280868  0.683615  0.349637  1
  O  O32  1  0.634756  0.686743  0.370279  1
  O  O33  1  0.163685  0.166769  0.338619  1
  O  O34  1  0.633875  0.956684  0.339706  1
  O  O35  1  0.112563  0.492447  0.307855  1
  O  O36  1  0.514051  0.553560  0.205973  1
  O  O37  1  0.009905  0.048402  0.175384  1
  O  O38  1  0.929383  0.804367  0.122049  1
  O  O39  1  0.463726  0.272649  0.143648  1
  O  O40  1  0.831258  0.368203  0.097200  1
  O  O41  1  0.331974  0.878373  0.091050  1
