# generated using pymatgen
data_V2H15(NO4)3
_symmetry_space_group_name_H-M   'P 1'
_cell_length_a   7.87113944
_cell_length_b   10.84156774
_cell_length_c   18.24841195
_cell_angle_alpha   90.00000000
_cell_angle_beta   91.49688065
_cell_angle_gamma   90.00000000
_symmetry_Int_Tables_number   1
_chemical_formula_structural   V2H15(NO4)3
_chemical_formula_sum   'V8 H60 N12 O48'
_cell_volume   1556.70579196
_cell_formula_units_Z   4
loop_
 _symmetry_equiv_pos_site_id
 _symmetry_equiv_pos_as_xyz
  1  'x, y, z'
loop_
 _atom_site_type_symbol
 _atom_site_label
 _atom_site_symmetry_multiplicity
 _atom_site_fract_x
 _atom_site_fract_y
 _atom_site_fract_z
 _atom_site_occupancy
  V  V0  1  0.240629  0.812808  0.947565  1
  V  V1  1  0.759371  0.312808  0.552435  1
  V  V2  1  0.759371  0.187192  0.052435  1
  V  V3  1  0.240629  0.687192  0.447565  1
  V  V4  1  0.274374  0.592872  0.830038  1
  V  V5  1  0.725626  0.092872  0.669962  1
  V  V6  1  0.725626  0.407128  0.169962  1
  V  V7  1  0.274374  0.907128  0.330038  1
  H  H8  1  0.346448  0.691658  0.713882  1
  H  H9  1  0.653552  0.191658  0.786118  1
  H  H10  1  0.653552  0.308342  0.286118  1
  H  H11  1  0.346448  0.808342  0.213882  1
  H  H12  1  0.715701  0.751998  0.616353  1
  H  H13  1  0.284299  0.251998  0.883647  1
  H  H14  1  0.284299  0.248002  0.383647  1
  H  H15  1  0.715701  0.748002  0.116353  1
  H  H16  1  0.754092  0.592794  0.606980  1
  H  H17  1  0.245908  0.092794  0.893020  1
  H  H18  1  0.245908  0.407206  0.393020  1
  H  H19  1  0.754092  0.907206  0.106980  1
  H  H20  1  0.981543  0.794517  0.767594  1
  H  H21  1  0.018457  0.294517  0.732406  1
  H  H22  1  0.018457  0.205483  0.232406  1
  H  H23  1  0.981543  0.705483  0.267594  1
  H  H24  1  0.088894  0.399338  0.671730  1
  H  H25  1  0.911106  0.899338  0.828270  1
  H  H26  1  0.911106  0.600662  0.328270  1
  H  H27  1  0.088894  0.100662  0.171730  1
  H  H28  1  0.575007  0.660168  0.561245  1
  H  H29  1  0.424993  0.160168  0.938755  1
  H  H30  1  0.424993  0.339832  0.438755  1
  H  H31  1  0.575007  0.839832  0.061245  1
  H  H32  1  0.046278  0.391262  0.500505  1
  H  H33  1  0.953722  0.891262  0.999495  1
  H  H34  1  0.953722  0.608738  0.499495  1
  H  H35  1  0.046278  0.108738  0.000505  1
  H  H36  1  0.438638  0.227459  0.643400  1
  H  H37  1  0.561362  0.727459  0.856600  1
  H  H38  1  0.561362  0.772541  0.356600  1
  H  H39  1  0.438638  0.272541  0.143400  1
  H  H40  1  0.802773  0.875107  0.746829  1
  H  H41  1  0.197227  0.375107  0.753171  1
  H  H42  1  0.197227  0.124893  0.253171  1
  H  H43  1  0.802773  0.624893  0.246829  1
  H  H44  1  0.201911  0.899976  0.616518  1
  H  H45  1  0.798089  0.399976  0.883482  1
  H  H46  1  0.798089  0.100024  0.383482  1
  H  H47  1  0.201911  0.600024  0.116518  1
  H  H48  1  0.317588  0.854043  0.813271  1
  H  H49  1  0.682412  0.354043  0.686729  1
  H  H50  1  0.682412  0.145957  0.186729  1
  H  H51  1  0.317588  0.645957  0.313271  1
  H  H52  1  0.381655  0.128600  0.697270  1
  H  H53  1  0.618345  0.628600  0.802730  1
  H  H54  1  0.618345  0.871400  0.302730  1
  H  H55  1  0.381655  0.371400  0.197270  1
  H  H56  1  0.713177  0.585948  0.932593  1
  H  H57  1  0.286823  0.085948  0.567407  1
  H  H58  1  0.286823  0.414052  0.067407  1
  H  H59  1  0.713177  0.914052  0.432593  1
  H  H60  1  0.873375  0.600804  0.985083  1
  H  H61  1  0.126625  0.100804  0.514917  1
  H  H62  1  0.126625  0.399196  0.014917  1
  H  H63  1  0.873375  0.899196  0.485083  1
  H  H64  1  0.728994  0.436462  0.030416  1
  H  H65  1  0.271006  0.936462  0.469584  1
  H  H66  1  0.271006  0.563538  0.969584  1
  H  H67  1  0.728994  0.063538  0.530416  1
  N  N68  1  0.685540  0.669595  0.593146  1
  N  N69  1  0.314460  0.169595  0.906854  1
  N  N70  1  0.314460  0.330405  0.406854  1
  N  N71  1  0.685540  0.830405  0.093146  1
  N  N72  1  0.083224  0.374643  0.725469  1
  N  N73  1  0.916776  0.874643  0.774531  1
  N  N74  1  0.916776  0.625357  0.274531  1
  N  N75  1  0.083224  0.125357  0.225469  1
  N  N76  1  0.243238  0.843112  0.659985  1
  N  N77  1  0.756762  0.343112  0.840015  1
  N  N78  1  0.756762  0.156888  0.340015  1
  N  N79  1  0.243238  0.656888  0.159985  1
  O  O80  1  0.110741  0.931651  0.923088  1
  O  O81  1  0.889259  0.431651  0.576912  1
  O  O82  1  0.889259  0.068349  0.076912  1
  O  O83  1  0.110741  0.568349  0.423088  1
  O  O84  1  0.336883  0.790315  0.849870  1
  O  O85  1  0.663117  0.290315  0.650130  1
  O  O86  1  0.663117  0.209685  0.150130  1
  O  O87  1  0.336883  0.709685  0.349870  1
  O  O88  1  0.967508  0.827307  0.039131  1
  O  O89  1  0.032492  0.327307  0.460869  1
  O  O90  1  0.032492  0.172693  0.960869  1
  O  O91  1  0.967508  0.672693  0.539131  1
  O  O92  1  0.057912  0.732747  0.003257  1
  O  O93  1  0.942088  0.232747  0.496743  1
  O  O94  1  0.942088  0.267253  0.996743  1
  O  O95  1  0.057912  0.767253  0.503257  1
  O  O96  1  0.392079  0.624351  0.744966  1
  O  O97  1  0.607921  0.124351  0.755034  1
  O  O98  1  0.607921  0.375649  0.255034  1
  O  O99  1  0.392079  0.875649  0.244966  1
  O  O100  1  0.645251  0.660820  0.851810  1
  O  O101  1  0.354749  0.160820  0.648190  1
  O  O102  1  0.354749  0.339180  0.148190  1
  O  O103  1  0.645251  0.839180  0.351810  1
  O  O104  1  0.062287  0.593971  0.770835  1
  O  O105  1  0.937713  0.093971  0.729165  1
  O  O106  1  0.937713  0.406029  0.229165  1
  O  O107  1  0.062287  0.906029  0.270835  1
  O  O108  1  0.034104  0.609197  0.844246  1
  O  O109  1  0.965896  0.109197  0.655754  1
  O  O110  1  0.965896  0.390803  0.155754  1
  O  O111  1  0.034104  0.890803  0.344246  1
  O  O112  1  0.385782  0.864440  0.006114  1
  O  O113  1  0.614218  0.364440  0.493886  1
  O  O114  1  0.614218  0.135560  0.993886  1
  O  O115  1  0.385782  0.635560  0.506114  1
  O  O116  1  0.319299  0.447890  0.842938  1
  O  O117  1  0.680701  0.947890  0.657062  1
  O  O118  1  0.680701  0.552110  0.157062  1
  O  O119  1  0.319299  0.052110  0.342938  1
  O  O120  1  0.777908  0.545537  0.973354  1
  O  O121  1  0.222092  0.045537  0.526646  1
  O  O122  1  0.222092  0.454463  0.026646  1
  O  O123  1  0.777908  0.954463  0.473354  1
  O  O124  1  0.297015  0.632341  0.934387  1
  O  O125  1  0.702985  0.132341  0.565613  1
  O  O126  1  0.702985  0.367659  0.065613  1
  O  O127  1  0.297015  0.867659  0.434387  1
