# generated using pymatgen
data_PH2NF2
_symmetry_space_group_name_H-M   'P 1'
_cell_length_a   5.30308423
_cell_length_b   13.10279926
_cell_length_c   4.96425936
_cell_angle_alpha   90.00000000
_cell_angle_beta   115.42400022
_cell_angle_gamma   90.00000000
_symmetry_Int_Tables_number   1
_chemical_formula_structural   PH2NF2
_chemical_formula_sum   'P4 H8 N4 F8'
_cell_volume   311.53699452
_cell_formula_units_Z   4
loop_
 _symmetry_equiv_pos_site_id
 _symmetry_equiv_pos_as_xyz
  1  'x, y, z'
loop_
 _atom_site_type_symbol
 _atom_site_label
 _atom_site_symmetry_multiplicity
 _atom_site_fract_x
 _atom_site_fract_y
 _atom_site_fract_z
 _atom_site_occupancy
  P  P0  1  0.284168  0.412182  0.638003  1
  P  P1  1  0.284168  0.087818  0.138003  1
  P  P2  1  0.715832  0.912182  0.861997  1
  P  P3  1  0.715832  0.587818  0.361997  1
  H  H4  1  0.249118  0.873474  0.653490  1
  H  H5  1  0.434974  0.771591  0.624194  1
  H  H6  1  0.249118  0.626526  0.153490  1
  H  H7  1  0.565026  0.271591  0.875806  1
  H  H8  1  0.434974  0.728409  0.124194  1
  H  H9  1  0.750882  0.373474  0.846510  1
  H  H10  1  0.565026  0.228409  0.375806  1
  H  H11  1  0.750882  0.126526  0.346510  1
  N  N12  1  0.437671  0.837096  0.739528  1
  N  N13  1  0.562329  0.337096  0.760472  1
  N  N14  1  0.437671  0.662904  0.239528  1
  N  N15  1  0.562329  0.162904  0.260472  1
  F  F16  1  0.051639  0.174059  0.963145  1
  F  F17  1  0.201995  0.417061  0.923991  1
  F  F18  1  0.051639  0.325941  0.463145  1
  F  F19  1  0.201995  0.082939  0.423991  1
  F  F20  1  0.798005  0.917061  0.576009  1
  F  F21  1  0.948361  0.674059  0.536855  1
  F  F22  1  0.798005  0.582939  0.076009  1
  F  F23  1  0.948361  0.825941  0.036855  1
