# generated using pymatgen
data_Fe3OF5
_symmetry_space_group_name_H-M   'P 1'
_cell_length_a   4.81103384
_cell_length_b   8.12226853
_cell_length_c   5.76691339
_cell_angle_alpha   93.49983878
_cell_angle_beta   90.82766081
_cell_angle_gamma   89.55797327
_symmetry_Int_Tables_number   1
_chemical_formula_structural   Fe3OF5
_chemical_formula_sum   'Fe6 O2 F10'
_cell_volume   224.90181661
_cell_formula_units_Z   2
loop_
 _symmetry_equiv_pos_site_id
 _symmetry_equiv_pos_as_xyz
  1  'x, y, z'
loop_
 _atom_site_type_symbol
 _atom_site_label
 _atom_site_symmetry_multiplicity
 _atom_site_fract_x
 _atom_site_fract_y
 _atom_site_fract_z
 _atom_site_occupancy
  Fe  Fe0  1  0.530667  0.641457  0.170546  1
  Fe  Fe1  1  0.469333  0.025210  0.496121  1
  Fe  Fe2  1  0.500000  0.333333  0.833333  1
  Fe  Fe3  1  0.996559  0.670838  0.664342  1
  Fe  Fe4  1  0.000000  0.333333  0.333333  1
  Fe  Fe5  1  0.003442  0.995829  0.002325  1
  O  O6  1  0.700029  0.439567  0.134604  1
  O  O7  1  0.299971  0.227099  0.532063  1
  F  F8  1  0.794792  0.444036  0.634761  1
  F  F9  1  0.792188  0.766833  0.972636  1
  F  F10  1  0.793116  0.086107  0.303935  1
  F  F11  1  0.699964  0.081253  0.788084  1
  F  F12  1  0.689980  0.769894  0.458140  1
  F  F13  1  0.300036  0.585414  0.878582  1
  F  F14  1  0.310020  0.896773  0.208526  1
  F  F15  1  0.205208  0.222631  0.031906  1
  F  F16  1  0.206884  0.580559  0.362731  1
  F  F17  1  0.207812  0.899834  0.694031  1
