# generated using pymatgen
data_K2B5H5O11
_symmetry_space_group_name_H-M   'P 1'
_cell_length_a   12.57465564
_cell_length_b   6.75721787
_cell_length_c   11.66580057
_cell_angle_alpha   90.00000000
_cell_angle_beta   90.00000000
_cell_angle_gamma   90.00000000
_symmetry_Int_Tables_number   1
_chemical_formula_structural   K2B5H5O11
_chemical_formula_sum   'K8 B20 H20 O44'
_cell_volume   991.23943237
_cell_formula_units_Z   4
loop_
 _symmetry_equiv_pos_site_id
 _symmetry_equiv_pos_as_xyz
  1  'x, y, z'
loop_
 _atom_site_type_symbol
 _atom_site_label
 _atom_site_symmetry_multiplicity
 _atom_site_fract_x
 _atom_site_fract_y
 _atom_site_fract_z
 _atom_site_occupancy
  K  K0  1  0.542710  0.354239  0.994331  1
  K  K1  1  0.457290  0.645761  0.494331  1
  K  K2  1  0.957290  0.854239  0.494331  1
  K  K3  1  0.042710  0.145761  0.994331  1
  K  K4  1  0.752385  0.008270  0.194299  1
  K  K5  1  0.247615  0.991730  0.694299  1
  K  K6  1  0.747615  0.508270  0.694299  1
  K  K7  1  0.252385  0.491730  0.194299  1
  B  B8  1  0.789293  0.505757  0.029388  1
  B  B9  1  0.210707  0.494243  0.529388  1
  B  B10  1  0.710707  0.005757  0.529388  1
  B  B11  1  0.289293  0.994243  0.029388  1
  B  B12  1  0.662582  0.337094  0.437987  1
  B  B13  1  0.337418  0.662906  0.937987  1
  B  B14  1  0.837418  0.837094  0.937987  1
  B  B15  1  0.162582  0.162906  0.437987  1
  B  B16  1  0.520774  0.112240  0.516489  1
  B  B17  1  0.479226  0.887760  0.016489  1
  B  B18  1  0.979226  0.612240  0.016489  1
  B  B19  1  0.020774  0.387760  0.516489  1
  B  B20  1  0.721884  0.457650  0.241825  1
  B  B21  1  0.278116  0.542350  0.741825  1
  B  B22  1  0.778116  0.957650  0.741825  1
  B  B23  1  0.221884  0.042350  0.241825  1
  B  B24  1  0.777459  0.189934  0.900036  1
  B  B25  1  0.222541  0.810066  0.400036  1
  B  B26  1  0.722541  0.689934  0.400036  1
  B  B27  1  0.277459  0.310066  0.900036  1
  H  H28  1  0.860899  0.337756  0.509622  1
  H  H29  1  0.139101  0.662244  0.009622  1
  H  H30  1  0.639101  0.837756  0.009622  1
  H  H31  1  0.360899  0.162244  0.509622  1
  H  H32  1  0.936377  0.313774  0.175342  1
  H  H33  1  0.063623  0.686226  0.675342  1
  H  H34  1  0.563623  0.813774  0.675342  1
  H  H35  1  0.436377  0.186226  0.175342  1
  H  H36  1  0.006315  0.228314  0.277900  1
  H  H37  1  0.993685  0.771686  0.777900  1
  H  H38  1  0.493685  0.728314  0.777900  1
  H  H39  1  0.506315  0.271686  0.277900  1
  H  H40  1  0.929217  0.705204  0.240700  1
  H  H41  1  0.070783  0.294796  0.740700  1
  H  H42  1  0.570783  0.205204  0.740700  1
  H  H43  1  0.429217  0.794796  0.240700  1
  H  H44  1  0.016182  0.863655  0.221415  1
  H  H45  1  0.983818  0.136345  0.721415  1
  H  H46  1  0.483818  0.363655  0.721415  1
  H  H47  1  0.516182  0.636345  0.221415  1
  O  O48  1  0.905231  0.477525  0.055425  1
  O  O49  1  0.094769  0.522475  0.555425  1
  O  O50  1  0.594769  0.977525  0.555425  1
  O  O51  1  0.405231  0.022475  0.055425  1
  O  O52  1  0.727339  0.422459  0.126788  1
  O  O53  1  0.272661  0.577541  0.626788  1
  O  O54  1  0.772661  0.922459  0.626788  1
  O  O55  1  0.227339  0.077541  0.126788  1
  O  O56  1  0.677897  0.316136  0.311500  1
  O  O57  1  0.322103  0.683864  0.811500  1
  O  O58  1  0.822103  0.816136  0.811500  1
  O  O59  1  0.177897  0.183864  0.311500  1
  O  O60  1  0.548992  0.284274  0.461987  1
  O  O61  1  0.451008  0.715726  0.961987  1
  O  O62  1  0.951008  0.784274  0.961987  1
  O  O63  1  0.048992  0.215726  0.461987  1
  O  O64  1  0.734738  0.214183  0.505961  1
  O  O65  1  0.265262  0.785817  0.005961  1
  O  O66  1  0.765262  0.714183  0.005961  1
  O  O67  1  0.234738  0.285817  0.505961  1
  O  O68  1  0.759652  0.383169  0.927112  1
  O  O69  1  0.240348  0.616831  0.427112  1
  O  O70  1  0.740348  0.883169  0.427112  1
  O  O71  1  0.259652  0.116831  0.927112  1
  O  O72  1  0.823783  0.051095  0.969393  1
  O  O73  1  0.176217  0.948905  0.469393  1
  O  O74  1  0.676217  0.551095  0.469393  1
  O  O75  1  0.323783  0.448905  0.969393  1
  O  O76  1  0.915191  0.436098  0.535265  1
  O  O77  1  0.084809  0.563902  0.035265  1
  O  O78  1  0.584809  0.936098  0.035265  1
  O  O79  1  0.415191  0.063902  0.535265  1
  O  O80  1  0.742994  0.137288  0.788248  1
  O  O81  1  0.257006  0.862712  0.288248  1
  O  O82  1  0.757006  0.637288  0.288248  1
  O  O83  1  0.242994  0.362712  0.788248  1
  O  O84  1  0.952581  0.192993  0.220332  1
  O  O85  1  0.047419  0.807007  0.720332  1
  O  O86  1  0.547419  0.692993  0.720332  1
  O  O87  1  0.452581  0.307007  0.220332  1
  O  O88  1  0.501742  0.251296  0.769854  1
  O  O89  1  0.498258  0.748704  0.269854  1
  O  O90  1  0.998258  0.751296  0.269854  1
  O  O91  1  0.001742  0.248704  0.769854  1
