# generated using pymatgen
data_K2CuPCO7
_symmetry_space_group_name_H-M   'P 1'
_cell_length_a   9.24440189
_cell_length_b   7.84340984
_cell_length_c   5.24060998
_cell_angle_alpha   90.00000000
_cell_angle_beta   90.00755327
_cell_angle_gamma   90.00000000
_symmetry_Int_Tables_number   1
_chemical_formula_structural   K2CuPCO7
_chemical_formula_sum   'K4 Cu2 P2 C2 O14'
_cell_volume   379.98422054
_cell_formula_units_Z   2
loop_
 _symmetry_equiv_pos_site_id
 _symmetry_equiv_pos_as_xyz
  1  'x, y, z'
loop_
 _atom_site_type_symbol
 _atom_site_label
 _atom_site_symmetry_multiplicity
 _atom_site_fract_x
 _atom_site_fract_y
 _atom_site_fract_z
 _atom_site_occupancy
  K  K0  1  0.253575  0.022242  0.242518  1
  K  K1  1  0.253575  0.477758  0.242518  1
  K  K2  1  0.746425  0.522242  0.757482  1
  K  K3  1  0.746425  0.977758  0.757482  1
  Cu  Cu4  1  0.354753  0.750000  0.773098  1
  Cu  Cu5  1  0.645247  0.250000  0.226902  1
  P  P6  1  0.425370  0.250000  0.715955  1
  P  P7  1  0.574630  0.750000  0.284045  1
  C  C8  1  0.097630  0.750000  0.728460  1
  C  C9  1  0.902370  0.250000  0.271540  1
  O  O10  1  0.036746  0.250000  0.283963  1
  O  O11  1  0.171315  0.750000  0.942331  1
  O  O12  1  0.187120  0.750000  0.533839  1
  O  O13  1  0.337114  0.087078  0.754619  1
  O  O14  1  0.337114  0.412923  0.754619  1
  O  O15  1  0.432277  0.750000  0.118550  1
  O  O16  1  0.477910  0.250000  0.423945  1
  O  O17  1  0.522090  0.750000  0.576055  1
  O  O18  1  0.567723  0.250000  0.881450  1
  O  O19  1  0.662886  0.587078  0.245381  1
  O  O20  1  0.662886  0.912922  0.245381  1
  O  O21  1  0.812880  0.250000  0.466161  1
  O  O22  1  0.828685  0.250000  0.057669  1
  O  O23  1  0.963254  0.750000  0.716037  1
