# generated using pymatgen
data_Na2VAsCO7
_symmetry_space_group_name_H-M   'P 1'
_cell_length_a   9.21440532
_cell_length_b   6.73384416
_cell_length_c   5.37714800
_cell_angle_alpha   90.00000000
_cell_angle_beta   88.91105034
_cell_angle_gamma   90.00000000
_symmetry_Int_Tables_number   1
_chemical_formula_structural   Na2VAsCO7
_chemical_formula_sum   'Na4 V2 As2 C2 O14'
_cell_volume   333.58300849
_cell_formula_units_Z   2
loop_
 _symmetry_equiv_pos_site_id
 _symmetry_equiv_pos_as_xyz
  1  'x, y, z'
loop_
 _atom_site_type_symbol
 _atom_site_label
 _atom_site_symmetry_multiplicity
 _atom_site_fract_x
 _atom_site_fract_y
 _atom_site_fract_z
 _atom_site_occupancy
  Na  Na0  1  0.219882  0.500938  0.235996  1
  Na  Na1  1  0.219882  0.999062  0.235996  1
  Na  Na2  1  0.780118  0.499062  0.764004  1
  Na  Na3  1  0.780118  0.000938  0.764004  1
  V  V4  1  0.342629  0.750000  0.789383  1
  V  V5  1  0.657371  0.250000  0.210617  1
  As  As6  1  0.424182  0.250000  0.706535  1
  As  As7  1  0.575818  0.750000  0.293465  1
  C  C8  1  0.074449  0.750000  0.728999  1
  C  C9  1  0.925551  0.250000  0.271001  1
  O  O10  1  0.059763  0.250000  0.304030  1
  O  O11  1  0.134307  0.750000  0.949129  1
  O  O12  1  0.172111  0.750000  0.542244  1
  O  O13  1  0.321795  0.047657  0.792594  1
  O  O14  1  0.321795  0.452343  0.792594  1
  O  O15  1  0.411065  0.750000  0.144991  1
  O  O16  1  0.451691  0.250000  0.388564  1
  O  O17  1  0.548309  0.750000  0.611436  1
  O  O18  1  0.588935  0.250000  0.855009  1
  O  O19  1  0.678205  0.547657  0.207406  1
  O  O20  1  0.678205  0.952343  0.207406  1
  O  O21  1  0.827889  0.250000  0.457756  1
  O  O22  1  0.865693  0.250000  0.050871  1
  O  O23  1  0.940237  0.750000  0.695970  1
