# generated using pymatgen
data_B2TeO6
_symmetry_space_group_name_H-M   'P 1'
_cell_length_a   5.24299612
_cell_length_b   8.44988153
_cell_length_c   11.49294888
_cell_angle_alpha   90.00000000
_cell_angle_beta   102.75062952
_cell_angle_gamma   90.00000000
_symmetry_Int_Tables_number   1
_chemical_formula_structural   B2TeO6
_chemical_formula_sum   'B8 Te4 O24'
_cell_volume   496.61246927
_cell_formula_units_Z   4
loop_
 _symmetry_equiv_pos_site_id
 _symmetry_equiv_pos_as_xyz
  1  'x, y, z'
loop_
 _atom_site_type_symbol
 _atom_site_label
 _atom_site_symmetry_multiplicity
 _atom_site_fract_x
 _atom_site_fract_y
 _atom_site_fract_z
 _atom_site_occupancy
  B  B0  1  0.158009  0.290100  0.619019  1
  B  B1  1  0.168243  0.642481  0.131476  1
  B  B2  1  0.341991  0.790100  0.880981  1
  B  B3  1  0.331757  0.142481  0.368524  1
  B  B4  1  0.668243  0.857519  0.631476  1
  B  B5  1  0.658009  0.209900  0.119019  1
  B  B6  1  0.831757  0.357519  0.868524  1
  B  B7  1  0.841991  0.709900  0.380981  1
  Te  Te8  1  0.104876  0.287788  0.127805  1
  Te  Te9  1  0.395124  0.787788  0.372195  1
  Te  Te10  1  0.604876  0.212212  0.627805  1
  Te  Te11  1  0.895124  0.712212  0.872195  1
  O  O12  1  0.048108  0.323116  0.957457  1
  O  O13  1  0.094072  0.660983  0.386997  1
  O  O14  1  0.140750  0.894249  0.893226  1
  O  O15  1  0.231996  0.992684  0.340803  1
  O  O16  1  0.210271  0.267169  0.300725  1
  O  O17  1  0.247709  0.635024  0.863525  1
  O  O18  1  0.252291  0.135024  0.636475  1
  O  O19  1  0.289729  0.767169  0.199275  1
  O  O20  1  0.268004  0.492684  0.159197  1
  O  O21  1  0.359250  0.394249  0.606774  1
  O  O22  1  0.451892  0.823116  0.542543  1
  O  O23  1  0.405928  0.160983  0.113004  1
  O  O24  1  0.594072  0.839017  0.886996  1
  O  O25  1  0.548108  0.176884  0.457457  1
  O  O26  1  0.640750  0.605751  0.393226  1
  O  O27  1  0.731996  0.507316  0.840803  1
  O  O28  1  0.710271  0.232831  0.800725  1
  O  O29  1  0.747709  0.864976  0.363525  1
  O  O30  1  0.752291  0.364976  0.136475  1
  O  O31  1  0.789729  0.732831  0.699275  1
  O  O32  1  0.768004  0.007316  0.659197  1
  O  O33  1  0.859250  0.105751  0.106774  1
  O  O34  1  0.905928  0.339017  0.613004  1
  O  O35  1  0.951892  0.676884  0.042543  1
