# generated using pymatgen
data_Li4Nb2Fe3Sb3O16
_symmetry_space_group_name_H-M   'P 1'
_cell_length_a   6.31687066
_cell_length_b   6.24229255
_cell_length_c   9.99205852
_cell_angle_alpha   89.80331457
_cell_angle_beta   89.35711305
_cell_angle_gamma   119.45412972
_symmetry_Int_Tables_number   1
_chemical_formula_structural   Li4Nb2Fe3Sb3O16
_chemical_formula_sum   'Li4 Nb2 Fe3 Sb3 O16'
_cell_volume   343.03947026
_cell_formula_units_Z   1
loop_
 _symmetry_equiv_pos_site_id
 _symmetry_equiv_pos_as_xyz
  1  'x, y, z'
loop_
 _atom_site_type_symbol
 _atom_site_label
 _atom_site_symmetry_multiplicity
 _atom_site_fract_x
 _atom_site_fract_y
 _atom_site_fract_z
 _atom_site_occupancy
  Li  Li0  1  0.343294  0.671705  0.894176  1
  Li  Li1  1  0.973941  0.985868  0.982422  1
  Li  Li2  1  0.982570  0.991211  0.495881  1
  Li  Li3  1  0.671223  0.337095  0.414306  1
  Nb  Nb4  1  0.340985  0.672022  0.498336  1
  Nb  Nb5  1  0.688628  0.343590  0.978796  1
  Fe  Fe6  1  0.667147  0.832683  0.211714  1
  Fe  Fe7  1  0.826260  0.664260  0.710351  1
  Fe  Fe8  1  0.825584  0.162493  0.709615  1
  Sb  Sb9  1  0.180716  0.831650  0.213706  1
  Sb  Sb10  1  0.184909  0.351094  0.211016  1
  Sb  Sb11  1  0.344053  0.173062  0.715999  1
  O  O12  1  0.198522  0.861692  0.596337  1
  O  O13  1  0.043803  0.526160  0.395247  1
  O  O14  1  0.392836  0.691863  0.092996  1
  O  O15  1  0.977692  0.985236  0.309394  1
  O  O16  1  0.013947  0.009730  0.799845  1
  O  O17  1  0.197654  0.338263  0.595512  1
  O  O18  1  0.483682  0.955890  0.343706  1
  O  O19  1  0.482287  0.526452  0.343428  1
  O  O20  1  0.331828  0.167077  0.096927  1
  O  O21  1  0.662860  0.832106  0.593742  1
  O  O22  1  0.496137  0.460110  0.843826  1
  O  O23  1  0.495139  0.036462  0.843920  1
  O  O24  1  0.652219  0.325087  0.609856  1
  O  O25  1  0.798851  0.646619  0.080239  1
  O  O26  1  0.947237  0.473896  0.847572  1
  O  O27  1  0.795997  0.146924  0.078977  1
