# generated using pymatgen
data_Ge11N11O5
_symmetry_space_group_name_H-M   'P 1'
_cell_length_a   5.91162064
_cell_length_b   5.89605437
_cell_length_c   10.22635005
_cell_angle_alpha   90.16485642
_cell_angle_beta   73.04656026
_cell_angle_gamma   120.23730123
_symmetry_Int_Tables_number   1
_chemical_formula_structural   Ge11N11O5
_chemical_formula_sum   'Ge11 N11 O5'
_cell_volume   290.06002849
_cell_formula_units_Z   1
loop_
 _symmetry_equiv_pos_site_id
 _symmetry_equiv_pos_as_xyz
  1  'x, y, z'
loop_
 _atom_site_type_symbol
 _atom_site_label
 _atom_site_symmetry_multiplicity
 _atom_site_fract_x
 _atom_site_fract_y
 _atom_site_fract_z
 _atom_site_occupancy
  Ge  Ge0  1  0.628077  0.311356  0.561076  1
  Ge  Ge1  1  0.623533  0.805476  0.064931  1
  Ge  Ge2  1  0.134703  0.315838  0.066759  1
  Ge  Ge3  1  0.745646  0.382032  0.873903  1
  Ge  Ge4  1  0.751555  0.876102  0.372765  1
  Ge  Ge5  1  0.137262  0.056373  0.809537  1
  Ge  Ge6  1  0.131997  0.812114  0.060960  1
  Ge  Ge7  1  0.128998  0.565862  0.310551  1
  Ge  Ge8  1  0.126082  0.314352  0.564675  1
  Ge  Ge9  1  0.503444  0.749355  0.750109  1
  Ge  Ge10  1  0.123486  0.811810  0.561570  1
  N  N11  1  0.888706  0.210957  0.437977  1
  N  N12  1  0.887027  0.676342  0.437186  1
  N  N13  1  0.885092  0.943364  0.174279  1
  N  N14  1  0.883605  0.444553  0.671676  1
  N  N15  1  0.345782  0.177453  0.943648  1
  N  N16  1  0.883552  0.712685  0.944321  1
  N  N17  1  0.899970  0.950716  0.686328  1
  N  N18  1  0.351854  0.675725  0.437562  1
  N  N19  1  0.367104  0.417113  0.685119  1
  N  N20  1  0.369850  0.945811  0.682422  1
  N  N21  1  0.372980  0.686341  0.947408  1
  O  O22  1  0.929948  0.463065  0.177193  1
  O  O23  1  0.882064  0.176519  0.949661  1
  O  O24  1  0.365306  0.461497  0.179062  1
  O  O25  1  0.357244  0.178010  0.466311  1
  O  O26  1  0.367269  0.900857  0.175477  1
