# generated using pymatgen
data_SbAsAuF9
_symmetry_space_group_name_H-M   'P 1'
_cell_length_a   8.14838299
_cell_length_b   9.29310081
_cell_length_c   10.99857132
_cell_angle_alpha   90.00000000
_cell_angle_beta   96.16728675
_cell_angle_gamma   90.00000000
_symmetry_Int_Tables_number   1
_chemical_formula_structural   SbAsAuF9
_chemical_formula_sum   'Sb4 As4 Au4 F36'
_cell_volume   828.03283836
_cell_formula_units_Z   4
loop_
 _symmetry_equiv_pos_site_id
 _symmetry_equiv_pos_as_xyz
  1  'x, y, z'
loop_
 _atom_site_type_symbol
 _atom_site_label
 _atom_site_symmetry_multiplicity
 _atom_site_fract_x
 _atom_site_fract_y
 _atom_site_fract_z
 _atom_site_occupancy
  Sb  Sb0  1  0.259214  0.675295  0.921611  1
  Sb  Sb1  1  0.240786  0.175295  0.578389  1
  Sb  Sb2  1  0.759214  0.824705  0.421611  1
  Sb  Sb3  1  0.740786  0.324705  0.078389  1
  As  As4  1  0.250063  0.636120  0.386276  1
  As  As5  1  0.249937  0.136120  0.113725  1
  As  As6  1  0.750063  0.863880  0.886276  1
  As  As7  1  0.749937  0.363880  0.613724  1
  Au  Au8  1  0.204088  0.707612  0.581535  1
  Au  Au9  1  0.295912  0.207612  0.918465  1
  Au  Au10  1  0.704088  0.792388  0.081535  1
  Au  Au11  1  0.795912  0.292388  0.418465  1
  F  F12  1  0.051772  0.686185  0.987466  1
  F  F13  1  0.046862  0.178151  0.663320  1
  F  F14  1  0.141799  0.749752  0.765224  1
  F  F15  1  0.101307  0.535374  0.300917  1
  F  F16  1  0.122661  0.103359  0.432131  1
  F  F17  1  0.080603  0.028877  0.131442  1
  F  F18  1  0.209542  0.485404  0.860407  1
  F  F19  1  0.195344  0.371312  0.529868  1
  F  F20  1  0.304657  0.871312  0.970132  1
  F  F21  1  0.220401  0.265368  0.221571  1
  F  F22  1  0.290458  0.985404  0.639593  1
  F  F23  1  0.279599  0.765368  0.278429  1
  F  F24  1  0.358201  0.249752  0.734776  1
  F  F25  1  0.453138  0.678151  0.836680  1
  F  F26  1  0.419397  0.528877  0.368558  1
  F  F27  1  0.377339  0.603359  0.067869  1
  F  F28  1  0.398693  0.035374  0.199083  1
  F  F29  1  0.448228  0.186185  0.512534  1
  F  F30  1  0.551772  0.813815  0.487466  1
  F  F31  1  0.601307  0.964626  0.800917  1
  F  F32  1  0.622661  0.396641  0.932131  1
  F  F33  1  0.580603  0.471123  0.631442  1
  F  F34  1  0.546862  0.321849  0.163320  1
  F  F35  1  0.641799  0.750248  0.265224  1
  F  F36  1  0.720401  0.234632  0.721571  1
  F  F37  1  0.709542  0.014596  0.360407  1
  F  F38  1  0.779599  0.734632  0.778429  1
  F  F39  1  0.695343  0.128689  0.029868  1
  F  F40  1  0.804657  0.628688  0.470132  1
  F  F41  1  0.790458  0.514596  0.139593  1
  F  F42  1  0.919397  0.971123  0.868558  1
  F  F43  1  0.877339  0.896641  0.567869  1
  F  F44  1  0.898693  0.464626  0.699083  1
  F  F45  1  0.858201  0.250248  0.234776  1
  F  F46  1  0.953138  0.821849  0.336680  1
  F  F47  1  0.948228  0.313815  0.012534  1
