# generated using pymatgen
data_Rb2CrH2Cl5O
_symmetry_space_group_name_H-M   'P 1'
_cell_length_a   14.19591879
_cell_length_b   9.84369868
_cell_length_c   7.34614918
_cell_angle_alpha   90.00000000
_cell_angle_beta   90.00000000
_cell_angle_gamma   90.00000000
_symmetry_Int_Tables_number   1
_chemical_formula_structural   Rb2CrH2Cl5O
_chemical_formula_sum   'Rb8 Cr4 H8 Cl20 O4'
_cell_volume   1026.55343593
_cell_formula_units_Z   4
loop_
 _symmetry_equiv_pos_site_id
 _symmetry_equiv_pos_as_xyz
  1  'x, y, z'
loop_
 _atom_site_type_symbol
 _atom_site_label
 _atom_site_symmetry_multiplicity
 _atom_site_fract_x
 _atom_site_fract_y
 _atom_site_fract_z
 _atom_site_occupancy
  Rb  Rb0  1  0.645140  0.998962  0.346938  1
  Rb  Rb1  1  0.145140  0.501038  0.153062  1
  Rb  Rb2  1  0.354860  0.498962  0.653062  1
  Rb  Rb3  1  0.854860  0.001038  0.846938  1
  Rb  Rb4  1  0.354860  0.001038  0.653062  1
  Rb  Rb5  1  0.854860  0.498962  0.846938  1
  Rb  Rb6  1  0.645140  0.501038  0.346938  1
  Rb  Rb7  1  0.145140  0.998962  0.153062  1
  Cr  Cr8  1  0.611258  0.250000  0.808904  1
  Cr  Cr9  1  0.111258  0.250000  0.691096  1
  Cr  Cr10  1  0.388742  0.750000  0.191096  1
  Cr  Cr11  1  0.888742  0.750000  0.308904  1
  H  H12  1  0.470979  0.168469  0.041330  1
  H  H13  1  0.970979  0.331531  0.458670  1
  H  H14  1  0.529021  0.668469  0.958670  1
  H  H15  1  0.029021  0.831531  0.541330  1
  H  H16  1  0.529021  0.831531  0.958670  1
  H  H17  1  0.029021  0.668469  0.541330  1
  H  H18  1  0.470979  0.331531  0.041330  1
  H  H19  1  0.970979  0.168469  0.458670  1
  Cl  Cl20  1  0.715270  0.250000  0.063497  1
  Cl  Cl21  1  0.215270  0.250000  0.436503  1
  Cl  Cl22  1  0.284730  0.750000  0.936503  1
  Cl  Cl23  1  0.784730  0.750000  0.563497  1
  Cl  Cl24  1  0.508845  0.250000  0.548158  1
  Cl  Cl25  1  0.008845  0.250000  0.951842  1
  Cl  Cl26  1  0.491155  0.750000  0.451842  1
  Cl  Cl27  1  0.991155  0.750000  0.048158  1
  Cl  Cl28  1  0.742390  0.250000  0.609825  1
  Cl  Cl29  1  0.242390  0.250000  0.890175  1
  Cl  Cl30  1  0.257610  0.750000  0.390175  1
  Cl  Cl31  1  0.757610  0.750000  0.109825  1
  Cl  Cl32  1  0.603667  0.007101  0.819241  1
  Cl  Cl33  1  0.103667  0.492899  0.680759  1
  Cl  Cl34  1  0.396333  0.507101  0.180759  1
  Cl  Cl35  1  0.896333  0.992899  0.319241  1
  Cl  Cl36  1  0.396333  0.992899  0.180759  1
  Cl  Cl37  1  0.896333  0.507101  0.319241  1
  Cl  Cl38  1  0.603667  0.492899  0.819241  1
  Cl  Cl39  1  0.103667  0.007101  0.680759  1
  O  O40  1  0.493684  0.250000  0.978232  1
  O  O41  1  0.993684  0.250000  0.521768  1
  O  O42  1  0.506316  0.750000  0.021768  1
  O  O43  1  0.006316  0.750000  0.478232  1
