# generated using pymatgen
data_Mg2SiO4
_symmetry_space_group_name_H-M   'P 1'
_cell_length_a   2.84106489
_cell_length_b   5.04532776
_cell_length_c   8.88335133
_cell_angle_alpha   90.00000000
_cell_angle_beta   90.00000000
_cell_angle_gamma   90.00000000
_symmetry_Int_Tables_number   1
_chemical_formula_structural   Mg2SiO4
_chemical_formula_sum   'Mg4 Si2 O8'
_cell_volume   127.33487790
_cell_formula_units_Z   2
loop_
 _symmetry_equiv_pos_site_id
 _symmetry_equiv_pos_as_xyz
  1  'x, y, z'
loop_
 _atom_site_type_symbol
 _atom_site_label
 _atom_site_symmetry_multiplicity
 _atom_site_fract_x
 _atom_site_fract_y
 _atom_site_fract_z
 _atom_site_occupancy
  O  O0  1  0.000000  0.138081  0.817057  1
  O  O1  1  0.000000  0.861919  0.182943  1
  O  O2  1  0.000000  0.638081  0.682943  1
  O  O3  1  0.000000  0.361919  0.317057  1
  O  O4  1  0.500000  0.274829  0.549944  1
  O  O5  1  0.500000  0.725171  0.450056  1
  O  O6  1  0.500000  0.225171  0.049944  1
  O  O7  1  0.500000  0.774829  0.950056  1
  Mg  Mg8  1  0.500000  0.435623  0.816160  1
  Mg  Mg9  1  0.500000  0.564377  0.183840  1
  Mg  Mg10  1  0.500000  0.935623  0.683840  1
  Mg  Mg11  1  0.500000  0.064377  0.316160  1
  Si  Si12  1  0.000000  0.500000  0.500000  1
  Si  Si13  1  0.000000  0.000000  0.000000  1
