# generated using pymatgen
data_Fe3(O2F)2
_symmetry_space_group_name_H-M   'P 1'
_cell_length_a   4.71034323
_cell_length_b   14.02858726
_cell_length_c   3.05320258
_cell_angle_alpha   90.00001183
_cell_angle_beta   89.99999249
_cell_angle_gamma   89.99916079
_symmetry_Int_Tables_number   1
_chemical_formula_structural   Fe3(O2F)2
_chemical_formula_sum   'Fe6 O8 F4'
_cell_volume   201.75398088
_cell_formula_units_Z   2
loop_
 _symmetry_equiv_pos_site_id
 _symmetry_equiv_pos_as_xyz
  1  'x, y, z'
loop_
 _atom_site_type_symbol
 _atom_site_label
 _atom_site_symmetry_multiplicity
 _atom_site_fract_x
 _atom_site_fract_y
 _atom_site_fract_z
 _atom_site_occupancy
  Fe  Fe0  1  0.934118  0.008997  -0.000000  1
  Fe  Fe1  1  0.999954  0.333296  -0.000000  1
  Fe  Fe2  1  0.065975  0.657660  -0.000000  1
  Fe  Fe3  1  0.434106  0.157669  0.499999  1
  Fe  Fe4  1  0.565960  0.509011  0.500000  1
  Fe  Fe5  1  0.499966  0.833377  0.499999  1
  O  O6  1  0.167996  0.267263  0.500000  1
  O  O7  1  0.247078  0.599260  0.500000  1
  O  O8  1  0.252839  0.099197  -0.000001  1
  O  O9  1  0.332053  0.767339  0.999999  1
  O  O10  1  0.747052  0.567425  -0.000000  1
  O  O11  1  0.668012  0.899387  0.999999  1
  O  O12  1  0.752814  0.067448  0.500001  1
  O  O13  1  0.832008  0.399343  0.500001  1
  F  F14  1  0.156537  0.934173  0.500000  1
  F  F15  1  0.343499  0.434146  0.000004  1
  F  F16  1  0.656513  0.232469  1.000000  1
  F  F17  1  0.843519  0.732543  0.499999  1
