# generated using pymatgen
data_Fe5(OF4)2
_symmetry_space_group_name_H-M   'P 1'
_cell_length_a   4.84766832
_cell_length_b   7.96787903
_cell_length_c   10.13270718
_cell_angle_alpha   108.89913330
_cell_angle_beta   91.89777965
_cell_angle_gamma   89.11386077
_symmetry_Int_Tables_number   1
_chemical_formula_structural   Fe5(OF4)2
_chemical_formula_sum   'Fe10 O4 F16'
_cell_volume   370.07518295
_cell_formula_units_Z   2
loop_
 _symmetry_equiv_pos_site_id
 _symmetry_equiv_pos_as_xyz
  1  'x, y, z'
loop_
 _atom_site_type_symbol
 _atom_site_label
 _atom_site_symmetry_multiplicity
 _atom_site_fract_x
 _atom_site_fract_y
 _atom_site_fract_z
 _atom_site_occupancy
  Fe  Fe0  1  0.498331  0.301527  0.894753  1
  Fe  Fe1  1  0.511748  0.090327  0.306014  1
  Fe  Fe2  1  0.495792  0.902036  0.696533  1
  Fe  Fe3  1  0.531693  0.689044  0.108313  1
  Fe  Fe4  1  0.510827  0.505837  0.511086  1
  Fe  Fe5  1  0.972293  0.607442  0.786416  1
  Fe  Fe6  1  0.024590  0.197271  0.610572  1
  Fe  Fe7  1  0.982520  0.806733  0.393146  1
  Fe  Fe8  1  0.980942  0.401917  0.191561  1
  Fe  Fe9  1  0.005627  0.993449  0.001409  1
  O  O10  1  0.678716  0.686784  0.680041  1
  O  O11  1  0.695817  0.451867  0.072987  1
  O  O12  1  0.691146  0.849195  0.268505  1
  O  O13  1  0.322281  0.139006  0.736390  1
  F  F14  1  0.786371  0.756113  0.979994  1
  F  F15  1  0.788317  0.964375  0.582609  1
  F  F16  1  0.815725  0.543359  0.367143  1
  F  F17  1  0.792004  0.363233  0.785768  1
  F  F18  1  0.817327  0.172115  0.182926  1
  F  F19  1  0.703608  0.066226  0.886425  1
  F  F20  1  0.708739  0.261227  0.486251  1
  F  F21  1  0.288105  0.753954  0.518067  1
  F  F22  1  0.299712  0.341623  0.317858  1
  F  F23  1  0.300086  0.917597  0.112475  1
  F  F24  1  0.300263  0.537599  0.922487  1
  F  F25  1  0.193215  0.441767  0.621545  1
  F  F26  1  0.192758  0.044964  0.420130  1
  F  F27  1  0.205525  0.844949  0.819587  1
  F  F28  1  0.203681  0.248164  0.029629  1
  F  F29  1  0.202242  0.620302  0.209378  1
