# generated using pymatgen
data_LiBi2P3O11
_symmetry_space_group_name_H-M   'P 1'
_cell_length_a   7.89124449
_cell_length_b   7.89124449
_cell_length_c   9.63482444
_cell_angle_alpha   67.25731864
_cell_angle_beta   112.74268136
_cell_angle_gamma   106.15708691
_symmetry_Int_Tables_number   1
_chemical_formula_structural   LiBi2P3O11
_chemical_formula_sum   'Li2 Bi4 P6 O22'
_cell_volume   504.42144870
_cell_formula_units_Z   2
loop_
 _symmetry_equiv_pos_site_id
 _symmetry_equiv_pos_as_xyz
  1  'x, y, z'
loop_
 _atom_site_type_symbol
 _atom_site_label
 _atom_site_symmetry_multiplicity
 _atom_site_fract_x
 _atom_site_fract_y
 _atom_site_fract_z
 _atom_site_occupancy
  Li  Li0  1  0.486030  0.981477  0.018745  1
  Li  Li1  1  0.981477  0.486030  0.481255  1
  Bi  Bi2  1  0.120347  0.343652  0.944548  1
  Bi  Bi3  1  0.655250  0.879425  0.446782  1
  Bi  Bi4  1  0.343652  0.120347  0.555452  1
  Bi  Bi5  1  0.879425  0.655250  0.053218  1
  P  P6  1  0.446654  0.676000  0.768731  1
  P  P7  1  0.050926  0.050926  0.750000  1
  P  P8  1  0.322936  0.554827  0.264743  1
  P  P9  1  0.676000  0.446654  0.731269  1
  P  P10  1  0.947683  0.947683  0.250000  1
  P  P11  1  0.554827  0.322936  0.235257  1
  O  O12  1  0.004882  0.921111  0.900783  1
  O  O13  1  0.078492  0.992214  0.400562  1
  O  O14  1  0.246301  0.612322  0.766469  1
  O  O15  1  0.468814  0.843829  0.621252  1
  O  O16  1  0.577126  0.719883  0.921622  1
  O  O17  1  0.039388  0.259729  0.719959  1
  O  O18  1  0.387190  0.759311  0.254280  1
  O  O19  1  0.508455  0.508455  0.750000  1
  O  O20  1  0.156562  0.529058  0.117879  1
  O  O21  1  0.279224  0.429731  0.418205  1
  O  O22  1  0.738888  0.956992  0.223773  1
  O  O23  1  0.259729  0.039388  0.780041  1
  O  O24  1  0.719883  0.577126  0.578378  1
  O  O25  1  0.843829  0.468814  0.878748  1
  O  O26  1  0.492315  0.492315  0.250000  1
  O  O27  1  0.612322  0.246301  0.733531  1
  O  O28  1  0.956992  0.738888  0.276227  1
  O  O29  1  0.429731  0.279224  0.081795  1
  O  O30  1  0.529058  0.156562  0.382121  1
  O  O31  1  0.759311  0.387190  0.245720  1
  O  O32  1  0.921111  0.004882  0.599217  1
  O  O33  1  0.992214  0.078492  0.099438  1
