# generated using pymatgen
data_Ni17(As3O16)2
_symmetry_space_group_name_H-M   'P 1'
_cell_length_a   9.94289673
_cell_length_b   39.77542781
_cell_length_c   18.96018590
_cell_angle_alpha   17.56572115
_cell_angle_beta   31.05538846
_cell_angle_gamma   35.24212836
_symmetry_Int_Tables_number   1
_chemical_formula_structural   Ni17(As3O16)2
_chemical_formula_sum   'Ni34 As12 O64'
_cell_volume   1167.41772733
_cell_formula_units_Z   2
loop_
 _symmetry_equiv_pos_site_id
 _symmetry_equiv_pos_as_xyz
  1  'x, y, z'
loop_
 _atom_site_type_symbol
 _atom_site_label
 _atom_site_symmetry_multiplicity
 _atom_site_fract_x
 _atom_site_fract_y
 _atom_site_fract_z
 _atom_site_occupancy
  Ni  Ni0  1  0.013626  0.001996  0.488847  1
  Ni  Ni1  1  0.262478  0.124531  0.248564  1
  Ni  Ni2  1  0.746950  0.003120  0.249005  1
  Ni  Ni3  1  0.743933  0.126225  0.244037  1
  Ni  Ni4  1  0.986407  0.248002  0.511147  1
  Ni  Ni5  1  0.501622  0.381071  0.987247  1
  Ni  Ni6  1  0.500009  0.124998  0.500000  1
  Ni  Ni7  1  0.256041  0.123773  0.755983  1
  Ni  Ni8  1  0.251701  0.374753  0.256145  1
  Ni  Ni9  1  0.754962  0.250054  0.254258  1
  Ni  Ni10  1  0.253058  0.246882  0.750962  1
  Ni  Ni11  1  0.737500  0.125476  0.751440  1
  Ni  Ni12  1  0.745190  0.375355  0.243820  1
  Ni  Ni13  1  0.500010  0.624998  0.000002  1
  Ni  Ni14  1  0.501596  0.368938  0.511505  1
  Ni  Ni15  1  0.251678  0.375267  0.755088  1
  Ni  Ni16  1  0.256010  0.626236  0.251070  1
  Ni  Ni17  1  0.754967  0.499944  0.254476  1
  Ni  Ni18  1  0.253014  0.503093  0.738526  1
  Ni  Ni19  1  0.745157  0.374644  0.745261  1
  Ni  Ni20  1  0.737547  0.624520  0.253323  1
  Ni  Ni21  1  0.498377  0.868929  0.012754  1
  Ni  Ni22  1  0.986404  0.501995  0.503143  1
  Ni  Ni23  1  0.262456  0.625479  0.746682  1
  Ni  Ni24  1  0.254815  0.875352  0.254767  1
  Ni  Ni25  1  0.746987  0.746907  0.261474  1
  Ni  Ni26  1  0.245041  0.750058  0.745521  1
  Ni  Ni27  1  0.743995  0.623765  0.748927  1
  Ni  Ni28  1  0.748321  0.874706  0.244977  1
  Ni  Ni29  1  0.498417  0.881067  0.488477  1
  Ni  Ni30  1  0.013613  0.748010  0.496835  1
  Ni  Ni31  1  0.254817  0.874652  0.756167  1
  Ni  Ni32  1  0.245013  0.999945  0.745750  1
  Ni  Ni33  1  0.748318  0.875259  0.743837  1
  As  As34  1  0.995370  0.001099  0.000268  1
  As  As35  1  0.191510  0.999916  0.192976  1
  As  As36  1  0.004634  0.248898  0.999732  1
  As  As37  1  0.190835  0.249847  0.193122  1
  As  As38  1  0.004668  0.501100  0.995314  1
  As  As39  1  0.190868  0.500153  0.192508  1
  As  As40  1  0.995341  0.748906  0.004675  1
  As  As41  1  0.808496  0.250078  0.807039  1
  As  As42  1  0.191503  0.750086  0.192639  1
  As  As43  1  0.808488  0.499912  0.807364  1
  As  As44  1  0.809137  0.749853  0.807487  1
  As  As45  1  0.809153  0.000155  0.806874  1
  O  O46  1  0.126953  0.000143  0.129878  1
  O  O47  1  0.090617  0.140724  0.113221  1
  O  O48  1  0.677490  0.994767  0.111624  1
  O  O49  1  0.367756  0.991619  0.402677  1
  O  O50  1  0.106013  0.001290  0.630124  1
  O  O51  1  0.128833  0.249282  0.130036  1
  O  O52  1  0.632926  0.131548  0.106217  1
  O  O53  1  0.367381  0.131234  0.368434  1
  O  O54  1  0.110432  0.389700  0.108215  1
  O  O55  1  0.108744  0.110814  0.666366  1
  O  O56  1  0.664530  0.250944  0.109566  1
  O  O57  1  0.377675  0.249673  0.376836  1
  O  O58  1  0.891265  0.139187  0.333630  1
  O  O59  1  0.106494  0.249651  0.632987  1
  O  O60  1  0.128828  0.500723  0.127170  1
  O  O61  1  0.632609  0.118769  0.631563  1
  O  O62  1  0.632334  0.381217  0.106850  1
  O  O63  1  0.367072  0.118454  0.893770  1
  O  O64  1  0.365024  0.381579  0.368619  1
  O  O65  1  0.893975  0.248711  0.369871  1
  O  O66  1  0.110406  0.360300  0.667022  1
  O  O67  1  0.108735  0.639191  0.109615  1
  O  O68  1  0.632233  0.258382  0.597315  1
  O  O69  1  0.664549  0.499057  0.113336  1
  O  O70  1  0.322507  0.255230  0.888376  1
  O  O71  1  0.377694  0.500327  0.375522  1
  O  O72  1  0.909373  0.109275  0.886783  1
  O  O73  1  0.885918  0.389008  0.336403  1
  O  O74  1  0.106494  0.500348  0.631585  1
  O  O75  1  0.126938  0.749865  0.130437  1
  O  O76  1  0.632343  0.368761  0.631750  1
  O  O77  1  0.632598  0.631231  0.106641  1
  O  O78  1  0.365016  0.368421  0.894927  1
  O  O79  1  0.367091  0.631564  0.367539  1
  O  O80  1  0.873041  0.249854  0.870136  1
  O  O81  1  0.894000  0.501294  0.364699  1
  O  O82  1  0.114066  0.889017  0.107546  1
  O  O83  1  0.090645  0.609272  0.676110  1
  O  O84  1  0.632222  0.491605  0.630879  1
  O  O85  1  0.677486  0.755232  0.090693  1
  O  O86  1  0.322514  0.494767  0.909314  1
  O  O87  1  0.367780  0.758396  0.369121  1
  O  O88  1  0.885944  0.360983  0.892452  1
  O  O89  1  0.909353  0.640726  0.323892  1
  O  O90  1  0.106003  0.748709  0.635299  1
  O  O91  1  0.632909  0.618435  0.632462  1
  O  O92  1  0.634983  0.881572  0.105092  1
  O  O93  1  0.367411  0.618779  0.893331  1
  O  O94  1  0.367665  0.881233  0.368255  1
  O  O95  1  0.873067  0.500137  0.869549  1
  O  O96  1  0.893494  0.749651  0.368417  1
  O  O97  1  0.114064  0.860986  0.663607  1
  O  O98  1  0.622321  0.749674  0.624478  1
  O  O99  1  0.335458  0.750947  0.886660  1
  O  O100  1  0.891273  0.610808  0.890386  1
  O  O101  1  0.889579  0.889698  0.332981  1
  O  O102  1  0.634985  0.868424  0.631371  1
  O  O103  1  0.367661  0.868775  0.893172  1
  O  O104  1  0.871167  0.749277  0.872841  1
  O  O105  1  0.893511  0.000349  0.367015  1
  O  O106  1  0.622307  0.000325  0.623166  1
  O  O107  1  0.335462  0.999053  0.890437  1
  O  O108  1  0.889573  0.860305  0.891777  1
  O  O109  1  0.871173  0.000722  0.869946  1
