# generated using pymatgen
data_Ti3CoNi2(PO4)6
_symmetry_space_group_name_H-M   'P 1'
_cell_length_a   8.49876626
_cell_length_b   8.49876672
_cell_length_c   8.49876614
_cell_angle_alpha   61.04975594
_cell_angle_beta   61.04975558
_cell_angle_gamma   61.04975791
_symmetry_Int_Tables_number   1
_chemical_formula_structural   Ti3CoNi2(PO4)6
_chemical_formula_sum   'Ti3 Co1 Ni2 P6 O24'
_cell_volume   444.32313737
_cell_formula_units_Z   1
loop_
 _symmetry_equiv_pos_site_id
 _symmetry_equiv_pos_as_xyz
  1  'x, y, z'
loop_
 _atom_site_type_symbol
 _atom_site_label
 _atom_site_symmetry_multiplicity
 _atom_site_fract_x
 _atom_site_fract_y
 _atom_site_fract_z
 _atom_site_occupancy
  Ti  Ti0  1  0.143067  0.143067  0.143067  1
  Ti  Ti1  1  0.354905  0.354905  0.354905  1
  Ti  Ti2  1  0.645672  0.645672  0.645672  1
  Co  Co3  1  0.855895  0.855895  0.855895  1
  Ni  Ni4  1  0.997407  0.997407  0.997407  1
  Ni  Ni5  1  0.499032  0.499032  0.499032  1
  P  P6  1  0.250127  0.546169  0.953590  1
  P  P7  1  0.546169  0.953590  0.250127  1
  P  P8  1  0.953590  0.250127  0.546169  1
  P  P9  1  0.047541  0.752246  0.454634  1
  P  P10  1  0.454634  0.047541  0.752246  1
  P  P11  1  0.752246  0.454634  0.047541  1
  O  O12  1  0.113790  0.325948  0.488276  1
  O  O13  1  0.325948  0.488276  0.113790  1
  O  O14  1  0.058191  0.909485  0.254715  1
  O  O15  1  0.488276  0.113790  0.325948  1
  O  O16  1  0.015079  0.816983  0.605501  1
  O  O17  1  0.243647  0.587970  0.433336  1
  O  O18  1  0.254715  0.058191  0.909485  1
  O  O19  1  0.433336  0.243647  0.587970  1
  O  O20  1  0.185217  0.380855  0.001965  1
  O  O21  1  0.587970  0.433336  0.243647  1
  O  O22  1  0.097609  0.739208  0.947325  1
  O  O23  1  0.380855  0.001965  0.185217  1
  O  O24  1  0.605501  0.015079  0.816983  1
  O  O25  1  0.909485  0.254715  0.058191  1
  O  O26  1  0.413256  0.552918  0.758156  1
  O  O27  1  0.816983  0.605501  0.015079  1
  O  O28  1  0.552918  0.758156  0.413256  1
  O  O29  1  0.739208  0.947325  0.097609  1
  O  O30  1  0.758156  0.413256  0.552918  1
  O  O31  1  0.001965  0.185217  0.380855  1
  O  O32  1  0.503057  0.881964  0.685265  1
  O  O33  1  0.947325  0.097609  0.739208  1
  O  O34  1  0.685265  0.503057  0.881964  1
  O  O35  1  0.881964  0.685265  0.503057  1
