# generated using pymatgen
data_CaB3H5O8
_symmetry_space_group_name_H-M   'P 1'
_cell_length_a   8.86216733
_cell_length_b   11.24484793
_cell_length_c   6.16583281
_cell_angle_alpha   90.00000000
_cell_angle_beta   110.44261381
_cell_angle_gamma   90.00000000
_symmetry_Int_Tables_number   1
_chemical_formula_structural   CaB3H5O8
_chemical_formula_sum   'Ca4 B12 H20 O32'
_cell_volume   575.75177665
_cell_formula_units_Z   4
loop_
 _symmetry_equiv_pos_site_id
 _symmetry_equiv_pos_as_xyz
  1  'x, y, z'
loop_
 _atom_site_type_symbol
 _atom_site_label
 _atom_site_symmetry_multiplicity
 _atom_site_fract_x
 _atom_site_fract_y
 _atom_site_fract_z
 _atom_site_occupancy
  Ca  Ca0  1  0.136432  0.292922  0.737649  1
  Ca  Ca1  1  0.363568  0.792922  0.262351  1
  Ca  Ca2  1  0.863568  0.707078  0.262351  1
  Ca  Ca3  1  0.636432  0.207078  0.737649  1
  B  B4  1  0.833364  0.291018  0.312665  1
  B  B5  1  0.666636  0.791018  0.687335  1
  B  B6  1  0.166636  0.708982  0.687335  1
  B  B7  1  0.333364  0.208982  0.312665  1
  B  B8  1  0.537374  0.328841  0.163751  1
  B  B9  1  0.962626  0.828841  0.836249  1
  B  B10  1  0.462626  0.671159  0.836249  1
  B  B11  1  0.037374  0.171159  0.163751  1
  B  B12  1  0.719256  0.448611  0.498915  1
  B  B13  1  0.780744  0.948611  0.501085  1
  B  B14  1  0.280744  0.551389  0.501085  1
  B  B15  1  0.219256  0.051389  0.498915  1
  H  H16  1  0.421000  0.419385  0.864756  1
  H  H17  1  0.079000  0.919385  0.135244  1
  H  H18  1  0.579000  0.580615  0.135244  1
  H  H19  1  0.921000  0.080615  0.864756  1
  H  H20  1  0.818735  0.604875  0.668607  1
  H  H21  1  0.681265  0.104875  0.331393  1
  H  H22  1  0.181265  0.395125  0.331393  1
  H  H23  1  0.318735  0.895125  0.668607  1
  H  H24  1  0.574612  0.474664  0.697319  1
  H  H25  1  0.925388  0.974664  0.302681  1
  H  H26  1  0.425388  0.525336  0.302681  1
  H  H27  1  0.074612  0.025336  0.697319  1
  H  H28  1  0.201288  0.521826  0.049759  1
  H  H29  1  0.298712  0.021826  0.950241  1
  H  H30  1  0.798712  0.478174  0.950241  1
  H  H31  1  0.701288  0.978174  0.049759  1
  H  H32  1  0.032387  0.529928  0.844400  1
  H  H33  1  0.467613  0.029928  0.155600  1
  H  H34  1  0.967613  0.470072  0.155600  1
  H  H35  1  0.532387  0.970072  0.844400  1
  O  O36  1  0.479232  0.249223  0.310918  1
  O  O37  1  0.020768  0.749223  0.689082  1
  O  O38  1  0.520768  0.750777  0.689082  1
  O  O39  1  0.979232  0.250777  0.310918  1
  O  O40  1  0.686994  0.269926  0.140944  1
  O  O41  1  0.813006  0.769926  0.859056  1
  O  O42  1  0.313006  0.730074  0.859056  1
  O  O43  1  0.186994  0.230074  0.140944  1
  O  O44  1  0.418839  0.338653  0.929880  1
  O  O45  1  0.081161  0.838653  0.070120  1
  O  O46  1  0.581161  0.661347  0.070120  1
  O  O47  1  0.918839  0.161347  0.929880  1
  O  O48  1  0.841061  0.354295  0.509144  1
  O  O49  1  0.658939  0.854295  0.490856  1
  O  O50  1  0.158939  0.645705  0.490856  1
  O  O51  1  0.341061  0.145705  0.509144  1
  O  O52  1  0.582579  0.444491  0.277443  1
  O  O53  1  0.917421  0.944491  0.722557  1
  O  O54  1  0.417421  0.555509  0.722557  1
  O  O55  1  0.082579  0.055509  0.277443  1
  O  O56  1  0.791860  0.568128  0.516797  1
  O  O57  1  0.708140  0.068128  0.483203  1
  O  O58  1  0.208140  0.431872  0.483203  1
  O  O59  1  0.291860  0.931872  0.516797  1
  O  O60  1  0.668539  0.423947  0.701573  1
  O  O61  1  0.831461  0.923947  0.298427  1
  O  O62  1  0.331461  0.576053  0.298427  1
  O  O63  1  0.168539  0.076053  0.701573  1
  O  O64  1  0.124155  0.477631  0.914941  1
  O  O65  1  0.375845  0.977631  0.085059  1
  O  O66  1  0.875845  0.522369  0.085059  1
  O  O67  1  0.624155  0.022369  0.914941  1
