# generated using pymatgen
data_V3Cu(PO4)6
_symmetry_space_group_name_H-M   'P 1'
_cell_length_a   8.71864108
_cell_length_b   8.71864163
_cell_length_c   8.71864156
_cell_angle_alpha   58.43525869
_cell_angle_beta   58.43526068
_cell_angle_gamma   58.43525939
_symmetry_Int_Tables_number   1
_chemical_formula_structural   V3Cu(PO4)6
_chemical_formula_sum   'V3 Cu1 P6 O24'
_cell_volume   451.85083136
_cell_formula_units_Z   1
loop_
 _symmetry_equiv_pos_site_id
 _symmetry_equiv_pos_as_xyz
  1  'x, y, z'
loop_
 _atom_site_type_symbol
 _atom_site_label
 _atom_site_symmetry_multiplicity
 _atom_site_fract_x
 _atom_site_fract_y
 _atom_site_fract_z
 _atom_site_occupancy
  V  V0  1  0.139438  0.139438  0.139438  1
  V  V1  1  0.358905  0.358905  0.358905  1
  V  V2  1  0.638265  0.638265  0.638265  1
  Cu  Cu3  1  0.856486  0.856486  0.856486  1
  P  P4  1  0.031353  0.749804  0.469497  1
  P  P5  1  0.469497  0.031353  0.749804  1
  P  P6  1  0.749804  0.469497  0.031353  1
  P  P7  1  0.245895  0.534297  0.968071  1
  P  P8  1  0.534297  0.968071  0.245895  1
  P  P9  1  0.968071  0.245895  0.534297  1
  O  O10  1  0.138609  0.288483  0.496023  1
  O  O11  1  0.288483  0.496023  0.138609  1
  O  O12  1  0.061190  0.927065  0.283325  1
  O  O13  1  0.496023  0.138609  0.288483  1
  O  O14  1  0.216353  0.576486  0.427318  1
  O  O15  1  0.023421  0.766401  0.637840  1
  O  O16  1  0.283325  0.061190  0.927065  1
  O  O17  1  0.427318  0.216353  0.576486  1
  O  O18  1  0.576486  0.427318  0.216353  1
  O  O19  1  0.222934  0.356538  0.994789  1
  O  O20  1  0.076972  0.717961  0.947777  1
  O  O21  1  0.356538  0.994789  0.222934  1
  O  O22  1  0.637840  0.023421  0.766401  1
  O  O23  1  0.927065  0.283325  0.061190  1
  O  O24  1  0.766401  0.637840  0.023421  1
  O  O25  1  0.430115  0.556513  0.785943  1
  O  O26  1  0.556513  0.785943  0.430115  1
  O  O27  1  0.717961  0.947777  0.076972  1
  O  O28  1  0.994789  0.222934  0.356538  1
  O  O29  1  0.785943  0.430115  0.556513  1
  O  O30  1  0.495559  0.856732  0.723641  1
  O  O31  1  0.947777  0.076972  0.717961  1
  O  O32  1  0.723641  0.495559  0.856732  1
  O  O33  1  0.856732  0.723641  0.495559  1
