# generated using pymatgen
data_Li3V3(BO5)2
_symmetry_space_group_name_H-M   'P 1'
_cell_length_a   9.40774192
_cell_length_b   12.10698805
_cell_length_c   2.99732403
_cell_angle_alpha   89.83136173
_cell_angle_beta   88.85477980
_cell_angle_gamma   89.01141870
_symmetry_Int_Tables_number   1
_chemical_formula_structural   Li3V3(BO5)2
_chemical_formula_sum   'Li6 V6 B4 O20'
_cell_volume   341.27331424
_cell_formula_units_Z   2
loop_
 _symmetry_equiv_pos_site_id
 _symmetry_equiv_pos_as_xyz
  1  'x, y, z'
loop_
 _atom_site_type_symbol
 _atom_site_label
 _atom_site_symmetry_multiplicity
 _atom_site_fract_x
 _atom_site_fract_y
 _atom_site_fract_z
 _atom_site_occupancy
  Li  Li0  1  0.999940  0.000051  0.000085  1
  Li  Li1  1  0.000122  0.500030  0.500250  1
  Li  Li2  1  0.010186  0.290579  0.999276  1
  Li  Li3  1  0.499939  0.499990  0.000018  1
  Li  Li4  1  0.500053  0.000061  0.499944  1
  Li  Li5  1  0.989862  0.709328  0.001073  1
  V  V6  1  0.233806  0.109569  0.519189  1
  V  V7  1  0.253230  0.610571  0.524460  1
  V  V8  1  0.502886  0.782204  0.997526  1
  V  V9  1  0.497101  0.217846  0.002221  1
  V  V10  1  0.746837  0.389456  0.475238  1
  V  V11  1  0.766201  0.890384  0.480449  1
  B  B12  1  0.231378  0.857849  0.496191  1
  B  B13  1  0.264830  0.367608  0.496301  1
  B  B14  1  0.735132  0.632372  0.503810  1
  B  B15  1  0.768567  0.142152  0.503889  1
  O  O16  1  0.119841  0.144470  0.983750  1
  O  O17  1  0.137473  0.575777  0.990085  1
  O  O18  1  0.124175  0.360744  0.493166  1
  O  O19  1  0.159758  0.761689  0.494466  1
  O  O20  1  0.159904  0.958784  0.485230  1
  O  O21  1  0.347144  0.461333  0.499004  1
  O  O22  1  0.350007  0.262963  0.502856  1
  O  O23  1  0.383258  0.855819  0.498899  1
  O  O24  1  0.376747  0.079395  0.011866  1
  O  O25  1  0.387735  0.652091  0.007125  1
  O  O26  1  0.612328  0.347904  0.992789  1
  O  O27  1  0.623251  0.920600  0.987920  1
  O  O28  1  0.616704  0.144205  0.500823  1
  O  O29  1  0.649965  0.737043  0.496870  1
  O  O30  1  0.652819  0.538665  0.501067  1
  O  O31  1  0.840009  0.041191  0.514906  1
  O  O32  1  0.840227  0.238294  0.505937  1
  O  O33  1  0.875795  0.639241  0.507280  1
  O  O34  1  0.862624  0.424251  0.010036  1
  O  O35  1  0.880167  0.855489  0.016007  1
