# generated using pymatgen
data_Li8Mn3Fe5(BO3)8
_symmetry_space_group_name_H-M   'P 1'
_cell_length_a   6.00731164
_cell_length_b   9.76905269
_cell_length_c   9.72835135
_cell_angle_alpha   64.98357722
_cell_angle_beta   78.59927498
_cell_angle_gamma   79.56472581
_symmetry_Int_Tables_number   1
_chemical_formula_structural   Li8Mn3Fe5(BO3)8
_chemical_formula_sum   'Li8 Mn3 Fe5 B8 O24'
_cell_volume   504.08162756
_cell_formula_units_Z   1
loop_
 _symmetry_equiv_pos_site_id
 _symmetry_equiv_pos_as_xyz
  1  'x, y, z'
loop_
 _atom_site_type_symbol
 _atom_site_label
 _atom_site_symmetry_multiplicity
 _atom_site_fract_x
 _atom_site_fract_y
 _atom_site_fract_z
 _atom_site_occupancy
  Li  Li0  1  0.953060  0.184683  0.534234  1
  Li  Li1  1  0.957090  0.688594  0.035311  1
  Li  Li2  1  0.543909  0.812295  0.965680  1
  Li  Li3  1  0.457375  0.687741  0.533233  1
  Li  Li4  1  0.544912  0.312860  0.466036  1
  Li  Li5  1  0.455651  0.185932  0.033713  1
  Li  Li6  1  0.045687  0.314520  0.964525  1
  Li  Li7  1  0.044048  0.811488  0.465507  1
  Mn  Mn8  1  0.685116  0.376739  0.705398  1
  Mn  Mn9  1  0.314107  0.122134  0.794661  1
  Mn  Mn10  1  0.185856  0.377066  0.205758  1
  Fe  Fe11  1  0.817837  0.627723  0.797254  1
  Fe  Fe12  1  0.683167  0.877604  0.208873  1
  Fe  Fe13  1  0.817792  0.128249  0.292900  1
  Fe  Fe14  1  0.182710  0.870580  0.704060  1
  Fe  Fe15  1  0.318927  0.631044  0.292039  1
  B  B16  1  0.666798  0.958345  0.631748  1
  B  B17  1  0.830601  0.035139  0.869273  1
  B  B18  1  0.835163  0.540225  0.365538  1
  B  B19  1  0.666073  0.460817  0.132986  1
  B  B20  1  0.334315  0.540359  0.867184  1
  B  B21  1  0.169167  0.462909  0.631555  1
  B  B22  1  0.162154  0.962432  0.133924  1
  B  B23  1  0.332190  0.037792  0.368631  1
  O  O24  1  0.819132  0.893378  0.988350  1
  O  O25  1  0.989196  0.438827  0.752586  1
  O  O26  1  0.983861  0.936262  0.256250  1
  O  O27  1  0.840981  0.841508  0.634684  1
  O  O28  1  0.824546  0.396753  0.481750  1
  O  O29  1  0.487187  0.931571  0.752714  1
  O  O30  1  0.834056  0.341130  0.135432  1
  O  O31  1  0.660454  0.153494  0.865833  1
  O  O32  1  0.661666  0.657373  0.361339  1
  O  O33  1  0.514171  0.568363  0.746671  1
  O  O34  1  0.676039  0.100822  0.513655  1
  O  O35  1  0.681223  0.601770  0.013667  1
  O  O36  1  0.324556  0.396655  0.983473  1
  O  O37  1  0.321439  0.896030  0.487324  1
  O  O38  1  0.488069  0.438806  0.254333  1
  O  O39  1  0.339931  0.344869  0.634689  1
  O  O40  1  0.332729  0.844287  0.134813  1
  O  O41  1  0.160858  0.657013  0.866319  1
  O  O42  1  0.513337  0.061567  0.247590  1
  O  O43  1  0.180922  0.604584  0.513067  1
  O  O44  1  0.161089  0.155016  0.364802  1
  O  O45  1  0.010157  0.059880  0.747703  1
  O  O46  1  0.016783  0.567828  0.245636  1
  O  O47  1  0.173910  0.104948  0.017298  1
