# generated using pymatgen
data_Tb2TiO5
_symmetry_space_group_name_H-M   'P 1'
_cell_length_a   10.52580505
_cell_length_b   11.31705598
_cell_length_c   3.74380558
_cell_angle_alpha   90.00000000
_cell_angle_beta   90.00000000
_cell_angle_gamma   90.00000000
_symmetry_Int_Tables_number   1
_chemical_formula_structural   Tb2TiO5
_chemical_formula_sum   'Tb8 Ti4 O20'
_cell_volume   445.96633242
_cell_formula_units_Z   4
loop_
 _symmetry_equiv_pos_site_id
 _symmetry_equiv_pos_as_xyz
  1  'x, y, z'
loop_
 _atom_site_type_symbol
 _atom_site_label
 _atom_site_symmetry_multiplicity
 _atom_site_fract_x
 _atom_site_fract_y
 _atom_site_fract_z
 _atom_site_occupancy
  Tb  Tb0  1  0.111794  0.723535  0.250000  1
  Tb  Tb1  1  0.135928  0.056580  0.250000  1
  Tb  Tb2  1  0.364072  0.556580  0.750000  1
  Tb  Tb3  1  0.388206  0.223535  0.750000  1
  Tb  Tb4  1  0.611794  0.776465  0.250000  1
  Tb  Tb5  1  0.635928  0.443420  0.250000  1
  Tb  Tb6  1  0.864072  0.943420  0.750000  1
  Tb  Tb7  1  0.888206  0.276465  0.750000  1
  Ti  Ti8  1  0.178433  0.379176  0.250000  1
  Ti  Ti9  1  0.321567  0.879176  0.750000  1
  Ti  Ti10  1  0.678433  0.120824  0.250000  1
  Ti  Ti11  1  0.821567  0.620824  0.750000  1
  O  O12  1  0.007117  0.103835  0.750000  1
  O  O13  1  0.012945  0.341593  0.250000  1
  O  O14  1  0.225281  0.542018  0.250000  1
  O  O15  1  0.239496  0.382477  0.750000  1
  O  O16  1  0.237522  0.728994  0.750000  1
  O  O17  1  0.262478  0.228994  0.250000  1
  O  O18  1  0.260504  0.882477  0.250000  1
  O  O19  1  0.274719  0.042018  0.750000  1
  O  O20  1  0.487055  0.841593  0.750000  1
  O  O21  1  0.492884  0.603835  0.250000  1
  O  O22  1  0.507116  0.396165  0.750000  1
  O  O23  1  0.512945  0.158407  0.250000  1
  O  O24  1  0.725281  0.957982  0.250000  1
  O  O25  1  0.739496  0.117523  0.750000  1
  O  O26  1  0.737522  0.771006  0.750000  1
  O  O27  1  0.762478  0.271006  0.250000  1
  O  O28  1  0.760504  0.617523  0.250000  1
  O  O29  1  0.774719  0.457982  0.750000  1
  O  O30  1  0.987055  0.658407  0.750000  1
  O  O31  1  0.992884  0.896165  0.250000  1
