# generated using pymatgen
data_LaTa2NO5
_symmetry_space_group_name_H-M   'P 1'
_cell_length_a   11.31642565
_cell_length_b   7.72976550
_cell_length_c   5.53326804
_cell_angle_alpha   89.88278753
_cell_angle_beta   90.00000000
_cell_angle_gamma   90.00000000
_symmetry_Int_Tables_number   1
_chemical_formula_structural   LaTa2NO5
_chemical_formula_sum   'La4 Ta8 N4 O20'
_cell_volume   484.01229454
_cell_formula_units_Z   4
loop_
 _symmetry_equiv_pos_site_id
 _symmetry_equiv_pos_as_xyz
  1  'x, y, z'
loop_
 _atom_site_type_symbol
 _atom_site_label
 _atom_site_symmetry_multiplicity
 _atom_site_fract_x
 _atom_site_fract_y
 _atom_site_fract_z
 _atom_site_occupancy
  La  La0  1  0.035925  0.750297  0.547353  1
  La  La1  1  0.455923  0.248371  0.045587  1
  La  La2  1  0.535925  0.749703  0.952647  1
  La  La3  1  0.955923  0.251629  0.454413  1
  Ta  Ta4  1  0.149405  0.006184  0.038281  1
  Ta  Ta5  1  0.142034  0.497367  0.043937  1
  Ta  Ta6  1  0.353404  0.002509  0.547181  1
  Ta  Ta7  1  0.359515  0.496453  0.531770  1
  Ta  Ta8  1  0.642034  0.002633  0.456063  1
  Ta  Ta9  1  0.649405  0.493816  0.461719  1
  Ta  Ta10  1  0.853404  0.497491  0.952819  1
  Ta  Ta11  1  0.859514  0.003547  0.968230  1
  N  N12  1  0.291107  0.053791  0.873314  1
  N  N13  1  0.356067  0.250619  0.450661  1
  N  N14  1  0.791107  0.446209  0.626686  1
  N  N15  1  0.856067  0.249381  0.049339  1
  O  O16  1  0.023926  0.033230  0.775837  1
  O  O17  1  0.026867  0.466179  0.773080  1
  O  O18  1  0.122345  0.251236  0.149749  1
  O  O19  1  0.142299  0.749157  0.955000  1
  O  O20  1  0.211451  0.558904  0.367100  1
  O  O21  1  0.209316  0.941171  0.369415  1
  O  O22  1  0.286767  0.448874  0.869618  1
  O  O23  1  0.379911  0.749390  0.648784  1
  O  O24  1  0.472564  0.537927  0.262451  1
  O  O25  1  0.481174  0.963154  0.271302  1
  O  O26  1  0.526867  0.033821  0.726920  1
  O  O27  1  0.523926  0.466770  0.724163  1
  O  O28  1  0.622345  0.248764  0.350251  1
  O  O29  1  0.642299  0.750843  0.545000  1
  O  O30  1  0.709316  0.558829  0.130585  1
  O  O31  1  0.711451  0.941096  0.132900  1
  O  O32  1  0.786767  0.051126  0.630382  1
  O  O33  1  0.879911  0.750610  0.851216  1
  O  O34  1  0.981174  0.536846  0.228698  1
  O  O35  1  0.972564  0.962073  0.237549  1
