# generated using pymatgen
data_Mn2Si4O11
_symmetry_space_group_name_H-M   'P 1'
_cell_length_a   8.45744651
_cell_length_b   7.59371116
_cell_length_c   7.15455248
_cell_angle_alpha   109.68370271
_cell_angle_beta   103.26952334
_cell_angle_gamma   96.99711132
_symmetry_Int_Tables_number   1
_chemical_formula_structural   Mn2Si4O11
_chemical_formula_sum   'Mn4 Si8 O22'
_cell_volume   411.02788150
_cell_formula_units_Z   2
loop_
 _symmetry_equiv_pos_site_id
 _symmetry_equiv_pos_as_xyz
  1  'x, y, z'
loop_
 _atom_site_type_symbol
 _atom_site_label
 _atom_site_symmetry_multiplicity
 _atom_site_fract_x
 _atom_site_fract_y
 _atom_site_fract_z
 _atom_site_occupancy
  Mn  Mn0  1  0.388774  0.630342  0.864057  1
  Mn  Mn1  1  0.389329  0.625049  0.360217  1
  Mn  Mn2  1  0.610671  0.374951  0.639783  1
  Mn  Mn3  1  0.611226  0.369658  0.135943  1
  Si  Si4  1  0.024509  0.381149  0.234036  1
  Si  Si5  1  0.220377  0.209479  0.951631  1
  Si  Si6  1  0.214919  0.213940  0.519889  1
  Si  Si7  1  0.605155  0.980957  0.777049  1
  Si  Si8  1  0.394845  0.019043  0.222950  1
  Si  Si9  1  0.785081  0.786060  0.480111  1
  Si  Si10  1  0.779623  0.790521  0.048369  1
  Si  Si11  1  0.975491  0.618851  0.765964  1
  O  O12  1  0.159890  0.578233  0.804145  1
  O  O13  1  0.054877  0.261405  0.389195  1
  O  O14  1  0.163438  0.581120  0.323945  1
  O  O15  1  0.052893  0.240823  0.017153  1
  O  O16  1  0.178154  0.158832  0.706319  1
  O  O17  1  0.278666  0.033993  0.379535  1
  O  O18  1  0.374959  0.402470  0.606745  1
  O  O19  1  0.445499  0.795891  0.658678  1
  O  O20  1  0.432332  0.802783  0.155308  1
  O  O21  1  0.293539  0.037180  0.006649  1
  O  O22  1  0.374271  0.405941  0.086630  1
  O  O23  1  0.625729  0.594059  0.913370  1
  O  O24  1  0.706461  0.962820  0.993351  1
  O  O25  1  0.567668  0.197217  0.844692  1
  O  O26  1  0.554501  0.204109  0.341322  1
  O  O27  1  0.625041  0.597530  0.393255  1
  O  O28  1  0.721334  0.966007  0.620465  1
  O  O29  1  0.821846  0.841168  0.293681  1
  O  O30  1  0.947107  0.759177  0.982847  1
  O  O31  1  0.836562  0.418880  0.676055  1
  O  O32  1  0.945123  0.738595  0.610805  1
  O  O33  1  0.840110  0.421767  0.195855  1
