# generated using pymatgen
data_Li4Co3Ni3(WO8)2
_symmetry_space_group_name_H-M   'P 1'
_cell_length_a   5.92430045
_cell_length_b   5.93772186
_cell_length_c   9.74358580
_cell_angle_alpha   89.98736375
_cell_angle_beta   89.65590342
_cell_angle_gamma   120.07224163
_symmetry_Int_Tables_number   1
_chemical_formula_structural   Li4Co3Ni3(WO8)2
_chemical_formula_sum   'Li4 Co3 Ni3 W2 O16'
_cell_volume   296.60530004
_cell_formula_units_Z   1
loop_
 _symmetry_equiv_pos_site_id
 _symmetry_equiv_pos_as_xyz
  1  'x, y, z'
loop_
 _atom_site_type_symbol
 _atom_site_label
 _atom_site_symmetry_multiplicity
 _atom_site_fract_x
 _atom_site_fract_y
 _atom_site_fract_z
 _atom_site_occupancy
  Li  Li0  1  0.326722  0.663357  0.904449  1
  Li  Li1  1  0.010435  0.005432  0.988960  1
  Li  Li2  1  0.008755  0.004439  0.490426  1
  Li  Li3  1  0.660818  0.330383  0.403805  1
  Co  Co4  1  0.177637  0.832138  0.218968  1
  Co  Co5  1  0.177537  0.345383  0.219139  1
  Co  Co6  1  0.348594  0.174357  0.721397  1
  Ni  Ni7  1  0.659770  0.829881  0.211528  1
  Ni  Ni8  1  0.828438  0.660450  0.714727  1
  Ni  Ni9  1  0.828301  0.167789  0.714552  1
  W  W10  1  0.340263  0.670389  0.490457  1
  W  W11  1  0.678383  0.339310  0.988592  1
  O  O12  1  0.169229  0.823745  0.587071  1
  O  O13  1  0.036707  0.518351  0.351479  1
  O  O14  1  0.308477  0.654165  0.110880  1
  O  O15  1  0.015594  0.007741  0.297274  1
  O  O16  1  0.030931  0.015391  0.796527  1
  O  O17  1  0.169453  0.345462  0.587168  1
  O  O18  1  0.476449  0.960749  0.349834  1
  O  O19  1  0.476459  0.515715  0.349854  1
  O  O20  1  0.348427  0.174220  0.087981  1
  O  O21  1  0.660278  0.830110  0.585511  1
  O  O22  1  0.511525  0.475831  0.850950  1
  O  O23  1  0.511304  0.035761  0.850880  1
  O  O24  1  0.630442  0.315299  0.613666  1
  O  O25  1  0.824971  0.658096  0.085559  1
  O  O26  1  0.959276  0.479556  0.850595  1
  O  O27  1  0.824823  0.166803  0.085610  1
