# generated using pymatgen
data_CrH17N4Cl2O3
_symmetry_space_group_name_H-M   'P 1'
_cell_length_a   10.81935022
_cell_length_b   10.20360933
_cell_length_c   9.52033852
_cell_angle_alpha   90.00000000
_cell_angle_beta   98.53825736
_cell_angle_gamma   90.00000000
_symmetry_Int_Tables_number   1
_chemical_formula_structural   CrH17N4Cl2O3
_chemical_formula_sum   'Cr4 H68 N16 Cl8 O12'
_cell_volume   1039.36290344
_cell_formula_units_Z   4
loop_
 _symmetry_equiv_pos_site_id
 _symmetry_equiv_pos_as_xyz
  1  'x, y, z'
loop_
 _atom_site_type_symbol
 _atom_site_label
 _atom_site_symmetry_multiplicity
 _atom_site_fract_x
 _atom_site_fract_y
 _atom_site_fract_z
 _atom_site_occupancy
  Cr  Cr0  1  0.619471  0.570410  0.471681  1
  Cr  Cr1  1  0.119471  0.929590  0.971681  1
  Cr  Cr2  1  0.380529  0.429590  0.528319  1
  Cr  Cr3  1  0.880529  0.070410  0.028319  1
  H  H4  1  0.398063  0.612781  0.338981  1
  H  H5  1  0.898063  0.887219  0.838981  1
  H  H6  1  0.601937  0.387219  0.661019  1
  H  H7  1  0.101937  0.112781  0.161019  1
  H  H8  1  0.563619  0.798566  0.350032  1
  H  H9  1  0.063619  0.701434  0.850032  1
  H  H10  1  0.436381  0.201434  0.649968  1
  H  H11  1  0.936381  0.298566  0.149968  1
  H  H12  1  0.712690  0.804049  0.427363  1
  H  H13  1  0.212690  0.695951  0.927363  1
  H  H14  1  0.287310  0.195951  0.572637  1
  H  H15  1  0.787310  0.304049  0.072637  1
  H  H16  1  0.675115  0.736512  0.268323  1
  H  H17  1  0.175115  0.763488  0.768323  1
  H  H18  1  0.324885  0.263488  0.731677  1
  H  H19  1  0.824885  0.236512  0.231677  1
  H  H20  1  0.861231  0.576686  0.445895  1
  H  H21  1  0.361231  0.923314  0.945895  1
  H  H22  1  0.138769  0.423314  0.554105  1
  H  H23  1  0.638769  0.076686  0.054105  1
  H  H24  1  0.847807  0.570685  0.618161  1
  H  H25  1  0.347807  0.929315  0.118161  1
  H  H26  1  0.152193  0.429315  0.381839  1
  H  H27  1  0.652193  0.070685  0.881839  1
  H  H28  1  0.831403  0.435459  0.519067  1
  H  H29  1  0.331403  0.064541  0.019067  1
  H  H30  1  0.168597  0.564541  0.480933  1
  H  H31  1  0.668597  0.935459  0.980933  1
  H  H32  1  0.654164  0.618526  0.748376  1
  H  H33  1  0.154164  0.881474  0.248376  1
  H  H34  1  0.345836  0.381474  0.251624  1
  H  H35  1  0.845836  0.118526  0.751624  1
  H  H36  1  0.712874  0.742175  0.666535  1
  H  H37  1  0.212874  0.757825  0.166535  1
  H  H38  1  0.287126  0.257825  0.333465  1
  H  H39  1  0.787126  0.242175  0.833465  1
  H  H40  1  0.560436  0.735598  0.670631  1
  H  H41  1  0.060436  0.764402  0.170631  1
  H  H42  1  0.439564  0.264402  0.329369  1
  H  H43  1  0.939564  0.235598  0.829369  1
  H  H44  1  0.546595  0.486230  0.211758  1
  H  H45  1  0.046595  0.013770  0.711758  1
  H  H46  1  0.453405  0.513770  0.788242  1
  H  H47  1  0.953405  0.986230  0.288242  1
  H  H48  1  0.701136  0.490831  0.238174  1
  H  H49  1  0.201136  0.009169  0.738174  1
  H  H50  1  0.298864  0.509169  0.761826  1
  H  H51  1  0.798864  0.990831  0.261826  1
  H  H52  1  0.627923  0.364725  0.301338  1
  H  H53  1  0.127923  0.135275  0.801338  1
  H  H54  1  0.372077  0.635275  0.698662  1
  H  H55  1  0.872077  0.864725  0.198662  1
  H  H56  1  0.465579  0.987961  0.338423  1
  H  H57  1  0.965579  0.512039  0.838423  1
  H  H58  1  0.534421  0.012039  0.661577  1
  H  H59  1  0.034421  0.487961  0.161577  1
  H  H60  1  0.392581  0.899199  0.433634  1
  H  H61  1  0.892581  0.600801  0.933634  1
  H  H62  1  0.607419  0.100801  0.566366  1
  H  H63  1  0.107419  0.399199  0.066366  1
  H  H64  1  0.539260  0.710615  0.022478  1
  H  H65  1  0.039260  0.789385  0.522478  1
  H  H66  1  0.460740  0.289385  0.977522  1
  H  H67  1  0.960740  0.210615  0.477522  1
  H  H68  1  0.682609  0.685172  0.027998  1
  H  H69  1  0.182609  0.814828  0.527998  1
  H  H70  1  0.317391  0.314828  0.972002  1
  H  H71  1  0.817391  0.185172  0.472002  1
  N  N72  1  0.646844  0.746927  0.365858  1
  N  N73  1  0.146844  0.753073  0.865858  1
  N  N74  1  0.353156  0.253073  0.634142  1
  N  N75  1  0.853156  0.246927  0.134142  1
  N  N76  1  0.812974  0.534725  0.519511  1
  N  N77  1  0.312974  0.965275  0.019511  1
  N  N78  1  0.187026  0.465275  0.480489  1
  N  N79  1  0.687026  0.034725  0.980489  1
  N  N80  1  0.638023  0.679055  0.661789  1
  N  N81  1  0.138023  0.820945  0.161789  1
  N  N82  1  0.361977  0.320945  0.338211  1
  N  N83  1  0.861977  0.179055  0.838211  1
  N  N84  1  0.624479  0.464680  0.283833  1
  N  N85  1  0.124479  0.035320  0.783833  1
  N  N86  1  0.375521  0.535320  0.716167  1
  N  N87  1  0.875521  0.964680  0.216167  1
  Cl  Cl88  1  0.367658  0.602668  0.097271  1
  Cl  Cl89  1  0.867658  0.897332  0.597271  1
  Cl  Cl90  1  0.632342  0.397332  0.902729  1
  Cl  Cl91  1  0.132342  0.102668  0.402729  1
  Cl  Cl92  1  0.880952  0.624291  0.180473  1
  Cl  Cl93  1  0.380952  0.875709  0.680473  1
  Cl  Cl94  1  0.119048  0.375709  0.819527  1
  Cl  Cl95  1  0.619048  0.124291  0.319527  1
  O  O96  1  0.432960  0.593893  0.438458  1
  O  O97  1  0.932960  0.906107  0.938458  1
  O  O98  1  0.567040  0.406107  0.561542  1
  O  O99  1  0.067040  0.093893  0.061542  1
  O  O100  1  0.411307  0.909532  0.336256  1
  O  O101  1  0.911307  0.590468  0.836256  1
  O  O102  1  0.588693  0.090468  0.663744  1
  O  O103  1  0.088693  0.409532  0.163744  1
  O  O104  1  0.618981  0.754230  0.013002  1
  O  O105  1  0.118981  0.745770  0.513002  1
  O  O106  1  0.381019  0.245770  0.986998  1
  O  O107  1  0.881019  0.254230  0.486998  1
