# generated using pymatgen
data_RbB6H8O7
_symmetry_space_group_name_H-M   'P 1'
_cell_length_a   8.24754536
_cell_length_b   8.24754536
_cell_length_c   13.39093638
_cell_angle_alpha   75.05734252
_cell_angle_beta   104.94265748
_cell_angle_gamma   110.78965865
_symmetry_Int_Tables_number   1
_chemical_formula_structural   RbB6H8O7
_chemical_formula_sum   'Rb4 B24 H32 O28'
_cell_volume   808.70476491
_cell_formula_units_Z   4
loop_
 _symmetry_equiv_pos_site_id
 _symmetry_equiv_pos_as_xyz
  1  'x, y, z'
loop_
 _atom_site_type_symbol
 _atom_site_label
 _atom_site_symmetry_multiplicity
 _atom_site_fract_x
 _atom_site_fract_y
 _atom_site_fract_z
 _atom_site_occupancy
  Rb  Rb0  1  0.481325  0.195080  0.791376  1
  Rb  Rb1  1  0.195080  0.481325  0.708624  1
  Rb  Rb2  1  0.518675  0.804920  0.208624  1
  Rb  Rb3  1  0.804920  0.518675  0.291376  1
  B  B4  1  0.924988  0.788106  0.882619  1
  B  B5  1  0.788106  0.924988  0.617381  1
  B  B6  1  0.075012  0.211894  0.117381  1
  B  B7  1  0.211894  0.075012  0.382619  1
  B  B8  1  0.007510  0.011741  0.815080  1
  B  B9  1  0.011741  0.007510  0.684920  1
  B  B10  1  -0.007510  0.988259  0.184920  1
  B  B11  1  0.988259  -0.007510  0.315080  1
  B  B12  1  0.783485  0.928868  0.833129  1
  B  B13  1  0.928868  0.783485  0.666871  1
  B  B14  1  0.216515  0.071132  0.166871  1
  B  B15  1  0.071132  0.216515  0.333129  1
  B  B16  1  0.700233  0.703741  0.816961  1
  B  B17  1  0.703741  0.700233  0.683039  1
  B  B18  1  0.299767  0.296259  0.183039  1
  B  B19  1  0.296259  0.299767  0.316961  1
  B  B20  1  0.062245  0.834231  0.789836  1
  B  B21  1  0.834231  0.062245  0.710164  1
  B  B22  1  0.937755  0.165769  0.210164  1
  B  B23  1  0.165769  0.937755  0.289836  1
  B  B24  1  0.871786  0.644904  0.789296  1
  B  B25  1  0.644904  0.871786  0.710704  1
  B  B26  1  0.128214  0.355096  0.210704  1
  B  B27  1  0.355096  0.128214  0.289296  1
  H  H28  1  0.095340  0.833899  0.017883  1
  H  H29  1  0.833899  0.095340  0.482117  1
  H  H30  1  0.904660  0.166101  0.982117  1
  H  H31  1  0.166101  0.904660  0.517883  1
  H  H32  1  0.109381  0.177899  0.921020  1
  H  H33  1  0.177899  0.109381  0.578980  1
  H  H34  1  0.890619  0.822101  0.078980  1
  H  H35  1  0.822101  0.890619  0.421020  1
  H  H36  1  0.660374  0.907075  0.952364  1
  H  H37  1  0.907075  0.660374  0.547636  1
  H  H38  1  0.339626  0.092925  0.047636  1
  H  H39  1  0.092925  0.339626  0.452364  1
  H  H40  1  0.520526  0.624737  0.909649  1
  H  H41  1  0.624737  0.520526  0.590351  1
  H  H42  1  0.479474  0.375263  0.090351  1
  H  H43  1  0.375263  0.479474  0.409649  1
  H  H44  1  0.928397  0.427004  0.887189  1
  H  H45  1  0.427004  0.928397  0.612811  1
  H  H46  1  0.071603  0.572996  0.112811  1
  H  H47  1  0.572996  0.071603  0.387189  1
  H  H48  1  0.302310  0.836019  0.767804  1
  H  H49  1  0.836019  0.302310  0.732196  1
  H  H50  1  0.697690  0.163981  0.232196  1
  H  H51  1  0.163981  0.697690  0.267804  1
  H  H52  1  0.642079  0.258199  0.056243  1
  H  H53  1  0.258199  0.642079  0.443757  1
  H  H54  1  0.357921  0.741801  0.943757  1
  H  H55  1  0.741801  0.357921  0.556243  1
  H  H56  1  0.564914  0.391862  0.955692  1
  H  H57  1  0.391862  0.564914  0.544308  1
  H  H58  1  0.435086  0.608138  0.044308  1
  H  H59  1  0.608138  0.435086  0.455692  1
  O  O60  1  0.983817  0.742394  -0.004547  1
  O  O61  1  0.742394  0.983817  0.504547  1
  O  O62  1  0.016183  0.257606  0.004547  1
  O  O63  1  0.257606  0.016183  0.495453  1
  O  O64  1  0.143934  0.151074  0.862995  1
  O  O65  1  0.151074  0.143934  0.637005  1
  O  O66  1  0.856066  0.848926  0.137005  1
  O  O67  1  0.848926  0.856066  0.362995  1
  O  O68  1  0.729620  0.000304  0.903383  1
  O  O69  1  0.000304  0.729620  0.596617  1
  O  O70  1  0.270380  -0.000304  0.096617  1
  O  O71  1  -0.000304  0.270380  0.403383  1
  O  O72  1  0.561278  0.568328  0.866873  1
  O  O73  1  0.568328  0.561278  0.633127  1
  O  O74  1  0.438722  0.431672  0.133127  1
  O  O75  1  0.431672  0.438722  0.366873  1
  O  O76  1  0.872511  0.462856  0.813998  1
  O  O77  1  0.462856  0.872511  0.686002  1
  O  O78  1  0.127489  0.537144  0.186002  1
  O  O79  1  0.537144  0.127489  0.313998  1
  O  O80  1  0.238596  0.820309  0.824295  1
  O  O81  1  0.820309  0.238596  0.675705  1
  O  O82  1  0.761404  0.179691  0.175705  1
  O  O83  1  0.179691  0.761404  0.324295  1
  O  O84  1  0.534174  0.280836  0.009685  1
  O  O85  1  0.280836  0.534174  0.490315  1
  O  O86  1  0.465826  0.719164  -0.009685  1
  O  O87  1  0.719164  0.465826  0.509685  1
