# generated using pymatgen
data_K3Na3TeP6(HO4)6
_symmetry_space_group_name_H-M   'P 1'
_cell_length_a   10.94832600
_cell_length_b   12.77838121
_cell_length_c   10.94832600
_cell_angle_alpha   115.36559041
_cell_angle_beta   60.00000001
_cell_angle_gamma   115.36558896
_symmetry_Int_Tables_number   1
_chemical_formula_structural   K3Na3TeP6(HO4)6
_chemical_formula_sum   'K6 Na6 Te2 P12 H12 O48'
_cell_volume   1152.82532586
_cell_formula_units_Z   2
loop_
 _symmetry_equiv_pos_site_id
 _symmetry_equiv_pos_as_xyz
  1  'x, y, z'
loop_
 _atom_site_type_symbol
 _atom_site_label
 _atom_site_symmetry_multiplicity
 _atom_site_fract_x
 _atom_site_fract_y
 _atom_site_fract_z
 _atom_site_occupancy
  K  K0  1  0.123624  0.250000  0.376376  1
  K  K1  1  0.250000  0.750000  0.876376  1
  K  K2  1  0.623624  0.750000  0.250000  1
  K  K3  1  0.376376  0.250000  0.750000  1
  K  K4  1  0.750000  0.250000  0.123624  1
  K  K5  1  0.876376  0.750000  0.623624  1
  Na  Na6  1  0.054031  0.750000  0.250000  1
  Na  Na7  1  0.445969  0.750000  0.054031  1
  Na  Na8  1  0.250000  0.750000  0.445969  1
  Na  Na9  1  0.554031  0.250000  0.945969  1
  Na  Na10  1  0.750000  0.250000  0.554031  1
  Na  Na11  1  0.945969  0.250000  0.750000  1
  Te  Te12  1  0.000000  0.000000  0.000000  1
  Te  Te13  1  0.500000  0.500000  0.500000  1
  P  P14  1  0.992622  0.519563  0.685941  1
  P  P15  1  0.314059  0.480437  0.159001  1
  P  P16  1  0.507378  0.980437  0.659001  1
  P  P17  1  0.340999  0.019563  0.185941  1
  P  P18  1  0.185941  0.019563  0.492622  1
  P  P19  1  0.159001  0.480437  0.007378  1
  P  P20  1  0.840999  0.519563  0.992622  1
  P  P21  1  0.814059  0.980437  0.507378  1
  P  P22  1  0.659001  0.980437  0.814059  1
  P  P23  1  0.492622  0.019563  0.340999  1
  P  P24  1  0.685941  0.519563  0.840999  1
  P  P25  1  0.007378  0.480437  0.314059  1
  H  H26  1  0.208959  0.918735  0.803060  1
  H  H27  1  0.196940  0.081265  0.093284  1
  H  H28  1  0.291041  0.581265  0.593284  1
  H  H29  1  0.093284  0.081265  0.791041  1
  H  H30  1  0.303060  0.418735  0.708959  1
  H  H31  1  0.406716  0.418735  0.303060  1
  H  H32  1  0.593284  0.581265  0.696940  1
  H  H33  1  0.696940  0.581265  0.291041  1
  H  H34  1  0.906716  0.918735  0.208959  1
  H  H35  1  0.708959  0.418735  0.406716  1
  H  H36  1  0.803060  0.918735  0.906716  1
  H  H37  1  0.791041  0.081265  0.196940  1
  O  O38  1  0.132963  0.899236  0.896763  1
  O  O39  1  0.013436  0.439778  0.147049  1
  O  O40  1  0.033246  0.614356  0.371508  1
  O  O41  1  0.290398  0.885644  0.128492  1
  O  O42  1  0.128492  0.885644  0.466754  1
  O  O43  1  0.209602  0.614356  0.033246  1
  O  O44  1  0.896763  0.899236  0.869509  1
  O  O45  1  0.147049  0.439778  0.279292  1
  O  O46  1  0.279292  0.439778  0.013436  1
  O  O47  1  0.128628  0.601477  0.603185  1
  O  O48  1  0.466754  0.885644  0.290398  1
  O  O49  1  0.371508  0.614356  0.209602  1
  O  O50  1  0.371372  0.898523  0.630335  1
  O  O51  1  0.396815  0.398523  0.130335  1
  O  O52  1  0.369665  0.101477  0.103185  1
  O  O53  1  0.220708  0.060222  0.352951  1
  O  O54  1  0.869509  0.899236  0.132963  1
  O  O55  1  0.603237  0.600764  0.367037  1
  O  O56  1  0.130335  0.398523  0.871372  1
  O  O57  1  0.103185  0.101477  0.628628  1
  O  O58  1  0.369509  0.399236  0.396763  1
  O  O59  1  0.647049  0.939778  0.513436  1
  O  O60  1  0.513436  0.939778  0.779292  1
  O  O61  1  0.632963  0.399236  0.369509  1
  O  O62  1  0.367037  0.600764  0.630491  1
  O  O63  1  0.486564  0.060222  0.220708  1
  O  O64  1  0.352951  0.060222  0.486564  1
  O  O65  1  0.630491  0.600764  0.603237  1
  O  O66  1  0.869665  0.601477  0.128628  1
  O  O67  1  0.896815  0.898523  0.371372  1
  O  O68  1  0.130491  0.100764  0.867037  1
  O  O69  1  0.396763  0.399236  0.632963  1
  O  O70  1  0.779292  0.939778  0.647049  1
  O  O71  1  0.630335  0.898523  0.896815  1
  O  O72  1  0.603185  0.601477  0.869665  1
  O  O73  1  0.628628  0.101477  0.369665  1
  O  O74  1  0.533246  0.114356  0.709602  1
  O  O75  1  0.628492  0.385644  0.790398  1
  O  O76  1  0.871372  0.398523  0.396815  1
  O  O77  1  0.720708  0.560222  0.986564  1
  O  O78  1  0.852951  0.560222  0.720708  1
  O  O79  1  0.103237  0.100764  0.130491  1
  O  O80  1  0.790398  0.385644  0.966754  1
  O  O81  1  0.871508  0.114356  0.533246  1
  O  O82  1  0.966754  0.385644  0.628492  1
  O  O83  1  0.709602  0.114356  0.871508  1
  O  O84  1  0.986564  0.560222  0.852951  1
  O  O85  1  0.867037  0.100764  0.103237  1
