# generated using pymatgen
data_Li5V3P8O29
_symmetry_space_group_name_H-M   'P 1'
_cell_length_a   9.77410847
_cell_length_b   9.78599885
_cell_length_c   14.02581664
_cell_angle_alpha   90.41370960
_cell_angle_beta   90.30443577
_cell_angle_gamma   60.14417894
_symmetry_Int_Tables_number   1
_chemical_formula_structural   Li5V3P8O29
_chemical_formula_sum   'Li10 V6 P16 O58'
_cell_volume   1163.47768740
_cell_formula_units_Z   2
loop_
 _symmetry_equiv_pos_site_id
 _symmetry_equiv_pos_as_xyz
  1  'x, y, z'
loop_
 _atom_site_type_symbol
 _atom_site_label
 _atom_site_symmetry_multiplicity
 _atom_site_fract_x
 _atom_site_fract_y
 _atom_site_fract_z
 _atom_site_occupancy
  Li  Li0  1  0.771790  0.905525  0.556910  1
  Li  Li1  1  0.913341  0.316419  0.560925  1
  Li  Li2  1  0.762639  0.339018  0.061089  1
  Li  Li3  1  0.331997  0.906565  0.063177  1
  Li  Li4  1  0.681641  0.227006  0.437829  1
  Li  Li5  1  0.318330  0.776048  0.555942  1
  Li  Li6  1  0.669115  0.092797  0.941189  1
  Li  Li7  1  0.234208  0.663299  0.941931  1
  Li  Li8  1  0.096254  0.674570  0.436956  1
  Li  Li9  1  0.001393  0.000405  0.003729  1
  V  V10  1  0.567219  0.433569  0.251793  1
  V  V11  1  0.431476  0.568595  0.747833  1
  V  V12  1  0.565141  0.998573  0.749221  1
  V  V13  1  0.432278  0.005226  0.253010  1
  V  V14  1  0.994128  0.566795  0.242679  1
  V  V15  1  0.005685  0.430229  0.756930  1
  P  P16  1  0.916212  0.777482  0.840105  1
  P  P17  1  0.772036  0.910391  0.338505  1
  P  P18  1  0.914907  0.318421  0.345904  1
  P  P19  1  0.663286  0.666973  0.127774  1
  P  P20  1  0.671942  0.662232  0.630531  1
  P  P21  1  0.771640  0.315271  0.841053  1
  P  P22  1  0.679246  0.230909  0.657841  1
  P  P23  1  0.313832  0.912962  0.846102  1
  P  P24  1  0.686593  0.087361  0.156216  1
  P  P25  1  0.319079  0.771928  0.341234  1
  P  P26  1  0.226127  0.684584  0.159158  1
  P  P27  1  0.329779  0.338519  0.369421  1
  P  P28  1  0.335834  0.335714  0.872831  1
  P  P29  1  0.085527  0.680355  0.654801  1
  P  P30  1  0.226937  0.086072  0.662311  1
  P  P31  1  0.082686  0.221095  0.159850  1
  O  O32  1  0.997911  0.751438  0.563646  1
  O  O33  1  0.921664  0.744298  0.337679  1
  O  O34  1  0.776051  0.014941  0.065881  1
  O  O35  1  0.744758  0.916538  0.839696  1
  O  O36  1  0.917244  0.617891  0.829963  1
  O  O37  1  0.810566  0.672686  0.175379  1
  O  O38  1  0.904751  0.478107  0.320681  1
  O  O39  1  0.986727  0.214054  0.078257  1
  O  O40  1  0.917062  0.340280  0.835514  1
  O  O41  1  0.675774  0.812180  0.669565  1
  O  O42  1  0.624937  0.895435  0.322181  1
  O  O43  1  0.818344  0.513490  0.676775  1
  O  O44  1  0.674467  0.661846  0.021612  1
  O  O45  1  0.680172  0.654585  0.524183  1
  O  O46  1  0.676113  0.511689  0.167076  1
  O  O47  1  0.470427  0.910274  0.831859  1
  O  O48  1  0.510654  0.813776  0.166703  1
  O  O49  1  0.748434  0.335542  0.341031  1
  O  O50  1  0.791845  0.206731  0.748507  1
  O  O51  1  0.754386  0.246890  0.568629  1
  O  O52  1  0.780264  0.223972  0.929384  1
  O  O53  1  0.619010  0.470974  0.829969  1
  O  O54  1  0.516139  0.670544  0.667687  1
  O  O55  1  0.658361  0.258755  0.163862  1
  O  O56  1  0.478435  0.618689  0.321653  1
  O  O57  1  0.343200  0.913153  0.340200  1
  O  O58  1  0.795059  0.999690  0.248787  1
  O  O59  1  0.762041  0.998710  0.429192  1
  O  O60  1  0.232813  0.993231  0.576785  1
  O  O61  1  0.662657  0.082182  0.656693  1
  O  O62  1  0.518628  0.379485  0.678137  1
  O  O63  1  0.338488  0.742876  0.834248  1
  O  O64  1  0.486749  0.328819  0.332508  1
  O  O65  1  0.379529  0.529296  0.169123  1
  O  O66  1  0.216794  0.776721  0.070658  1
  O  O67  1  0.244439  0.753336  0.430166  1
  O  O68  1  0.205602  0.793183  0.251089  1
  O  O69  1  0.250527  0.664662  0.655634  1
  O  O70  1  0.488327  0.189785  0.833952  1
  O  O71  1  0.531482  0.086090  0.166810  1
  O  O72  1  0.321836  0.490868  0.832355  1
  O  O73  1  0.324443  0.341773  0.978941  1
  O  O74  1  0.324644  0.345496  0.475679  1
  O  O75  1  0.182746  0.486501  0.324347  1
  O  O76  1  0.379568  0.095546  0.678690  1
  O  O77  1  0.331368  0.189105  0.323907  1
  O  O78  1  0.082423  0.657971  0.164007  1
  O  O79  1  0.990174  0.797373  0.741564  1
  O  O80  1  0.008742  0.787923  0.922076  1
  O  O81  1  0.095590  0.521084  0.678072  1
  O  O82  1  0.188451  0.329268  0.824859  1
  O  O83  1  0.081252  0.381597  0.169729  1
  O  O84  1  0.252270  0.083516  0.157823  1
  O  O85  1  0.230019  0.980374  0.938144  1
  O  O86  1  0.201107  0.010011  0.758012  1
  O  O87  1  0.081998  0.256229  0.662870  1
  O  O88  1  0.995523  0.252113  0.437998  1
  O  O89  1  0.009822  0.202382  0.258695  1
