# generated using pymatgen
data_Mn14Al56Ge3
_symmetry_space_group_name_H-M   'P 1'
_cell_length_a   11.05715611
_cell_length_b   11.05438445
_cell_length_c   10.30886663
_cell_angle_alpha   90.01380785
_cell_angle_beta   89.98497260
_cell_angle_gamma   119.98781054
_symmetry_Int_Tables_number   1
_chemical_formula_structural   Mn14Al56Ge3
_chemical_formula_sum   'Mn14 Al56 Ge3'
_cell_volume   1091.37215890
_cell_formula_units_Z   1
loop_
 _symmetry_equiv_pos_site_id
 _symmetry_equiv_pos_as_xyz
  1  'x, y, z'
loop_
 _atom_site_type_symbol
 _atom_site_label
 _atom_site_symmetry_multiplicity
 _atom_site_fract_x
 _atom_site_fract_y
 _atom_site_fract_z
 _atom_site_occupancy
  Mn  Mn0  1  0.937460  0.360399  0.928317  1
  Mn  Mn1  1  0.209558  0.257945  0.668999  1
  Mn  Mn2  1  0.422863  0.062558  0.928213  1
  Mn  Mn3  1  0.048383  0.790531  0.669072  1
  Mn  Mn4  1  0.360358  0.422925  0.071828  1
  Mn  Mn5  1  0.666601  0.333308  0.554986  1
  Mn  Mn6  1  0.333350  0.666544  0.444970  1
  Mn  Mn7  1  0.742178  0.951643  0.668904  1
  Mn  Mn8  1  0.639738  0.577129  0.928202  1
  Mn  Mn9  1  0.062498  0.639525  0.071793  1
  Mn  Mn10  1  0.790505  0.742050  0.330929  1
  Mn  Mn11  1  0.951715  0.209554  0.330960  1
  Mn  Mn12  1  0.577107  0.937484  0.071787  1
  Mn  Mn13  1  0.257770  0.048324  0.330985  1
  Al  Al14  1  0.593525  0.695213  0.731092  1
  Al  Al15  1  0.999935  0.000023  0.744302  1
  Al  Al16  1  0.700140  0.845510  0.188169  1
  Al  Al17  1  0.416492  0.278588  0.547375  1
  Al  Al18  1  0.321689  0.808425  0.015923  1
  Al  Al19  1  0.167942  0.624873  0.272850  1
  Al  Al20  1  0.486702  0.678296  0.015895  1
  Al  Al21  1  0.384932  0.447581  0.829568  1
  Al  Al22  1  0.832109  0.375162  0.727061  1
  Al  Al23  1  0.615105  0.552428  0.170442  1
  Al  Al24  1  0.191445  0.513267  0.015931  1
  Al  Al25  1  0.028536  0.833557  0.422212  1
  Al  Al26  1  0.721328  0.137850  0.547323  1
  Al  Al27  1  0.262148  0.130879  0.083889  1
  Al  Al28  1  0.154265  0.854428  0.188091  1
  Al  Al29  1  0.885573  0.377807  0.436441  1
  Al  Al30  1  0.937331  0.384931  0.170396  1
  Al  Al31  1  0.808606  0.486787  0.984065  1
  Al  Al32  1  0.195059  0.028461  0.577840  1
  Al  Al33  1  0.447635  0.062760  0.170387  1
  Al  Al34  1  0.583509  0.721421  0.452709  1
  Al  Al35  1  0.166614  0.194995  0.422244  1
  Al  Al36  1  0.869078  0.131342  0.083997  1
  Al  Al37  1  0.695340  0.101822  0.268915  1
  Al  Al38  1  0.737788  0.869097  0.916076  1
  Al  Al39  1  0.457016  0.832155  0.272993  1
  Al  Al40  1  0.552353  0.937249  0.829518  1
  Al  Al41  1  0.114445  0.622166  0.563524  1
  Al  Al42  1  0.833272  0.804887  0.577839  1
  Al  Al43  1  0.304732  0.898297  0.731200  1
  Al  Al44  1  0.492234  0.114459  0.436442  1
  Al  Al45  1  0.622107  0.507721  0.436455  1
  Al  Al46  1  0.130762  0.868558  0.916066  1
  Al  Al47  1  0.971626  0.166725  0.577821  1
  Al  Al48  1  0.278484  0.862044  0.452735  1
  Al  Al49  1  0.145439  0.299851  0.188214  1
  Al  Al50  1  0.624812  0.456870  0.727092  1
  Al  Al51  1  0.898218  0.593405  0.268780  1
  Al  Al52  1  0.299868  0.154545  0.811801  1
  Al  Al53  1  0.513270  0.321767  0.984231  1
  Al  Al54  1  0.131357  0.262213  0.916044  1
  Al  Al55  1  0.000037  0.000078  0.255644  1
  Al  Al56  1  0.062752  0.615043  0.829728  1
  Al  Al57  1  0.805080  0.971567  0.422191  1
  Al  Al58  1  0.377780  0.492170  0.563537  1
  Al  Al59  1  0.678284  0.191571  0.983994  1
  Al  Al60  1  0.543126  0.168007  0.727153  1
  Al  Al61  1  0.375243  0.543245  0.272989  1
  Al  Al62  1  0.845583  0.145413  0.811859  1
  Al  Al63  1  0.862078  0.583435  0.547336  1
  Al  Al64  1  0.406461  0.304738  0.268865  1
  Al  Al65  1  0.854644  0.700100  0.811754  1
  Al  Al66  1  0.507809  0.885543  0.563501  1
  Al  Al67  1  0.137921  0.416498  0.452506  1
  Al  Al68  1  0.101714  0.406492  0.731124  1
  Al  Al69  1  0.868609  0.737796  0.083908  1
  Ge  Ge70  1  0.000032  0.000019  0.000009  1
  Ge  Ge71  1  0.666558  0.333303  0.279526  1
  Ge  Ge72  1  0.333386  0.666648  0.720481  1
