# generated using pymatgen
data_LiZn2Fe9O16
_symmetry_space_group_name_H-M   'P 1'
_cell_length_a   6.04503356
_cell_length_b   6.04983454
_cell_length_c   20.01459574
_cell_angle_alpha   98.87053179
_cell_angle_beta   89.74757798
_cell_angle_gamma   119.97587189
_symmetry_Int_Tables_number   1
_chemical_formula_structural   LiZn2Fe9O16
_chemical_formula_sum   'Li2 Zn4 Fe18 O32'
_cell_volume   624.20842180
_cell_formula_units_Z   2
loop_
 _symmetry_equiv_pos_site_id
 _symmetry_equiv_pos_as_xyz
  1  'x, y, z'
loop_
 _atom_site_type_symbol
 _atom_site_label
 _atom_site_symmetry_multiplicity
 _atom_site_fract_x
 _atom_site_fract_y
 _atom_site_fract_z
 _atom_site_occupancy
  Li  Li0  1  0.182003  0.369686  0.560168  1
  Li  Li1  1  0.938854  0.876839  0.813101  1
  Zn  Zn2  1  0.344183  0.688544  0.030795  1
  Zn  Zn3  1  0.220412  0.938735  0.156278  1
  Zn  Zn4  1  0.097386  0.188292  0.282792  1
  Zn  Zn5  1  0.972807  0.436173  0.408702  1
  Fe  Fe6  1  0.995866  0.997243  0.996198  1
  Fe  Fe7  1  0.720533  0.939051  0.156346  1
  Fe  Fe8  1  0.219144  0.437613  0.156391  1
  Fe  Fe9  1  0.693240  0.375252  0.065357  1
  Fe  Fe10  1  0.446045  0.871280  0.313581  1
  Fe  Fe11  1  0.747114  0.506045  0.250643  1
  Fe  Fe12  1  0.971970  0.943580  0.408095  1
  Fe  Fe13  1  0.463152  0.433915  0.407657  1
  Fe  Fe14  1  0.204927  0.927630  0.654808  1
  Fe  Fe15  1  0.838552  0.685058  0.534147  1
  Fe  Fe16  1  0.720940  0.927071  0.654756  1
  Fe  Fe17  1  0.490043  0.003734  0.501355  1
  Fe  Fe18  1  0.251045  0.497143  0.747671  1
  Fe  Fe19  1  0.468549  0.938511  0.903928  1
  Fe  Fe20  1  0.724321  0.445068  0.654866  1
  Fe  Fe21  1  0.469718  0.431784  0.903654  1
  Fe  Fe22  1  0.597759  0.190101  0.783139  1
  Fe  Fe23  1  0.962822  0.432384  0.904292  1
  O  O24  1  0.049413  0.563858  0.095681  1
  O  O25  1  0.527049  0.572466  0.097129  1
  O  O26  1  0.410662  0.804310  0.213419  1
  O  O27  1  0.027598  0.068970  0.095727  1
  O  O28  1  0.905068  0.826154  0.215745  1
  O  O29  1  0.391963  0.312604  0.215565  1
  O  O30  1  0.130625  0.809347  0.471775  1
  O  O31  1  0.286733  0.552177  0.346520  1
  O  O32  1  0.534744  0.048292  0.095309  1
  O  O33  1  0.283382  0.068100  0.348671  1
  O  O34  1  0.018646  0.575130  0.597416  1
  O  O35  1  0.158986  0.298110  0.459470  1
  O  O36  1  0.910265  0.305231  0.214379  1
  O  O37  1  0.781312  0.570730  0.349933  1
  O  O38  1  0.657183  0.804080  0.468160  1
  O  O39  1  0.656938  0.333449  0.471660  1
  O  O40  1  0.415685  0.831330  0.717831  1
  O  O41  1  0.797803  0.061915  0.346634  1
  O  O42  1  0.558398  0.575113  0.597085  1
  O  O43  1  0.012384  0.028906  0.596234  1
  O  O44  1  0.901245  0.805718  0.711035  1
  O  O45  1  0.162902  0.805294  0.962886  1
  O  O46  1  0.415994  0.299309  0.717145  1
  O  O47  1  0.530949  0.064646  0.600958  1
  O  O48  1  0.284682  0.566266  0.847441  1
  O  O49  1  0.639589  0.803751  0.961852  1
  O  O50  1  0.887819  0.300368  0.717007  1
  O  O51  1  0.162025  0.325166  0.962805  1
  O  O52  1  0.317300  0.081115  0.847630  1
  O  O53  1  0.769132  0.533293  0.847211  1
  O  O54  1  0.766304  0.081779  0.847629  1
  O  O55  1  0.654945  0.311383  0.965772  1
