# generated using pymatgen
data_Li4CrFe3O8
_symmetry_space_group_name_H-M   'P 1'
_cell_length_a   5.17891954
_cell_length_b   7.87989863
_cell_length_c   7.87996510
_cell_angle_alpha   81.80119821
_cell_angle_beta   70.98706761
_cell_angle_gamma   83.74173811
_symmetry_Int_Tables_number   1
_chemical_formula_structural   Li4CrFe3O8
_chemical_formula_sum   'Li8 Cr2 Fe6 O16'
_cell_volume   300.25227961
_cell_formula_units_Z   2
loop_
 _symmetry_equiv_pos_site_id
 _symmetry_equiv_pos_as_xyz
  1  'x, y, z'
loop_
 _atom_site_type_symbol
 _atom_site_label
 _atom_site_symmetry_multiplicity
 _atom_site_fract_x
 _atom_site_fract_y
 _atom_site_fract_z
 _atom_site_occupancy
  Li  Li0  1  0.999249  0.999736  0.000644  1
  Li  Li1  1  0.997659  0.249946  0.251340  1
  Li  Li2  1  0.002311  0.625034  0.123667  1
  Li  Li3  1  0.000482  0.125816  0.624494  1
  Li  Li4  1  0.999039  0.499076  0.500720  1
  Li  Li5  1  0.000725  0.875262  0.374380  1
  Li  Li6  1  0.000950  0.375942  0.874290  1
  Li  Li7  1  0.999549  0.749179  0.750476  1
  Cr  Cr8  1  0.500019  0.312759  0.562877  1
  Cr  Cr9  1  0.499988  0.562245  0.812121  1
  Fe  Fe10  1  0.499835  0.062883  0.312829  1
  Fe  Fe11  1  0.499974  0.437503  0.187511  1
  Fe  Fe12  1  0.500135  0.812109  0.062166  1
  Fe  Fe13  1  0.500811  0.687034  0.437590  1
  Fe  Fe14  1  0.499246  0.187973  0.937398  1
  Fe  Fe15  1  0.500000  0.937506  0.687501  1
  O  O16  1  0.270762  0.030778  0.151834  1
  O  O17  1  0.728984  0.219822  0.097943  1
  O  O18  1  0.272441  0.406632  0.025494  1
  O  O19  1  0.727342  0.096076  0.474216  1
  O  O20  1  0.272654  0.280933  0.403167  1
  O  O21  1  0.271006  0.655219  0.277089  1
  O  O22  1  0.727560  0.468371  0.349510  1
  O  O23  1  0.272688  0.156545  0.775408  1
  O  O24  1  0.274805  0.529072  0.652095  1
  O  O25  1  0.729260  0.844206  0.223146  1
  O  O26  1  0.725213  0.345911  0.722881  1
  O  O27  1  0.271033  0.905173  0.526675  1
  O  O28  1  0.727323  0.718460  0.599594  1
  O  O29  1  0.272670  0.778889  0.900767  1
  O  O30  1  0.727319  0.594047  0.971832  1
  O  O31  1  0.728970  0.969863  0.848344  1
