# generated using pymatgen
data_Fe5Te(PO4)6
_symmetry_space_group_name_H-M   'P 1'
_cell_length_a   8.55911911
_cell_length_b   8.74380073
_cell_length_c   8.74380066
_cell_angle_alpha   59.99999365
_cell_angle_beta   59.28362785
_cell_angle_gamma   59.28362759
_symmetry_Int_Tables_number   1
_chemical_formula_structural   Fe5Te(PO4)6
_chemical_formula_sum   'Fe5 Te1 P6 O24'
_cell_volume   457.64230418
_cell_formula_units_Z   1
loop_
 _symmetry_equiv_pos_site_id
 _symmetry_equiv_pos_as_xyz
  1  'x, y, z'
loop_
 _atom_site_type_symbol
 _atom_site_label
 _atom_site_symmetry_multiplicity
 _atom_site_fract_x
 _atom_site_fract_y
 _atom_site_fract_z
 _atom_site_occupancy
  Fe  Fe0  1  0.007684  0.997438  0.997438  1
  Fe  Fe1  1  0.056692  0.647770  0.647770  1
  Fe  Fe2  1  0.495257  0.501581  0.501581  1
  Fe  Fe3  1  0.431889  0.856037  0.856037  1
  Fe  Fe4  1  0.939513  0.353495  0.353495  1
  Te  Te5  1  0.563343  0.145553  0.145553  1
  P  P6  1  0.248193  0.251666  0.555007  1
  P  P7  1  0.248193  0.945133  0.251666  1
  P  P8  1  0.248193  0.555007  0.945133  1
  P  P9  1  0.746239  0.462299  0.047674  1
  P  P10  1  0.746239  0.047674  0.743788  1
  P  P11  1  0.746239  0.743788  0.462299  1
  O  O12  1  0.075722  0.106866  0.317674  1
  O  O13  1  0.075722  0.499737  0.106866  1
  O  O14  1  0.075722  0.317674  0.499737  1
  O  O15  1  0.223320  0.094954  0.747493  1
  O  O16  1  0.440649  0.182080  0.404900  1
  O  O17  1  0.275343  0.409657  0.568033  1
  O  O18  1  0.223320  0.934234  0.094954  1
  O  O19  1  0.275343  0.746967  0.409657  1
  O  O20  1  0.565151  0.612759  0.003318  1
  O  O21  1  0.275343  0.568033  0.746967  1
  O  O22  1  0.782261  0.261881  0.057665  1
  O  O23  1  0.565151  0.003318  0.818773  1
  O  O24  1  0.440649  0.972371  0.182080  1
  O  O25  1  0.223320  0.747493  0.934234  1
  O  O26  1  0.715170  0.442653  0.250988  1
  O  O27  1  0.440649  0.404900  0.972371  1
  O  O28  1  0.715170  0.250988  0.591188  1
  O  O29  1  0.782261  0.057665  0.898194  1
  O  O30  1  0.715170  0.591188  0.442653  1
  O  O31  1  0.565151  0.818773  0.612759  1
  O  O32  1  0.782261  0.898194  0.261881  1
  O  O33  1  0.929828  0.668907  0.503497  1
  O  O34  1  0.929828  0.503497  0.897769  1
  O  O35  1  0.929828  0.897769  0.668907  1
