# generated using pymatgen
data_BaLaCl5
_symmetry_space_group_name_H-M   'P 1'
_cell_length_a   11.18832725
_cell_length_b   7.25701821
_cell_length_c   10.26859648
_cell_angle_alpha   90.00000000
_cell_angle_beta   90.00000000
_cell_angle_gamma   90.00000000
_symmetry_Int_Tables_number   1
_chemical_formula_structural   BaLaCl5
_chemical_formula_sum   'Ba4 La4 Cl20'
_cell_volume   833.74734021
_cell_formula_units_Z   4
loop_
 _symmetry_equiv_pos_site_id
 _symmetry_equiv_pos_as_xyz
  1  'x, y, z'
loop_
 _atom_site_type_symbol
 _atom_site_label
 _atom_site_symmetry_multiplicity
 _atom_site_fract_x
 _atom_site_fract_y
 _atom_site_fract_z
 _atom_site_occupancy
  Ba  Ba0  1  0.170232  0.250000  0.622210  1
  Ba  Ba1  1  0.329768  0.750000  0.122210  1
  Ba  Ba2  1  0.670232  0.250000  0.877790  1
  Ba  Ba3  1  0.829768  0.750000  0.377790  1
  La  La4  1  0.030143  0.250000  0.152372  1
  La  La5  1  0.469857  0.750000  0.652372  1
  La  La6  1  0.530143  0.250000  0.347628  1
  La  La7  1  0.969857  0.750000  0.847628  1
  Cl  Cl8  1  0.062947  0.981727  0.338539  1
  Cl  Cl9  1  0.062947  0.518273  0.338539  1
  Cl  Cl10  1  0.143255  0.000674  0.963681  1
  Cl  Cl11  1  0.143255  0.499326  0.963681  1
  Cl  Cl12  1  0.295920  0.250000  0.190344  1
  Cl  Cl13  1  0.204080  0.750000  0.690344  1
  Cl  Cl14  1  0.356745  0.999326  0.463681  1
  Cl  Cl15  1  0.356745  0.500674  0.463681  1
  Cl  Cl16  1  0.437053  0.018273  0.838539  1
  Cl  Cl17  1  0.437053  0.481727  0.838539  1
  Cl  Cl18  1  0.562947  0.981727  0.161461  1
  Cl  Cl19  1  0.562947  0.518273  0.161461  1
  Cl  Cl20  1  0.643255  0.000674  0.536319  1
  Cl  Cl21  1  0.643255  0.499326  0.536319  1
  Cl  Cl22  1  0.795920  0.250000  0.309656  1
  Cl  Cl23  1  0.704080  0.750000  0.809656  1
  Cl  Cl24  1  0.856745  0.500674  0.036319  1
  Cl  Cl25  1  0.856745  0.999326  0.036319  1
  Cl  Cl26  1  0.937053  0.481727  0.661461  1
  Cl  Cl27  1  0.937053  0.018273  0.661461  1
