# generated using pymatgen
data_Na2H6PtC4N4O3
_symmetry_space_group_name_H-M   'P 1'
_cell_length_a   15.50620344
_cell_length_b   9.11242655
_cell_length_c   7.37148135
_cell_angle_alpha   95.06128627
_cell_angle_beta   92.69959599
_cell_angle_gamma   89.08727903
_symmetry_Int_Tables_number   1
_chemical_formula_structural   Na2H6PtC4N4O3
_chemical_formula_sum   'Na8 H24 Pt4 C16 N16 O12'
_cell_volume   1036.29873906
_cell_formula_units_Z   4
loop_
 _symmetry_equiv_pos_site_id
 _symmetry_equiv_pos_as_xyz
  1  'x, y, z'
loop_
 _atom_site_type_symbol
 _atom_site_label
 _atom_site_symmetry_multiplicity
 _atom_site_fract_x
 _atom_site_fract_y
 _atom_site_fract_z
 _atom_site_occupancy
  Na  Na0  1  0.754827  0.755011  0.542991  1
  Na  Na1  1  0.245173  0.244989  0.457009  1
  Na  Na2  1  0.807758  0.433454  0.239373  1
  Na  Na3  1  0.192242  0.566546  0.760627  1
  Na  Na4  1  0.688372  0.072062  0.306951  1
  Na  Na5  1  0.311628  0.927938  0.693049  1
  Na  Na6  1  0.000000  0.500000  0.000000  1
  Na  Na7  1  0.500000  0.000000  0.000000  1
  H  H8  1  0.931075  0.636527  0.463891  1
  H  H9  1  0.068925  0.363473  0.536109  1
  H  H10  1  0.898062  0.523163  0.583825  1
  H  H11  1  0.101938  0.476837  0.416175  1
  H  H12  1  0.815665  0.599902  0.929493  1
  H  H13  1  0.184335  0.400098  0.070507  1
  H  H14  1  0.852828  0.709553  0.084242  1
  H  H15  1  0.147172  0.290447  0.915758  1
  H  H16  1  0.272867  0.650069  0.431459  1
  H  H17  1  0.727133  0.349931  0.568541  1
  H  H18  1  0.188960  0.736208  0.443156  1
  H  H19  1  0.811040  0.263792  0.556844  1
  H  H20  1  0.312556  0.762609  0.016012  1
  H  H21  1  0.687444  0.237391  0.983988  1
  H  H22  1  0.225160  0.842118  0.014367  1
  H  H23  1  0.774840  0.157882  0.985633  1
  H  H24  1  0.577130  0.864143  0.485823  1
  H  H25  1  0.422870  0.135857  0.514177  1
  H  H26  1  0.614193  0.985142  0.626075  1
  H  H27  1  0.385807  0.014858  0.373925  1
  H  H28  1  0.649489  0.793905  0.093647  1
  H  H29  1  0.350511  0.206095  0.906353  1
  H  H30  1  0.688200  0.896386  0.964083  1
  H  H31  1  0.311800  0.103614  0.035917  1
  Pt  Pt32  1  0.987174  0.012214  0.753716  1
  Pt  Pt33  1  0.012826  0.987786  0.246284  1
  Pt  Pt34  1  0.516850  0.487071  0.752100  1
  Pt  Pt35  1  0.483150  0.512929  0.247900  1
  C  C36  1  0.952795  0.220693  0.727066  1
  C  C37  1  0.047205  0.779307  0.272934  1
  C  C38  1  0.024623  0.805581  0.781392  1
  C  C39  1  0.975377  0.194419  0.218608  1
  C  C40  1  0.865899  0.963831  0.801557  1
  C  C41  1  0.134101  0.036169  0.198443  1
  C  C42  1  0.107963  0.058873  0.703505  1
  C  C43  1  0.892037  0.941127  0.296495  1
  C  C44  1  0.640413  0.542545  0.764239  1
  C  C45  1  0.359587  0.457455  0.235761  1
  C  C46  1  0.393513  0.431884  0.732696  1
  C  C47  1  0.606487  0.568116  0.267304  1
  C  C48  1  0.551846  0.277958  0.769367  1
  C  C49  1  0.448154  0.722042  0.230633  1
  C  C50  1  0.480369  0.695758  0.739188  1
  C  C51  1  0.519631  0.304242  0.260812  1
  N  N52  1  0.934100  0.344660  0.711147  1
  N  N53  1  0.065900  0.655340  0.288853  1
  N  N54  1  0.049077  0.685124  0.799908  1
  N  N55  1  0.950923  0.314876  0.200092  1
  N  N56  1  0.794079  0.935758  0.828397  1
  N  N57  1  0.205921  0.064242  0.171603  1
  N  N58  1  0.179184  0.086366  0.671995  1
  N  N59  1  0.820816  0.913634  0.328005  1
  N  N60  1  0.713928  0.572642  0.767048  1
  N  N61  1  0.286072  0.427358  0.232952  1
  N  N62  1  0.320437  0.399196  0.715828  1
  N  N63  1  0.679563  0.600804  0.284172  1
  N  N64  1  0.573182  0.154860  0.782634  1
  N  N65  1  0.426818  0.845140  0.217366  1
  N  N66  1  0.456422  0.818390  0.735855  1
  N  N67  1  0.543578  0.181610  0.264145  1
  O  O68  1  0.877564  0.592058  0.494862  1
  O  O69  1  0.122436  0.407942  0.505138  1
  O  O70  1  0.858430  0.607441  0.033528  1
  O  O71  1  0.141570  0.392559  0.966472  1
  O  O72  1  0.242745  0.720156  0.514282  1
  O  O73  1  0.757255  0.279844  0.485718  1
  O  O74  1  0.260456  0.772571  0.939051  1
  O  O75  1  0.739544  0.227429  0.060949  1
  O  O76  1  0.630617  0.914605  0.523222  1
  O  O77  1  0.369383  0.085395  0.476778  1
  O  O78  1  0.642457  0.892348  0.052083  1
  O  O79  1  0.357543  0.107652  0.947917  1
