# generated using pymatgen
data_Rb3YO3
_symmetry_space_group_name_H-M   'P 1'
_cell_length_a   11.79655780
_cell_length_b   7.40060232
_cell_length_c   8.01242070
_cell_angle_alpha   90.00000000
_cell_angle_beta   93.91071187
_cell_angle_gamma   90.00000000
_symmetry_Int_Tables_number   1
_chemical_formula_structural   Rb3YO3
_chemical_formula_sum   'Rb12 Y4 O12'
_cell_volume   697.86866341
_cell_formula_units_Z   4
loop_
 _symmetry_equiv_pos_site_id
 _symmetry_equiv_pos_as_xyz
  1  'x, y, z'
loop_
 _atom_site_type_symbol
 _atom_site_label
 _atom_site_symmetry_multiplicity
 _atom_site_fract_x
 _atom_site_fract_y
 _atom_site_fract_z
 _atom_site_occupancy
  Rb  Rb0  1  0.079379  0.331730  0.641965  1
  Rb  Rb1  1  0.155665  0.621550  0.069483  1
  Rb  Rb2  1  0.192054  0.803708  0.624586  1
  Rb  Rb3  1  0.307946  0.303708  0.375414  1
  Rb  Rb4  1  0.344335  0.121550  0.930517  1
  Rb  Rb5  1  0.420621  0.831730  0.358035  1
  Rb  Rb6  1  0.579379  0.168270  0.641965  1
  Rb  Rb7  1  0.655665  0.878450  0.069483  1
  Rb  Rb8  1  0.692054  0.696292  0.624586  1
  Rb  Rb9  1  0.807946  0.196292  0.375414  1
  Rb  Rb10  1  0.844335  0.378450  0.930517  1
  Rb  Rb11  1  0.920621  0.668270  0.358035  1
  Y  Y12  1  0.067449  0.089697  0.162644  1
  Y  Y13  1  0.432551  0.589697  0.837356  1
  Y  Y14  1  0.567449  0.410303  0.162644  1
  Y  Y15  1  0.932551  0.910303  0.837356  1
  O  O16  1  0.043453  0.356618  0.254577  1
  O  O17  1  0.096903  0.049903  0.892835  1
  O  O18  1  0.190129  0.941083  0.311483  1
  O  O19  1  0.309871  0.441083  0.688517  1
  O  O20  1  0.403097  0.549903  0.107165  1
  O  O21  1  0.456547  0.856618  0.745423  1
  O  O22  1  0.543453  0.143382  0.254577  1
  O  O23  1  0.596903  0.450097  0.892835  1
  O  O24  1  0.690129  0.558917  0.311483  1
  O  O25  1  0.809871  0.058917  0.688517  1
  O  O26  1  0.903097  0.950097  0.107165  1
  O  O27  1  0.956547  0.643382  0.745423  1
