# generated using pymatgen
data_K(WO3)9
_symmetry_space_group_name_H-M   'P 1'
_cell_length_a   7.50981265
_cell_length_b   7.50981301
_cell_length_c   46.37742760
_cell_angle_alpha   90.00000000
_cell_angle_beta   90.00000000
_cell_angle_gamma   119.99999848
_symmetry_Int_Tables_number   1
_chemical_formula_structural   K(WO3)9
_chemical_formula_sum   'K4 W36 O108'
_cell_volume   2265.14245641
_cell_formula_units_Z   4
loop_
 _symmetry_equiv_pos_site_id
 _symmetry_equiv_pos_as_xyz
  1  'x, y, z'
loop_
 _atom_site_type_symbol
 _atom_site_label
 _atom_site_symmetry_multiplicity
 _atom_site_fract_x
 _atom_site_fract_y
 _atom_site_fract_z
 _atom_site_occupancy
  K  K0  1  0.000000  0.000000  0.540896  1
  K  K1  1  0.000000  0.000000  0.703690  1
  K  K2  1  0.000000  0.000000  0.959104  1
  K  K3  1  0.000000  0.000000  0.796310  1
  W  W4  1  0.000233  0.509231  0.083946  1
  W  W5  1  1.000000  0.510826  0.250000  1
  W  W6  1  -0.000233  0.508998  0.416054  1
  W  W7  1  0.000028  0.502243  0.583040  1
  W  W8  1  1.000000  0.499201  0.750000  1
  W  W9  1  -0.000028  0.502215  0.916960  1
  W  W10  1  0.490769  0.491002  0.083946  1
  W  W11  1  0.489174  0.489174  0.250000  1
  W  W12  1  0.491002  0.490769  0.416054  1
  W  W13  1  0.497757  0.497785  0.583040  1
  W  W14  1  0.500799  0.500799  0.750000  1
  W  W15  1  0.497785  0.497757  0.916960  1
  W  W16  1  0.504092  0.503919  0.000607  1
  W  W17  1  0.510508  0.510437  0.166972  1
  W  W18  1  0.510437  0.510508  0.333028  1
  W  W19  1  0.503919  0.504092  0.499393  1
  W  W20  1  0.500943  0.501019  0.666345  1
  W  W21  1  0.501019  0.500943  0.833655  1
  W  W22  1  0.496081  0.000173  0.000607  1
  W  W23  1  0.489563  0.000071  0.166972  1
  W  W24  1  0.489492  0.999929  0.333028  1
  W  W25  1  0.495908  0.999827  0.499393  1
  W  W26  1  0.498981  0.999924  0.666345  1
  W  W27  1  0.499057  0.000076  0.833655  1
  W  W28  1  0.508998  -0.000233  0.083946  1
  W  W29  1  0.510826  0.000000  0.250000  1
  W  W30  1  0.509231  0.000233  0.416054  1
  W  W31  1  0.502215  -0.000028  0.583040  1
  W  W32  1  0.499201  0.000000  0.750000  1
  W  W33  1  0.502243  0.000028  0.916960  1
  W  W34  1  0.999827  0.495908  0.000607  1
  W  W35  1  0.999929  0.489492  0.166972  1
  W  W36  1  0.000071  0.489563  0.333028  1
  W  W37  1  0.000173  0.496081  0.499393  1
  W  W38  1  0.000076  0.499057  0.666345  1
  W  W39  1  0.999924  0.498981  0.833655  1
  O  O40  1  0.993610  0.496692  0.041170  1
  O  O41  1  0.993607  0.496568  0.208308  1
  O  O42  1  0.993690  0.497679  0.375194  1
  O  O43  1  0.993799  0.497394  0.541840  1
  O  O44  1  0.993618  0.496213  0.708525  1
  O  O45  1  0.993519  0.496524  0.874869  1
  O  O46  1  0.211020  0.787667  0.999888  1
  O  O47  1  0.211728  0.784959  0.167149  1
  O  O48  1  0.211669  0.785007  0.334067  1
  O  O49  1  0.210934  0.787764  0.501370  1
  O  O50  1  0.211297  0.788317  0.667820  1
  O  O51  1  0.211367  0.788245  0.833435  1
  O  O52  1  0.215038  0.788176  0.082339  1
  O  O53  1  0.215034  0.788400  0.249387  1
  O  O54  1  0.215124  0.788137  0.416450  1
  O  O55  1  0.212221  0.788603  0.582454  1
  O  O56  1  0.209723  0.789387  0.749344  1
  O  O57  1  0.212228  0.788591  0.916292  1
  O  O58  1  0.211824  0.426863  0.082339  1
  O  O59  1  0.211600  0.426634  0.249387  1
  O  O60  1  0.211863  0.426987  0.416450  1
  O  O61  1  0.211397  0.423618  0.582454  1
  O  O62  1  0.210613  0.420335  0.749344  1
  O  O63  1  0.211409  0.423637  0.916292  1
  O  O64  1  0.503081  0.006390  0.041170  1
  O  O65  1  0.502960  0.006392  0.208308  1
  O  O66  1  0.503989  0.006310  0.375194  1
  O  O67  1  0.503595  0.006201  0.541840  1
  O  O68  1  0.502595  0.006382  0.708525  1
  O  O69  1  0.503005  0.006481  0.874869  1
  O  O70  1  0.212333  0.423353  0.999888  1
  O  O71  1  0.215041  0.426769  0.167149  1
  O  O72  1  0.214993  0.426662  0.334067  1
  O  O73  1  0.212236  0.423170  0.501370  1
  O  O74  1  0.211683  0.422980  0.667820  1
  O  O75  1  0.211755  0.423122  0.833435  1
  O  O76  1  0.576647  0.788980  0.999888  1
  O  O77  1  0.573231  0.788272  0.167149  1
  O  O78  1  0.573338  0.788331  0.334067  1
  O  O79  1  0.576830  0.789066  0.501370  1
  O  O80  1  0.577020  0.788703  0.667820  1
  O  O81  1  0.576878  0.788633  0.833435  1
  O  O82  1  0.573137  0.784962  0.082339  1
  O  O83  1  0.573366  0.784966  0.249387  1
  O  O84  1  0.576382  0.787779  0.582454  1
  O  O85  1  0.573013  0.784876  0.416450  1
  O  O86  1  0.579665  0.790277  0.749344  1
  O  O87  1  0.576363  0.787772  0.916292  1
  O  O88  1  0.503308  0.496919  0.041170  1
  O  O89  1  0.503432  0.497040  0.208308  1
  O  O90  1  0.502321  0.496011  0.375194  1
  O  O91  1  0.502606  0.496405  0.541840  1
  O  O92  1  0.503787  0.497405  0.708525  1
  O  O93  1  0.503476  0.496995  0.874869  1
  O  O94  1  0.496011  0.502321  0.124805  1
  O  O95  1  0.497040  0.503432  0.291692  1
  O  O96  1  0.496919  0.503308  0.458830  1
  O  O97  1  0.496995  0.503476  0.625131  1
  O  O98  1  0.497405  0.503787  0.791475  1
  O  O99  1  0.496405  0.502606  0.958160  1
  O  O100  1  0.426662  0.214993  0.165933  1
  O  O101  1  0.426769  0.215041  0.332851  1
  O  O102  1  0.423353  0.212333  0.500112  1
  O  O103  1  0.423122  0.211755  0.666565  1
  O  O104  1  0.422980  0.211683  0.832180  1
  O  O105  1  0.423170  0.212236  0.998630  1
  O  O106  1  0.426987  0.211863  0.083550  1
  O  O107  1  0.426634  0.211600  0.250613  1
  O  O108  1  0.426863  0.211824  0.417661  1
  O  O109  1  0.423637  0.211409  0.583708  1
  O  O110  1  0.420335  0.210613  0.750656  1
  O  O111  1  0.423618  0.211397  0.917546  1
  O  O112  1  0.784876  0.573013  0.083550  1
  O  O113  1  0.784966  0.573366  0.250613  1
  O  O114  1  0.784962  0.573137  0.417661  1
  O  O115  1  0.787772  0.576363  0.583708  1
  O  O116  1  0.790277  0.579665  0.750656  1
  O  O117  1  0.787779  0.576382  0.917546  1
  O  O118  1  0.497679  0.993690  0.124805  1
  O  O119  1  0.496568  0.993607  0.291692  1
  O  O120  1  0.496692  0.993610  0.458830  1
  O  O121  1  0.496524  0.993519  0.625131  1
  O  O122  1  0.496213  0.993618  0.791475  1
  O  O123  1  0.497394  0.993799  0.958160  1
  O  O124  1  0.788331  0.573338  0.165933  1
  O  O125  1  0.788272  0.573231  0.332851  1
  O  O126  1  0.788980  0.576647  0.500112  1
  O  O127  1  0.788633  0.576878  0.666565  1
  O  O128  1  0.788703  0.577020  0.832180  1
  O  O129  1  0.789066  0.576830  0.998630  1
  O  O130  1  0.785007  0.211669  0.165933  1
  O  O131  1  0.784959  0.211728  0.332851  1
  O  O132  1  0.787667  0.211020  0.500112  1
  O  O133  1  0.788245  0.211367  0.666565  1
  O  O134  1  0.788317  0.211297  0.832180  1
  O  O135  1  0.787764  0.210934  0.998630  1
  O  O136  1  0.788137  0.215124  0.083550  1
  O  O137  1  0.788400  0.215034  0.250613  1
  O  O138  1  0.788176  0.215038  0.417661  1
  O  O139  1  0.788591  0.212228  0.583708  1
  O  O140  1  0.789387  0.209723  0.750656  1
  O  O141  1  0.788603  0.212221  0.917546  1
  O  O142  1  0.006310  0.503989  0.124805  1
  O  O143  1  0.006392  0.502960  0.291692  1
  O  O144  1  0.006390  0.503081  0.458830  1
  O  O145  1  0.006382  0.502595  0.791475  1
  O  O146  1  0.006201  0.503595  0.958160  1
  O  O147  1  0.006481  0.503005  0.625131  1
