# generated using pymatgen
data_P4S5
_symmetry_space_group_name_H-M   'P 1'
_cell_length_a   6.79224065
_cell_length_b   7.16303265
_cell_length_c   12.25714515
_cell_angle_alpha   90.00000000
_cell_angle_beta   90.00000000
_cell_angle_gamma   117.17628059
_symmetry_Int_Tables_number   1
_chemical_formula_structural   P4S5
_chemical_formula_sum   'P8 S10'
_cell_volume   530.51393651
_cell_formula_units_Z   2
loop_
 _symmetry_equiv_pos_site_id
 _symmetry_equiv_pos_as_xyz
  1  'x, y, z'
loop_
 _atom_site_type_symbol
 _atom_site_label
 _atom_site_symmetry_multiplicity
 _atom_site_fract_x
 _atom_site_fract_y
 _atom_site_fract_z
 _atom_site_occupancy
  P  P0  1  0.710973  0.641219  0.750000  1
  P  P1  1  0.289027  0.358781  0.250000  1
  P  P2  1  0.144380  0.228118  0.750000  1
  P  P3  1  0.855620  0.771883  0.250000  1
  P  P4  1  0.572041  0.153286  0.845371  1
  P  P5  1  0.427959  0.846714  0.345371  1
  P  P6  1  0.427959  0.846714  0.154629  1
  P  P7  1  0.572041  0.153286  0.654629  1
  S  S8  1  0.365450  0.557678  0.750000  1
  S  S9  1  0.634550  0.442322  0.250000  1
  S  S10  1  0.241142  0.090933  0.880234  1
  S  S11  1  0.758858  0.909067  0.380234  1
  S  S12  1  0.758858  0.909067  0.119766  1
  S  S13  1  0.241142  0.090933  0.619766  1
  S  S14  1  0.769247  0.476049  0.880225  1
  S  S15  1  0.230753  0.523951  0.380225  1
  S  S16  1  0.230753  0.523951  0.119775  1
  S  S17  1  0.769247  0.476049  0.619775  1
