# generated using pymatgen
data_Li2CaSiO4
_symmetry_space_group_name_H-M   'P 1'
_cell_length_a   4.88880892
_cell_length_b   4.88880892
_cell_length_c   4.88880892
_cell_angle_alpha   94.24578082
_cell_angle_beta   117.57972911
_cell_angle_gamma   117.57972908
_symmetry_Int_Tables_number   1
_chemical_formula_structural   Li2CaSiO4
_chemical_formula_sum   'Li2 Ca1 Si1 O4'
_cell_volume   85.39057157
_cell_formula_units_Z   1
loop_
 _symmetry_equiv_pos_site_id
 _symmetry_equiv_pos_as_xyz
  1  'x, y, z'
loop_
 _atom_site_type_symbol
 _atom_site_label
 _atom_site_symmetry_multiplicity
 _atom_site_fract_x
 _atom_site_fract_y
 _atom_site_fract_z
 _atom_site_occupancy
  Li  Li0  1  0.500000  0.750000  0.250000  1
  Li  Li1  1  0.500000  0.250000  0.750000  1
  O  O2  1  0.383243  0.330967  0.330967  1
  O  O3  1  0.616757  0.947724  0.947724  1
  O  O4  1  0.000000  0.669033  0.052276  1
  O  O5  1  0.000000  0.052276  0.669033  1
  Si  Si6  1  0.000000  0.000000  0.000000  1
  Ca  Ca7  1  0.000000  0.500000  0.500000  1
