# generated using pymatgen
data_H8C2SeS2(BrN2)2
_symmetry_space_group_name_H-M   'P 1'
_cell_length_a   9.21632710
_cell_length_b   16.93859914
_cell_length_c   9.19647289
_cell_angle_alpha   90.00000000
_cell_angle_beta   125.55620750
_cell_angle_gamma   90.00000000
_symmetry_Int_Tables_number   1
_chemical_formula_structural   H8C2SeS2(BrN2)2
_chemical_formula_sum   'H32 C8 Se4 S8 Br8 N16'
_cell_volume   1167.98828775
_cell_formula_units_Z   4
loop_
 _symmetry_equiv_pos_site_id
 _symmetry_equiv_pos_as_xyz
  1  'x, y, z'
loop_
 _atom_site_type_symbol
 _atom_site_label
 _atom_site_symmetry_multiplicity
 _atom_site_fract_x
 _atom_site_fract_y
 _atom_site_fract_z
 _atom_site_occupancy
  H  H0  1  0.231191  0.613075  0.684583  1
  H  H1  1  0.768809  0.113075  0.815417  1
  H  H2  1  0.768809  0.386925  0.315417  1
  H  H3  1  0.231191  0.886925  0.184583  1
  H  H4  1  0.273968  0.516214  0.768753  1
  H  H5  1  0.726032  0.016214  0.731247  1
  H  H6  1  0.726032  0.483786  0.231247  1
  H  H7  1  0.273968  0.983786  0.268753  1
  H  H8  1  0.216189  0.636003  0.410159  1
  H  H9  1  0.783811  0.136003  0.089841  1
  H  H10  1  0.783811  0.363997  0.589841  1
  H  H11  1  0.216189  0.863997  0.910159  1
  H  H12  1  0.254160  0.555026  0.318661  1
  H  H13  1  0.745840  0.055026  0.181339  1
  H  H14  1  0.745840  0.444974  0.681339  1
  H  H15  1  0.254160  0.944974  0.818661  1
  H  H16  1  0.051995  0.112942  0.614120  1
  H  H17  1  0.948005  0.612942  0.885880  1
  H  H18  1  0.948005  0.887058  0.385880  1
  H  H19  1  0.051995  0.387058  0.114120  1
  H  H20  1  0.927247  0.189146  0.470742  1
  H  H21  1  0.072753  0.689146  0.029258  1
  H  H22  1  0.072753  0.810854  0.529258  1
  H  H23  1  0.927247  0.310854  0.970742  1
  H  H24  1  0.299284  0.133362  0.624872  1
  H  H25  1  0.700716  0.633362  0.875128  1
  H  H26  1  0.700716  0.866638  0.375128  1
  H  H27  1  0.299284  0.366638  0.124872  1
  H  H28  1  0.971963  0.187924  0.675067  1
  H  H29  1  0.028037  0.687924  0.824933  1
  H  H30  1  0.028037  0.812076  0.324933  1
  H  H31  1  0.971963  0.312076  0.175067  1
  C  C32  1  0.263953  0.529560  0.542192  1
  C  C33  1  0.736047  0.029560  0.957808  1
  C  C34  1  0.736047  0.470440  0.457808  1
  C  C35  1  0.263953  0.970440  0.042192  1
  C  C36  1  0.192151  0.219507  0.664427  1
  C  C37  1  0.807849  0.719507  0.835573  1
  C  C38  1  0.807849  0.780493  0.335573  1
  C  C39  1  0.192151  0.280493  0.164427  1
  Se  Se40  1  0.421405  0.376826  0.789862  1
  Se  Se41  1  0.578595  0.876826  0.710138  1
  Se  Se42  1  0.578595  0.623174  0.210138  1
  Se  Se43  1  0.421405  0.123174  0.289862  1
  S  S44  1  0.317055  0.430737  0.525657  1
  S  S45  1  0.682945  0.930737  0.974343  1
  S  S46  1  0.682945  0.569263  0.474343  1
  S  S47  1  0.317055  0.069263  0.025657  1
  S  S48  1  0.174626  0.316123  0.726388  1
  S  S49  1  0.825374  0.816123  0.773612  1
  S  S50  1  0.825374  0.683877  0.273612  1
  S  S51  1  0.174626  0.183877  0.226388  1
  Br  Br52  1  0.760722  0.488659  0.944629  1
  Br  Br53  1  0.239278  0.988659  0.555371  1
  Br  Br54  1  0.239278  0.511341  0.055371  1
  Br  Br55  1  0.760722  0.011341  0.444629  1
  Br  Br56  1  0.775517  0.259822  0.223362  1
  Br  Br57  1  0.224483  0.759822  0.276638  1
  Br  Br58  1  0.224483  0.740178  0.776638  1
  Br  Br59  1  0.775517  0.240178  0.723362  1
  N  N60  1  0.248953  0.554053  0.669557  1
  N  N61  1  0.751047  0.054053  0.830443  1
  N  N62  1  0.751047  0.445947  0.330443  1
  N  N63  1  0.248953  0.945947  0.169557  1
  N  N64  1  0.240152  0.576418  0.414994  1
  N  N65  1  0.759848  0.076418  0.085006  1
  N  N66  1  0.759848  0.423582  0.585006  1
  N  N67  1  0.240152  0.923582  0.914994  1
  N  N68  1  0.028335  0.173246  0.605998  1
  N  N69  1  0.971665  0.673246  0.894002  1
  N  N70  1  0.971665  0.826754  0.394002  1
  N  N71  1  0.028335  0.326754  0.105998  1
  N  N72  1  0.318406  0.192019  0.663676  1
  N  N73  1  0.681594  0.692019  0.836324  1
  N  N74  1  0.681594  0.807981  0.336324  1
  N  N75  1  0.318406  0.307981  0.163676  1
