# generated using pymatgen
data_Mg3B11(H3O8)3
_symmetry_space_group_name_H-M   'P 1'
_cell_length_a   17.37309022
_cell_length_b   9.84336038
_cell_length_c   10.33351621
_cell_angle_alpha   90.00000000
_cell_angle_beta   90.00000000
_cell_angle_gamma   90.00000000
_symmetry_Int_Tables_number   1
_chemical_formula_structural   Mg3B11(H3O8)3
_chemical_formula_sum   'Mg12 B44 H36 O96'
_cell_volume   1767.13034914
_cell_formula_units_Z   4
loop_
 _symmetry_equiv_pos_site_id
 _symmetry_equiv_pos_as_xyz
  1  'x, y, z'
loop_
 _atom_site_type_symbol
 _atom_site_label
 _atom_site_symmetry_multiplicity
 _atom_site_fract_x
 _atom_site_fract_y
 _atom_site_fract_z
 _atom_site_occupancy
  Mg  Mg0  1  0.000000  0.520847  0.750000  1
  Mg  Mg1  1  0.500000  0.979153  0.250000  1
  Mg  Mg2  1  0.000000  0.479153  0.250000  1
  Mg  Mg3  1  0.500000  0.020847  0.750000  1
  Mg  Mg4  1  0.174078  0.933607  0.929267  1
  Mg  Mg5  1  0.325922  0.566393  0.429267  1
  Mg  Mg6  1  0.674078  0.566393  0.070733  1
  Mg  Mg7  1  0.825922  0.933607  0.570733  1
  Mg  Mg8  1  0.825922  0.066393  0.070733  1
  Mg  Mg9  1  0.674078  0.433607  0.570733  1
  Mg  Mg10  1  0.325922  0.433607  0.929267  1
  Mg  Mg11  1  0.174078  0.066393  0.429267  1
  B  B12  1  0.000000  0.876755  0.750000  1
  B  B13  1  0.500000  0.623245  0.250000  1
  B  B14  1  0.000000  0.123245  0.250000  1
  B  B15  1  0.500000  0.376755  0.750000  1
  B  B16  1  0.094673  0.840656  0.556127  1
  B  B17  1  0.405327  0.659344  0.056127  1
  B  B18  1  0.594673  0.659344  0.443873  1
  B  B19  1  0.905327  0.840656  0.943873  1
  B  B20  1  0.905327  0.159344  0.443873  1
  B  B21  1  0.594673  0.340656  0.943873  1
  B  B22  1  0.405327  0.340656  0.556127  1
  B  B23  1  0.094673  0.159344  0.056127  1
  B  B24  1  0.102675  0.044942  0.717366  1
  B  B25  1  0.397325  0.455058  0.217366  1
  B  B26  1  0.602675  0.455058  0.282634  1
  B  B27  1  0.897325  0.044942  0.782634  1
  B  B28  1  0.897325  0.955058  0.282634  1
  B  B29  1  0.602675  0.544942  0.782634  1
  B  B30  1  0.397325  0.544942  0.717366  1
  B  B31  1  0.102675  0.955058  0.217366  1
  B  B32  1  0.099781  0.288403  0.648823  1
  B  B33  1  0.400219  0.211597  0.148823  1
  B  B34  1  0.599781  0.211597  0.351177  1
  B  B35  1  0.900219  0.288403  0.851177  1
  B  B36  1  0.900219  0.711597  0.351177  1
  B  B37  1  0.599781  0.788403  0.851177  1
  B  B38  1  0.400219  0.788403  0.648823  1
  B  B39  1  0.099781  0.711597  0.148823  1
  B  B40  1  0.171083  0.227070  0.842891  1
  B  B41  1  0.328917  0.272930  0.342891  1
  B  B42  1  0.671083  0.272930  0.157109  1
  B  B43  1  0.828917  0.227070  0.657109  1
  B  B44  1  0.828917  0.772930  0.157109  1
  B  B45  1  0.671083  0.727070  0.657109  1
  B  B46  1  0.328917  0.727070  0.842891  1
  B  B47  1  0.171083  0.772930  0.342891  1
  B  B48  1  0.202952  0.677715  0.967392  1
  B  B49  1  0.297048  0.822285  0.467392  1
  B  B50  1  0.702952  0.822285  0.032608  1
  B  B51  1  0.797048  0.677715  0.532608  1
  B  B52  1  0.797048  0.322285  0.032608  1
  B  B53  1  0.702952  0.177715  0.532608  1
  B  B54  1  0.297048  0.177715  0.967392  1
  B  B55  1  0.202952  0.322285  0.467392  1
  H  H56  1  0.170643  0.515352  0.501867  1
  H  H57  1  0.329357  0.984648  0.001867  1
  H  H58  1  0.670643  0.984648  0.498133  1
  H  H59  1  0.829357  0.515352  0.998133  1
  H  H60  1  0.829357  0.484648  0.498133  1
  H  H61  1  0.670643  0.015352  0.998133  1
  H  H62  1  0.329357  0.015352  0.501867  1
  H  H63  1  0.170643  0.484648  0.001867  1
  H  H64  1  0.000000  0.171532  0.750000  1
  H  H65  1  0.500000  0.328468  0.250000  1
  H  H66  1  0.000000  0.828468  0.250000  1
  H  H67  1  0.500000  0.671532  0.750000  1
  H  H68  1  0.017764  0.371120  0.536551  1
  H  H69  1  0.482236  0.128880  0.036551  1
  H  H70  1  0.517764  0.128880  0.463449  1
  H  H71  1  0.982236  0.371120  0.963449  1
  H  H72  1  0.982236  0.628880  0.463449  1
  H  H73  1  0.517764  0.871120  0.963449  1
  H  H74  1  0.482236  0.871120  0.536551  1
  H  H75  1  0.017764  0.628880  0.036551  1
  H  H76  1  0.266119  0.680147  0.166602  1
  H  H77  1  0.233881  0.819853  0.666602  1
  H  H78  1  0.766119  0.819853  0.833398  1
  H  H79  1  0.733881  0.680147  0.333398  1
  H  H80  1  0.733881  0.319853  0.833398  1
  H  H81  1  0.766119  0.180147  0.333398  1
  H  H82  1  0.233881  0.180147  0.166602  1
  H  H83  1  0.266119  0.319853  0.666602  1
  H  H84  1  0.289977  0.262988  0.639747  1
  H  H85  1  0.210023  0.237012  0.139747  1
  H  H86  1  0.789977  0.237012  0.360253  1
  H  H87  1  0.710023  0.262988  0.860253  1
  H  H88  1  0.710023  0.737012  0.360253  1
  H  H89  1  0.789977  0.762988  0.860253  1
  H  H90  1  0.210023  0.762988  0.639747  1
  H  H91  1  0.289977  0.737012  0.139747  1
  O  O92  1  0.063269  0.948595  0.803187  1
  O  O93  1  0.436731  0.551405  0.303187  1
  O  O94  1  0.563269  0.551405  0.196813  1
  O  O95  1  0.936731  0.948595  0.696813  1
  O  O96  1  0.936731  0.051405  0.196813  1
  O  O97  1  0.563269  0.448595  0.696813  1
  O  O98  1  0.436731  0.448595  0.803187  1
  O  O99  1  0.063269  0.051405  0.303187  1
  O  O100  1  0.038092  0.784151  0.648417  1
  O  O101  1  0.461908  0.715849  0.148417  1
  O  O102  1  0.538092  0.715849  0.351583  1
  O  O103  1  0.961908  0.784151  0.851583  1
  O  O104  1  0.961908  0.215849  0.351583  1
  O  O105  1  0.538092  0.284151  0.851583  1
  O  O106  1  0.461908  0.284151  0.648417  1
  O  O107  1  0.038092  0.215849  0.148417  1
  O  O108  1  0.115826  0.762956  0.458527  1
  O  O109  1  0.384174  0.737044  0.958527  1
  O  O110  1  0.615826  0.737044  0.541473  1
  O  O111  1  0.884174  0.762956  0.041473  1
  O  O112  1  0.884174  0.237044  0.541473  1
  O  O113  1  0.615826  0.262956  0.041473  1
  O  O114  1  0.384174  0.262956  0.458527  1
  O  O115  1  0.115826  0.237044  0.958527  1
  O  O116  1  0.120082  0.969124  0.587161  1
  O  O117  1  0.379918  0.530876  0.087161  1
  O  O118  1  0.620082  0.530876  0.412839  1
  O  O119  1  0.879918  0.969124  0.912839  1
  O  O120  1  0.879918  0.030876  0.412839  1
  O  O121  1  0.620082  0.469124  0.912839  1
  O  O122  1  0.379918  0.469124  0.587161  1
  O  O123  1  0.120082  0.030876  0.087161  1
  O  O124  1  0.171696  0.085103  0.788809  1
  O  O125  1  0.328304  0.414897  0.288809  1
  O  O126  1  0.671696  0.414897  0.211191  1
  O  O127  1  0.828304  0.085103  0.711191  1
  O  O128  1  0.828304  0.914897  0.211191  1
  O  O129  1  0.671696  0.585103  0.711191  1
  O  O130  1  0.328304  0.585103  0.788809  1
  O  O131  1  0.171696  0.914897  0.288809  1
  O  O132  1  0.055768  0.161643  0.680694  1
  O  O133  1  0.444232  0.338357  0.180694  1
  O  O134  1  0.555768  0.338357  0.319306  1
  O  O135  1  0.944232  0.161643  0.819306  1
  O  O136  1  0.944232  0.838357  0.319306  1
  O  O137  1  0.555768  0.661643  0.819306  1
  O  O138  1  0.444232  0.661643  0.680694  1
  O  O139  1  0.055768  0.838357  0.180694  1
  O  O140  1  0.045432  0.397024  0.619444  1
  O  O141  1  0.454568  0.102976  0.119444  1
  O  O142  1  0.545432  0.102976  0.380556  1
  O  O143  1  0.954568  0.397024  0.880556  1
  O  O144  1  0.954568  0.602976  0.380556  1
  O  O145  1  0.545432  0.897024  0.880556  1
  O  O146  1  0.454568  0.897024  0.619444  1
  O  O147  1  0.045432  0.602976  0.119444  1
  O  O148  1  0.145331  0.250869  0.525919  1
  O  O149  1  0.354669  0.249131  0.025919  1
  O  O150  1  0.645331  0.249131  0.474081  1
  O  O151  1  0.854669  0.250869  0.974081  1
  O  O152  1  0.854669  0.749131  0.474081  1
  O  O153  1  0.645331  0.750869  0.974081  1
  O  O154  1  0.354669  0.750869  0.525919  1
  O  O155  1  0.145331  0.749131  0.025919  1
  O  O156  1  0.149253  0.328045  0.751685  1
  O  O157  1  0.350747  0.171956  0.251685  1
  O  O158  1  0.649253  0.171956  0.248315  1
  O  O159  1  0.850747  0.328045  0.748315  1
  O  O160  1  0.850747  0.671956  0.248315  1
  O  O161  1  0.649253  0.828044  0.748315  1
  O  O162  1  0.350747  0.828044  0.751685  1
  O  O163  1  0.149253  0.671956  0.251685  1
  O  O164  1  0.249726  0.259952  0.895777  1
  O  O165  1  0.250274  0.240048  0.395777  1
  O  O166  1  0.749726  0.240048  0.104223  1
  O  O167  1  0.750274  0.259952  0.604223  1
  O  O168  1  0.750274  0.740048  0.104223  1
  O  O169  1  0.749726  0.759952  0.604223  1
  O  O170  1  0.250274  0.759952  0.895777  1
  O  O171  1  0.249726  0.740048  0.395777  1
  O  O172  1  0.285861  0.037109  0.970318  1
  O  O173  1  0.214139  0.462891  0.470318  1
  O  O174  1  0.785861  0.462891  0.029682  1
  O  O175  1  0.714139  0.037109  0.529682  1
  O  O176  1  0.714139  0.962891  0.029682  1
  O  O177  1  0.785861  0.537109  0.529682  1
  O  O178  1  0.214139  0.537109  0.970318  1
  O  O179  1  0.285861  0.962891  0.470318  1
  O  O180  1  0.493353  0.164184  0.889223  1
  O  O181  1  0.006647  0.335816  0.389223  1
  O  O182  1  0.993353  0.335816  0.110778  1
  O  O183  1  0.506647  0.164184  0.610777  1
  O  O184  1  0.506647  0.835816  0.110778  1
  O  O185  1  0.993353  0.664184  0.610777  1
  O  O186  1  0.006647  0.664184  0.889223  1
  O  O187  1  0.493353  0.835816  0.389223  1
