# generated using pymatgen
data_Mn2NbFe3(PO4)6
_symmetry_space_group_name_H-M   'P 1'
_cell_length_a   8.70573325
_cell_length_b   8.70573345
_cell_length_c   8.70573240
_cell_angle_alpha   59.96080683
_cell_angle_beta   59.96080944
_cell_angle_gamma   59.96080653
_symmetry_Int_Tables_number   1
_chemical_formula_structural   Mn2NbFe3(PO4)6
_chemical_formula_sum   'Mn2 Nb1 Fe3 P6 O24'
_cell_volume   466.13837862
_cell_formula_units_Z   1
loop_
 _symmetry_equiv_pos_site_id
 _symmetry_equiv_pos_as_xyz
  1  'x, y, z'
loop_
 _atom_site_type_symbol
 _atom_site_label
 _atom_site_symmetry_multiplicity
 _atom_site_fract_x
 _atom_site_fract_y
 _atom_site_fract_z
 _atom_site_occupancy
  Mn  Mn0  1  0.004748  0.004748  0.004748  1
  Mn  Mn1  1  0.500585  0.500585  0.500585  1
  Nb  Nb2  1  0.856002  0.856002  0.856002  1
  Fe  Fe3  1  0.146981  0.146981  0.146981  1
  Fe  Fe4  1  0.355035  0.355035  0.355035  1
  Fe  Fe5  1  0.644495  0.644495  0.644495  1
  P  P6  1  0.044625  0.747089  0.450860  1
  P  P7  1  0.450860  0.044625  0.747089  1
  P  P8  1  0.747089  0.450860  0.044625  1
  P  P9  1  0.255258  0.538268  0.957548  1
  P  P10  1  0.538268  0.957548  0.255258  1
  P  P11  1  0.957548  0.255258  0.538268  1
  O  O12  1  0.115354  0.308385  0.507538  1
  O  O13  1  0.308385  0.507538  0.115354  1
  O  O14  1  0.060286  0.913471  0.263309  1
  O  O15  1  0.507538  0.115354  0.308385  1
  O  O16  1  0.994198  0.812451  0.616212  1
  O  O17  1  0.236706  0.587808  0.444916  1
  O  O18  1  0.263309  0.060286  0.913471  1
  O  O19  1  0.444916  0.236706  0.587808  1
  O  O20  1  0.186857  0.387693  0.996731  1
  O  O21  1  0.587808  0.444916  0.236706  1
  O  O22  1  0.088460  0.736564  0.936641  1
  O  O23  1  0.387693  0.996731  0.186857  1
  O  O24  1  0.616212  0.994198  0.812451  1
  O  O25  1  0.913471  0.263309  0.060286  1
  O  O26  1  0.413054  0.559761  0.762757  1
  O  O27  1  0.812451  0.616212  0.994198  1
  O  O28  1  0.559761  0.762757  0.413054  1
  O  O29  1  0.736564  0.936641  0.088460  1
  O  O30  1  0.762757  0.413054  0.559761  1
  O  O31  1  0.996731  0.186857  0.387693  1
  O  O32  1  0.495498  0.886453  0.687401  1
  O  O33  1  0.936641  0.088460  0.736564  1
  O  O34  1  0.687401  0.495498  0.886453  1
  O  O35  1  0.886453  0.687401  0.495498  1
