# generated using pymatgen
data_Li3MnNi3O8
_symmetry_space_group_name_H-M   'P 1'
_cell_length_a   10.29035428
_cell_length_b   10.29220886
_cell_length_c   14.61712520
_cell_angle_alpha   18.98757184
_cell_angle_beta   18.99079681
_cell_angle_gamma   32.66311533
_symmetry_Int_Tables_number   1
_chemical_formula_structural   Li3MnNi3O8
_chemical_formula_sum   'Li3 Mn1 Ni3 O8'
_cell_volume   142.55030826
_cell_formula_units_Z   1
loop_
 _symmetry_equiv_pos_site_id
 _symmetry_equiv_pos_as_xyz
  1  'x, y, z'
loop_
 _atom_site_type_symbol
 _atom_site_label
 _atom_site_symmetry_multiplicity
 _atom_site_fract_x
 _atom_site_fract_y
 _atom_site_fract_z
 _atom_site_occupancy
  Li  Li0  1  0.999994  0.499977  0.500020  1
  Li  Li1  1  0.499995  0.000007  0.499998  1
  Li  Li2  1  0.500005  0.500018  0.499983  1
  Mn  Mn3  1  0.000020  0.000003  -0.000021  1
  Ni  Ni4  1  -0.000003  0.500002  -0.000003  1
  Ni  Ni5  1  0.500011  0.000001  -0.000014  1
  Ni  Ni6  1  0.499988  0.499994  0.000008  1
  O  O7  1  0.004079  0.004219  0.257516  1
  O  O8  1  0.006372  0.530821  0.235325  1
  O  O9  1  0.528888  0.002486  0.239142  1
  O  O10  1  0.995921  0.995776  0.742482  1
  O  O11  1  0.471384  0.473483  0.297901  1
  O  O12  1  0.993625  0.469225  0.764657  1
  O  O13  1  0.471143  0.997512  0.760846  1
  O  O14  1  0.528579  0.526478  0.702159  1
