# generated using pymatgen
data_Li5Ti2Fe5O12
_symmetry_space_group_name_H-M   'P 1'
_cell_length_a   5.25683871
_cell_length_b   5.25683829
_cell_length_c   10.03032918
_cell_angle_alpha   84.38751291
_cell_angle_beta   95.61248413
_cell_angle_gamma   58.83937278
_symmetry_Int_Tables_number   1
_chemical_formula_structural   Li5Ti2Fe5O12
_chemical_formula_sum   'Li5 Ti2 Fe5 O12'
_cell_volume   232.44102320
_cell_formula_units_Z   1
loop_
 _symmetry_equiv_pos_site_id
 _symmetry_equiv_pos_as_xyz
  1  'x, y, z'
loop_
 _atom_site_type_symbol
 _atom_site_label
 _atom_site_symmetry_multiplicity
 _atom_site_fract_x
 _atom_site_fract_y
 _atom_site_fract_z
 _atom_site_occupancy
  Li  Li0  1  0.165739  0.669978  0.503576  1
  Li  Li1  1  0.327410  0.833006  0.994811  1
  Li  Li2  1  0.669978  0.165739  0.996424  1
  Li  Li3  1  0.833006  0.327410  0.505189  1
  Li  Li4  1  0.920469  0.920469  0.750000  1
  Ti  Ti5  1  0.252251  0.252251  0.750000  1
  Ti  Ti6  1  0.746438  0.746438  0.250000  1
  Fe  Fe7  1  0.077492  0.077492  0.250000  1
  Fe  Fe8  1  0.003904  0.504853  0.998112  1
  Fe  Fe9  1  0.504853  0.003904  0.501888  1
  Fe  Fe10  1  0.419240  0.419240  0.250000  1
  Fe  Fe11  1  0.581207  0.581207  0.750000  1
  O  O12  1  0.969262  0.225329  0.864193  1
  O  O13  1  0.225329  0.969262  0.635807  1
  O  O14  1  0.116915  0.380741  0.367914  1
  O  O15  1  0.380741  0.116915  0.132086  1
  O  O16  1  0.307331  0.517275  0.863755  1
  O  O17  1  0.517275  0.307331  0.636245  1
  O  O18  1  0.490894  0.699512  0.368457  1
  O  O19  1  0.699512  0.490894  0.131543  1
  O  O20  1  0.604709  0.879017  0.864437  1
  O  O21  1  0.879017  0.604709  0.635563  1
  O  O22  1  0.800109  0.006922  0.370205  1
  O  O23  1  0.006922  0.800109  0.129795  1
