# generated using pymatgen
data_Ni6OF11
_symmetry_space_group_name_H-M   'P 1'
_cell_length_a   10.53750574
_cell_length_b   6.62550793
_cell_length_c   3.08926563
_cell_angle_alpha   90.00000000
_cell_angle_beta   90.00000000
_cell_angle_gamma   71.67189031
_symmetry_Int_Tables_number   1
_chemical_formula_structural   Ni6OF11
_chemical_formula_sum   'Ni6 O1 F11'
_cell_volume   204.73995959
_cell_formula_units_Z   1
loop_
 _symmetry_equiv_pos_site_id
 _symmetry_equiv_pos_as_xyz
  1  'x, y, z'
loop_
 _atom_site_type_symbol
 _atom_site_label
 _atom_site_symmetry_multiplicity
 _atom_site_fract_x
 _atom_site_fract_y
 _atom_site_fract_z
 _atom_site_occupancy
  Ni  Ni0  1  0.000016  0.003472  0.000000  1
  Ni  Ni1  1  0.999991  0.492170  0.500000  1
  Ni  Ni2  1  0.334079  0.333551  0.000000  1
  Ni  Ni3  1  0.333119  0.833185  0.500000  1
  Ni  Ni4  1  0.666905  0.166235  0.500000  1
  Ni  Ni5  1  0.665902  0.667660  0.000000  1
  O  O6  1  0.999986  0.306519  0.000000  1
  F  F7  1  0.333186  0.030151  0.000000  1
  F  F8  1  0.999983  0.697334  0.000000  1
  F  F9  1  0.203177  0.398318  0.500000  1
  F  F10  1  0.464639  0.267703  0.500000  1
  F  F11  1  0.132011  0.933679  0.500000  1
  F  F12  1  0.333954  0.636614  0.000000  1
  F  F13  1  0.666889  0.363314  0.000000  1
  F  F14  1  0.535355  0.732399  0.500000  1
  F  F15  1  0.868010  0.065570  0.500000  1
  F  F16  1  0.796807  0.601509  0.500000  1
  F  F17  1  0.665990  0.970619  0.000000  1
