# generated using pymatgen
data_Li3Nb2VO6
_symmetry_space_group_name_H-M   'P 1'
_cell_length_a   16.52164257
_cell_length_b   10.52812074
_cell_length_c   10.52812079
_cell_angle_alpha   15.99479280
_cell_angle_beta   15.79883994
_cell_angle_gamma   15.79883807
_symmetry_Int_Tables_number   1
_chemical_formula_structural   Li3Nb2VO6
_chemical_formula_sum   'Li3 Nb2 V1 O6'
_cell_volume   119.25273186
_cell_formula_units_Z   1
loop_
 _symmetry_equiv_pos_site_id
 _symmetry_equiv_pos_as_xyz
  1  'x, y, z'
loop_
 _atom_site_type_symbol
 _atom_site_label
 _atom_site_symmetry_multiplicity
 _atom_site_fract_x
 _atom_site_fract_y
 _atom_site_fract_z
 _atom_site_occupancy
  Li  Li0  1  0.166667  0.500000  0.500000  1
  Li  Li1  1  0.507948  0.499485  0.499485  1
  Li  Li2  1  0.825385  0.500515  0.500515  1
  Nb  Nb3  1  0.957136  0.032143  0.032143  1
  Nb  Nb4  1  0.376198  0.967857  0.967857  1
  V  V5  1  0.666667  0.000000  0.000000  1
  O  O6  1  0.256323  0.250390  0.250390  1
  O  O7  1  0.576682  0.245671  0.245671  1
  O  O8  1  0.077010  0.749610  0.749610  1
  O  O9  1  0.923883  0.253556  0.253556  1
  O  O10  1  0.409450  0.746444  0.746444  1
  O  O11  1  0.756652  0.754329  0.754329  1
