# generated using pymatgen
data_Li8MnCr3O12
_symmetry_space_group_name_H-M   'P 1'
_cell_length_a   4.97838588
_cell_length_b   4.96357491
_cell_length_c   8.40762231
_cell_angle_alpha   89.68953609
_cell_angle_beta   89.67797443
_cell_angle_gamma   89.99879422
_symmetry_Int_Tables_number   1
_chemical_formula_structural   Li8MnCr3O12
_chemical_formula_sum   'Li8 Mn1 Cr3 O12'
_cell_volume   207.75098726
_cell_formula_units_Z   1
loop_
 _symmetry_equiv_pos_site_id
 _symmetry_equiv_pos_as_xyz
  1  'x, y, z'
loop_
 _atom_site_type_symbol
 _atom_site_label
 _atom_site_symmetry_multiplicity
 _atom_site_fract_x
 _atom_site_fract_y
 _atom_site_fract_z
 _atom_site_occupancy
  Li  Li0  1  0.004895  0.497879  0.230534  1
  Li  Li1  1  0.000111  0.499411  0.920321  1
  Li  Li2  1  0.002124  0.999857  0.254449  1
  Li  Li3  1  0.000037  0.002115  0.566500  1
  Li  Li4  1  0.500568  0.500582  0.754428  1
  Li  Li5  1  0.498346  0.499072  0.064025  1
  Li  Li6  1  0.501896  0.999839  0.731193  1
  Li  Li7  1  0.495185  0.999670  0.420722  1
  Mn  Mn8  1  -0.000758  0.999377  0.906211  1
  Cr  Cr9  1  0.509725  0.500283  0.406046  1
  Cr  Cr10  1  0.002750  0.505483  0.585127  1
  Cr  Cr11  1  0.498063  0.001228  0.083821  1
  O  O12  1  0.144162  0.750867  0.743711  1
  O  O13  1  0.166595  0.778634  0.067324  1
  O  O14  1  0.169527  0.715064  0.419230  1
  O  O15  1  0.329319  0.282989  0.563714  1
  O  O16  1  0.327227  0.213531  0.918440  1
  O  O17  1  0.355263  0.244267  0.240188  1
  O  O18  1  0.633979  0.748023  0.241571  1
  O  O19  1  0.672893  0.786447  0.918369  1
  O  O20  1  0.673501  0.720916  0.567857  1
  O  O21  1  0.826972  0.283969  0.420827  1
  O  O22  1  0.831128  0.218821  0.066732  1
  O  O23  1  0.856559  0.251664  0.742009  1
