# generated using pymatgen
data_Sr20P12Cl(O16F)3
_symmetry_space_group_name_H-M   'P 1'
_cell_length_a   9.89108619
_cell_length_b   19.78010984
_cell_length_c   7.37629074
_cell_angle_alpha   90.00115112
_cell_angle_beta   89.99874961
_cell_angle_gamma   119.99415829
_symmetry_Int_Tables_number   1
_chemical_formula_structural   Sr20P12Cl(O16F)3
_chemical_formula_sum   'Sr20 P12 Cl1 O48 F3'
_cell_volume   1249.87593110
_cell_formula_units_Z   1
loop_
 _symmetry_equiv_pos_site_id
 _symmetry_equiv_pos_as_xyz
  1  'x, y, z'
loop_
 _atom_site_type_symbol
 _atom_site_label
 _atom_site_symmetry_multiplicity
 _atom_site_fract_x
 _atom_site_fract_y
 _atom_site_fract_z
 _atom_site_occupancy
  Sr  Sr0  1  0.261062  0.993441  0.246042  1
  Sr  Sr1  1  0.010807  0.625973  0.249681  1
  Sr  Sr2  1  0.332250  0.833156  0.501356  1
  Sr  Sr3  1  0.330977  0.832539  0.998662  1
  Sr  Sr4  1  0.252093  0.620315  0.749964  1
  Sr  Sr5  1  0.240581  0.493696  0.250114  1
  Sr  Sr6  1  0.725542  0.869062  0.246479  1
  Sr  Sr7  1  0.014317  0.137754  0.246728  1
  Sr  Sr8  1  0.670236  0.666911  0.499742  1
  Sr  Sr9  1  0.335683  0.334098  0.999061  1
  Sr  Sr10  1  0.667580  0.665501  0.998672  1
  Sr  Sr11  1  0.334489  0.333527  0.500981  1
  Sr  Sr12  1  0.988624  0.874441  0.744994  1
  Sr  Sr13  1  0.250996  0.120091  0.745086  1
  Sr  Sr14  1  0.758168  0.505364  0.749831  1
  Sr  Sr15  1  0.746760  0.379783  0.249738  1
  Sr  Sr16  1  0.665770  0.167907  0.997310  1
  Sr  Sr17  1  0.663288  0.166327  0.499307  1
  Sr  Sr18  1  0.989150  0.374042  0.749962  1
  Sr  Sr19  1  0.760939  0.005767  0.745531  1
  P  P20  1  0.030957  0.698952  0.749951  1
  P  P21  1  0.368957  0.984068  0.749019  1
  P  P22  1  0.395006  0.681421  0.249975  1
  P  P23  1  0.599221  0.815268  0.748880  1
  P  P24  1  0.031625  0.200472  0.748885  1
  P  P25  1  0.367362  0.484658  0.749844  1
  P  P26  1  0.632442  0.515317  0.250054  1
  P  P27  1  0.966776  0.799314  0.249817  1
  P  P28  1  0.401156  0.184185  0.249803  1
  P  P29  1  0.601985  0.316587  0.749899  1
  P  P30  1  0.636389  0.017203  0.249821  1
  P  P31  1  0.968223  0.302574  0.249947  1
  Cl  Cl32  1  0.000197  0.999937  0.352732  1
  O  O33  1  0.264146  0.957598  0.577264  1
  O  O34  1  0.260244  0.957059  0.918174  1
  O  O35  1  0.116660  0.789895  0.750345  1
  O  O36  1  0.148659  0.835716  0.250973  1
  O  O37  1  0.083141  0.671897  0.578914  1
  O  O38  1  0.083489  0.671784  0.920672  1
  O  O39  1  0.465245  0.941370  0.751278  1
  O  O40  1  0.332209  0.740035  0.249800  1
  O  O41  1  0.521031  0.926785  0.250498  1
  O  O42  1  0.417569  0.767276  0.750650  1
  O  O43  1  0.338292  0.628586  0.420394  1
  O  O44  1  0.338307  0.628442  0.079545  1
  O  O45  1  0.653858  0.869338  0.918563  1
  O  O46  1  0.651451  0.867813  0.577281  1
  O  O47  1  0.260797  0.458543  0.920775  1
  O  O48  1  0.260556  0.458469  0.579212  1
  O  O49  1  0.117333  0.291274  0.750761  1
  O  O50  1  0.148279  0.334117  0.249871  1
  O  O51  1  0.577051  0.726747  0.249595  1
  O  O52  1  0.477795  0.575277  0.749708  1
  O  O53  1  0.084675  0.174341  0.577527  1
  O  O54  1  0.085300  0.173088  0.918274  1
  O  O55  1  0.671217  0.760684  0.750125  1
  O  O56  1  0.536767  0.558390  0.250022  1
  O  O57  1  0.463186  0.441644  0.749879  1
  O  O58  1  0.328097  0.238613  0.251065  1
  O  O59  1  0.915365  0.828492  0.081275  1
  O  O60  1  0.909159  0.821016  0.424238  1
  O  O61  1  0.521893  0.424718  0.250243  1
  O  O62  1  0.420168  0.268577  0.750458  1
  O  O63  1  0.849718  0.663229  0.750088  1
  O  O64  1  0.883151  0.708405  0.242497  1
  O  O65  1  0.739047  0.541205  0.079139  1
  O  O66  1  0.739437  0.541463  0.420609  1
  O  O67  1  0.342797  0.129372  0.081073  1
  O  O68  1  0.357743  0.133571  0.424148  1
  O  O69  1  0.656062  0.369881  0.579128  1
  O  O70  1  0.656381  0.370161  0.920372  1
  O  O71  1  0.582881  0.233358  0.242555  1
  O  O72  1  0.477510  0.074642  0.750291  1
  O  O73  1  0.673391  0.261683  0.749763  1
  O  O74  1  0.543207  0.061663  0.241713  1
  O  O75  1  0.919106  0.330933  0.079376  1
  O  O76  1  0.919016  0.330889  0.420303  1
  O  O77  1  0.850475  0.164537  0.750018  1
  O  O78  1  0.877088  0.211563  0.249608  1
  O  O79  1  0.745603  0.041481  0.081678  1
  O  O80  1  0.736050  0.044663  0.424300  1
  F  F81  1  0.000319  0.999954  0.774807  1
  F  F82  1  0.999790  0.500053  0.249902  1
  F  F83  1  0.999681  0.500061  0.749986  1
