# generated using pymatgen
data_Li2Cu3(CO3)3
_symmetry_space_group_name_H-M   'P 1'
_cell_length_a   8.10594606
_cell_length_b   8.14945480
_cell_length_c   6.18749563
_cell_angle_alpha   90.00000000
_cell_angle_beta   90.00000000
_cell_angle_gamma   119.61804229
_symmetry_Int_Tables_number   1
_chemical_formula_structural   Li2Cu3(CO3)3
_chemical_formula_sum   'Li4 Cu6 C6 O18'
_cell_volume   355.33378813
_cell_formula_units_Z   2
loop_
 _symmetry_equiv_pos_site_id
 _symmetry_equiv_pos_as_xyz
  1  'x, y, z'
loop_
 _atom_site_type_symbol
 _atom_site_label
 _atom_site_symmetry_multiplicity
 _atom_site_fract_x
 _atom_site_fract_y
 _atom_site_fract_z
 _atom_site_occupancy
  Li  Li0  1  0.034898  0.377567  0.000000  1
  Li  Li1  1  0.343869  0.967004  0.500000  1
  Li  Li2  1  0.621096  0.656242  0.000000  1
  Li  Li3  1  0.620201  0.656211  0.500000  1
  Cu  Cu4  1  0.320482  0.293120  0.249257  1
  Cu  Cu5  1  0.320482  0.293120  0.750743  1
  Cu  Cu6  1  0.979805  0.675322  0.751258  1
  Cu  Cu7  1  0.979805  0.675322  0.248742  1
  Cu  Cu8  1  0.700893  0.034314  0.252513  1
  Cu  Cu9  1  0.700893  0.034314  0.747487  1
  C  C10  1  0.336198  0.668614  0.250089  1
  C  C11  1  0.336198  0.668614  0.749911  1
  C  C12  1  0.995500  0.996307  0.000000  1
  C  C13  1  0.001486  0.998608  0.500000  1
  C  C14  1  0.665265  0.336533  0.000000  1
  C  C15  1  0.665550  0.331746  0.500000  1
  O  O16  1  0.067120  0.886536  0.000000  1
  O  O17  1  0.073536  0.884902  0.500000  1
  O  O18  1  0.155335  0.558898  0.765997  1
  O  O19  1  0.155335  0.558898  0.234003  1
  O  O20  1  0.409669  0.848315  0.269390  1
  O  O21  1  0.409669  0.848315  0.730610  1
  O  O22  1  0.105736  0.180433  0.000000  1
  O  O23  1  0.111457  0.179577  0.500000  1
  O  O24  1  0.448807  0.593803  0.247253  1
  O  O25  1  0.448807  0.593803  0.752747  1
  O  O26  1  0.810052  0.927319  0.000000  1
  O  O27  1  0.817167  0.924696  0.500000  1
  O  O28  1  0.482844  0.254785  0.000000  1
  O  O29  1  0.479368  0.247806  0.500000  1
  O  O30  1  0.766659  0.521500  0.000000  1
  O  O31  1  0.762711  0.515504  0.500000  1
  O  O32  1  0.753811  0.239055  0.000000  1
  O  O33  1  0.748350  0.231118  0.500000  1
