# generated using pymatgen
data_Fe3O5F
_symmetry_space_group_name_H-M   'P 1'
_cell_length_a   7.36576888
_cell_length_b   5.52309289
_cell_length_c   5.52309289
_cell_angle_alpha   70.98633162
_cell_angle_beta   70.81755699
_cell_angle_gamma   70.81755699
_symmetry_Int_Tables_number   1
_chemical_formula_structural   Fe3O5F
_chemical_formula_sum   'Fe6 O10 F2'
_cell_volume   194.36353464
_cell_formula_units_Z   2
loop_
 _symmetry_equiv_pos_site_id
 _symmetry_equiv_pos_as_xyz
  1  'x, y, z'
loop_
 _atom_site_type_symbol
 _atom_site_label
 _atom_site_symmetry_multiplicity
 _atom_site_fract_x
 _atom_site_fract_y
 _atom_site_fract_z
 _atom_site_occupancy
  Fe  Fe0  1  0.833333  0.666667  0.666667  1
  Fe  Fe1  1  0.677290  0.334421  0.334421  1
  Fe  Fe2  1  0.333333  0.666667  0.666667  1
  Fe  Fe3  1  0.152517  0.324233  0.324233  1
  Fe  Fe4  1  0.514149  0.009101  0.009101  1
  Fe  Fe5  1  0.989377  0.998912  0.998912  1
  O  O6  1  0.666419  0.028624  0.642770  1
  O  O7  1  0.333333  0.362023  0.971310  1
  O  O8  1  0.966550  0.222300  0.222300  1
  O  O9  1  0.621780  0.563577  0.563577  1
  O  O10  1  0.044887  0.769756  0.769756  1
  O  O11  1  0.700117  0.111033  0.111033  1
  O  O12  1  0.333333  0.971310  0.362023  1
  O  O13  1  0.666419  0.642770  0.028624  1
  O  O14  1  0.000248  0.304709  0.690563  1
  O  O15  1  0.000248  0.690563  0.304709  1
  F  F16  1  0.300081  0.903779  0.903779  1
  F  F17  1  0.366586  0.429554  0.429554  1
