# generated using pymatgen
data_Li5La3Nb14O42
_symmetry_space_group_name_H-M   'P 1'
_cell_length_a   18.69117299
_cell_length_b   5.63100449
_cell_length_c   8.94928979
_cell_angle_alpha   71.66434143
_cell_angle_beta   95.73008632
_cell_angle_gamma   89.99854754
_symmetry_Int_Tables_number   1
_chemical_formula_structural   Li5La3Nb14O42
_chemical_formula_sum   'Li5 La3 Nb14 O42'
_cell_volume   889.13202614
_cell_formula_units_Z   1
loop_
 _symmetry_equiv_pos_site_id
 _symmetry_equiv_pos_as_xyz
  1  'x, y, z'
loop_
 _atom_site_type_symbol
 _atom_site_label
 _atom_site_symmetry_multiplicity
 _atom_site_fract_x
 _atom_site_fract_y
 _atom_site_fract_z
 _atom_site_occupancy
  Li  Li0  1  0.143032  0.428787  0.142445  1
  Li  Li1  1  0.428397  0.285499  0.428983  1
  Li  Li2  1  0.785714  0.357143  0.285714  1
  Li  Li3  1  0.713493  0.143766  0.712540  1
  Li  Li4  1  0.857936  0.570520  0.858889  1
  La  La5  1  0.999296  0.000081  0.999688  1
  La  La6  1  0.285714  0.857143  0.285714  1
  La  La7  1  0.572133  0.714205  0.571741  1
  Nb  Nb8  1  0.322030  0.467653  0.064733  1
  Nb  Nb9  1  0.036785  0.611051  0.777878  1
  Nb  Nb10  1  0.249398  0.246633  0.506696  1
  Nb  Nb11  1  0.179250  0.039105  0.921807  1
  Nb  Nb12  1  0.106681  0.818400  0.363074  1
  Nb  Nb13  1  0.534644  0.103235  0.793551  1
  Nb  Nb14  1  0.464748  0.895886  0.208354  1
  Nb  Nb15  1  0.607386  0.324354  0.351445  1
  Nb  Nb16  1  0.392178  0.675181  0.649621  1
  Nb  Nb17  1  0.752716  0.749389  0.501288  1
  Nb  Nb18  1  0.818713  0.964897  0.070141  1
  Nb  Nb19  1  0.678435  0.533856  0.932269  1
  Nb  Nb20  1  0.964044  0.389931  0.219984  1
  Nb  Nb21  1  0.892994  0.180429  0.639160  1
  O  O22  1  0.999775  0.499742  0.000589  1
  O  O23  1  0.037497  0.111057  0.264959  1
  O  O24  1  0.248465  0.233066  0.021361  1
  O  O25  1  0.183667  0.039006  0.410689  1
  O  O26  1  0.037531  0.623728  0.265060  1
  O  O27  1  0.499817  0.000061  0.999939  1
  O  O28  1  0.143169  0.928393  0.143245  1
  O  O29  1  0.071611  0.714225  0.571490  1
  O  O30  1  0.285714  0.357143  0.285714  1
  O  O31  1  0.214214  0.142809  0.714354  1
  O  O32  1  0.183688  0.550388  0.410661  1
  O  O33  1  0.102169  0.306358  0.875767  1
  O  O34  1  0.387740  0.163898  0.160767  1
  O  O35  1  0.248437  0.745406  0.021367  1
  O  O36  1  0.322964  0.481219  0.550067  1
  O  O37  1  0.533897  0.090558  0.306369  1
  O  O38  1  0.102158  0.817998  0.875725  1
  O  O39  1  0.387761  0.675280  0.160740  1
  O  O40  1  0.533932  0.603229  0.306470  1
  O  O41  1  0.648493  0.426457  0.147328  1
  O  O42  1  0.571654  0.214543  0.570840  1
  O  O43  1  0.469260  0.407928  0.695662  1
  O  O44  1  0.674914  0.026276  0.442986  1
  O  O45  1  0.428259  0.785893  0.428184  1
  O  O46  1  0.357214  0.571477  0.857074  1
  O  O47  1  0.322992  0.968880  0.550062  1
  O  O48  1  0.896489  0.183637  0.128433  1
  O  O49  1  0.674939  0.530649  0.442996  1
  O  O50  1  0.469271  0.896288  0.695704  1
  O  O51  1  0.608198  0.337399  0.836081  1
  O  O52  1  0.608194  0.826464  0.836014  1
  O  O53  1  0.861734  0.069066  0.861999  1
  O  O54  1  0.818043  0.453248  0.583737  1
  O  O55  1  0.753385  0.261037  0.987692  1
  O  O56  1  0.785714  0.857143  0.285714  1
  O  O57  1  0.709695  0.645220  0.709429  1
  O  O58  1  0.922935  0.287829  0.424100  1
  O  O59  1  0.896515  0.688009  0.128442  1
  O  O60  1  0.818043  0.962864  0.583830  1
  O  O61  1  0.753386  0.751422  0.987599  1
  O  O62  1  0.963231  0.376886  0.735348  1
  O  O63  1  0.963235  0.887822  0.735414  1
