# generated using pymatgen
data_Li4Cr3Cu3(WO8)2
_symmetry_space_group_name_H-M   'P 1'
_cell_length_a   5.96282766
_cell_length_b   5.88611680
_cell_length_c   9.78771679
_cell_angle_alpha   89.96964143
_cell_angle_beta   87.22925867
_cell_angle_gamma   119.56251333
_symmetry_Int_Tables_number   1
_chemical_formula_structural   Li4Cr3Cu3(WO8)2
_chemical_formula_sum   'Li4 Cr3 Cu3 W2 O16'
_cell_volume   298.34022562
_cell_formula_units_Z   1
loop_
 _symmetry_equiv_pos_site_id
 _symmetry_equiv_pos_as_xyz
  1  'x, y, z'
loop_
 _atom_site_type_symbol
 _atom_site_label
 _atom_site_symmetry_multiplicity
 _atom_site_fract_x
 _atom_site_fract_y
 _atom_site_fract_z
 _atom_site_occupancy
  Li  Li0  1  0.327343  0.663672  0.908641  1
  Li  Li1  1  0.994762  0.997358  0.989439  1
  Li  Li2  1  0.007528  0.003758  0.483411  1
  Li  Li3  1  0.689673  0.344848  0.411618  1
  Cr  Cr4  1  0.658536  0.829239  0.215837  1
  Cr  Cr5  1  0.827757  0.660373  0.714221  1
  Cr  Cr6  1  0.827696  0.167319  0.714201  1
  Cu  Cu7  1  0.167480  0.830033  0.211990  1
  Cu  Cu8  1  0.167513  0.337626  0.211924  1
  Cu  Cu9  1  0.335069  0.167596  0.712218  1
  W  W10  1  0.355281  0.677682  0.487289  1
  W  W11  1  0.652759  0.326439  0.984967  1
  O  O12  1  0.162648  0.819466  0.584818  1
  O  O13  1  0.064783  0.532525  0.351138  1
  O  O14  1  0.332864  0.666472  0.119490  1
  O  O15  1  0.999126  0.999678  0.295398  1
  O  O16  1  0.999105  0.999619  0.803226  1
  O  O17  1  0.162585  0.343109  0.584809  1
  O  O18  1  0.522201  0.977603  0.361010  1
  O  O19  1  0.521967  0.544456  0.361048  1
  O  O20  1  0.319963  0.159887  0.083523  1
  O  O21  1  0.660363  0.830157  0.602119  1
  O  O22  1  0.521421  0.486514  0.848311  1
  O  O23  1  0.521335  0.034866  0.848242  1
  O  O24  1  0.665428  0.332664  0.614546  1
  O  O25  1  0.789015  0.641088  0.081688  1
  O  O26  1  0.956667  0.478354  0.841020  1
  O  O27  1  0.789135  0.147900  0.081702  1
