# generated using pymatgen
data_K4Ti3Mn(PO4)6
_symmetry_space_group_name_H-M   'P 1'
_cell_length_a   10.05369515
_cell_length_b   10.05663836
_cell_length_c   10.02292853
_cell_angle_alpha   90.00000000
_cell_angle_beta   90.00000000
_cell_angle_gamma   90.03244045
_symmetry_Int_Tables_number   1
_chemical_formula_structural   K4Ti3Mn(PO4)6
_chemical_formula_sum   'K8 Ti6 Mn2 P12 O48'
_cell_volume   1013.38182079
_cell_formula_units_Z   2
loop_
 _symmetry_equiv_pos_site_id
 _symmetry_equiv_pos_as_xyz
  1  'x, y, z'
loop_
 _atom_site_type_symbol
 _atom_site_label
 _atom_site_symmetry_multiplicity
 _atom_site_fract_x
 _atom_site_fract_y
 _atom_site_fract_z
 _atom_site_occupancy
  K  K0  1  0.059669  0.062547  0.063942  1
  K  K1  1  0.198025  0.711468  0.796962  1
  K  K2  1  0.301974  0.288532  0.296962  1
  K  K3  1  0.440331  0.937453  0.563942  1
  K  K4  1  0.572153  0.430726  0.932155  1
  K  K5  1  0.708150  0.806137  0.203406  1
  K  K6  1  0.791850  0.193863  0.703406  1
  K  K7  1  0.927847  0.569274  0.432155  1
  Ti  Ti8  1  0.083167  0.912720  0.415249  1
  Ti  Ti9  1  0.141522  0.357169  0.639801  1
  Ti  Ti10  1  0.358478  0.642831  0.139801  1
  Ti  Ti11  1  0.416833  0.087280  0.915249  1
  Ti  Ti12  1  0.590077  0.587822  0.588158  1
  Ti  Ti13  1  0.909923  0.412178  0.088158  1
  Mn  Mn14  1  0.644974  0.146198  0.355078  1
  Mn  Mn15  1  0.855026  0.853802  0.855078  1
  P  P16  1  0.041486  0.723306  0.132469  1
  P  P17  1  0.133872  0.043293  0.723867  1
  P  P18  1  0.225280  0.372683  0.958974  1
  P  P19  1  0.274720  0.627317  0.458974  1
  P  P20  1  0.366128  0.956707  0.223867  1
  P  P21  1  0.458514  0.276694  0.632469  1
  P  P22  1  0.539197  0.770446  0.877013  1
  P  P23  1  0.622089  0.462675  0.269744  1
  P  P24  1  0.729386  0.126900  0.039923  1
  P  P25  1  0.770614  0.873100  0.539923  1
  P  P26  1  0.877911  0.537325  0.769744  1
  P  P27  1  0.960803  0.229554  0.377013  1
  O  O28  1  0.004061  0.082190  0.356570  1
  O  O29  1  0.035786  0.957036  0.798534  1
  O  O30  1  0.023890  0.792860  0.270327  1
  O  O31  1  0.063830  0.299308  0.471879  1
  O  O32  1  0.087225  0.191828  0.724890  1
  O  O33  1  0.079728  0.352318  0.005129  1
  O  O34  1  0.153314  0.998629  0.576105  1
  O  O35  1  0.190283  0.724859  0.088647  1
  O  O36  1  0.198976  0.759831  0.479475  1
  O  O37  1  0.201741  0.523298  0.547508  1
  O  O38  1  0.227965  0.420449  0.811725  1
  O  O39  1  0.228877  0.969146  0.294487  1
  O  O40  1  0.271123  0.030854  0.794487  1
  O  O41  1  0.272035  0.579551  0.311725  1
  O  O42  1  0.298259  0.476702  0.047508  1
  O  O43  1  0.301024  0.240169  0.979475  1
  O  O44  1  0.309717  0.275141  0.588647  1
  O  O45  1  0.346686  0.001371  0.076105  1
  O  O46  1  0.420272  0.647682  0.505129  1
  O  O47  1  0.412775  0.808172  0.224890  1
  O  O48  1  0.436170  0.700692  0.971879  1
  O  O49  1  0.476110  0.207140  0.770327  1
  O  O50  1  0.464214  0.042964  0.298534  1
  O  O51  1  0.495939  0.917810  0.856570  1
  O  O52  1  0.502851  0.423728  0.650472  1
  O  O53  1  0.524847  0.562042  0.198546  1
  O  O54  1  0.523062  0.696359  0.741086  1
  O  O55  1  0.541157  0.200729  0.531968  1
  O  O56  1  0.566826  0.322886  0.256789  1
  O  O57  1  0.578720  0.145902  0.999297  1
  O  O58  1  0.641079  0.505635  0.417737  1
  O  O59  1  0.677864  0.756928  0.934996  1
  O  O60  1  0.704251  0.730478  0.530263  1
  O  O61  1  0.698484  0.957708  0.437948  1
  O  O62  1  0.740830  0.073319  0.180983  1
  O  O63  1  0.741524  0.517313  0.697899  1
  O  O64  1  0.758476  0.482687  0.197899  1
  O  O65  1  0.759170  0.926681  0.680983  1
  O  O66  1  0.801516  0.042292  0.937948  1
  O  O67  1  0.795749  0.269522  0.030263  1
  O  O68  1  0.822136  0.243072  0.434996  1
  O  O69  1  0.858921  0.494365  0.917737  1
  O  O70  1  0.921280  0.854098  0.499297  1
  O  O71  1  0.933174  0.677114  0.756789  1
  O  O72  1  0.958843  0.799271  0.031968  1
  O  O73  1  0.976938  0.303641  0.241086  1
  O  O74  1  0.975153  0.437958  0.698546  1
  O  O75  1  0.997149  0.576272  0.150472  1
