# generated using pymatgen
data_MnP3H10C3NO9
_symmetry_space_group_name_H-M   'P 1'
_cell_length_a   9.24845616
_cell_length_b   8.52515192
_cell_length_c   13.59738757
_cell_angle_alpha   90.00000000
_cell_angle_beta   98.00084675
_cell_angle_gamma   90.00000000
_symmetry_Int_Tables_number   1
_chemical_formula_structural   MnP3H10C3NO9
_chemical_formula_sum   'Mn4 P12 H40 C12 N4 O36'
_cell_volume   1061.64353396
_cell_formula_units_Z   4
loop_
 _symmetry_equiv_pos_site_id
 _symmetry_equiv_pos_as_xyz
  1  'x, y, z'
loop_
 _atom_site_type_symbol
 _atom_site_label
 _atom_site_symmetry_multiplicity
 _atom_site_fract_x
 _atom_site_fract_y
 _atom_site_fract_z
 _atom_site_occupancy
  Mn  Mn0  1  0.282417  0.534823  0.745602  1
  Mn  Mn1  1  0.782417  0.965177  0.245602  1
  Mn  Mn2  1  0.717583  0.465177  0.254398  1
  Mn  Mn3  1  0.217583  0.034823  0.754398  1
  P  P4  1  0.371623  0.299697  0.941998  1
  P  P5  1  0.871623  0.200303  0.441998  1
  P  P6  1  0.628377  0.700303  0.058002  1
  P  P7  1  0.128377  0.799697  0.558002  1
  P  P8  1  0.459238  0.174339  0.255297  1
  P  P9  1  0.959238  0.325661  0.755297  1
  P  P10  1  0.540762  0.825661  0.744703  1
  P  P11  1  0.040762  0.674339  0.244703  1
  P  P12  1  0.915529  0.203687  0.083358  1
  P  P13  1  0.415529  0.296313  0.583358  1
  P  P14  1  0.084471  0.796313  0.916642  1
  P  P15  1  0.584471  0.703687  0.416642  1
  H  H16  1  0.579462  0.355706  0.032055  1
  H  H17  1  0.079462  0.144294  0.532055  1
  H  H18  1  0.420538  0.644294  0.967945  1
  H  H19  1  0.920538  0.855706  0.467945  1
  H  H20  1  0.310974  0.391307  0.101215  1
  H  H21  1  0.810974  0.108693  0.601215  1
  H  H22  1  0.689026  0.608693  0.898785  1
  H  H23  1  0.189026  0.891307  0.398785  1
  H  H24  1  0.360399  0.251555  0.388302  1
  H  H25  1  0.860399  0.248445  0.888302  1
  H  H26  1  0.639601  0.748445  0.611698  1
  H  H27  1  0.139601  0.751555  0.111698  1
  H  H28  1  0.925343  0.456537  0.113703  1
  H  H29  1  0.425343  0.043463  0.613703  1
  H  H30  1  0.074657  0.543463  0.886297  1
  H  H31  1  0.574657  0.956537  0.386297  1
  H  H32  1  0.153307  0.366982  0.011754  1
  H  H33  1  0.653307  0.133018  0.511754  1
  H  H34  1  0.846693  0.633018  0.988246  1
  H  H35  1  0.346693  0.866982  0.488246  1
  H  H36  1  0.188894  0.074692  0.032574  1
  H  H37  1  0.688894  0.425308  0.532574  1
  H  H38  1  0.811106  0.925308  0.967426  1
  H  H39  1  0.311106  0.574692  0.467426  1
  H  H40  1  0.438239  0.064476  0.091615  1
  H  H41  1  0.938239  0.435524  0.591615  1
  H  H42  1  0.561761  0.935524  0.908385  1
  H  H43  1  0.061761  0.564476  0.408385  1
  H  H44  1  0.323727  0.966519  0.166320  1
  H  H45  1  0.823727  0.533481  0.666320  1
  H  H46  1  0.676273  0.033481  0.833680  1
  H  H47  1  0.176273  0.466519  0.333680  1
  H  H48  1  0.124276  0.258012  0.205715  1
  H  H49  1  0.624276  0.241988  0.705715  1
  H  H50  1  0.875724  0.741988  0.794285  1
  H  H51  1  0.375724  0.758012  0.294285  1
  H  H52  1  0.096905  0.053557  0.186912  1
  H  H53  1  0.596905  0.446443  0.686912  1
  H  H54  1  0.903095  0.946443  0.813088  1
  H  H55  1  0.403095  0.553557  0.313088  1
  C  C56  1  0.257702  0.313654  0.042439  1
  C  C57  1  0.757702  0.186346  0.542439  1
  C  C58  1  0.742298  0.686346  0.957561  1
  C  C59  1  0.242298  0.813654  0.457561  1
  C  C60  1  0.359120  0.082450  0.143915  1
  C  C61  1  0.859120  0.417550  0.643915  1
  C  C62  1  0.640880  0.917550  0.856085  1
  C  C63  1  0.140880  0.582450  0.356085  1
  C  C64  1  0.101009  0.166713  0.148870  1
  C  C65  1  0.601009  0.333287  0.648870  1
  C  C66  1  0.898991  0.833287  0.851130  1
  C  C67  1  0.398991  0.666713  0.351130  1
  N  N68  1  0.225257  0.158939  0.087809  1
  N  N69  1  0.725257  0.341061  0.587809  1
  N  N70  1  0.774743  0.841061  0.912191  1
  N  N71  1  0.274743  0.658939  0.412191  1
  O  O72  1  0.367026  0.462496  0.895163  1
  O  O73  1  0.867026  0.037504  0.395163  1
  O  O74  1  0.632974  0.537504  0.104837  1
  O  O75  1  0.132974  0.962496  0.604837  1
  O  O76  1  0.534257  0.264229  0.993709  1
  O  O77  1  0.034257  0.235771  0.493709  1
  O  O78  1  0.465743  0.735771  0.006291  1
  O  O79  1  0.965743  0.764229  0.506291  1
  O  O80  1  0.320853  0.159512  0.879209  1
  O  O81  1  0.820853  0.340488  0.379209  1
  O  O82  1  0.679147  0.840488  0.120791  1
  O  O83  1  0.179147  0.659512  0.620791  1
  O  O84  1  0.575356  0.049934  0.287569  1
  O  O85  1  0.075356  0.450066  0.787569  1
  O  O86  1  0.424644  0.950066  0.712431  1
  O  O87  1  0.924644  0.549934  0.212431  1
  O  O88  1  0.340553  0.178262  0.329275  1
  O  O89  1  0.840553  0.321738  0.829275  1
  O  O90  1  0.659447  0.821738  0.670725  1
  O  O91  1  0.159447  0.678262  0.170725  1
  O  O92  1  0.515059  0.337873  0.238991  1
  O  O93  1  0.015059  0.162127  0.738991  1
  O  O94  1  0.484941  0.662127  0.761009  1
  O  O95  1  0.984941  0.837873  0.261009  1
  O  O96  1  0.914787  0.383394  0.054100  1
  O  O97  1  0.414787  0.116606  0.554100  1
  O  O98  1  0.085213  0.616606  0.945900  1
  O  O99  1  0.585213  0.883394  0.445900  1
  O  O100  1  0.821070  0.172041  0.164711  1
  O  O101  1  0.321070  0.327959  0.664711  1
  O  O102  1  0.178930  0.827959  0.835289  1
  O  O103  1  0.678930  0.672041  0.335289  1
  O  O104  1  0.882677  0.117506  0.985454  1
  O  O105  1  0.382677  0.382494  0.485454  1
  O  O106  1  0.117323  0.882494  0.014546  1
  O  O107  1  0.617323  0.617506  0.514546  1
