# generated using pymatgen
data_Fe2O3F
_symmetry_space_group_name_H-M   'P 1'
_cell_length_a   7.08091080
_cell_length_b   5.55437464
_cell_length_c   5.55437464
_cell_angle_alpha   76.17912592
_cell_angle_beta   72.81673566
_cell_angle_gamma   72.81673566
_symmetry_Int_Tables_number   1
_chemical_formula_structural   Fe2O3F
_chemical_formula_sum   'Fe6 O9 F3'
_cell_volume   196.61753468
_cell_formula_units_Z   3
loop_
 _symmetry_equiv_pos_site_id
 _symmetry_equiv_pos_as_xyz
  1  'x, y, z'
loop_
 _atom_site_type_symbol
 _atom_site_label
 _atom_site_symmetry_multiplicity
 _atom_site_fract_x
 _atom_site_fract_y
 _atom_site_fract_z
 _atom_site_occupancy
  Fe  Fe0  1  0.833849  0.664414  0.666933  1
  Fe  Fe1  1  0.331747  0.693265  0.640525  1
  Fe  Fe2  1  0.668253  0.359475  0.306735  1
  Fe  Fe3  1  0.166151  0.333067  0.335586  1
  Fe  Fe4  1  0.500000  0.984430  0.015570  1
  Fe  Fe5  1  0.000000  0.965615  0.034385  1
  O  O6  1  0.295038  0.890961  0.904003  1
  O  O7  1  0.960242  0.225908  0.234204  1
  O  O8  1  0.626637  0.574039  0.553779  1
  O  O9  1  0.704962  0.095997  0.109039  1
  O  O10  1  0.039758  0.765796  0.774092  1
  O  O11  1  0.373363  0.446221  0.425961  1
  O  O12  1  0.673997  0.644381  0.008971  1
  O  O13  1  0.326003  0.991029  0.355619  1
  O  O14  1  0.000000  0.673898  0.326102  1
  F  F15  1  0.337251  0.360074  0.963740  1
  F  F16  1  0.662749  0.036260  0.639926  1
  F  F17  1  0.000000  0.295168  0.704832  1
