# generated using pymatgen
data_Li3V2CrO6
_symmetry_space_group_name_H-M   'P 1'
_cell_length_a   15.45079274
_cell_length_b   9.88368364
_cell_length_c   9.88368387
_cell_angle_alpha   17.53579974
_cell_angle_beta   16.83330056
_cell_angle_gamma   16.83329532
_symmetry_Int_Tables_number   1
_chemical_formula_structural   Li3V2CrO6
_chemical_formula_sum   'Li3 V2 Cr1 O6'
_cell_volume   113.29831277
_cell_formula_units_Z   1
loop_
 _symmetry_equiv_pos_site_id
 _symmetry_equiv_pos_as_xyz
  1  'x, y, z'
loop_
 _atom_site_type_symbol
 _atom_site_label
 _atom_site_symmetry_multiplicity
 _atom_site_fract_x
 _atom_site_fract_y
 _atom_site_fract_z
 _atom_site_occupancy
  Li  Li0  1  0.166667  0.500000  0.500000  1
  Li  Li1  1  0.497881  0.503903  0.503903  1
  Li  Li2  1  0.835452  0.496097  0.496097  1
  V  V3  1  0.997650  0.001353  0.001353  1
  V  V4  1  0.335683  0.998647  0.998647  1
  Cr  Cr5  1  0.666667  0.000000  0.000000  1
  O  O6  1  0.248637  0.257001  0.257001  1
  O  O7  1  0.583453  0.254358  0.254358  1
  O  O8  1  0.084697  0.742999  0.742999  1
  O  O9  1  0.912461  0.259925  0.259925  1
  O  O10  1  0.420873  0.740075  0.740075  1
  O  O11  1  0.749880  0.745642  0.745642  1
