# generated using pymatgen
data_Al2Si3H8(NO5)2
_symmetry_space_group_name_H-M   'P 1'
_cell_length_a   12.97118525
_cell_length_b   13.00599186
_cell_length_c   6.61069152
_cell_angle_alpha   90.00000000
_cell_angle_beta   90.00000000
_cell_angle_gamma   88.60289570
_symmetry_Int_Tables_number   1
_chemical_formula_structural   Al2Si3H8(NO5)2
_chemical_formula_sum   'Al8 Si12 H32 N8 O40'
_cell_volume   1114.91281371
_cell_formula_units_Z   4
loop_
 _symmetry_equiv_pos_site_id
 _symmetry_equiv_pos_as_xyz
  1  'x, y, z'
loop_
 _atom_site_type_symbol
 _atom_site_label
 _atom_site_symmetry_multiplicity
 _atom_site_fract_x
 _atom_site_fract_y
 _atom_site_fract_z
 _atom_site_occupancy
  Al  Al0  1  0.383055  0.312919  0.115585  1
  Al  Al1  1  0.616945  0.687081  0.615585  1
  Al  Al2  1  0.122200  0.192696  0.114009  1
  Al  Al3  1  0.877800  0.807304  0.614009  1
  Al  Al4  1  0.310325  0.882689  0.865848  1
  Al  Al5  1  0.689675  0.117311  0.365848  1
  Al  Al6  1  0.190322  0.622241  0.868804  1
  Al  Al7  1  0.809678  0.377759  0.368804  1
  Si  Si8  1  0.257960  0.256630  0.500790  1
  Si  Si9  1  0.742040  0.743370  0.000790  1
  Si  Si10  1  0.242543  0.757506  0.251956  1
  Si  Si11  1  0.757457  0.242494  0.751956  1
  Si  Si12  1  0.618468  0.309666  0.126097  1
  Si  Si13  1  0.381532  0.690334  0.626097  1
  Si  Si14  1  0.886228  0.184122  0.124515  1
  Si  Si15  1  0.113772  0.815878  0.624515  1
  Si  Si16  1  0.314434  0.119753  0.874600  1
  Si  Si17  1  0.685566  0.880247  0.374600  1
  Si  Si18  1  0.185780  0.385490  0.873764  1
  Si  Si19  1  0.814220  0.614510  0.373764  1
  H  H20  1  0.539805  0.388027  0.735358  1
  H  H21  1  0.460195  0.611973  0.235358  1
  H  H22  1  0.455559  0.366013  0.539695  1
  H  H23  1  0.544441  0.633987  0.039695  1
  H  H24  1  0.493635  0.488318  0.596238  1
  H  H25  1  0.506365  0.511682  0.096238  1
  H  H26  1  0.578098  0.403161  0.491512  1
  H  H27  1  0.421902  0.596839  0.991512  1
  H  H28  1  0.906300  0.919606  0.245558  1
  H  H29  1  0.093700  0.080394  0.745558  1
  H  H30  1  0.949211  0.859599  0.036909  1
  H  H31  1  0.050789  0.140401  0.536909  1
  H  H32  1  0.032377  0.886070  0.230552  1
  H  H33  1  0.967623  0.113930  0.730552  1
  H  H34  1  0.983740  0.984574  0.088088  1
  H  H35  1  0.016260  0.015426  0.588088  1
  H  H36  1  0.111147  0.577537  0.281078  1
  H  H37  1  0.888853  0.422463  0.781078  1
  H  H38  1  0.103144  0.553862  0.529211  1
  H  H39  1  0.896856  0.446138  0.029211  1
  H  H40  1  0.004298  0.516918  0.381423  1
  H  H41  1  0.995702  0.483082  0.881423  1
  H  H42  1  0.121793  0.454868  0.371503  1
  H  H43  1  0.878207  0.545132  0.871503  1
  H  H44  1  0.391069  0.945490  0.256738  1
  H  H45  1  0.608931  0.054510  0.756738  1
  H  H46  1  0.400724  0.072285  0.309430  1
  H  H47  1  0.599276  0.927715  0.809430  1
  H  H48  1  0.367235  0.988809  0.491504  1
  H  H49  1  0.632765  0.011191  0.991504  1
  H  H50  1  0.491341  0.989934  0.399521  1
  H  H51  1  0.508659  0.010066  0.899521  1
  N  N52  1  0.515958  0.410599  0.592326  1
  N  N53  1  0.484042  0.589401  0.092326  1
  N  N54  1  0.968809  0.912204  0.147211  1
  N  N55  1  0.031191  0.087796  0.647211  1
  N  N56  1  0.084979  0.525193  0.388302  1
  N  N57  1  0.915021  0.474807  0.888302  1
  N  N58  1  0.412383  0.998938  0.365366  1
  N  N59  1  0.587617  0.001062  0.865366  1
  O  O60  1  0.174997  0.198229  0.358851  1
  O  O61  1  0.825003  0.801771  0.858851  1
  O  O62  1  0.347960  0.315129  0.375241  1
  O  O63  1  0.652040  0.684871  0.875241  1
  O  O64  1  0.305023  0.841735  0.120499  1
  O  O65  1  0.694977  0.158265  0.620499  1
  O  O66  1  0.186697  0.669217  0.118169  1
  O  O67  1  0.813303  0.330783  0.618169  1
  O  O68  1  0.506176  0.367294  0.086358  1
  O  O69  1  0.493824  0.632706  0.586358  1
  O  O70  1  0.002244  0.131653  0.126246  1
  O  O71  1  0.997756  0.868347  0.626246  1
  O  O72  1  0.368263  0.004568  0.858034  1
  O  O73  1  0.631737  0.995432  0.358034  1
  O  O74  1  0.131598  0.501080  0.858650  1
  O  O75  1  0.868402  0.498920  0.358650  1
  O  O76  1  0.382874  0.184318  0.033458  1
  O  O77  1  0.617126  0.815682  0.533458  1
  O  O78  1  0.109439  0.315789  0.007738  1
  O  O79  1  0.890561  0.684211  0.507738  1
  O  O80  1  0.811902  0.111463  0.255554  1
  O  O81  1  0.188098  0.888537  0.755554  1
  O  O82  1  0.681196  0.383142  0.281869  1
  O  O83  1  0.318804  0.616858  0.781869  1
  O  O84  1  0.606436  0.195678  0.220419  1
  O  O85  1  0.393564  0.804322  0.720419  1
  O  O86  1  0.884757  0.302567  0.202366  1
  O  O87  1  0.115243  0.697433  0.702366  1
  O  O88  1  0.194214  0.113243  0.946049  1
  O  O89  1  0.805786  0.886757  0.446049  1
  O  O90  1  0.300411  0.390529  0.969968  1
  O  O91  1  0.699589  0.609471  0.469968  1
  O  O92  1  0.675585  0.303285  0.903092  1
  O  O93  1  0.324415  0.696715  0.403092  1
  O  O94  1  0.849248  0.181554  0.882231  1
  O  O95  1  0.150752  0.818446  0.382231  1
  O  O96  1  0.192558  0.341671  0.637443  1
  O  O97  1  0.807442  0.658329  0.137443  1
  O  O98  1  0.317589  0.170339  0.644672  1
  O  O99  1  0.682411  0.829661  0.144672  1
