# generated using pymatgen
data_VH21C7N4Cl7
_symmetry_space_group_name_H-M   'P 1'
_cell_length_a   12.37440974
_cell_length_b   20.02008434
_cell_length_c   21.41289996
_cell_angle_alpha   34.54670274
_cell_angle_beta   66.55659514
_cell_angle_gamma   94.98120494
_symmetry_Int_Tables_number   1
_chemical_formula_structural   VH21C7N4Cl7
_chemical_formula_sum   'V4 H84 C28 N16 Cl28'
_cell_volume   1667.86552659
_cell_formula_units_Z   4
loop_
 _symmetry_equiv_pos_site_id
 _symmetry_equiv_pos_as_xyz
  1  'x, y, z'
loop_
 _atom_site_type_symbol
 _atom_site_label
 _atom_site_symmetry_multiplicity
 _atom_site_fract_x
 _atom_site_fract_y
 _atom_site_fract_z
 _atom_site_occupancy
  V  V0  1  0.552879  0.015321  0.276716  1
  V  V1  1  0.515321  0.052879  0.155084  1
  V  V2  1  0.947121  0.484679  0.223284  1
  V  V3  1  0.984679  0.447121  0.344916  1
  H  H4  1  0.636120  0.998620  0.414844  1
  H  H5  1  0.498620  0.136120  0.950417  1
  H  H6  1  0.863880  0.501380  0.085156  1
  H  H7  1  0.001380  0.363880  0.549583  1
  H  H8  1  0.779123  0.130766  0.343933  1
  H  H9  1  0.630766  0.279123  0.746177  1
  H  H10  1  0.720877  0.369234  0.156067  1
  H  H11  1  0.869234  0.220877  0.753823  1
  H  H12  1  0.478296  0.818859  0.257316  1
  H  H13  1  0.318859  0.978296  0.445529  1
  H  H14  1  0.021704  0.681141  0.242684  1
  H  H15  1  0.181141  0.521704  0.054471  1
  H  H16  1  0.593776  0.771194  0.274245  1
  H  H17  1  0.271194  0.093776  0.360785  1
  H  H18  1  0.906224  0.728806  0.225755  1
  H  H19  1  0.228806  0.406224  0.139215  1
  H  H20  1  0.334488  0.574296  0.492161  1
  H  H21  1  0.074296  0.834488  0.599054  1
  H  H22  1  0.165512  0.925704  0.007839  1
  H  H23  1  0.425704  0.665512  0.900946  1
  H  H24  1  0.503483  0.591065  0.540394  1
  H  H25  1  0.091065  0.003483  0.365058  1
  H  H26  1  0.996517  0.908935  0.959606  1
  H  H27  1  0.408935  0.496517  0.134942  1
  H  H28  1  0.675225  0.816408  0.367466  1
  H  H29  1  0.316408  0.175225  0.140900  1
  H  H30  1  0.824775  0.683592  0.132534  1
  H  H31  1  0.183592  0.324775  0.359100  1
  H  H32  1  0.429345  0.630906  0.589157  1
  H  H33  1  0.130906  0.929345  0.350593  1
  H  H34  1  0.070655  0.869094  0.910843  1
  H  H35  1  0.369094  0.570655  0.149407  1
  H  H36  1  0.174907  0.656566  0.632145  1
  H  H37  1  0.156566  0.674907  0.536382  1
  H  H38  1  0.325093  0.843434  0.867855  1
  H  H39  1  0.343434  0.825093  0.963618  1
  H  H40  1  0.966063  0.492155  0.858005  1
  H  H41  1  0.992155  0.466063  0.683776  1
  H  H42  1  0.533937  0.007845  0.641995  1
  H  H43  1  0.507845  0.033937  0.816224  1
  H  H44  1  0.060763  0.430548  0.857280  1
  H  H45  1  0.930548  0.560763  0.651409  1
  H  H46  1  0.439237  0.069452  0.642720  1
  H  H47  1  0.569452  0.939237  0.848591  1
  H  H48  1  0.093684  0.263660  0.036379  1
  H  H49  1  0.763660  0.593684  0.606277  1
  H  H50  1  0.406316  0.236340  0.463621  1
  H  H51  1  0.736340  0.906316  0.893723  1
  H  H52  1  0.283994  0.525807  0.799789  1
  H  H53  1  0.025807  0.783994  0.390411  1
  H  H54  1  0.216006  0.974193  0.700211  1
  H  H55  1  0.474193  0.716006  0.109589  1
  H  H56  1  0.879536  0.013837  0.136105  1
  H  H57  1  0.513837  0.379536  0.970522  1
  H  H58  1  0.620464  0.486163  0.363895  1
  H  H59  1  0.986163  0.120464  0.529478  1
  H  H60  1  0.861510  0.104902  0.006305  1
  H  H61  1  0.604902  0.361510  0.027284  1
  H  H62  1  0.638490  0.395098  0.493695  1
  H  H63  1  0.895098  0.138490  0.472716  1
  H  H64  1  0.467971  0.970805  0.553512  1
  H  H65  1  0.470805  0.967971  0.007712  1
  H  H66  1  0.032029  0.529195  0.946488  1
  H  H67  1  0.029195  0.532029  0.492288  1
  H  H68  1  0.356570  0.740733  0.742340  1
  H  H69  1  0.240733  0.856570  0.160357  1
  H  H70  1  0.143430  0.759267  0.757660  1
  H  H71  1  0.259267  0.643430  0.339643  1
  H  H72  1  0.510387  0.886085  0.662567  1
  H  H73  1  0.386085  0.010387  0.940962  1
  H  H74  1  0.989613  0.613915  0.837433  1
  H  H75  1  0.113915  0.489613  0.559038  1
  H  H76  1  0.825859  0.976579  0.408050  1
  H  H77  1  0.476579  0.325859  0.789512  1
  H  H78  1  0.674141  0.523421  0.091950  1
  H  H79  1  0.023421  0.174141  0.710488  1
  H  H80  1  0.714383  0.876700  0.587246  1
  H  H81  1  0.376700  0.214383  0.821671  1
  H  H82  1  0.785617  0.623300  0.912754  1
  H  H83  1  0.123300  0.285617  0.678329  1
  H  H84  1  0.568742  0.743674  0.653984  1
  H  H85  1  0.243674  0.068742  0.033600  1
  H  H86  1  0.931258  0.756326  0.846016  1
  H  H87  1  0.256326  0.431258  0.466400  1
  C  C88  1  0.472616  0.729292  0.351432  1
  C  C89  1  0.229292  0.972616  0.446661  1
  C  C90  1  0.027384  0.770708  0.148568  1
  C  C91  1  0.270708  0.527384  0.053339  1
  C  C92  1  0.526350  0.695613  0.476679  1
  C  C93  1  0.195613  0.026350  0.301358  1
  C  C94  1  0.973650  0.804387  0.023321  1
  C  C95  1  0.304387  0.473650  0.198642  1
  C  C96  1  0.038434  0.505494  0.791792  1
  C  C97  1  0.005494  0.538434  0.664280  1
  C  C98  1  0.461566  0.994506  0.708208  1
  C  C99  1  0.494506  0.961566  0.835720  1
  C  C100  1  0.229495  0.395839  0.927147  1
  C  C101  1  0.895839  0.729495  0.447519  1
  C  C102  1  0.270505  0.104161  0.572853  1
  C  C103  1  0.604161  0.770505  0.052481  1
  C  C104  1  0.942270  0.095157  0.015433  1
  C  C105  1  0.595157  0.442270  0.947139  1
  C  C106  1  0.557730  0.404843  0.484567  1
  C  C107  1  0.904843  0.057730  0.552861  1
  C  C108  1  0.485095  0.888831  0.617327  1
  C  C109  1  0.388831  0.985095  0.008746  1
  C  C110  1  0.014905  0.611169  0.882673  1
  C  C111  1  0.111169  0.514905  0.491254  1
  C  C112  1  0.694804  0.889808  0.532922  1
  C  C113  1  0.389808  0.194804  0.882465  1
  C  C114  1  0.805196  0.610192  0.967078  1
  C  C115  1  0.110192  0.305196  0.617535  1
  N  N116  1  0.495690  0.874982  0.322960  1
  N  N117  1  0.374982  0.995690  0.306368  1
  N  N118  1  0.004310  0.625018  0.177040  1
  N  N119  1  0.125018  0.504310  0.193632  1
  N  N120  1  0.493146  0.766704  0.385557  1
  N  N121  1  0.266704  0.993146  0.354593  1
  N  N122  1  0.006854  0.733296  0.114443  1
  N  N123  1  0.233296  0.506854  0.145407  1
  N  N124  1  0.742654  0.242654  0.007346  1
  N  N125  1  0.757346  0.257346  0.492654  1
  N  N126  1  0.916061  0.416061  0.833939  1
  N  N127  1  0.583939  0.083939  0.666061  1
  N  N128  1  0.658691  0.990264  0.462318  1
  N  N129  1  0.490264  0.158691  0.888726  1
  N  N130  1  0.841309  0.509736  0.037682  1
  N  N131  1  0.009736  0.341309  0.611274  1
  Cl  Cl132  1  0.364136  0.784432  0.582789  1
  Cl  Cl133  1  0.284432  0.864136  0.268643  1
  Cl  Cl134  1  0.135864  0.715568  0.917211  1
  Cl  Cl135  1  0.215568  0.635864  0.231357  1
  Cl  Cl136  1  0.664571  0.234102  0.175597  1
  Cl  Cl137  1  0.734102  0.164571  0.925730  1
  Cl  Cl138  1  0.835429  0.265898  0.324403  1
  Cl  Cl139  1  0.765898  0.335429  0.574270  1
  Cl  Cl140  1  0.793923  0.069200  0.217570  1
  Cl  Cl141  1  0.569200  0.293923  0.919308  1
  Cl  Cl142  1  0.706077  0.430800  0.282430  1
  Cl  Cl143  1  0.930800  0.206077  0.580692  1
  Cl  Cl144  1  0.176357  0.365691  0.044705  1
  Cl  Cl145  1  0.865691  0.676357  0.413248  1
  Cl  Cl146  1  0.323643  0.134309  0.455295  1
  Cl  Cl147  1  0.634309  0.823643  0.086752  1
  Cl  Cl148  1  0.407819  0.429877  0.843324  1
  Cl  Cl149  1  0.929877  0.907819  0.318980  1
  Cl  Cl150  1  0.092181  0.070123  0.656676  1
  Cl  Cl151  1  0.570123  0.592181  0.181020  1
  Cl  Cl152  1  0.175353  0.326475  0.804028  1
  Cl  Cl153  1  0.826475  0.675353  0.694143  1
  Cl  Cl154  1  0.324647  0.173525  0.695972  1
  Cl  Cl155  1  0.673525  0.824647  0.805857  1
  Cl  Cl156  1  0.949740  0.985031  0.043164  1
  Cl  Cl157  1  0.485031  0.449740  0.022066  1
  Cl  Cl158  1  0.550260  0.514969  0.456836  1
  Cl  Cl159  1  0.014969  0.050260  0.477934  1
