# generated using pymatgen
data_Ba3Sr4O7
_symmetry_space_group_name_H-M   'P 1'
_cell_length_a   3.80435597
_cell_length_b   13.77018744
_cell_length_c   5.39864028
_cell_angle_alpha   101.31074778
_cell_angle_beta   89.99818787
_cell_angle_gamma   82.06129190
_symmetry_Int_Tables_number   1
_chemical_formula_structural   Ba3Sr4O7
_chemical_formula_sum   'Ba3 Sr4 O7'
_cell_volume   274.55913902
_cell_formula_units_Z   1
loop_
 _symmetry_equiv_pos_site_id
 _symmetry_equiv_pos_as_xyz
  1  'x, y, z'
loop_
 _atom_site_type_symbol
 _atom_site_label
 _atom_site_symmetry_multiplicity
 _atom_site_fract_x
 _atom_site_fract_y
 _atom_site_fract_z
 _atom_site_occupancy
  Ba  Ba0  1  0.140731  0.718467  0.859251  1
  Ba  Ba1  1  0.431332  0.138684  0.569078  1
  Ba  Ba2  1  0.285774  0.428610  0.714049  1
  Sr  Sr3  1  0.570632  0.858997  0.429210  1
  Sr  Sr4  1  0.001082  0.998216  0.998778  1
  Sr  Sr5  1  0.713763  0.572444  0.286089  1
  Sr  Sr6  1  0.858093  0.284724  0.142189  1
  O  O7  1  0.425351  0.148017  0.073694  1
  O  O8  1  0.145125  0.709065  0.354753  1
  O  O9  1  0.284942  0.428489  0.214222  1
  O  O10  1  0.008203  0.984099  0.492362  1
  O  O11  1  0.563398  0.873027  0.937233  1
  O  O12  1  0.859529  0.281498  0.640500  1
  O  O13  1  0.712043  0.575662  0.788590  1
