# generated using pymatgen
data_LiCuPO4
_symmetry_space_group_name_H-M   'P 1'
_cell_length_a   10.83288829
_cell_length_b   6.22966494
_cell_length_c   5.19733185
_cell_angle_alpha   90.00000000
_cell_angle_beta   90.00000000
_cell_angle_gamma   90.00000000
_symmetry_Int_Tables_number   1
_chemical_formula_structural   LiCuPO4
_chemical_formula_sum   'Li4 Cu4 P4 O16'
_cell_volume   350.74331396
_cell_formula_units_Z   4
loop_
 _symmetry_equiv_pos_site_id
 _symmetry_equiv_pos_as_xyz
  1  'x, y, z'
loop_
 _atom_site_type_symbol
 _atom_site_label
 _atom_site_symmetry_multiplicity
 _atom_site_fract_x
 _atom_site_fract_y
 _atom_site_fract_z
 _atom_site_occupancy
  Li  Li0  1  0.166676  0.509834  0.250704  1
  Li  Li1  1  0.333324  0.009834  0.750704  1
  Li  Li2  1  0.666676  0.990166  0.250704  1
  Li  Li3  1  0.833324  0.490166  0.750704  1
  Cu  Cu4  1  0.087082  0.771209  0.743884  1
  Cu  Cu5  1  0.412918  0.271209  0.243884  1
  Cu  Cu6  1  0.587082  0.728791  0.743884  1
  Cu  Cu7  1  0.912918  0.228791  0.243884  1
  P  P8  1  0.169657  0.005520  0.250042  1
  P  P9  1  0.330343  0.505520  0.750042  1
  P  P10  1  0.669657  0.494480  0.250042  1
  P  P11  1  0.830343  0.994480  0.750042  1
  O  O12  1  0.087976  0.204819  0.189687  1
  O  O13  1  0.115941  0.798493  0.130870  1
  O  O14  1  0.199052  0.545643  0.636066  1
  O  O15  1  0.180961  0.981713  0.544599  1
  O  O16  1  0.319039  0.481713  0.044599  1
  O  O17  1  0.300948  0.045643  0.136066  1
  O  O18  1  0.384059  0.298493  0.630870  1
  O  O19  1  0.412024  0.704819  0.689687  1
  O  O20  1  0.587976  0.295181  0.189687  1
  O  O21  1  0.615941  0.701507  0.130870  1
  O  O22  1  0.699052  0.954357  0.636066  1
  O  O23  1  0.680961  0.518287  0.544599  1
  O  O24  1  0.819039  0.018287  0.044599  1
  O  O25  1  0.800948  0.454357  0.136066  1
  O  O26  1  0.884059  0.201507  0.630870  1
  O  O27  1  0.912024  0.795181  0.689687  1
