# generated using pymatgen
data_Li2TiS2O
_symmetry_space_group_name_H-M   'P 1'
_cell_length_a   6.46799994
_cell_length_b   12.62791575
_cell_length_c   5.55007665
_cell_angle_alpha   90.00000000
_cell_angle_beta   114.25146739
_cell_angle_gamma   90.00000000
_symmetry_Int_Tables_number   1
_chemical_formula_structural   Li2TiS2O
_chemical_formula_sum   'Li8 Ti4 S8 O4'
_cell_volume   413.31118852
_cell_formula_units_Z   4
loop_
 _symmetry_equiv_pos_site_id
 _symmetry_equiv_pos_as_xyz
  1  'x, y, z'
loop_
 _atom_site_type_symbol
 _atom_site_label
 _atom_site_symmetry_multiplicity
 _atom_site_fract_x
 _atom_site_fract_y
 _atom_site_fract_z
 _atom_site_occupancy
  Li  Li0  1  0.208435  0.557598  0.842115  1
  Li  Li1  1  0.402750  0.137635  0.949883  1
  Li  Li2  1  0.208435  0.942402  0.342115  1
  Li  Li3  1  0.402750  0.362365  0.449883  1
  Li  Li4  1  0.597250  0.637635  0.550117  1
  Li  Li5  1  0.791565  0.057598  0.657885  1
  Li  Li6  1  0.597250  0.862365  0.050117  1
  Li  Li7  1  0.791565  0.442402  0.157885  1
  Ti  Ti8  1  0.018590  0.319360  0.850194  1
  Ti  Ti9  1  0.018590  0.180640  0.350194  1
  Ti  Ti10  1  0.981410  0.819360  0.649806  1
  Ti  Ti11  1  0.981410  0.680640  0.149806  1
  S  S12  1  0.209217  0.950563  0.874539  1
  S  S13  1  0.380821  0.357949  0.946147  1
  S  S14  1  0.209217  0.549437  0.374539  1
  S  S15  1  0.380821  0.142051  0.446147  1
  S  S16  1  0.619179  0.857949  0.553853  1
  S  S17  1  0.790783  0.450563  0.625461  1
  S  S18  1  0.619179  0.642051  0.053853  1
  S  S19  1  0.790783  0.049437  0.125461  1
  O  O20  1  0.030077  0.693938  0.841425  1
  O  O21  1  0.030077  0.806062  0.341425  1
  O  O22  1  0.969923  0.193938  0.658575  1
  O  O23  1  0.969923  0.306062  0.158575  1
