# generated using pymatgen
data_LiV2P4(HO8)2
_symmetry_space_group_name_H-M   'P 1'
_cell_length_a   9.76351320
_cell_length_b   7.90114627
_cell_length_c   7.74621243
_cell_angle_alpha   90.13040399
_cell_angle_beta   67.10680663
_cell_angle_gamma   90.39907808
_symmetry_Int_Tables_number   1
_chemical_formula_structural   LiV2P4(HO8)2
_chemical_formula_sum   'Li2 V4 P8 H4 O32'
_cell_volume   550.48295807
_cell_formula_units_Z   2
loop_
 _symmetry_equiv_pos_site_id
 _symmetry_equiv_pos_as_xyz
  1  'x, y, z'
loop_
 _atom_site_type_symbol
 _atom_site_label
 _atom_site_symmetry_multiplicity
 _atom_site_fract_x
 _atom_site_fract_y
 _atom_site_fract_z
 _atom_site_occupancy
  Li  Li0  1  0.223710  0.367346  0.651475  1
  Li  Li1  1  0.776521  0.635543  0.350235  1
  V  V2  1  0.247247  0.503221  0.014562  1
  V  V3  1  0.256922  0.989398  0.493433  1
  V  V4  1  0.749672  0.496833  0.993408  1
  V  V5  1  0.748406  0.008979  0.503727  1
  P  P6  1  0.070217  0.855146  0.227057  1
  P  P7  1  0.067626  0.653570  0.736823  1
  P  P8  1  0.432687  0.344517  0.267715  1
  P  P9  1  0.577465  0.854493  0.225660  1
  P  P10  1  0.428477  0.152727  0.768208  1
  P  P11  1  0.567390  0.654711  0.739921  1
  P  P12  1  0.928349  0.352555  0.269283  1
  P  P13  1  0.930986  0.150658  0.766431  1
  H  H14  1  0.010029  0.509760  0.509972  1
  H  H15  1  0.508433  0.506360  0.513782  1
  H  H16  1  0.489225  0.007699  0.989819  1
  H  H17  1  0.990699  0.007108  0.987340  1
  O  O18  1  0.096528  0.947939  0.049374  1
  O  O19  1  0.098283  0.342390  0.133002  1
  O  O20  1  0.144753  0.671971  0.173630  1
  O  O21  1  0.148986  0.938669  0.347725  1
  O  O22  1  0.096614  0.546100  0.558658  1
  O  O23  1  0.100489  0.167498  0.638159  1
  O  O24  1  0.143196  0.829492  0.675080  1
  O  O25  1  0.149790  0.555209  0.842087  1
  O  O26  1  0.352617  0.438947  0.151617  1
  O  O27  1  0.354922  0.167797  0.321742  1
  O  O28  1  0.405302  0.839037  0.364471  1
  O  O29  1  0.405208  0.441006  0.446689  1
  O  O30  1  0.351881  0.057245  0.650556  1
  O  O31  1  0.348253  0.327448  0.817546  1
  O  O32  1  0.589804  0.946689  0.052889  1
  O  O33  1  0.595904  0.326888  0.135101  1
  O  O34  1  0.399276  0.661662  0.867116  1
  O  O35  1  0.402464  0.056947  0.949027  1
  O  O36  1  0.644470  0.674924  0.191084  1
  O  O37  1  0.649379  0.947879  0.347657  1
  O  O38  1  0.592786  0.556197  0.556191  1
  O  O39  1  0.593740  0.175401  0.639241  1
  O  O40  1  0.636751  0.828898  0.685013  1
  O  O41  1  0.644545  0.556196  0.849283  1
  O  O42  1  0.850041  0.448371  0.156164  1
  O  O43  1  0.867704  0.173338  0.315574  1
  O  O44  1  0.904861  0.827262  0.357944  1
  O  O45  1  0.908512  0.462795  0.437240  1
  O  O46  1  0.853746  0.057141  0.652226  1
  O  O47  1  0.865416  0.328220  0.815630  1
  O  O48  1  0.903024  0.672914  0.862337  1
  O  O49  1  0.905112  0.050657  0.945559  1
