# generated using pymatgen
data_Mn12O5F19
_symmetry_space_group_name_H-M   'P 1'
_cell_length_a   4.84215937
_cell_length_b   5.83931273
_cell_length_c   15.95600436
_cell_angle_alpha   90.47956689
_cell_angle_beta   90.01503927
_cell_angle_gamma   88.79851956
_symmetry_Int_Tables_number   1
_chemical_formula_structural   Mn12O5F19
_chemical_formula_sum   'Mn12 O5 F19'
_cell_volume   451.03916254
_cell_formula_units_Z   1
loop_
 _symmetry_equiv_pos_site_id
 _symmetry_equiv_pos_as_xyz
  1  'x, y, z'
loop_
 _atom_site_type_symbol
 _atom_site_label
 _atom_site_symmetry_multiplicity
 _atom_site_fract_x
 _atom_site_fract_y
 _atom_site_fract_z
 _atom_site_occupancy
  Mn  Mn0  1  0.039370  0.183520  0.420609  1
  Mn  Mn1  1  0.976236  0.817954  0.247098  1
  Mn  Mn2  1  0.982948  0.168419  0.078873  1
  Mn  Mn3  1  0.989187  0.164112  0.747389  1
  Mn  Mn4  1  0.995414  0.842031  0.584070  1
  Mn  Mn5  1  0.027949  0.839995  0.905755  1
  Mn  Mn6  1  0.505434  0.350570  0.587075  1
  Mn  Mn7  1  0.514297  0.344185  0.923123  1
  Mn  Mn8  1  0.503117  0.346709  0.245553  1
  Mn  Mn9  1  0.528615  0.648219  0.085643  1
  Mn  Mn10  1  0.498341  0.644601  0.420480  1
  Mn  Mn11  1  0.487306  0.652613  0.750859  1
  O  O12  1  0.227159  0.879433  0.797707  1
  O  O13  1  0.307220  0.391305  0.481334  1
  O  O14  1  0.715956  0.396072  0.030856  1
  O  O15  1  0.703565  0.600720  0.191982  1
  O  O16  1  0.700233  0.391974  0.694918  1
  F  F17  1  0.238234  0.110923  0.300292  1
  F  F18  1  0.224290  0.123205  0.637342  1
  F  F19  1  0.231488  0.116688  0.969630  1
  F  F20  1  0.239839  0.877871  0.132821  1
  F  F21  1  0.238455  0.892185  0.473602  1
  F  F22  1  0.243981  0.378181  0.143291  1
  F  F23  1  0.254994  0.603829  0.310979  1
  F  F24  1  0.263704  0.613559  0.642051  1
  F  F25  1  0.261177  0.391187  0.814817  1
  F  F26  1  0.284392  0.629330  0.979861  1
  F  F27  1  0.743053  0.385783  0.356087  1
  F  F28  1  0.743570  0.605960  0.528728  1
  F  F29  1  0.724001  0.616692  0.859663  1
  F  F30  1  0.763945  0.095088  0.191928  1
  F  F31  1  0.771967  0.118932  0.529287  1
  F  F32  1  0.768977  0.881487  0.366629  1
  F  F33  1  0.782707  0.890719  0.017304  1
  F  F34  1  0.774342  0.117476  0.859279  1
  F  F35  1  0.744538  0.888470  0.693089  1
