# generated using pymatgen
data_Na5GaO4
_symmetry_space_group_name_H-M   'P 1'
_cell_length_a   6.00504900
_cell_length_b   10.45271357
_cell_length_c   18.17310963
_cell_angle_alpha   90.00000000
_cell_angle_beta   90.00000000
_cell_angle_gamma   90.00000000
_symmetry_Int_Tables_number   1
_chemical_formula_structural   Na5GaO4
_chemical_formula_sum   'Na40 Ga8 O32'
_cell_volume   1140.70895734
_cell_formula_units_Z   8
loop_
 _symmetry_equiv_pos_site_id
 _symmetry_equiv_pos_as_xyz
  1  'x, y, z'
loop_
 _atom_site_type_symbol
 _atom_site_label
 _atom_site_symmetry_multiplicity
 _atom_site_fract_x
 _atom_site_fract_y
 _atom_site_fract_z
 _atom_site_occupancy
  O  O0  1  0.861487  0.047353  0.120920  1
  O  O1  1  0.361487  0.952647  0.379080  1
  O  O2  1  0.638513  0.547353  0.879080  1
  O  O3  1  0.138513  0.452647  0.620920  1
  O  O4  1  0.138513  0.952647  0.879080  1
  O  O5  1  0.638513  0.047353  0.620920  1
  O  O6  1  0.361487  0.452647  0.120920  1
  O  O7  1  0.861487  0.547353  0.379080  1
  O  O8  1  0.803804  0.368917  0.045781  1
  O  O9  1  0.303804  0.631083  0.454219  1
  O  O10  1  0.696196  0.868917  0.954219  1
  O  O11  1  0.196196  0.131083  0.545781  1
  O  O12  1  0.196196  0.631083  0.954219  1
  O  O13  1  0.696196  0.368917  0.545781  1
  O  O14  1  0.303804  0.131083  0.045781  1
  O  O15  1  0.803804  0.868917  0.454219  1
  O  O16  1  0.734985  0.374581  0.711579  1
  O  O17  1  0.234985  0.625419  0.788421  1
  O  O18  1  0.765015  0.874581  0.288421  1
  O  O19  1  0.265015  0.125419  0.211579  1
  O  O20  1  0.265015  0.625419  0.288421  1
  O  O21  1  0.765015  0.374581  0.211579  1
  O  O22  1  0.234985  0.125419  0.711579  1
  O  O23  1  0.734985  0.874581  0.788421  1
  O  O24  1  0.737128  0.134234  0.874656  1
  O  O25  1  0.237128  0.865766  0.625344  1
  O  O26  1  0.762872  0.634234  0.125344  1
  O  O27  1  0.262872  0.365766  0.374656  1
  O  O28  1  0.262872  0.865766  0.125344  1
  O  O29  1  0.762872  0.134234  0.374656  1
  O  O30  1  0.237128  0.365766  0.874656  1
  O  O31  1  0.737128  0.634234  0.625344  1
  Na  Na32  1  0.922920  0.199138  0.640832  1
  Na  Na33  1  0.422920  0.800862  0.859168  1
  Na  Na34  1  0.577080  0.699138  0.359168  1
  Na  Na35  1  0.077080  0.300862  0.140832  1
  Na  Na36  1  0.077080  0.800862  0.359168  1
  Na  Na37  1  0.577080  0.199138  0.140832  1
  Na  Na38  1  0.422920  0.300862  0.640832  1
  Na  Na39  1  0.922920  0.699138  0.859168  1
  Na  Na40  1  0.910363  0.163204  0.002758  1
  Na  Na41  1  0.410363  0.836796  0.497242  1
  Na  Na42  1  0.589637  0.663204  0.997242  1
  Na  Na43  1  0.089637  0.336796  0.502758  1
  Na  Na44  1  0.089637  0.836796  0.997242  1
  Na  Na45  1  0.589637  0.163204  0.502758  1
  Na  Na46  1  0.410363  0.336796  0.002758  1
  Na  Na47  1  0.910363  0.663204  0.497242  1
  Na  Na48  1  0.898993  0.078246  0.251963  1
  Na  Na49  1  0.398993  0.921754  0.248037  1
  Na  Na50  1  0.601007  0.578246  0.748037  1
  Na  Na51  1  0.101007  0.421754  0.751963  1
  Na  Na52  1  0.101007  0.921754  0.748037  1
  Na  Na53  1  0.601007  0.078246  0.751963  1
  Na  Na54  1  0.398993  0.421754  0.251963  1
  Na  Na55  1  0.898993  0.578246  0.248037  1
  Na  Na56  1  0.917622  0.440477  0.935341  1
  Na  Na57  1  0.417622  0.559523  0.564659  1
  Na  Na58  1  0.582378  0.940477  0.064659  1
  Na  Na59  1  0.082378  0.059523  0.435341  1
  Na  Na60  1  0.082378  0.559523  0.064659  1
  Na  Na61  1  0.582378  0.440477  0.435341  1
  Na  Na62  1  0.417622  0.059523  0.935341  1
  Na  Na63  1  0.917622  0.940477  0.564659  1
  Na  Na64  1  0.894526  0.326622  0.328499  1
  Na  Na65  1  0.394526  0.673378  0.171501  1
  Na  Na66  1  0.605474  0.826622  0.671501  1
  Na  Na67  1  0.105474  0.173378  0.828499  1
  Na  Na68  1  0.105474  0.673378  0.671501  1
  Na  Na69  1  0.605474  0.326622  0.828499  1
  Na  Na70  1  0.394526  0.173378  0.328499  1
  Na  Na71  1  0.894526  0.826622  0.171501  1
  Ga  Ga72  1  0.826669  0.459915  0.623716  1
  Ga  Ga73  1  0.326669  0.540085  0.876284  1
  Ga  Ga74  1  0.673331  0.959915  0.376284  1
  Ga  Ga75  1  0.173331  0.040085  0.123716  1
  Ga  Ga76  1  0.173331  0.540085  0.376284  1
  Ga  Ga77  1  0.673331  0.459915  0.123716  1
  Ga  Ga78  1  0.326669  0.040085  0.623716  1
  Ga  Ga79  1  0.826669  0.959915  0.876284  1
