# generated using pymatgen
data_Na3Li3Mn2P2(CO7)2
_symmetry_space_group_name_H-M   'P 1'
_cell_length_a   8.76739985
_cell_length_b   6.72374407
_cell_length_c   10.16680973
_cell_angle_alpha   90.25843040
_cell_angle_beta   89.25749955
_cell_angle_gamma   89.36208200
_symmetry_Int_Tables_number   1
_chemical_formula_structural   Na3Li3Mn2P2(CO7)2
_chemical_formula_sum   'Na6 Li6 Mn4 P4 C4 O28'
_cell_volume   599.23695861
_cell_formula_units_Z   2
loop_
 _symmetry_equiv_pos_site_id
 _symmetry_equiv_pos_as_xyz
  1  'x, y, z'
loop_
 _atom_site_type_symbol
 _atom_site_label
 _atom_site_symmetry_multiplicity
 _atom_site_fract_x
 _atom_site_fract_y
 _atom_site_fract_z
 _atom_site_occupancy
  Na  Na0  1  0.083097  0.248531  0.878927  1
  Na  Na1  1  0.083248  0.246204  0.378908  1
  Na  Na2  1  0.253741  0.999490  0.624957  1
  Na  Na3  1  0.254398  0.500553  0.124231  1
  Na  Na4  1  0.745469  0.501424  0.876355  1
  Na  Na5  1  0.745171  0.501622  0.376121  1
  Li  Li6  1  0.267751  0.483341  0.618241  1
  Li  Li7  1  0.268091  0.016792  0.119129  1
  Li  Li8  1  0.732868  0.983725  0.883040  1
  Li  Li9  1  0.732299  0.983571  0.383917  1
  Li  Li10  1  0.914353  0.753081  0.624198  1
  Li  Li11  1  0.914873  0.765690  0.124175  1
  Mn  Mn12  1  0.359757  0.751001  0.888817  1
  Mn  Mn13  1  0.359910  0.747505  0.388811  1
  Mn  Mn14  1  0.642790  0.244797  0.611491  1
  Mn  Mn15  1  0.642526  0.246466  0.111297  1
  P  P16  1  0.412240  0.248869  0.851292  1
  P  P17  1  0.412061  0.240649  0.351505  1
  P  P18  1  0.594022  0.748843  0.648746  1
  P  P19  1  0.593447  0.757950  0.148672  1
  C  C20  1  0.046872  0.756872  0.866007  1
  C  C21  1  0.046738  0.758684  0.366319  1
  C  C22  1  0.945709  0.255551  0.632828  1
  C  C23  1  0.945970  0.240118  0.132651  1
  O  O24  1  0.092667  0.275341  0.642050  1
  O  O25  1  0.093689  0.226749  0.141693  1
  O  O26  1  0.094015  0.750362  0.987368  1
  O  O27  1  0.094143  0.752140  0.487580  1
  O  O28  1  0.145848  0.747101  0.769032  1
  O  O29  1  0.145507  0.749754  0.269241  1
  O  O30  1  0.315232  0.067140  0.894993  1
  O  O31  1  0.324986  0.436545  0.902530  1
  O  O32  1  0.316236  0.061703  0.399685  1
  O  O33  1  0.323351  0.431149  0.398544  1
  O  O34  1  0.420414  0.259158  0.697389  1
  O  O35  1  0.428943  0.734211  0.594495  1
  O  O36  1  0.420164  0.235883  0.197539  1
  O  O37  1  0.427844  0.767890  0.094642  1
  O  O38  1  0.577175  0.233795  0.903560  1
  O  O39  1  0.580369  0.768687  0.801835  1
  O  O40  1  0.577217  0.234507  0.403852  1
  O  O41  1  0.580725  0.770473  0.302152  1
  O  O42  1  0.693096  0.563140  0.611724  1
  O  O43  1  0.684582  0.928137  0.593092  1
  O  O44  1  0.680898  0.564481  0.108412  1
  O  O45  1  0.694610  0.929683  0.095821  1
  O  O46  1  0.860339  0.242145  0.737683  1
  O  O47  1  0.860083  0.244724  0.237753  1
  O  O48  1  0.881942  0.248003  0.518148  1
  O  O49  1  0.882054  0.249948  0.018303  1
  O  O50  1  0.903376  0.772728  0.839883  1
  O  O51  1  0.903096  0.773098  0.340368  1
