# generated using pymatgen
data_Li5Fe8(BO3)8
_symmetry_space_group_name_H-M   'P 1'
_cell_length_a   5.25726086
_cell_length_b   8.98026812
_cell_length_c   10.34804203
_cell_angle_alpha   90.36829722
_cell_angle_beta   91.49102448
_cell_angle_gamma   89.81904710
_symmetry_Int_Tables_number   1
_chemical_formula_structural   Li5Fe8(BO3)8
_chemical_formula_sum   'Li5 Fe8 B8 O24'
_cell_volume   488.37005557
_cell_formula_units_Z   1
loop_
 _symmetry_equiv_pos_site_id
 _symmetry_equiv_pos_as_xyz
  1  'x, y, z'
loop_
 _atom_site_type_symbol
 _atom_site_label
 _atom_site_symmetry_multiplicity
 _atom_site_fract_x
 _atom_site_fract_y
 _atom_site_fract_z
 _atom_site_occupancy
  Li  Li0  1  0.337060  0.013473  0.832944  1
  Li  Li1  1  0.652252  0.014577  0.089748  1
  Li  Li2  1  0.839935  0.509199  0.844808  1
  Li  Li3  1  0.342040  0.988987  0.335016  1
  Li  Li4  1  0.654671  0.992424  0.583175  1
  Fe  Fe5  1  0.156161  0.172118  0.115575  1
  Fe  Fe6  1  0.849508  0.180757  0.368873  1
  Fe  Fe7  1  0.334165  0.343953  0.870546  1
  Fe  Fe8  1  0.656310  0.333061  0.625555  1
  Fe  Fe9  1  0.333187  0.655237  0.360682  1
  Fe  Fe10  1  0.158632  0.819959  0.617372  1
  Fe  Fe11  1  0.665864  0.659913  0.119016  1
  Fe  Fe12  1  0.848410  0.840571  0.871205  1
  B  B13  1  0.167847  0.165543  0.627540  1
  B  B14  1  0.338332  0.326872  0.379033  1
  B  B15  1  0.833284  0.166997  0.870006  1
  B  B16  1  0.656359  0.329996  0.120355  1
  B  B17  1  0.336117  0.672853  0.876681  1
  B  B18  1  0.654805  0.671306  0.621392  1
  B  B19  1  0.170577  0.831020  0.127152  1
  B  B20  1  0.823313  0.833627  0.365299  1
  O  O21  1  0.296163  0.031475  0.633676  1
  O  O22  1  0.090087  0.161454  0.900853  1
  O  O23  1  0.683803  0.042612  0.889685  1
  O  O24  1  0.224742  0.194805  0.337632  1
  O  O25  1  0.297638  0.295298  0.659425  1
  O  O26  1  0.780012  0.200904  0.164826  1
  O  O27  1  0.908659  0.170007  0.593207  1
  O  O28  1  0.416200  0.318609  0.068148  1
  O  O29  1  0.219791  0.460559  0.359954  1
  O  O30  1  0.580267  0.318609  0.437266  1
  O  O31  1  0.721356  0.298436  0.823822  1
  O  O32  1  0.194848  0.547247  0.869705  1
  O  O33  1  0.779284  0.464871  0.126262  1
  O  O34  1  0.297859  0.698665  0.158991  1
  O  O35  1  0.426493  0.684550  0.550911  1
  O  O36  1  0.750039  0.536683  0.655975  1
  O  O37  1  0.593029  0.670556  0.922451  1
  O  O38  1  0.086549  0.821737  0.390557  1
  O  O39  1  0.230342  0.808098  0.836568  1
  O  O40  1  0.691180  0.708435  0.317732  1
  O  O41  1  0.778976  0.802710  0.661008  1
  O  O42  1  0.299415  0.963029  0.135517  1
  O  O43  1  0.912810  0.827133  0.089242  1
  O  O44  1  0.699197  0.964229  0.388657  1
