# generated using pymatgen
data_Li6MnFe5(BO3)6
_symmetry_space_group_name_H-M   'P 1'
_cell_length_a   8.24687822
_cell_length_b   8.83792596
_cell_length_c   6.27318913
_cell_angle_alpha   69.21258269
_cell_angle_beta   90.00000000
_cell_angle_gamma   62.12219134
_symmetry_Int_Tables_number   1
_chemical_formula_structural   Li6MnFe5(BO3)6
_chemical_formula_sum   'Li6 Mn1 Fe5 B6 O18'
_cell_volume   370.15513508
_cell_formula_units_Z   1
loop_
 _symmetry_equiv_pos_site_id
 _symmetry_equiv_pos_as_xyz
  1  'x, y, z'
loop_
 _atom_site_type_symbol
 _atom_site_label
 _atom_site_symmetry_multiplicity
 _atom_site_fract_x
 _atom_site_fract_y
 _atom_site_fract_z
 _atom_site_occupancy
  Li  Li0  1  0.714232  0.983818  0.757291  1
  Li  Li1  1  0.714232  0.983818  0.258892  1
  Li  Li2  1  0.982872  0.301978  0.598230  1
  Li  Li3  1  0.982872  0.301978  0.099792  1
  Li  Li4  1  0.301715  0.714166  0.892904  1
  Li  Li5  1  0.301715  0.714166  0.392931  1
  Mn  Mn6  1  0.359834  0.012746  0.993627  1
  Fe  Fe7  1  0.632857  0.359225  0.820387  1
  Fe  Fe8  1  0.632391  0.360241  0.319880  1
  Fe  Fe9  1  0.359857  0.007619  0.496191  1
  Fe  Fe10  1  0.007716  0.632797  0.183602  1
  Fe  Fe11  1  0.007887  0.632252  0.683874  1
  B  B12  1  0.667883  0.665495  0.419179  1
  B  B13  1  0.667883  0.665495  0.915326  1
  B  B14  1  0.332746  0.335063  0.580918  1
  B  B15  1  0.332746  0.335063  0.084019  1
  B  B16  1  0.999503  0.998033  0.000983  1
  B  B17  1  0.000027  0.999838  0.500081  1
  O  O18  1  0.890935  0.914797  0.542601  1
  O  O19  1  0.887174  0.916015  0.041993  1
  O  O20  1  0.862380  0.579357  0.960057  1
  O  O21  1  0.862380  0.579357  0.460586  1
  O  O22  1  0.916355  0.192551  0.903724  1
  O  O23  1  0.914990  0.194000  0.403000  1
  O  O24  1  0.559839  0.859522  0.324129  1
  O  O25  1  0.559839  0.859522  0.816348  1
  O  O26  1  0.581380  0.557511  0.970952  1
  O  O27  1  0.581380  0.557511  0.471537  1
  O  O28  1  0.527178  0.254668  0.622085  1
  O  O29  1  0.527178  0.254668  0.123247  1
  O  O30  1  0.194917  0.890690  0.554654  1
  O  O31  1  0.193357  0.886125  0.056937  1
  O  O32  1  0.218360  0.528642  0.486051  1
  O  O33  1  0.218360  0.528642  0.985307  1
  O  O34  1  0.252512  0.221316  0.635866  1
  O  O35  1  0.252512  0.221316  0.142819  1
