# generated using pymatgen
data_CuSb3(PO4)6
_symmetry_space_group_name_H-M   'P 1'
_cell_length_a   8.87639079
_cell_length_b   8.87639056
_cell_length_c   8.87639132
_cell_angle_alpha   57.96477215
_cell_angle_beta   57.96477397
_cell_angle_gamma   57.96476946
_symmetry_Int_Tables_number   1
_chemical_formula_structural   CuSb3(PO4)6
_chemical_formula_sum   'Cu1 Sb3 P6 O24'
_cell_volume   471.43984571
_cell_formula_units_Z   1
loop_
 _symmetry_equiv_pos_site_id
 _symmetry_equiv_pos_as_xyz
  1  'x, y, z'
loop_
 _atom_site_type_symbol
 _atom_site_label
 _atom_site_symmetry_multiplicity
 _atom_site_fract_x
 _atom_site_fract_y
 _atom_site_fract_z
 _atom_site_occupancy
  Cu  Cu0  1  0.855187  0.855187  0.855187  1
  Sb  Sb1  1  0.143145  0.143145  0.143145  1
  Sb  Sb2  1  0.356500  0.356500  0.356500  1
  Sb  Sb3  1  0.643375  0.643375  0.643375  1
  P  P4  1  0.036022  0.751561  0.467697  1
  P  P5  1  0.467697  0.036022  0.751561  1
  P  P6  1  0.751561  0.467697  0.036022  1
  P  P7  1  0.244536  0.543147  0.960590  1
  P  P8  1  0.543147  0.960590  0.244536  1
  P  P9  1  0.960590  0.244536  0.543147  1
  O  O10  1  0.132708  0.276706  0.512778  1
  O  O11  1  0.276706  0.512778  0.132708  1
  O  O12  1  0.059214  0.923971  0.279943  1
  O  O13  1  0.512778  0.132708  0.276706  1
  O  O14  1  0.218515  0.575933  0.439622  1
  O  O15  1  0.014213  0.774474  0.634822  1
  O  O16  1  0.279943  0.059214  0.923971  1
  O  O17  1  0.439622  0.218515  0.575933  1
  O  O18  1  0.575933  0.439622  0.218515  1
  O  O19  1  0.228065  0.364173  0.985882  1
  O  O20  1  0.073531  0.719965  0.942385  1
  O  O21  1  0.364173  0.985882  0.228065  1
  O  O22  1  0.634822  0.014213  0.774474  1
  O  O23  1  0.923971  0.279943  0.059214  1
  O  O24  1  0.774474  0.634822  0.014213  1
  O  O25  1  0.426680  0.556203  0.782200  1
  O  O26  1  0.556203  0.782200  0.426680  1
  O  O27  1  0.719965  0.942385  0.073531  1
  O  O28  1  0.985882  0.228065  0.364173  1
  O  O29  1  0.782200  0.426680  0.556203  1
  O  O30  1  0.484164  0.867088  0.725005  1
  O  O31  1  0.942385  0.073531  0.719965  1
  O  O32  1  0.725005  0.484164  0.867088  1
  O  O33  1  0.867088  0.725005  0.484164  1
