# generated using pymatgen
data_Li8V3P8O29
_symmetry_space_group_name_H-M   'P 1'
_cell_length_a   9.86809053
_cell_length_b   9.87148410
_cell_length_c   13.79625614
_cell_angle_alpha   90.04962238
_cell_angle_beta   90.27000022
_cell_angle_gamma   59.91261331
_symmetry_Int_Tables_number   1
_chemical_formula_structural   Li8V3P8O29
_chemical_formula_sum   'Li16 V6 P16 O58'
_cell_volume   1162.83711714
_cell_formula_units_Z   2
loop_
 _symmetry_equiv_pos_site_id
 _symmetry_equiv_pos_as_xyz
  1  'x, y, z'
loop_
 _atom_site_type_symbol
 _atom_site_label
 _atom_site_symmetry_multiplicity
 _atom_site_fract_x
 _atom_site_fract_y
 _atom_site_fract_z
 _atom_site_occupancy
  Li  Li0  1  0.901192  0.766631  0.062837  1
  Li  Li1  1  0.763011  0.901342  0.562037  1
  Li  Li2  1  0.900438  0.335229  0.560991  1
  Li  Li3  1  0.663818  0.667234  0.880520  1
  Li  Li4  1  0.765056  0.333001  0.063820  1
  Li  Li5  1  0.331981  0.901851  0.063920  1
  Li  Li6  1  0.665152  0.236606  0.438035  1
  Li  Li7  1  0.334630  0.763671  0.562162  1
  Li  Li8  1  0.668071  0.098417  0.936124  1
  Li  Li9  1  0.234741  0.667129  0.936094  1
  Li  Li10  1  0.335919  0.332467  0.119456  1
  Li  Li11  1  0.099553  0.664752  0.439081  1
  Li  Li12  1  0.237112  0.098556  0.437866  1
  Li  Li13  1  0.098863  0.233466  0.936975  1
  Li  Li14  1  0.999952  0.000260  -0.000046  1
  Li  Li15  1  0.999809  0.000284  0.500089  1
  V  V16  1  0.565238  0.435544  0.251026  1
  V  V17  1  0.435230  0.564233  0.748627  1
  V  V18  1  0.564051  0.001302  0.748401  1
  V  V19  1  0.435818  0.998779  0.251617  1
  V  V20  1  0.998960  0.564520  0.251279  1
  V  V21  1  0.000950  0.435528  0.748642  1
  P  P22  1  0.911356  0.774691  0.843598  1
  P  P23  1  0.773440  0.912120  0.343716  1
  P  P24  1  0.913166  0.314171  0.344001  1
  P  P25  1  0.667804  0.664809  0.125234  1
  P  P26  1  0.667396  0.667485  0.625216  1
  P  P27  1  0.776366  0.314307  0.843855  1
  P  P28  1  0.685612  0.226825  0.655336  1
  P  P29  1  0.314849  0.910124  0.844550  1
  P  P30  1  0.685051  0.089959  0.155583  1
  P  P31  1  0.314795  0.772977  0.344601  1
  P  P32  1  0.223726  0.685647  0.156195  1
  P  P33  1  0.332971  0.332487  0.374490  1
  P  P34  1  0.332154  0.334950  0.875024  1
  P  P35  1  0.086749  0.686044  0.655931  1
  P  P36  1  0.226430  0.087941  0.656242  1
  P  P37  1  0.088713  0.225341  0.156404  1
  O  O38  1  0.993933  0.774469  0.566650  1
  O  O39  1  0.921788  0.747951  0.342401  1
  O  O40  1  0.775649  0.996942  0.066369  1
  O  O41  1  0.748986  0.920674  0.845575  1
  O  O42  1  0.895205  0.626443  0.831731  1
  O  O43  1  0.817631  0.667994  0.167133  1
  O  O44  1  0.906613  0.472251  0.330402  1
  O  O45  1  0.996031  0.230871  0.066446  1
  O  O46  1  0.924781  0.329665  0.843918  1
  O  O47  1  0.678985  0.809302  0.665700  1
  O  O48  1  0.625573  0.902578  0.333361  1
  O  O49  1  0.816736  0.512942  0.671696  1
  O  O50  1  0.675275  0.665652  0.015638  1
  O  O51  1  0.676550  0.656579  0.517380  1
  O  O52  1  0.675706  0.513118  0.162018  1
  O  O53  1  0.478803  0.890686  0.835069  1
  O  O54  1  0.517267  0.810981  0.161953  1
  O  O55  1  0.751503  0.329799  0.345049  1
  O  O56  1  0.791641  0.210119  0.750854  1
  O  O57  1  0.777831  0.227342  0.566801  1
  O  O58  1  0.776809  0.223064  0.933275  1
  O  O59  1  0.631787  0.478497  0.835720  1
  O  O60  1  0.515923  0.675214  0.665729  1
  O  O61  1  0.671718  0.251736  0.155062  1
  O  O62  1  0.471840  0.624708  0.332540  1
  O  O63  1  0.327032  0.921431  0.344835  1
  O  O64  1  0.790407  0.000079  0.249006  1
  O  O65  1  0.777278  0.001787  0.432745  1
  O  O66  1  0.222359  0.998487  0.567213  1
  O  O67  1  0.673224  0.078503  0.655232  1
  O  O68  1  0.527781  0.375338  0.667227  1
  O  O69  1  0.327880  0.748642  0.845106  1
  O  O70  1  0.483683  0.324775  0.334328  1
  O  O71  1  0.368555  0.521455  0.164589  1
  O  O72  1  0.223495  0.776906  0.066705  1
  O  O73  1  0.222335  0.772332  0.433208  1
  O  O74  1  0.208381  0.789845  0.249160  1
  O  O75  1  0.248129  0.670678  0.654706  1
  O  O76  1  0.483137  0.189136  0.838136  1
  O  O77  1  0.521281  0.109314  0.164845  1
  O  O78  1  0.323473  0.487394  0.838117  1
  O  O79  1  0.323851  0.334190  0.984291  1
  O  O80  1  0.324654  0.342402  0.482647  1
  O  O81  1  0.183737  0.486794  0.328704  1
  O  O82  1  0.374587  0.097365  0.666598  1
  O  O83  1  0.321200  0.190745  0.334340  1
  O  O84  1  0.075495  0.670133  0.156096  1
  O  O85  1  0.999308  0.791274  0.750687  1
  O  O86  1  0.003813  0.769071  0.933564  1
  O  O87  1  0.093746  0.527552  0.669673  1
  O  O88  1  0.182061  0.331798  0.832555  1
  O  O89  1  0.104814  0.373388  0.168283  1
  O  O90  1  0.250967  0.079354  0.154663  1
  O  O91  1  0.224434  0.003169  0.933637  1
  O  O92  1  0.209357  0.000106  0.751039  1
  O  O93  1  0.078178  0.252214  0.657443  1
  O  O94  1  0.005915  0.225184  0.433322  1
  O  O95  1  0.000474  0.208906  0.249300  1
