# generated using pymatgen
data_LiV(OF)2
_symmetry_space_group_name_H-M   'P 1'
_cell_length_a   8.94007327
_cell_length_b   5.42495396
_cell_length_c   6.87430077
_cell_angle_alpha   90.00000000
_cell_angle_beta   90.00000000
_cell_angle_gamma   90.00000000
_symmetry_Int_Tables_number   1
_chemical_formula_structural   LiV(OF)2
_chemical_formula_sum   'Li4 V4 O8 F8'
_cell_volume   333.40005319
_cell_formula_units_Z   4
loop_
 _symmetry_equiv_pos_site_id
 _symmetry_equiv_pos_as_xyz
  1  'x, y, z'
loop_
 _atom_site_type_symbol
 _atom_site_label
 _atom_site_symmetry_multiplicity
 _atom_site_fract_x
 _atom_site_fract_y
 _atom_site_fract_z
 _atom_site_occupancy
  Li  Li0  1  0.223886  0.518233  0.371016  1
  Li  Li1  1  0.276114  0.518233  0.871016  1
  Li  Li2  1  0.723886  0.481767  0.371016  1
  Li  Li3  1  0.776114  0.481767  0.871016  1
  V  V4  1  0.056347  0.047562  0.993634  1
  V  V5  1  0.943653  0.952438  0.493634  1
  V  V6  1  0.443653  0.047562  0.493634  1
  V  V7  1  0.556347  0.952438  0.993634  1
  O  O8  1  0.976734  0.030388  0.735910  1
  O  O9  1  0.217332  0.198211  0.986946  1
  O  O10  1  0.282668  0.198211  0.486946  1
  O  O11  1  0.523266  0.030388  0.235910  1
  O  O12  1  0.476734  0.969612  0.735910  1
  O  O13  1  0.717332  0.801789  0.986946  1
  O  O14  1  0.782668  0.801789  0.486946  1
  O  O15  1  0.023266  0.969612  0.235910  1
  F  F16  1  0.076837  0.683414  0.511985  1
  F  F17  1  0.115235  0.722392  0.937109  1
  F  F18  1  0.423163  0.683414  0.011985  1
  F  F19  1  0.384765  0.722392  0.437109  1
  F  F20  1  0.576837  0.316586  0.511985  1
  F  F21  1  0.615235  0.277608  0.937109  1
  F  F22  1  0.884765  0.277608  0.437109  1
  F  F23  1  0.923163  0.316586  0.011985  1
