# generated using pymatgen
data_Li3Fe(PO4)2
_symmetry_space_group_name_H-M   'P 1'
_cell_length_a   8.58348755
_cell_length_b   9.92432676
_cell_length_c   14.94673388
_cell_angle_alpha   90.00000000
_cell_angle_beta   84.31950046
_cell_angle_gamma   90.00000000
_symmetry_Int_Tables_number   1
_chemical_formula_structural   Li3Fe(PO4)2
_chemical_formula_sum   'Li24 Fe8 P16 O64'
_cell_volume   1266.99004381
_cell_formula_units_Z   8
loop_
 _symmetry_equiv_pos_site_id
 _symmetry_equiv_pos_as_xyz
  1  'x, y, z'
loop_
 _atom_site_type_symbol
 _atom_site_label
 _atom_site_symmetry_multiplicity
 _atom_site_fract_x
 _atom_site_fract_y
 _atom_site_fract_z
 _atom_site_occupancy
  Li  Li0  1  0.073118  0.094775  0.949683  1
  Li  Li1  1  0.086240  0.610916  0.292034  1
  Li  Li2  1  0.173311  0.882904  0.221917  1
  Li  Li3  1  0.209326  0.416043  0.510248  1
  Li  Li4  1  0.222076  0.375232  0.748704  1
  Li  Li5  1  0.251797  0.918503  0.499823  1
  Li  Li6  1  0.248203  0.418503  0.000177  1
  Li  Li7  1  0.277924  0.875232  0.751296  1
  Li  Li8  1  0.290674  0.916043  0.989752  1
  Li  Li9  1  0.326689  0.382904  0.278083  1
  Li  Li10  1  0.413760  0.110916  0.207966  1
  Li  Li11  1  0.426882  0.594775  0.550317  1
  Li  Li12  1  0.573118  0.405225  0.449683  1
  Li  Li13  1  0.586240  0.889084  0.792034  1
  Li  Li14  1  0.673311  0.617096  0.721917  1
  Li  Li15  1  0.709326  0.083957  0.010248  1
  Li  Li16  1  0.722076  0.124768  0.248704  1
  Li  Li17  1  0.751797  0.581497  0.999823  1
  Li  Li18  1  0.748203  0.081497  0.500177  1
  Li  Li19  1  0.777924  0.624768  0.251296  1
  Li  Li20  1  0.790674  0.583957  0.489752  1
  Li  Li21  1  0.826689  0.117096  0.778083  1
  Li  Li22  1  0.913760  0.389084  0.707966  1
  Li  Li23  1  0.926882  0.905225  0.050317  1
  Fe  Fe24  1  0.087996  0.632504  0.878963  1
  Fe  Fe25  1  0.072318  0.121395  0.361760  1
  Fe  Fe26  1  0.427682  0.621395  0.138240  1
  Fe  Fe27  1  0.412004  0.132504  0.621037  1
  Fe  Fe28  1  0.587996  0.867496  0.378963  1
  Fe  Fe29  1  0.572318  0.378605  0.861760  1
  Fe  Fe30  1  0.927682  0.878605  0.638240  1
  Fe  Fe31  1  0.912004  0.367496  0.121037  1
  P  P32  1  0.088540  0.645135  0.657984  1
  P  P33  1  0.082271  0.146959  0.138857  1
  P  P34  1  0.070475  0.662257  0.100310  1
  P  P35  1  0.043190  0.164175  0.585438  1
  P  P36  1  0.456810  0.664175  0.914562  1
  P  P37  1  0.429525  0.162257  0.399690  1
  P  P38  1  0.417729  0.646959  0.361143  1
  P  P39  1  0.411460  0.145135  0.842016  1
  P  P40  1  0.588540  0.854865  0.157984  1
  P  P41  1  0.582271  0.353041  0.638857  1
  P  P42  1  0.570475  0.837743  0.600310  1
  P  P43  1  0.543190  0.335825  0.085438  1
  P  P44  1  0.956810  0.835825  0.414562  1
  P  P45  1  0.929525  0.337743  0.899690  1
  P  P46  1  0.917729  0.853041  0.861143  1
  P  P47  1  0.911460  0.354865  0.342016  1
  O  O48  1  0.059722  0.441694  0.917442  1
  O  O49  1  0.058314  0.920562  0.342275  1
  O  O50  1  0.030740  0.730921  0.192342  1
  O  O51  1  0.048860  0.313360  0.609363  1
  O  O52  1  0.978154  0.141194  0.492728  1
  O  O53  1  0.100624  0.565715  0.749327  1
  O  O54  1  0.086313  0.763022  0.021952  1
  O  O55  1  0.098736  0.831326  0.839650  1
  O  O56  1  0.089982  0.348194  0.358198  1
  O  O57  1  0.168105  0.113416  0.224298  1
  O  O58  1  0.197955  0.577491  0.585384  1
  O  O59  1  0.133569  0.797856  0.666314  1
  O  O60  1  0.110952  0.029874  0.072717  1
  O  O61  1  0.134723  0.289923  0.102186  1
  O  O62  1  0.223057  0.578448  0.102941  1
  O  O63  1  0.208014  0.098437  0.583886  1
  O  O64  1  0.291986  0.598437  0.916114  1
  O  O65  1  0.276943  0.078448  0.397059  1
  O  O66  1  0.365277  0.789923  0.397814  1
  O  O67  1  0.366431  0.297856  0.833686  1
  O  O68  1  0.389048  0.529874  0.427283  1
  O  O69  1  0.302045  0.077491  0.914616  1
  O  O70  1  0.331895  0.613416  0.275702  1
  O  O71  1  0.410018  0.848194  0.141802  1
  O  O72  1  0.401264  0.331326  0.660350  1
  O  O73  1  0.413687  0.263022  0.478048  1
  O  O74  1  0.399376  0.065715  0.750673  1
  O  O75  1  0.451140  0.813360  0.890637  1
  O  O76  1  0.521846  0.641194  0.007272  1
  O  O77  1  0.469260  0.230921  0.307658  1
  O  O78  1  0.440278  0.941694  0.582558  1
  O  O79  1  0.441686  0.420562  0.157725  1
  O  O80  1  0.558314  0.579438  0.842275  1
  O  O81  1  0.559722  0.058306  0.417442  1
  O  O82  1  0.530740  0.769079  0.692342  1
  O  O83  1  0.478154  0.358806  0.992728  1
  O  O84  1  0.548860  0.186640  0.109363  1
  O  O85  1  0.600624  0.934285  0.249327  1
  O  O86  1  0.586313  0.736978  0.521952  1
  O  O87  1  0.598736  0.668674  0.339650  1
  O  O88  1  0.589982  0.151806  0.858198  1
  O  O89  1  0.668105  0.386584  0.724298  1
  O  O90  1  0.697955  0.922509  0.085384  1
  O  O91  1  0.610952  0.470126  0.572717  1
  O  O92  1  0.633569  0.702144  0.166314  1
  O  O93  1  0.634723  0.210077  0.602186  1
  O  O94  1  0.723057  0.921552  0.602941  1
  O  O95  1  0.708014  0.401563  0.083886  1
  O  O96  1  0.791986  0.901563  0.416114  1
  O  O97  1  0.776943  0.421552  0.897059  1
  O  O98  1  0.865277  0.710077  0.897814  1
  O  O99  1  0.889048  0.970126  0.927283  1
  O  O100  1  0.866431  0.202144  0.333686  1
  O  O101  1  0.802045  0.422509  0.414616  1
  O  O102  1  0.831895  0.886584  0.775702  1
  O  O103  1  0.910018  0.651806  0.641802  1
  O  O104  1  0.901264  0.168674  0.160350  1
  O  O105  1  0.913687  0.236978  0.978048  1
  O  O106  1  0.899376  0.434285  0.250673  1
  O  O107  1  0.021846  0.858806  0.507272  1
  O  O108  1  0.951140  0.686640  0.390637  1
  O  O109  1  0.969260  0.269079  0.807658  1
  O  O110  1  0.941686  0.079438  0.657725  1
  O  O111  1  0.940278  0.558306  0.082558  1
