# generated using pymatgen
data_NaLi2V3O9
_symmetry_space_group_name_H-M   'P 1'
_cell_length_a   10.17767109
_cell_length_b   9.03843433
_cell_length_c   10.06577067
_cell_angle_alpha   89.97780550
_cell_angle_beta   73.20843050
_cell_angle_gamma   116.39294192
_symmetry_Int_Tables_number   1
_chemical_formula_structural   NaLi2V3O9
_chemical_formula_sum   'Na4 Li8 V12 O36'
_cell_volume   785.06349899
_cell_formula_units_Z   4
loop_
 _symmetry_equiv_pos_site_id
 _symmetry_equiv_pos_as_xyz
  1  'x, y, z'
loop_
 _atom_site_type_symbol
 _atom_site_label
 _atom_site_symmetry_multiplicity
 _atom_site_fract_x
 _atom_site_fract_y
 _atom_site_fract_z
 _atom_site_occupancy
  Na  Na0  1  0.501962  0.462232  0.249174  1
  Na  Na1  1  0.835716  0.206568  0.083777  1
  Na  Na2  1  0.167051  0.796091  0.916051  1
  Na  Na3  1  0.833661  0.128111  0.584028  1
  Li  Li4  1  0.163944  0.499130  0.418614  1
  Li  Li5  1  0.170136  0.853181  0.417211  1
  Li  Li6  1  0.501750  0.837213  0.246915  1
  Li  Li7  1  0.835682  0.835147  0.083536  1
  Li  Li8  1  0.168652  0.168683  0.915767  1
  Li  Li9  1  0.499267  0.514544  0.751394  1
  Li  Li10  1  0.501893  0.169076  0.750261  1
  Li  Li11  1  0.831046  0.503983  0.586194  1
  V  V12  1  0.025683  0.104277  0.277501  1
  V  V13  1  0.308333  0.560659  0.056347  1
  V  V14  1  0.357878  0.085349  0.110981  1
  V  V15  1  0.023641  0.419913  0.773695  1
  V  V16  1  0.309383  0.249474  0.559349  1
  V  V17  1  0.356684  0.772623  0.608398  1
  V  V18  1  0.642289  0.229567  0.393329  1
  V  V19  1  0.689795  0.751344  0.445919  1
  V  V20  1  0.977779  0.586320  0.226872  1
  V  V21  1  0.641157  0.911725  0.890077  1
  V  V22  1  0.690529  0.440038  0.940597  1
  V  V23  1  0.976371  0.894756  0.722914  1
  O  O24  1  0.126473  0.570122  0.084181  1
  O  O25  1  0.293709  0.382137  0.998746  1
  O  O26  1  0.039120  0.283235  0.332536  1
  O  O27  1  0.031904  0.628378  0.372607  1
  O  O28  1  0.205557  0.092294  0.255786  1
  O  O29  1  0.371955  0.920476  0.165772  1
  O  O30  1  0.356081  0.580223  0.204960  1
  O  O31  1  0.540997  0.275803  0.083341  1
  O  O32  1  0.687620  0.938844  0.039563  1
  O  O33  1  0.132185  0.055279  0.580580  1
  O  O34  1  0.304796  0.759662  0.461269  1
  O  O35  1  0.290516  0.408634  0.499434  1
  O  O36  1  0.461870  0.239447  0.417233  1
  O  O37  1  0.644155  0.725236  0.296328  1
  O  O38  1  0.037180  0.255510  0.830476  1
  O  O39  1  0.627991  0.052070  0.334362  1
  O  O40  1  0.022663  0.916681  0.872523  1
  O  O41  1  0.796359  0.394757  0.253701  1
  O  O42  1  0.203926  0.609667  0.750235  1
  O  O43  1  0.979787  0.083913  0.127637  1
  O  O44  1  0.372800  0.949899  0.669271  1
  O  O45  1  0.961813  0.745751  0.163166  1
  O  O46  1  0.362892  0.289022  0.705922  1
  O  O47  1  0.533727  0.755653  0.587771  1
  O  O48  1  0.706829  0.588442  0.501404  1
  O  O49  1  0.686907  0.246731  0.543552  1
  O  O50  1  0.870620  0.943185  0.419727  1
  O  O51  1  0.311206  0.061039  0.961483  1
  O  O52  1  0.461073  0.720918  0.912136  1
  O  O53  1  0.637713  0.426452  0.793673  1
  O  O54  1  0.627899  0.076858  0.833024  1
  O  O55  1  0.794879  0.903095  0.747770  1
  O  O56  1  0.976244  0.394202  0.624607  1
  O  O57  1  0.961092  0.715120  0.668605  1
  O  O58  1  0.706803  0.616405  0.002133  1
  O  O59  1  0.871296  0.430470  0.916000  1
