# generated using pymatgen
data_Li2Cr4P4O15
_symmetry_space_group_name_H-M   'P 1'
_cell_length_a   8.93959812
_cell_length_b   8.93959812
_cell_length_c   18.30889755
_cell_angle_alpha   82.83979749
_cell_angle_beta   97.16020251
_cell_angle_gamma   76.22394073
_symmetry_Int_Tables_number   1
_chemical_formula_structural   Li2Cr4P4O15
_chemical_formula_sum   'Li8 Cr16 P16 O60'
_cell_volume   1391.81073430
_cell_formula_units_Z   4
loop_
 _symmetry_equiv_pos_site_id
 _symmetry_equiv_pos_as_xyz
  1  'x, y, z'
loop_
 _atom_site_type_symbol
 _atom_site_label
 _atom_site_symmetry_multiplicity
 _atom_site_fract_x
 _atom_site_fract_y
 _atom_site_fract_z
 _atom_site_occupancy
  Li  Li0  1  0.530312  0.011214  0.751606  1
  Li  Li1  1  0.689915  0.454726  0.946120  1
  Li  Li2  1  0.454726  0.689915  0.553880  1
  Li  Li3  1  0.988786  0.469688  0.251606  1
  Li  Li4  1  0.011214  0.530312  0.748394  1
  Li  Li5  1  0.545274  0.310085  0.446120  1
  Li  Li6  1  0.310085  0.545274  0.053880  1
  Li  Li7  1  0.469688  0.988786  0.248394  1
  Cr  Cr8  1  0.048906  0.842683  0.567567  1
  Cr  Cr9  1  0.091673  0.286311  0.935047  1
  Cr  Cr10  1  0.000000  0.500000  0.500000  1
  Cr  Cr11  1  0.157317  0.951094  0.067567  1
  Cr  Cr12  1  0.184009  0.184009  0.750000  1
  Cr  Cr13  1  0.459380  0.459380  0.750000  1
  Cr  Cr14  1  0.949926  0.949926  0.750000  1
  Cr  Cr15  1  0.713689  0.908327  0.435047  1
  Cr  Cr16  1  0.286311  0.091673  0.564953  1
  Cr  Cr17  1  0.050074  0.050074  0.250000  1
  Cr  Cr18  1  0.815991  0.815991  0.250000  1
  Cr  Cr19  1  0.540620  0.540620  0.250000  1
  Cr  Cr20  1  0.842683  0.048906  0.932433  1
  Cr  Cr21  1  0.908327  0.713689  0.064953  1
  Cr  Cr22  1  0.951094  0.157317  0.432433  1
  Cr  Cr23  1  0.500000  0.000000  0.000000  1
  P  P24  1  0.222007  0.912070  0.899287  1
  P  P25  1  0.026071  0.690492  0.895832  1
  P  P26  1  0.306108  0.838699  0.679003  1
  P  P27  1  0.087930  0.777993  0.399287  1
  P  P28  1  0.309508  0.973929  0.395832  1
  P  P29  1  0.241610  0.447618  0.620158  1
  P  P30  1  0.161300  0.693892  0.179003  1
  P  P31  1  0.447618  0.241610  0.879842  1
  P  P32  1  0.552382  0.758390  0.120158  1
  P  P33  1  0.838699  0.306108  0.820997  1
  P  P34  1  0.758390  0.552382  0.379842  1
  P  P35  1  0.690492  0.026071  0.604168  1
  P  P36  1  0.912070  0.222007  0.600713  1
  P  P37  1  0.693892  0.161300  0.320997  1
  P  P38  1  0.973929  0.309508  0.104168  1
  P  P39  1  0.777993  0.087930  0.100713  1
  O  O40  1  0.156291  0.976212  0.817125  1
  O  O41  1  0.132508  0.830439  0.678211  1
  O  O42  1  0.193149  0.740444  0.915491  1
  O  O43  1  0.395020  0.891051  0.920650  1
  O  O44  1  0.074714  0.521402  0.931554  1
  O  O45  1  0.023788  0.843709  0.317125  1
  O  O46  1  0.321916  0.846130  0.592013  1
  O  O47  1  0.117969  0.597381  0.577571  1
  O  O48  1  0.997488  0.332784  0.804400  1
  O  O49  1  0.169561  0.867492  0.178211  1
  O  O50  1  0.422496  0.705265  0.730590  1
  O  O51  1  0.259556  0.806851  0.415491  1
  O  O52  1  0.108949  0.604980  0.420650  1
  O  O53  1  0.478598  0.925286  0.431554  1
  O  O54  1  0.189256  0.405302  0.696661  1
  O  O55  1  0.720745  0.978848  0.689643  1
  O  O56  1  0.121995  0.014496  0.949647  1
  O  O57  1  0.908530  0.793781  0.934673  1
  O  O58  1  0.324263  0.236160  0.931369  1
  O  O59  1  0.153870  0.678084  0.092013  1
  O  O60  1  0.476426  0.406292  0.866109  1
  O  O61  1  0.402619  0.882030  0.077571  1
  O  O62  1  0.406292  0.476426  0.633891  1
  O  O63  1  0.236160  0.324263  0.568631  1
  O  O64  1  0.793781  0.908530  0.565327  1
  O  O65  1  0.014496  0.121995  0.550353  1
  O  O66  1  0.667216  0.002512  0.304400  1
  O  O67  1  0.294735  0.577504  0.230590  1
  O  O68  1  0.978848  0.720745  0.810357  1
  O  O69  1  0.405302  0.189256  0.803339  1
  O  O70  1  0.594698  0.810744  0.196661  1
  O  O71  1  0.021152  0.279255  0.189643  1
  O  O72  1  0.705265  0.422496  0.769410  1
  O  O73  1  0.332784  0.997488  0.695600  1
  O  O74  1  0.985504  0.878005  0.449647  1
  O  O75  1  0.206219  0.091470  0.434673  1
  O  O76  1  0.763840  0.675737  0.431369  1
  O  O77  1  0.593708  0.523574  0.366109  1
  O  O78  1  0.597381  0.117969  0.922429  1
  O  O79  1  0.523574  0.593708  0.133891  1
  O  O80  1  0.846130  0.321916  0.907987  1
  O  O81  1  0.675737  0.763840  0.068631  1
  O  O82  1  0.091470  0.206219  0.065327  1
  O  O83  1  0.878005  0.985504  0.050353  1
  O  O84  1  0.279255  0.021152  0.310357  1
  O  O85  1  0.810744  0.594698  0.303339  1
  O  O86  1  0.521402  0.074714  0.568446  1
  O  O87  1  0.891051  0.395020  0.579350  1
  O  O88  1  0.740444  0.193149  0.584509  1
  O  O89  1  0.577504  0.294735  0.269410  1
  O  O90  1  0.830439  0.132508  0.821789  1
  O  O91  1  0.002512  0.667216  0.195600  1
  O  O92  1  0.882030  0.402619  0.422429  1
  O  O93  1  0.678084  0.153870  0.407987  1
  O  O94  1  0.976212  0.156291  0.682875  1
  O  O95  1  0.925286  0.478598  0.068446  1
  O  O96  1  0.604980  0.108949  0.079350  1
  O  O97  1  0.806851  0.259556  0.084509  1
  O  O98  1  0.867492  0.169561  0.321789  1
  O  O99  1  0.843709  0.023788  0.182875  1
