# generated using pymatgen
data_LiFe2(ClO)2
_symmetry_space_group_name_H-M   'P 1'
_cell_length_a   5.30682698
_cell_length_b   24.21788648
_cell_length_c   5.29144115
_cell_angle_alpha   90.00000000
_cell_angle_beta   82.22134308
_cell_angle_gamma   90.00000000
_symmetry_Int_Tables_number   1
_chemical_formula_structural   LiFe2(ClO)2
_chemical_formula_sum   'Li6 Fe12 Cl12 O12'
_cell_volume   673.79906229
_cell_formula_units_Z   6
loop_
 _symmetry_equiv_pos_site_id
 _symmetry_equiv_pos_as_xyz
  1  'x, y, z'
loop_
 _atom_site_type_symbol
 _atom_site_label
 _atom_site_symmetry_multiplicity
 _atom_site_fract_x
 _atom_site_fract_y
 _atom_site_fract_z
 _atom_site_occupancy
  Li  Li0  1  0.250000  0.145033  0.250000  1
  Li  Li1  1  0.750000  0.188301  0.250000  1
  Li  Li2  1  0.250000  0.521742  0.750000  1
  Li  Li3  1  0.250000  0.852359  0.750000  1
  Li  Li4  1  0.750000  0.480974  0.750000  1
  Li  Li5  1  0.750000  0.811591  0.750000  1
  Fe  Fe6  1  0.250000  0.973274  0.250000  1
  Fe  Fe7  1  0.250000  0.304936  0.250000  1
  Fe  Fe8  1  0.250000  0.631652  0.250000  1
  Fe  Fe9  1  0.250000  0.035157  0.750000  1
  Fe  Fe10  1  0.250000  0.368682  0.750000  1
  Fe  Fe11  1  0.750000  0.028398  0.250000  1
  Fe  Fe12  1  0.750000  0.360059  0.250000  1
  Fe  Fe13  1  0.750000  0.701682  0.250000  1
  Fe  Fe14  1  0.250000  0.694898  0.750000  1
  Fe  Fe15  1  0.750000  0.298176  0.750000  1
  Fe  Fe16  1  0.750000  0.638435  0.750000  1
  Fe  Fe17  1  0.750000  0.964651  0.750000  1
  Cl  Cl18  1  0.967729  0.111992  0.997528  1
  Cl  Cl19  1  0.010624  0.445902  0.012050  1
  Cl  Cl20  1  0.031153  0.778053  0.002844  1
  Cl  Cl21  1  0.989376  0.887432  0.487950  1
  Cl  Cl22  1  0.510624  0.887432  0.012050  1
  Cl  Cl23  1  0.032271  0.221342  0.502472  1
  Cl  Cl24  1  0.467729  0.221342  0.997528  1
  Cl  Cl25  1  0.531153  0.555280  0.002844  1
  Cl  Cl26  1  0.968847  0.555280  0.497156  1
  Cl  Cl27  1  0.489376  0.445902  0.487950  1
  Cl  Cl28  1  0.532271  0.111992  0.502472  1
  Cl  Cl29  1  0.468847  0.778053  0.497156  1
  O  O30  1  0.988580  0.313443  0.016333  1
  O  O31  1  0.014564  0.646939  0.981889  1
  O  O32  1  -0.009897  0.981391  0.016450  1
  O  O33  1  0.985436  0.686394  0.518111  1
  O  O34  1  0.490103  0.351942  0.016450  1
  O  O35  1  0.011420  0.019890  0.483667  1
  O  O36  1  0.009897  0.351942  0.483550  1
  O  O37  1  0.488580  0.019890  0.016333  1
  O  O38  1  0.514564  0.686394  0.981889  1
  O  O39  1  0.511420  0.313443  0.483667  1
  O  O40  1  0.485436  0.646939  0.518111  1
  O  O41  1  0.509897  0.981391  0.483550  1
