# generated using pymatgen
data_CuSn(PO4)2
_symmetry_space_group_name_H-M   'P 1'
_cell_length_a   10.05575075
_cell_length_b   6.09514030
_cell_length_c   4.95733206
_cell_angle_alpha   90.00000000
_cell_angle_beta   91.90632761
_cell_angle_gamma   90.00000000
_symmetry_Int_Tables_number   1
_chemical_formula_structural   CuSn(PO4)2
_chemical_formula_sum   'Cu2 Sn2 P4 O16'
_cell_volume   303.67272726
_cell_formula_units_Z   2
loop_
 _symmetry_equiv_pos_site_id
 _symmetry_equiv_pos_as_xyz
  1  'x, y, z'
loop_
 _atom_site_type_symbol
 _atom_site_label
 _atom_site_symmetry_multiplicity
 _atom_site_fract_x
 _atom_site_fract_y
 _atom_site_fract_z
 _atom_site_occupancy
  Cu  Cu0  1  0.292791  0.250000  0.896662  1
  Cu  Cu1  1  0.707209  0.750000  0.103338  1
  Sn  Sn2  1  0.218049  0.750000  0.461825  1
  Sn  Sn3  1  0.781951  0.250000  0.538175  1
  P  P4  1  0.101839  0.250000  0.410627  1
  P  P5  1  0.404663  0.750000  0.917038  1
  P  P6  1  0.595337  0.250000  0.082962  1
  P  P7  1  0.898161  0.750000  0.589373  1
  O  O8  1  0.048751  0.750000  0.674489  1
  O  O9  1  0.120343  0.250000  0.717368  1
  O  O10  1  0.168497  0.045803  0.275609  1
  O  O11  1  0.168497  0.454197  0.275609  1
  O  O12  1  0.328700  0.943291  0.760787  1
  O  O13  1  0.328700  0.556709  0.760787  1
  O  O14  1  0.379677  0.750000  0.221314  1
  O  O15  1  0.447565  0.250000  0.133893  1
  O  O16  1  0.552435  0.750000  0.866107  1
  O  O17  1  0.620323  0.250000  0.778686  1
  O  O18  1  0.671300  0.056709  0.239213  1
  O  O19  1  0.671300  0.443291  0.239213  1
  O  O20  1  0.831503  0.545803  0.724391  1
  O  O21  1  0.831503  0.954197  0.724391  1
  O  O22  1  0.879657  0.750000  0.282632  1
  O  O23  1  0.951249  0.250000  0.325511  1
