# generated using pymatgen
data_MnH4(SO6)2
_symmetry_space_group_name_H-M   'P 1'
_cell_length_a   9.47688589
_cell_length_b   18.20809724
_cell_length_c   5.63516805
_cell_angle_alpha   90.00000000
_cell_angle_beta   90.00000000
_cell_angle_gamma   90.00000000
_symmetry_Int_Tables_number   1
_chemical_formula_structural   MnH4(SO6)2
_chemical_formula_sum   'Mn4 H16 S8 O48'
_cell_volume   972.38239512
_cell_formula_units_Z   4
loop_
 _symmetry_equiv_pos_site_id
 _symmetry_equiv_pos_as_xyz
  1  'x, y, z'
loop_
 _atom_site_type_symbol
 _atom_site_label
 _atom_site_symmetry_multiplicity
 _atom_site_fract_x
 _atom_site_fract_y
 _atom_site_fract_z
 _atom_site_occupancy
  Mn  Mn0  1  0.500000  0.000000  0.500000  1
  Mn  Mn1  1  0.000000  0.500000  0.000000  1
  Mn  Mn2  1  0.500000  0.500000  0.500000  1
  Mn  Mn3  1  0.000000  0.000000  0.000000  1
  H  H4  1  0.165760  0.206306  0.989116  1
  H  H5  1  0.665760  0.293694  0.510884  1
  H  H6  1  0.834240  0.706306  0.010884  1
  H  H7  1  0.334240  0.793694  0.489116  1
  H  H8  1  0.834240  0.793694  0.010884  1
  H  H9  1  0.334240  0.706306  0.489116  1
  H  H10  1  0.165760  0.293694  0.989116  1
  H  H11  1  0.665760  0.206306  0.510884  1
  H  H12  1  0.358333  0.206270  0.582417  1
  H  H13  1  0.858333  0.293730  0.917583  1
  H  H14  1  0.641667  0.706270  0.417583  1
  H  H15  1  0.141667  0.793730  0.082417  1
  H  H16  1  0.641667  0.793730  0.417583  1
  H  H17  1  0.141667  0.706270  0.082417  1
  H  H18  1  0.358333  0.293730  0.582417  1
  H  H19  1  0.858333  0.206270  0.917583  1
  S  S20  1  0.735443  0.086889  0.204798  1
  S  S21  1  0.235443  0.413111  0.295202  1
  S  S22  1  0.264557  0.586889  0.795202  1
  S  S23  1  0.764557  0.913111  0.704798  1
  S  S24  1  0.264557  0.913111  0.795202  1
  S  S25  1  0.764557  0.586889  0.704798  1
  S  S26  1  0.735443  0.413111  0.204798  1
  S  S27  1  0.235443  0.086889  0.295202  1
  O  O28  1  0.734273  0.369552  0.986008  1
  O  O29  1  0.234273  0.130448  0.513992  1
  O  O30  1  0.265727  0.869552  0.013992  1
  O  O31  1  0.765727  0.630448  0.486008  1
  O  O32  1  0.265727  0.630448  0.013992  1
  O  O33  1  0.765727  0.869552  0.486008  1
  O  O34  1  0.734273  0.130448  0.986008  1
  O  O35  1  0.234273  0.369552  0.513992  1
  O  O36  1  0.778577  0.127534  0.414161  1
  O  O37  1  0.278577  0.372466  0.085839  1
  O  O38  1  0.221423  0.627534  0.585839  1
  O  O39  1  0.721423  0.872466  0.914161  1
  O  O40  1  0.221423  0.872466  0.585839  1
  O  O41  1  0.721423  0.627534  0.914161  1
  O  O42  1  0.778577  0.372466  0.414161  1
  O  O43  1  0.278577  0.127534  0.085839  1
  O  O44  1  0.587610  0.055855  0.233737  1
  O  O45  1  0.087610  0.444145  0.266263  1
  O  O46  1  0.412390  0.555855  0.766263  1
  O  O47  1  0.912390  0.944145  0.733737  1
  O  O48  1  0.412390  0.944145  0.766263  1
  O  O49  1  0.912390  0.555855  0.733737  1
  O  O50  1  0.587610  0.444145  0.233737  1
  O  O51  1  0.087610  0.055855  0.266263  1
  O  O52  1  0.515831  0.583581  0.333918  1
  O  O53  1  0.015831  0.916419  0.166082  1
  O  O54  1  0.484169  0.083581  0.666082  1
  O  O55  1  0.984169  0.416419  0.833918  1
  O  O56  1  0.484169  0.416419  0.666082  1
  O  O57  1  0.984169  0.083581  0.833918  1
  O  O58  1  0.515831  0.916419  0.333918  1
  O  O59  1  0.015831  0.583581  0.166082  1
  O  O60  1  0.823490  0.017637  0.166806  1
  O  O61  1  0.323490  0.482363  0.333194  1
  O  O62  1  0.176510  0.517637  0.833194  1
  O  O63  1  0.676510  0.982363  0.666806  1
  O  O64  1  0.176510  0.982363  0.833194  1
  O  O65  1  0.676510  0.517637  0.666806  1
  O  O66  1  0.823490  0.482363  0.166806  1
  O  O67  1  0.323490  0.017637  0.333194  1
  O  O68  1  0.637165  0.250000  0.605380  1
  O  O69  1  0.137165  0.250000  0.894620  1
  O  O70  1  0.362835  0.750000  0.394620  1
  O  O71  1  0.862835  0.750000  0.105380  1
  O  O72  1  0.900485  0.250000  0.994775  1
  O  O73  1  0.400485  0.250000  0.505225  1
  O  O74  1  0.099515  0.750000  0.005225  1
  O  O75  1  0.599515  0.750000  0.494775  1
