# generated using pymatgen
data_LiNiPO4
_symmetry_space_group_name_H-M   'P 1'
_cell_length_a   19.89832902
_cell_length_b   5.50131795
_cell_length_c   8.10896528
_cell_angle_alpha   90.00000000
_cell_angle_beta   90.00000000
_cell_angle_gamma   90.00000000
_symmetry_Int_Tables_number   1
_chemical_formula_structural   LiNiPO4
_chemical_formula_sum   'Li12 Ni12 P12 O48'
_cell_volume   887.66438298
_cell_formula_units_Z   12
loop_
 _symmetry_equiv_pos_site_id
 _symmetry_equiv_pos_as_xyz
  1  'x, y, z'
loop_
 _atom_site_type_symbol
 _atom_site_label
 _atom_site_symmetry_multiplicity
 _atom_site_fract_x
 _atom_site_fract_y
 _atom_site_fract_z
 _atom_site_occupancy
  Li  Li0  1  0.975275  0.193584  0.729175  1
  Li  Li1  1  0.178768  0.814352  0.251283  1
  Li  Li2  1  0.159509  0.213400  0.742944  1
  Li  Li3  1  0.340491  0.713400  0.242944  1
  Li  Li4  1  0.321232  0.314352  0.751283  1
  Li  Li5  1  0.524725  0.693584  0.229175  1
  Li  Li6  1  0.475275  0.193584  0.770825  1
  Li  Li7  1  0.678768  0.814352  0.248717  1
  Li  Li8  1  0.659509  0.213400  0.757056  1
  Li  Li9  1  0.840491  0.713400  0.257056  1
  Li  Li10  1  0.821232  0.314352  0.748717  1
  Li  Li11  1  0.024725  0.693584  0.270825  1
  Ni  Ni12  1  0.062319  0.252547  0.016727  1
  Ni  Ni13  1  0.089226  0.690706  0.577240  1
  Ni  Ni14  1  0.240980  0.264018  0.439159  1
  Ni  Ni15  1  0.259020  0.764018  0.939159  1
  Ni  Ni16  1  0.410774  0.190706  0.077240  1
  Ni  Ni17  1  0.437681  0.752547  0.516727  1
  Ni  Ni18  1  0.562319  0.252547  0.483273  1
  Ni  Ni19  1  0.589226  0.690706  0.922760  1
  Ni  Ni20  1  0.740980  0.264018  0.060841  1
  Ni  Ni21  1  0.759020  0.764018  0.560841  1
  Ni  Ni22  1  0.910774  0.190706  0.422760  1
  Ni  Ni23  1  0.937681  0.752547  0.983273  1
  P  P24  1  0.070504  0.194820  0.409017  1
  P  P25  1  0.095217  0.764511  0.910193  1
  P  P26  1  0.234334  0.245866  0.061639  1
  P  P27  1  0.265666  0.745866  0.561639  1
  P  P28  1  0.404783  0.264511  0.410193  1
  P  P29  1  0.429496  0.694820  0.909017  1
  P  P30  1  0.570504  0.194820  0.090983  1
  P  P31  1  0.595217  0.764511  0.589807  1
  P  P32  1  0.734334  0.245866  0.438361  1
  P  P33  1  0.765666  0.745866  0.938361  1
  P  P34  1  0.904783  0.264511  0.089807  1
  P  P35  1  0.929496  0.694820  0.590983  1
  O  O36  1  0.003839  0.166015  0.502008  1
  O  O37  1  0.037967  0.850702  0.031540  1
  O  O38  1  0.096703  0.942600  0.760623  1
  O  O39  1  0.076594  0.515384  0.832088  1
  O  O40  1  0.059194  0.343445  0.249056  1
  O  O41  1  0.099835  0.935106  0.375787  1
  O  O42  1  0.121029  0.343259  0.516993  1
  O  O43  1  0.160598  0.762678  0.007261  1
  O  O44  1  0.161411  0.259147  0.004457  1
  O  O45  1  0.226715  0.616550  0.419948  1
  O  O46  1  0.231668  0.993529  0.592289  1
  O  O47  1  0.258033  0.591624  0.722894  1
  O  O48  1  0.241967  0.091624  0.222894  1
  O  O49  1  0.268332  0.493529  0.092289  1
  O  O50  1  0.273285  0.116550  0.919948  1
  O  O51  1  0.338589  0.759147  0.504457  1
  O  O52  1  0.339402  0.262678  0.507261  1
  O  O53  1  0.378971  0.843259  0.016993  1
  O  O54  1  0.400165  0.435106  0.875787  1
  O  O55  1  0.440806  0.843445  0.749056  1
  O  O56  1  0.423406  0.015384  0.332088  1
  O  O57  1  0.403297  0.442600  0.260624  1
  O  O58  1  0.462033  0.350702  0.531540  1
  O  O59  1  0.496161  0.666015  0.002008  1
  O  O60  1  0.503839  0.166015  0.997992  1
  O  O61  1  0.537967  0.850702  0.468460  1
  O  O62  1  0.596703  0.942600  0.739377  1
  O  O63  1  0.576594  0.515384  0.667912  1
  O  O64  1  0.559194  0.343445  0.250944  1
  O  O65  1  0.599835  0.935106  0.124213  1
  O  O66  1  0.621029  0.343259  0.983007  1
  O  O67  1  0.660598  0.762678  0.492739  1
  O  O68  1  0.661411  0.259147  0.495543  1
  O  O69  1  0.726715  0.616550  0.080052  1
  O  O70  1  0.731668  0.993529  0.907711  1
  O  O71  1  0.758033  0.591624  0.777106  1
  O  O72  1  0.741967  0.091624  0.277106  1
  O  O73  1  0.768332  0.493529  0.407711  1
  O  O74  1  0.773285  0.116550  0.580052  1
  O  O75  1  0.838589  0.759147  0.995543  1
  O  O76  1  0.839402  0.262678  0.992739  1
  O  O77  1  0.878971  0.843259  0.483007  1
  O  O78  1  0.900165  0.435106  0.624213  1
  O  O79  1  0.940806  0.843445  0.750944  1
  O  O80  1  0.923406  0.015384  0.167912  1
  O  O81  1  0.903297  0.442600  0.239377  1
  O  O82  1  0.962033  0.350702  0.968460  1
  O  O83  1  0.996161  0.666015  0.497992  1
