# generated using pymatgen
data_WOF4
_symmetry_space_group_name_H-M   'P 1'
_cell_length_a   6.62488557
_cell_length_b   8.79526774
_cell_length_c   8.79526774
_cell_angle_alpha   98.15433412
_cell_angle_beta   112.12426008
_cell_angle_gamma   67.87573992
_symmetry_Int_Tables_number   1
_chemical_formula_structural   WOF4
_chemical_formula_sum   'W4 O4 F16'
_cell_volume   439.78941138
_cell_formula_units_Z   4
loop_
 _symmetry_equiv_pos_site_id
 _symmetry_equiv_pos_as_xyz
  1  'x, y, z'
loop_
 _atom_site_type_symbol
 _atom_site_label
 _atom_site_symmetry_multiplicity
 _atom_site_fract_x
 _atom_site_fract_y
 _atom_site_fract_z
 _atom_site_occupancy
  W  W0  1  0.935477  0.279228  0.179904  1
  W  W1  1  0.785295  0.179904  0.720773  1
  W  W2  1  0.244427  0.820096  0.279228  1
  W  W3  1  0.034801  0.720773  0.820096  1
  O  O4  1  0.088084  0.050293  0.229420  1
  O  O5  1  0.141336  0.770580  0.050293  1
  O  O6  1  0.861623  0.229420  0.949707  1
  O  O7  1  0.908957  0.949707  0.770580  1
  F  F8  1  0.652840  0.267385  0.170291  1
  F  F9  1  0.217786  0.293720  0.191681  1
  F  F10  1  0.711616  0.126878  0.495247  1
  F  F11  1  0.783632  0.504753  0.126878  1
  F  F12  1  0.007270  0.329805  0.405299  1
  F  F13  1  0.398029  0.594701  0.329805  1
  F  F14  1  0.488495  0.191681  0.706280  1
  F  F15  1  0.079775  0.170291  0.732615  1
  F  F16  1  0.517451  0.829709  0.267385  1
  F  F17  1  0.973895  0.808319  0.293720  1
  F  F18  1  0.662924  0.405299  0.670195  1
  F  F19  1  0.931777  0.670195  0.594701  1
  F  F20  1  0.161506  0.495247  0.873122  1
  F  F21  1  0.343247  0.873122  0.504753  1
  F  F22  1  0.319824  0.706280  0.808319  1
  F  F23  1  0.749933  0.732615  0.829709  1
