# generated using pymatgen
data_Mn2P2H7NO10
_symmetry_space_group_name_H-M   'P 1'
_cell_length_a   6.95910061
_cell_length_b   7.93384204
_cell_length_c   16.12613443
_cell_angle_alpha   90.00000000
_cell_angle_beta   90.00000000
_cell_angle_gamma   90.00000000
_symmetry_Int_Tables_number   1
_chemical_formula_structural   Mn2P2H7NO10
_chemical_formula_sum   'Mn8 P8 H28 N4 O40'
_cell_volume   890.36266491
_cell_formula_units_Z   4
loop_
 _symmetry_equiv_pos_site_id
 _symmetry_equiv_pos_as_xyz
  1  'x, y, z'
loop_
 _atom_site_type_symbol
 _atom_site_label
 _atom_site_symmetry_multiplicity
 _atom_site_fract_x
 _atom_site_fract_y
 _atom_site_fract_z
 _atom_site_occupancy
  Mn  Mn0  1  0.117956  0.246325  0.501056  1
  Mn  Mn1  1  0.138284  0.427758  0.043591  1
  Mn  Mn2  1  0.361716  0.572242  0.543591  1
  Mn  Mn3  1  0.382044  0.753675  0.001056  1
  Mn  Mn4  1  0.617956  0.253675  0.498944  1
  Mn  Mn5  1  0.638284  0.072242  0.956409  1
  Mn  Mn6  1  0.861716  0.927758  0.456409  1
  Mn  Mn7  1  0.882044  0.746325  0.998944  1
  P  P8  1  0.129998  0.101481  0.927290  1
  P  P9  1  0.130166  0.735432  0.158819  1
  P  P10  1  0.369834  0.264568  0.658819  1
  P  P11  1  0.370002  0.898519  0.427290  1
  P  P12  1  0.629998  0.398519  0.072710  1
  P  P13  1  0.630166  0.764568  0.841181  1
  P  P14  1  0.869834  0.235432  0.341181  1
  P  P15  1  0.870002  0.601481  0.572710  1
  H  H16  1  0.026189  0.608347  0.830580  1
  H  H17  1  0.063185  0.220090  0.169847  1
  H  H18  1  0.130686  0.525498  0.744694  1
  H  H19  1  0.160170  0.435031  0.840170  1
  H  H20  1  0.233003  0.129229  0.797090  1
  H  H21  1  0.201771  0.107920  0.107774  1
  H  H22  1  0.269057  0.616714  0.821227  1
  H  H23  1  0.230943  0.383286  0.321227  1
  H  H24  1  0.298229  0.892080  0.607774  1
  H  H25  1  0.266997  0.870771  0.297090  1
  H  H26  1  0.339830  0.564969  0.340170  1
  H  H27  1  0.369314  0.474502  0.244694  1
  H  H28  1  0.436815  0.779910  0.669847  1
  H  H29  1  0.473811  0.391653  0.330580  1
  H  H30  1  0.526189  0.891653  0.169420  1
  H  H31  1  0.563185  0.279910  0.830153  1
  H  H32  1  0.630686  0.974502  0.255306  1
  H  H33  1  0.660170  0.064969  0.159830  1
  H  H34  1  0.733003  0.370771  0.202910  1
  H  H35  1  0.701771  0.392080  0.892226  1
  H  H36  1  0.769057  0.883286  0.178773  1
  H  H37  1  0.730943  0.116714  0.678773  1
  H  H38  1  0.798229  0.607920  0.392226  1
  H  H39  1  0.766997  0.629229  0.702910  1
  H  H40  1  0.839830  0.935031  0.659830  1
  H  H41  1  0.869314  0.025498  0.755306  1
  H  H42  1  0.936815  0.720090  0.330153  1
  H  H43  1  0.973811  0.108347  0.669420  1
  N  N44  1  0.146428  0.546213  0.807376  1
  N  N45  1  0.353572  0.453787  0.307376  1
  N  N46  1  0.646428  0.953787  0.192624  1
  N  N47  1  0.853572  0.046213  0.692624  1
  O  O48  1  0.049545  0.516701  0.536800  1
  O  O49  1  0.054336  0.301684  0.385042  1
  O  O50  1  0.134803  0.215354  0.116550  1
  O  O51  1  0.120092  0.075188  0.829991  1
  O  O52  1  0.117156  0.775740  0.251360  1
  O  O53  1  0.128445  0.296563  0.940906  1
  O  O54  1  0.133389  0.646308  0.985307  1
  O  O55  1  0.145103  0.540467  0.148705  1
  O  O56  1  0.189483  0.179317  0.617933  1
  O  O57  1  0.185149  0.975961  0.463342  1
  O  O58  1  0.314851  0.024039  0.963342  1
  O  O59  1  0.310517  0.820683  0.117933  1
  O  O60  1  0.354897  0.459533  0.648705  1
  O  O61  1  0.366611  0.353692  0.485307  1
  O  O62  1  0.371555  0.703437  0.440906  1
  O  O63  1  0.382844  0.224260  0.751360  1
  O  O64  1  0.379908  0.924812  0.329991  1
  O  O65  1  0.365197  0.784646  0.616550  1
  O  O66  1  0.445664  0.698316  0.885042  1
  O  O67  1  0.450455  0.483299  0.036800  1
  O  O68  1  0.549545  0.983299  0.463200  1
  O  O69  1  0.554336  0.198316  0.614958  1
  O  O70  1  0.634803  0.284646  0.883450  1
  O  O71  1  0.620092  0.424812  0.170009  1
  O  O72  1  0.617156  0.724260  0.748640  1
  O  O73  1  0.628445  0.203437  0.059094  1
  O  O74  1  0.633389  0.853692  0.014693  1
  O  O75  1  0.645103  0.959533  0.851295  1
  O  O76  1  0.689483  0.320683  0.382067  1
  O  O77  1  0.685149  0.524039  0.536658  1
  O  O78  1  0.814851  0.475961  0.036658  1
  O  O79  1  0.810517  0.679317  0.882067  1
  O  O80  1  0.854897  0.040467  0.351295  1
  O  O81  1  0.866611  0.146308  0.514693  1
  O  O82  1  0.871555  0.796563  0.559094  1
  O  O83  1  0.882844  0.275740  0.248640  1
  O  O84  1  0.879908  0.575188  0.670009  1
  O  O85  1  0.865197  0.715354  0.383450  1
  O  O86  1  0.945664  0.801684  0.114958  1
  O  O87  1  0.950455  0.016701  0.963200  1
