# generated using pymatgen
data_Mn2OF3
_symmetry_space_group_name_H-M   'P 1'
_cell_length_a   4.88659541
_cell_length_b   4.88659541
_cell_length_c   15.87682677
_cell_angle_alpha   90.00000000
_cell_angle_beta   90.00000000
_cell_angle_gamma   93.59887310
_symmetry_Int_Tables_number   1
_chemical_formula_structural   Mn2OF3
_chemical_formula_sum   'Mn10 O5 F15'
_cell_volume   378.37216638
_cell_formula_units_Z   5
loop_
 _symmetry_equiv_pos_site_id
 _symmetry_equiv_pos_as_xyz
  1  'x, y, z'
loop_
 _atom_site_type_symbol
 _atom_site_label
 _atom_site_symmetry_multiplicity
 _atom_site_fract_x
 _atom_site_fract_y
 _atom_site_fract_z
 _atom_site_occupancy
  Mn  Mn0  1  0.027613  0.027613  0.399425  1
  Mn  Mn1  1  0.966956  0.966956  0.199637  1
  Mn  Mn2  1  0.966956  0.966956  0.000363  1
  Mn  Mn3  1  0.024300  0.024300  0.600000  1
  Mn  Mn4  1  0.027613  0.027613  0.800575  1
  Mn  Mn5  1  0.493242  0.493242  0.499687  1
  Mn  Mn6  1  0.497110  0.497110  0.100000  1
  Mn  Mn7  1  0.497630  0.497630  0.299549  1
  Mn  Mn8  1  0.497630  0.497630  0.900451  1
  Mn  Mn9  1  0.493242  0.493242  0.700313  1
  O  O10  1  0.323299  0.323299  0.397817  1
  O  O11  1  0.315226  0.315226  0.600000  1
  O  O12  1  0.323299  0.323299  0.802183  1
  O  O13  1  0.670466  0.670466  0.000006  1
  O  O14  1  0.670466  0.670466  0.199994  1
  F  F15  1  0.198849  0.797112  0.900423  1
  F  F16  1  0.173348  0.783830  0.100000  1
  F  F17  1  0.198849  0.797112  0.299577  1
  F  F18  1  0.207600  0.820054  0.500914  1
  F  F19  1  0.207600  0.820054  0.699086  1
  F  F20  1  0.284899  0.284899  0.004798  1
  F  F21  1  0.284899  0.284899  0.195202  1
  F  F22  1  0.711301  0.711301  0.404033  1
  F  F23  1  0.708146  0.708146  0.600000  1
  F  F24  1  0.711301  0.711301  0.795967  1
  F  F25  1  0.783830  0.173348  0.100000  1
  F  F26  1  0.797112  0.198849  0.299577  1
  F  F27  1  0.820054  0.207600  0.500914  1
  F  F28  1  0.797112  0.198849  0.900423  1
  F  F29  1  0.820054  0.207600  0.699086  1
