# generated using pymatgen
data_Cr2Fe3Te(PO4)6
_symmetry_space_group_name_H-M   'P 1'
_cell_length_a   8.58342042
_cell_length_b   8.58342061
_cell_length_c   8.58342039
_cell_angle_alpha   61.29077961
_cell_angle_beta   61.29078108
_cell_angle_gamma   61.29077759
_symmetry_Int_Tables_number   1
_chemical_formula_structural   Cr2Fe3Te(PO4)6
_chemical_formula_sum   'Cr2 Fe3 Te1 P6 O24'
_cell_volume   460.13860383
_cell_formula_units_Z   1
loop_
 _symmetry_equiv_pos_site_id
 _symmetry_equiv_pos_as_xyz
  1  'x, y, z'
loop_
 _atom_site_type_symbol
 _atom_site_label
 _atom_site_symmetry_multiplicity
 _atom_site_fract_x
 _atom_site_fract_y
 _atom_site_fract_z
 _atom_site_occupancy
  Cr  Cr0  1  0.003064  0.003064  0.003064  1
  Cr  Cr1  1  0.498615  0.498615  0.498615  1
  Fe  Fe2  1  0.147972  0.147972  0.147972  1
  Fe  Fe3  1  0.352496  0.352496  0.352496  1
  Fe  Fe4  1  0.645913  0.645913  0.645913  1
  Te  Te5  1  0.852445  0.852445  0.852445  1
  P  P6  1  0.054581  0.746397  0.441839  1
  P  P7  1  0.441839  0.054581  0.746397  1
  P  P8  1  0.257765  0.542320  0.951176  1
  P  P9  1  0.542320  0.951176  0.257765  1
  P  P10  1  0.951176  0.257765  0.542320  1
  P  P11  1  0.746397  0.441839  0.054581  1
  O  O12  1  0.102893  0.330882  0.497363  1
  O  O13  1  0.330882  0.497363  0.102893  1
  O  O14  1  0.066065  0.904537  0.247102  1
  O  O15  1  0.497363  0.102893  0.330882  1
  O  O16  1  0.025342  0.821649  0.589285  1
  O  O17  1  0.250671  0.591682  0.428357  1
  O  O18  1  0.247102  0.066065  0.904537  1
  O  O19  1  0.428357  0.250671  0.591682  1
  O  O20  1  0.177914  0.394760  0.995183  1
  O  O21  1  0.591682  0.428357  0.250671  1
  O  O22  1  0.101956  0.744742  0.942639  1
  O  O23  1  0.394760  0.995183  0.177914  1
  O  O24  1  0.589285  0.025342  0.821649  1
  O  O25  1  0.904537  0.247102  0.066065  1
  O  O26  1  0.408383  0.559788  0.751655  1
  O  O27  1  0.821649  0.589285  0.025342  1
  O  O28  1  0.559788  0.751655  0.408383  1
  O  O29  1  0.744742  0.942639  0.101956  1
  O  O30  1  0.751655  0.408383  0.559788  1
  O  O31  1  0.995183  0.177914  0.394760  1
  O  O32  1  0.498008  0.891261  0.683299  1
  O  O33  1  0.942639  0.101956  0.744742  1
  O  O34  1  0.683299  0.498008  0.891261  1
  O  O35  1  0.891261  0.683299  0.498008  1
