# generated using pymatgen
data_Li4Mn3Nb3(FeO8)2
_symmetry_space_group_name_H-M   'P 1'
_cell_length_a   6.24970486
_cell_length_b   6.12677341
_cell_length_c   9.81560895
_cell_angle_alpha   89.60806146
_cell_angle_beta   87.83078599
_cell_angle_gamma   119.05330393
_symmetry_Int_Tables_number   1
_chemical_formula_structural   Li4Mn3Nb3(FeO8)2
_chemical_formula_sum   'Li4 Mn3 Nb3 Fe2 O16'
_cell_volume   328.17931060
_cell_formula_units_Z   1
loop_
 _symmetry_equiv_pos_site_id
 _symmetry_equiv_pos_as_xyz
  1  'x, y, z'
loop_
 _atom_site_type_symbol
 _atom_site_label
 _atom_site_symmetry_multiplicity
 _atom_site_fract_x
 _atom_site_fract_y
 _atom_site_fract_z
 _atom_site_occupancy
  Li  Li0  1  0.345997  0.674827  0.903358  1
  Li  Li1  1  -0.000042  -0.000090  0.002264  1
  Li  Li2  1  0.029870  0.013361  0.485840  1
  Li  Li3  1  0.679147  0.342859  0.387383  1
  Mn  Mn4  1  0.171716  0.831251  0.210510  1
  Mn  Mn5  1  0.165475  0.338236  0.209960  1
  Mn  Mn6  1  0.340943  0.171200  0.712138  1
  Nb  Nb7  1  0.656078  0.826075  0.218456  1
  Nb  Nb8  1  0.832275  0.663185  0.715125  1
  Nb  Nb9  1  0.832611  0.168118  0.715191  1
  Fe  Fe10  1  0.297148  0.650664  0.474168  1
  Fe  Fe11  1  0.639841  0.315813  0.004102  1
  O  O12  1  0.148550  0.819993  0.598818  1
  O  O13  1  0.042657  0.541793  0.341066  1
  O  O14  1  0.349131  0.693057  0.106079  1
  O  O15  1  0.986896  0.973400  0.302495  1
  O  O16  1  0.984977  0.991154  0.816813  1
  O  O17  1  0.147195  0.328583  0.595702  1
  O  O18  1  0.500421  0.964034  0.350915  1
  O  O19  1  0.490415  0.532387  0.350968  1
  O  O20  1  0.313785  0.138626  0.090551  1
  O  O21  1  0.696256  0.849491  0.607237  1
  O  O22  1  0.542659  0.496398  0.841787  1
  O  O23  1  0.543775  0.045314  0.840188  1
  O  O24  1  0.701154  0.352607  0.601295  1
  O  O25  1  0.789261  0.649038  0.095941  1
  O  O26  1  0.968594  0.482029  0.831358  1
  O  O27  1  0.803212  0.146894  0.098131  1
