# generated using pymatgen
data_Fe4O5F3
_symmetry_space_group_name_H-M   'P 1'
_cell_length_a   4.72375228
_cell_length_b   9.91615620
_cell_length_c   6.09290165
_cell_angle_alpha   72.15150824
_cell_angle_beta   90.00000000
_cell_angle_gamma   90.00000000
_symmetry_Int_Tables_number   1
_chemical_formula_structural   Fe4O5F3
_chemical_formula_sum   'Fe8 O10 F6'
_cell_volume   271.66421272
_cell_formula_units_Z   2
loop_
 _symmetry_equiv_pos_site_id
 _symmetry_equiv_pos_as_xyz
  1  'x, y, z'
loop_
 _atom_site_type_symbol
 _atom_site_label
 _atom_site_symmetry_multiplicity
 _atom_site_fract_x
 _atom_site_fract_y
 _atom_site_fract_z
 _atom_site_occupancy
  Fe  Fe0  1  0.449100  0.239239  0.634003  1
  Fe  Fe1  1  0.525144  0.758546  0.874364  1
  Fe  Fe2  1  0.505536  0.747894  0.372058  1
  Fe  Fe3  1  0.517489  0.272456  0.112466  1
  Fe  Fe4  1  0.017489  0.977544  0.512534  1
  Fe  Fe5  1  0.025144  0.491454  0.750636  1
  Fe  Fe6  1  0.949100  0.010761  0.990997  1
  Fe  Fe7  1  0.005536  0.502106  0.252942  1
  O  O8  1  0.824513  0.413925  0.044079  1
  O  O9  1  0.803422  0.900905  0.798234  1
  O  O10  1  0.804131  0.902084  0.296834  1
  O  O11  1  0.698672  0.655921  0.171447  1
  O  O12  1  0.672199  0.160259  0.921252  1
  O  O13  1  0.324513  0.836075  0.580921  1
  O  O14  1  0.303422  0.349095  0.826766  1
  O  O15  1  0.304131  0.347916  0.328166  1
  O  O16  1  0.198672  0.594079  0.453553  1
  O  O17  1  0.172199  0.089741  0.703748  1
  F  F18  1  0.797506  0.398667  0.550294  1
  F  F19  1  0.689143  0.153156  0.420583  1
  F  F20  1  0.713145  0.644287  0.677708  1
  F  F21  1  0.297506  0.851333  0.074706  1
  F  F22  1  0.213145  0.605713  0.947292  1
  F  F23  1  0.189143  0.096844  0.204417  1
