# generated using pymatgen
data_Li2V2P2O9
_symmetry_space_group_name_H-M   'P 1'
_cell_length_a   8.45025200
_cell_length_b   5.67306285
_cell_length_c   14.53110142
_cell_angle_alpha   90.00304933
_cell_angle_beta   90.00434303
_cell_angle_gamma   89.99014739
_symmetry_Int_Tables_number   1
_chemical_formula_structural   Li2V2P2O9
_chemical_formula_sum   'Li8 V8 P8 O36'
_cell_volume   696.60370680
_cell_formula_units_Z   4
loop_
 _symmetry_equiv_pos_site_id
 _symmetry_equiv_pos_as_xyz
  1  'x, y, z'
loop_
 _atom_site_type_symbol
 _atom_site_label
 _atom_site_symmetry_multiplicity
 _atom_site_fract_x
 _atom_site_fract_y
 _atom_site_fract_z
 _atom_site_occupancy
  Li  Li0  1  0.021617  0.250000  0.738904  1
  Li  Li1  1  0.019794  0.250000  0.128689  1
  Li  Li2  1  0.480214  0.750012  0.628718  1
  Li  Li3  1  0.478357  0.749995  0.238876  1
  Li  Li4  1  0.521648  0.250006  0.761123  1
  Li  Li5  1  0.519817  0.249987  0.371294  1
  Li  Li6  1  0.980235  0.749993  0.871301  1
  Li  Li7  1  0.978386  0.750002  0.261096  1
  V  V8  1  0.999991  0.000006  0.499993  1
  V  V9  1  0.999994  0.499998  0.499995  1
  V  V10  1  0.206958  0.249960  0.936207  1
  V  V11  1  0.293013  0.750097  0.436217  1
  V  V12  1  0.500001  0.000007  0.000004  1
  V  V13  1  0.500004  0.499997  0.000006  1
  V  V14  1  0.706980  0.249894  0.563787  1
  V  V15  1  0.793042  0.750020  0.063792  1
  P  P16  1  0.171446  0.749989  0.070402  1
  P  P17  1  0.207809  0.250043  0.329985  1
  P  P18  1  0.292190  0.749954  0.829968  1
  P  P19  1  0.328562  0.249893  0.570406  1
  P  P20  1  0.671433  0.750108  0.429595  1
  P  P21  1  0.707831  0.250054  0.170024  1
  P  P22  1  0.792203  0.749954  0.670014  1
  P  P23  1  0.828549  0.249998  0.929604  1
  O  O24  1  0.988213  0.250032  0.983654  1
  O  O25  1  0.065966  0.249889  0.405641  1
  O  O26  1  0.061031  0.750001  0.413169  1
  O  O27  1  0.131198  0.250017  0.237613  1
  O  O28  1  0.148985  0.749979  0.172719  1
  O  O29  1  0.182981  0.530423  0.847885  1
  O  O30  1  0.182954  0.969586  0.847886  1
  O  O31  1  0.237239  0.018991  0.538180  1
  O  O32  1  0.236937  0.480972  0.538187  1
  O  O33  1  0.262952  0.519035  0.038176  1
  O  O34  1  0.262857  0.981016  0.038178  1
  O  O35  1  0.317029  0.030449  0.347889  1
  O  O36  1  0.316989  0.469583  0.347910  1
  O  O37  1  0.351069  0.250071  0.672717  1
  O  O38  1  0.368746  0.749990  0.737617  1
  O  O39  1  0.438939  0.249996  0.913177  1
  O  O40  1  0.434023  0.750040  0.905642  1
  O  O41  1  0.511760  0.749902  0.483646  1
  O  O42  1  0.488228  0.250093  0.516352  1
  O  O43  1  0.565979  0.249965  0.094367  1
  O  O44  1  0.561069  0.750020  0.086826  1
  O  O45  1  0.631244  0.250024  0.262394  1
  O  O46  1  0.648937  0.749928  0.327276  1
  O  O47  1  0.683011  0.530426  0.652090  1
  O  O48  1  0.682973  0.969556  0.652110  1
  O  O49  1  0.737134  0.018983  0.961824  1
  O  O50  1  0.737036  0.480959  0.961820  1
  O  O51  1  0.763047  0.519028  0.461815  1
  O  O52  1  0.762745  0.981005  0.461818  1
  O  O53  1  0.817049  0.030418  0.152115  1
  O  O54  1  0.817013  0.469582  0.152115  1
  O  O55  1  0.851014  0.250014  0.827279  1
  O  O56  1  0.868799  0.749986  0.762385  1
  O  O57  1  0.938969  0.250001  0.586829  1
  O  O58  1  0.934037  0.750116  0.594353  1
  O  O59  1  0.011777  0.749959  0.016347  1
