# generated using pymatgen
data_NaNi4H9(CO5)3
_symmetry_space_group_name_H-M   'P 1'
_cell_length_a   10.44681917
_cell_length_b   10.44682432
_cell_length_c   6.09409719
_cell_angle_alpha   90.00006400
_cell_angle_beta   89.99992355
_cell_angle_gamma   120.00101693
_symmetry_Int_Tables_number   1
_chemical_formula_structural   NaNi4H9(CO5)3
_chemical_formula_sum   'Na2 Ni8 H18 C6 O30'
_cell_volume   575.97538824
_cell_formula_units_Z   2
loop_
 _symmetry_equiv_pos_site_id
 _symmetry_equiv_pos_as_xyz
  1  'x, y, z'
loop_
 _atom_site_type_symbol
 _atom_site_label
 _atom_site_symmetry_multiplicity
 _atom_site_fract_x
 _atom_site_fract_y
 _atom_site_fract_z
 _atom_site_occupancy
  Na  Na0  1  0.000001  0.000001  0.368479  1
  Na  Na1  1  0.000001  0.000000  0.868479  1
  Ni  Ni2  1  0.002451  0.515647  0.253030  1
  Ni  Ni3  1  0.333338  0.666663  0.137424  1
  Ni  Ni4  1  0.513199  0.997545  0.253037  1
  Ni  Ni5  1  0.484348  0.486795  0.253034  1
  Ni  Ni6  1  0.515655  0.513204  0.753030  1
  Ni  Ni7  1  0.486801  0.002453  0.753038  1
  Ni  Ni8  1  0.666670  0.333334  0.637427  1
  Ni  Ni9  1  0.997553  0.484349  0.753035  1
  H  H10  1  0.049453  0.795572  0.166703  1
  H  H11  1  0.201209  0.937878  0.108121  1
  H  H12  1  0.162494  0.716297  0.935055  1
  H  H13  1  0.062128  0.263334  0.108123  1
  H  H14  1  0.204430  0.253882  0.166702  1
  H  H15  1  0.283706  0.446195  0.935054  1
  H  H16  1  0.553810  0.837513  0.935057  1
  H  H17  1  0.263334  0.201208  0.608121  1
  H  H18  1  0.253883  0.049455  0.666703  1
  H  H19  1  0.746118  0.950546  0.166704  1
  H  H20  1  0.736669  0.798793  0.108122  1
  H  H21  1  0.446196  0.162489  0.435058  1
  H  H22  1  0.716298  0.553806  0.435051  1
  H  H23  1  0.795570  0.746117  0.666704  1
  H  H24  1  0.937873  0.736667  0.608123  1
  H  H25  1  0.837512  0.283703  0.435058  1
  H  H26  1  0.798794  0.062126  0.608121  1
  H  H27  1  0.950550  0.204431  0.666704  1
  C  C28  1  0.220781  0.783134  0.508837  1
  C  C29  1  0.216866  0.437642  0.508844  1
  C  C30  1  0.562359  0.779223  0.508832  1
  C  C31  1  0.437642  0.220779  0.008847  1
  C  C32  1  0.783139  0.562359  0.008833  1
  C  C33  1  0.779223  0.216866  0.008831  1
  O  O34  1  0.094583  0.899062  0.121497  1
  O  O35  1  0.085846  0.669988  0.506811  1
  O  O36  1  0.137247  0.618387  0.989876  1
  O  O37  1  0.268605  0.859777  0.685173  1
  O  O38  1  0.300788  0.816496  0.331929  1
  O  O39  1  0.140227  0.408827  0.685177  1
  O  O40  1  0.183505  0.484285  0.331930  1
  O  O41  1  0.100938  0.195523  0.121495  1
  O  O42  1  0.481146  0.862757  0.989875  1
  O  O43  1  0.381619  0.518858  0.989872  1
  O  O44  1  0.584147  0.914153  0.506810  1
  O  O45  1  0.330009  0.415850  0.506816  1
  O  O46  1  0.195523  0.094584  0.621498  1
  O  O47  1  0.515712  0.699211  0.331928  1
  O  O48  1  0.591180  0.731400  0.685173  1
  O  O49  1  0.408820  0.268598  0.185177  1
  O  O50  1  0.484287  0.300785  0.831933  1
  O  O51  1  0.804478  0.905418  0.121496  1
  O  O52  1  0.669999  0.584150  0.006807  1
  O  O53  1  0.415854  0.085845  0.006818  1
  O  O54  1  0.618389  0.481142  0.489874  1
  O  O55  1  0.518860  0.137243  0.489876  1
  O  O56  1  0.899060  0.804478  0.621496  1
  O  O57  1  0.816500  0.515710  0.831931  1
  O  O58  1  0.859785  0.591180  0.185175  1
  O  O59  1  0.699215  0.183504  0.831924  1
  O  O60  1  0.731396  0.140220  0.185168  1
  O  O61  1  0.862760  0.381614  0.489872  1
  O  O62  1  0.914157  0.330010  0.006811  1
  O  O63  1  0.905419  0.100941  0.621495  1
