# generated using pymatgen
data_Na3VO3
_symmetry_space_group_name_H-M   'P 1'
_cell_length_a   6.21801814
_cell_length_b   6.21757937
_cell_length_c   10.71551806
_cell_angle_alpha   90.00000000
_cell_angle_beta   90.00000000
_cell_angle_gamma   88.74544805
_symmetry_Int_Tables_number   1
_chemical_formula_structural   Na3VO3
_chemical_formula_sum   'Na12 V4 O12'
_cell_volume   414.17356714
_cell_formula_units_Z   4
loop_
 _symmetry_equiv_pos_site_id
 _symmetry_equiv_pos_as_xyz
  1  'x, y, z'
loop_
 _atom_site_type_symbol
 _atom_site_label
 _atom_site_symmetry_multiplicity
 _atom_site_fract_x
 _atom_site_fract_y
 _atom_site_fract_z
 _atom_site_occupancy
  Na  Na0  1  0.035228  0.910079  0.777302  1
  Na  Na1  1  0.349700  0.861320  0.007245  1
  Na  Na2  1  0.524920  0.987522  0.283959  1
  Na  Na3  1  0.035228  0.410079  0.722698  1
  Na  Na4  1  0.475080  0.512478  0.783959  1
  Na  Na5  1  0.349700  0.361320  0.492755  1
  Na  Na6  1  0.650300  0.638680  0.507245  1
  Na  Na7  1  0.524920  0.487522  0.216041  1
  Na  Na8  1  0.964772  0.589921  0.277302  1
  Na  Na9  1  0.475080  0.012478  0.716041  1
  Na  Na10  1  0.650300  0.138680  0.992755  1
  Na  Na11  1  0.964772  0.089921  0.222698  1
  V  V12  1  0.171472  0.827170  0.494494  1
  V  V13  1  0.171472  0.327170  0.005506  1
  V  V14  1  0.828528  0.672830  0.994494  1
  V  V15  1  0.828528  0.172830  0.505506  1
  O  O16  1  0.124358  0.618973  0.930848  1
  O  O17  1  0.317530  0.697557  0.359606  1
  O  O18  1  0.272860  0.671946  0.631854  1
  O  O19  1  0.727140  0.828054  0.131854  1
  O  O20  1  0.682470  0.802443  0.859606  1
  O  O21  1  0.875642  0.881027  0.430848  1
  O  O22  1  0.124358  0.118972  0.569152  1
  O  O23  1  0.317530  0.197557  0.140394  1
  O  O24  1  0.272860  0.171946  0.868146  1
  O  O25  1  0.727140  0.328054  0.368146  1
  O  O26  1  0.682470  0.302443  0.640394  1
  O  O27  1  0.875642  0.381027  0.069152  1
