# generated using pymatgen
data_Li3Mn4(BO3)4
_symmetry_space_group_name_H-M   'P 1'
_cell_length_a   5.89123720
_cell_length_b   5.26504384
_cell_length_c   8.25708812
_cell_angle_alpha   90.91192120
_cell_angle_beta   78.09881910
_cell_angle_gamma   89.84421960
_symmetry_Int_Tables_number   1
_chemical_formula_structural   Li3Mn4(BO3)4
_chemical_formula_sum   'Li3 Mn4 B4 O12'
_cell_volume   250.57351887
_cell_formula_units_Z   1
loop_
 _symmetry_equiv_pos_site_id
 _symmetry_equiv_pos_as_xyz
  1  'x, y, z'
loop_
 _atom_site_type_symbol
 _atom_site_label
 _atom_site_symmetry_multiplicity
 _atom_site_fract_x
 _atom_site_fract_y
 _atom_site_fract_z
 _atom_site_occupancy
  Li  Li0  1  0.438478  0.838645  0.225367  1
  Li  Li1  1  0.539116  0.154515  0.770597  1
  Li  Li2  1  0.958395  0.339938  0.720833  1
  Mn  Mn3  1  0.171176  0.810824  0.574628  1
  Mn  Mn4  1  0.309216  0.677338  0.929377  1
  Mn  Mn5  1  0.679064  0.329359  0.078233  1
  Mn  Mn6  1  0.838274  0.178441  0.408872  1
  B  B7  1  0.167963  0.175804  0.087642  1
  B  B8  1  0.344414  0.324656  0.408037  1
  B  B9  1  0.662691  0.674111  0.601689  1
  B  B10  1  0.827635  0.830270  0.903616  1
  O  O11  1  0.181999  0.921602  0.116255  1
  O  O12  1  0.013951  0.681086  0.816752  1
  O  O13  1  0.164295  0.204627  0.517051  1
  O  O14  1  0.349995  0.583185  0.390745  1
  O  O15  1  0.519968  0.173084  0.311801  1
  O  O16  1  0.646062  0.708168  0.008865  1
  O  O17  1  0.345816  0.296850  0.976405  1
  O  O18  1  0.462819  0.811161  0.683320  1
  O  O19  1  0.681385  0.415975  0.618384  1
  O  O20  1  0.846756  0.819448  0.518236  1
  O  O21  1  0.981426  0.316341  0.175014  1
  O  O22  1  0.820257  0.085940  0.875643  1
