# generated using pymatgen
data_LiVSn3(PO4)6
_symmetry_space_group_name_H-M   'P 1'
_cell_length_a   8.90539171
_cell_length_b   8.90539171
_cell_length_c   8.90539200
_cell_angle_alpha   58.57688663
_cell_angle_beta   58.57688553
_cell_angle_gamma   58.57688426
_symmetry_Int_Tables_number   1
_chemical_formula_structural   LiVSn3(PO4)6
_chemical_formula_sum   'Li1 V1 Sn3 P6 O24'
_cell_volume   483.14414439
_cell_formula_units_Z   1
loop_
 _symmetry_equiv_pos_site_id
 _symmetry_equiv_pos_as_xyz
  1  'x, y, z'
loop_
 _atom_site_type_symbol
 _atom_site_label
 _atom_site_symmetry_multiplicity
 _atom_site_fract_x
 _atom_site_fract_y
 _atom_site_fract_z
 _atom_site_occupancy
  Li  Li0  1  0.999673  0.999673  0.999673  1
  V  V1  1  0.854693  0.854693  0.854693  1
  Sn  Sn2  1  0.145887  0.145887  0.145887  1
  Sn  Sn3  1  0.358989  0.358989  0.358989  1
  Sn  Sn4  1  0.641844  0.641844  0.641844  1
  P  P5  1  0.036005  0.751707  0.462580  1
  P  P6  1  0.462580  0.036005  0.751707  1
  P  P7  1  0.751707  0.462580  0.036005  1
  P  P8  1  0.242748  0.546788  0.961124  1
  P  P9  1  0.546788  0.961124  0.242748  1
  P  P10  1  0.961124  0.242748  0.546788  1
  O  O11  1  0.133343  0.263179  0.525368  1
  O  O12  1  0.263179  0.525368  0.133343  1
  O  O13  1  0.059838  0.919733  0.277426  1
  O  O14  1  0.525368  0.133343  0.263179  1
  O  O15  1  0.214485  0.579610  0.455509  1
  O  O16  1  0.990558  0.798848  0.632434  1
  O  O17  1  0.277426  0.059838  0.919733  1
  O  O18  1  0.455509  0.214485  0.579610  1
  O  O19  1  0.579610  0.455509  0.214485  1
  O  O20  1  0.210544  0.381016  0.986350  1
  O  O21  1  0.068177  0.729368  0.931612  1
  O  O22  1  0.381016  0.986350  0.210544  1
  O  O23  1  0.632434  0.990558  0.798848  1
  O  O24  1  0.919733  0.277426  0.059838  1
  O  O25  1  0.798848  0.632434  0.990558  1
  O  O26  1  0.408373  0.573991  0.780484  1
  O  O27  1  0.573991  0.780484  0.408373  1
  O  O28  1  0.729368  0.931612  0.068177  1
  O  O29  1  0.986350  0.210544  0.381016  1
  O  O30  1  0.780484  0.408373  0.573991  1
  O  O31  1  0.486110  0.871077  0.720528  1
  O  O32  1  0.931612  0.068177  0.729368  1
  O  O33  1  0.720528  0.486110  0.871077  1
  O  O34  1  0.871077  0.720528  0.486110  1
