# generated using pymatgen
data_Fe6O5F7
_symmetry_space_group_name_H-M   'P 1'
_cell_length_a   7.35642229
_cell_length_b   5.69441483
_cell_length_c   5.68737912
_cell_angle_alpha   73.28287577
_cell_angle_beta   72.32930938
_cell_angle_gamma   72.35136358
_symmetry_Int_Tables_number   1
_chemical_formula_structural   Fe6O5F7
_chemical_formula_sum   'Fe6 O5 F7'
_cell_volume   211.24155994
_cell_formula_units_Z   1
loop_
 _symmetry_equiv_pos_site_id
 _symmetry_equiv_pos_as_xyz
  1  'x, y, z'
loop_
 _atom_site_type_symbol
 _atom_site_label
 _atom_site_symmetry_multiplicity
 _atom_site_fract_x
 _atom_site_fract_y
 _atom_site_fract_z
 _atom_site_occupancy
  Fe  Fe0  1  0.838640  0.677749  0.694308  1
  Fe  Fe1  1  0.667657  0.357881  0.320973  1
  Fe  Fe2  1  0.309887  0.669876  0.624072  1
  Fe  Fe3  1  0.173346  0.309426  0.332137  1
  Fe  Fe4  1  0.503286  0.971380  0.016837  1
  Fe  Fe5  1  0.007237  0.997301  0.011638  1
  O  O6  1  0.962180  0.227112  0.231667  1
  O  O7  1  0.041085  0.782306  0.785679  1
  O  O8  1  0.368378  0.426614  0.423175  1
  O  O9  1  0.334446  0.968802  0.350088  1
  O  O10  1  0.657785  0.641414  0.045226  1
  F  F11  1  0.654203  0.053638  0.639087  1
  F  F12  1  0.337731  0.357395  0.958506  1
  F  F13  1  0.304162  0.901735  0.890476  1
  F  F14  1  0.624375  0.572133  0.572404  1
  F  F15  1  0.704449  0.100377  0.097498  1
  F  F16  1  0.006126  0.295278  0.699417  1
  F  F17  1  0.005025  0.689584  0.306813  1
