# generated using pymatgen
data_Na2TlPCO7
_symmetry_space_group_name_H-M   'P 1'
_cell_length_a   9.19288693
_cell_length_b   6.96491372
_cell_length_c   5.25850597
_cell_angle_alpha   90.00000000
_cell_angle_beta   89.97887912
_cell_angle_gamma   90.00000000
_symmetry_Int_Tables_number   1
_chemical_formula_structural   Na2TlPCO7
_chemical_formula_sum   'Na4 Tl2 P2 C2 O14'
_cell_volume   336.68983225
_cell_formula_units_Z   2
loop_
 _symmetry_equiv_pos_site_id
 _symmetry_equiv_pos_as_xyz
  1  'x, y, z'
loop_
 _atom_site_type_symbol
 _atom_site_label
 _atom_site_symmetry_multiplicity
 _atom_site_fract_x
 _atom_site_fract_y
 _atom_site_fract_z
 _atom_site_occupancy
  Na  Na0  1  0.216852  0.498438  0.227315  1
  Na  Na1  1  0.216852  0.001562  0.227315  1
  Na  Na2  1  0.783148  0.501562  0.772685  1
  Na  Na3  1  0.783148  0.998438  0.772685  1
  Tl  Tl4  1  0.368210  0.750000  0.766510  1
  Tl  Tl5  1  0.631790  0.250000  0.233490  1
  P  P6  1  0.416112  0.250000  0.715693  1
  P  P7  1  0.583888  0.750000  0.284307  1
  C  C8  1  0.070080  0.750000  0.729889  1
  C  C9  1  0.929920  0.250000  0.270111  1
  O  O10  1  0.066839  0.250000  0.296721  1
  O  O11  1  0.134120  0.750000  0.952451  1
  O  O12  1  0.158434  0.750000  0.528913  1
  O  O13  1  0.336201  0.071547  0.822095  1
  O  O14  1  0.336201  0.428453  0.822095  1
  O  O15  1  0.419976  0.750000  0.206267  1
  O  O16  1  0.411691  0.250000  0.414137  1
  O  O17  1  0.588309  0.750000  0.585863  1
  O  O18  1  0.580024  0.250000  0.793733  1
  O  O19  1  0.663799  0.571547  0.177905  1
  O  O20  1  0.663799  0.928453  0.177905  1
  O  O21  1  0.841566  0.250000  0.471087  1
  O  O22  1  0.865880  0.250000  0.047549  1
  O  O23  1  0.933161  0.750000  0.703279  1
