# generated using pymatgen
data_K4CuP6(H4O11)2
_symmetry_space_group_name_H-M   'P 1'
_cell_length_a   8.61823038
_cell_length_b   14.50087024
_cell_length_c   8.57523662
_cell_angle_alpha   90.00000000
_cell_angle_beta   96.65208011
_cell_angle_gamma   90.00000000
_symmetry_Int_Tables_number   1
_chemical_formula_structural   K4CuP6(H4O11)2
_chemical_formula_sum   'K8 Cu2 P12 H16 O44'
_cell_volume   1064.44853901
_cell_formula_units_Z   2
loop_
 _symmetry_equiv_pos_site_id
 _symmetry_equiv_pos_as_xyz
  1  'x, y, z'
loop_
 _atom_site_type_symbol
 _atom_site_label
 _atom_site_symmetry_multiplicity
 _atom_site_fract_x
 _atom_site_fract_y
 _atom_site_fract_z
 _atom_site_occupancy
  K  K0  1  0.175005  0.096765  0.946404  1
  K  K1  1  0.324995  0.596765  0.053596  1
  K  K2  1  0.824995  0.903235  0.053596  1
  K  K3  1  0.675005  0.403235  0.946404  1
  K  K4  1  0.002695  0.281734  0.332778  1
  K  K5  1  0.497305  0.781734  0.667222  1
  K  K6  1  0.997305  0.718266  0.667222  1
  K  K7  1  0.502695  0.218266  0.332778  1
  Cu  Cu8  1  0.500000  0.500000  0.500000  1
  Cu  Cu9  1  0.000000  0.000000  0.500000  1
  P  P10  1  0.257435  0.334790  0.001542  1
  P  P11  1  0.242565  0.834790  0.998458  1
  P  P12  1  0.742565  0.665210  0.998458  1
  P  P13  1  0.757435  0.165210  0.001542  1
  P  P14  1  0.309359  0.325847  0.671811  1
  P  P15  1  0.190641  0.825847  0.328189  1
  P  P16  1  0.690641  0.674153  0.328189  1
  P  P17  1  0.809359  0.174153  0.671811  1
  P  P18  1  0.066751  0.450055  0.766385  1
  P  P19  1  0.433249  0.950055  0.233615  1
  P  P20  1  0.933249  0.549945  0.233615  1
  P  P21  1  0.566751  0.049945  0.766385  1
  H  H22  1  0.215646  0.070554  0.349117  1
  H  H23  1  0.284354  0.570554  0.650883  1
  H  H24  1  0.784354  0.929446  0.650883  1
  H  H25  1  0.715646  0.429446  0.349117  1
  H  H26  1  0.199893  0.135562  0.499453  1
  H  H27  1  0.300107  0.635562  0.500547  1
  H  H28  1  0.800107  0.864438  0.500547  1
  H  H29  1  0.699893  0.364438  0.499453  1
  H  H30  1  0.363159  0.422708  0.259712  1
  H  H31  1  0.136841  0.922708  0.740288  1
  H  H32  1  0.636841  0.577292  0.740288  1
  H  H33  1  0.863159  0.077292  0.259712  1
  H  H34  1  0.232508  0.483092  0.334383  1
  H  H35  1  0.267492  0.983092  0.665617  1
  H  H36  1  0.767492  0.516908  0.665617  1
  H  H37  1  0.732508  0.016908  0.334383  1
  O  O38  1  0.206430  0.263658  0.111317  1
  O  O39  1  0.293570  0.763658  0.888683  1
  O  O40  1  0.793570  0.736342  0.888683  1
  O  O41  1  0.706430  0.236342  0.111317  1
  O  O42  1  0.387961  0.399334  0.062649  1
  O  O43  1  0.112039  0.899334  0.937351  1
  O  O44  1  0.612039  0.600666  0.937351  1
  O  O45  1  0.887961  0.100666  0.062649  1
  O  O46  1  0.295666  0.279742  0.844833  1
  O  O47  1  0.204334  0.779742  0.155167  1
  O  O48  1  0.704334  0.720258  0.155167  1
  O  O49  1  0.795666  0.220258  0.844833  1
  O  O50  1  0.445080  0.391354  0.690266  1
  O  O51  1  0.054920  0.891354  0.309734  1
  O  O52  1  0.554920  0.608646  0.309734  1
  O  O53  1  0.945080  0.108646  0.690266  1
  O  O54  1  0.296616  0.250583  0.552193  1
  O  O55  1  0.203384  0.750583  0.447807  1
  O  O56  1  0.703384  0.749417  0.447807  1
  O  O57  1  0.796616  0.249417  0.552193  1
  O  O58  1  0.892721  0.446213  0.729086  1
  O  O59  1  0.607279  0.946213  0.270914  1
  O  O60  1  0.107279  0.553787  0.270914  1
  O  O61  1  0.392721  0.053787  0.729086  1
  O  O62  1  0.146635  0.542712  0.771001  1
  O  O63  1  0.353365  0.042712  0.228999  1
  O  O64  1  0.853365  0.457288  0.228999  1
  O  O65  1  0.646635  0.957288  0.771001  1
  O  O66  1  0.142846  0.382354  0.644936  1
  O  O67  1  0.357154  0.882354  0.355064  1
  O  O68  1  0.857154  0.617646  0.355064  1
  O  O69  1  0.642846  0.117646  0.644936  1
  O  O70  1  0.105903  0.396221  0.932874  1
  O  O71  1  0.394097  0.896221  0.067126  1
  O  O72  1  0.894097  0.603779  0.067126  1
  O  O73  1  0.605903  0.103779  0.932874  1
  O  O74  1  0.139823  0.096836  0.417889  1
  O  O75  1  0.360177  0.596836  0.582111  1
  O  O76  1  0.860177  0.903164  0.582111  1
  O  O77  1  0.639823  0.403164  0.417889  1
  O  O78  1  0.325792  0.440461  0.361697  1
  O  O79  1  0.174208  0.940461  0.638303  1
  O  O80  1  0.674208  0.559539  0.638303  1
  O  O81  1  0.825792  0.059539  0.361697  1
