# generated using pymatgen
data_Na3CuBSO7
_symmetry_space_group_name_H-M   'P 1'
_cell_length_a   8.76833918
_cell_length_b   7.22585921
_cell_length_c   5.12741458
_cell_angle_alpha   90.00000000
_cell_angle_beta   88.90034954
_cell_angle_gamma   90.00000000
_symmetry_Int_Tables_number   1
_chemical_formula_structural   Na3CuBSO7
_chemical_formula_sum   'Na6 Cu2 B2 S2 O14'
_cell_volume   324.80692412
_cell_formula_units_Z   2
loop_
 _symmetry_equiv_pos_site_id
 _symmetry_equiv_pos_as_xyz
  1  'x, y, z'
loop_
 _atom_site_type_symbol
 _atom_site_label
 _atom_site_symmetry_multiplicity
 _atom_site_fract_x
 _atom_site_fract_y
 _atom_site_fract_z
 _atom_site_occupancy
  Na  Na0  1  0.072033  0.250000  0.757723  1
  Na  Na1  1  0.249570  0.994782  0.249214  1
  Na  Na2  1  0.249570  0.505218  0.249214  1
  Na  Na3  1  0.750430  0.494782  0.750786  1
  Na  Na4  1  0.750430  0.005218  0.750786  1
  Na  Na5  1  0.927967  0.750000  0.242277  1
  Cu  Cu6  1  0.338336  0.750000  0.776988  1
  Cu  Cu7  1  0.661664  0.250000  0.223012  1
  B  B8  1  0.064708  0.750000  0.735291  1
  B  B9  1  0.935292  0.250000  0.264709  1
  S  S10  1  0.416182  0.250000  0.707013  1
  S  S11  1  0.583818  0.750000  0.292987  1
  O  O12  1  0.088677  0.250000  0.284345  1
  O  O13  1  0.141411  0.750000  0.971924  1
  O  O14  1  0.167478  0.750000  0.523857  1
  O  O15  1  0.324245  0.083767  0.775368  1
  O  O16  1  0.324245  0.416233  0.775368  1
  O  O17  1  0.451704  0.250000  0.416543  1
  O  O18  1  0.434938  0.750000  0.155480  1
  O  O19  1  0.565062  0.250000  0.844520  1
  O  O20  1  0.548296  0.750000  0.583457  1
  O  O21  1  0.675755  0.583767  0.224632  1
  O  O22  1  0.675755  0.916233  0.224632  1
  O  O23  1  0.832522  0.250000  0.476143  1
  O  O24  1  0.858589  0.250000  0.028076  1
  O  O25  1  0.911323  0.750000  0.715655  1
