# generated using pymatgen
data_Li8FeCo9O20
_symmetry_space_group_name_H-M   'P 1'
_cell_length_a   7.49289756
_cell_length_b   4.90599046
_cell_length_c   9.72205160
_cell_angle_alpha   85.18794815
_cell_angle_beta   80.48028725
_cell_angle_gamma   70.79734030
_symmetry_Int_Tables_number   1
_chemical_formula_structural   Li8FeCo9O20
_chemical_formula_sum   'Li8 Fe1 Co9 O20'
_cell_volume   332.68433627
_cell_formula_units_Z   1
loop_
 _symmetry_equiv_pos_site_id
 _symmetry_equiv_pos_as_xyz
  1  'x, y, z'
loop_
 _atom_site_type_symbol
 _atom_site_label
 _atom_site_symmetry_multiplicity
 _atom_site_fract_x
 _atom_site_fract_y
 _atom_site_fract_z
 _atom_site_occupancy
  Li  Li0  1  0.088319  0.702843  0.504151  1
  Li  Li1  1  0.288384  0.107140  0.503494  1
  Li  Li2  1  0.211681  0.397157  0.995849  1
  Li  Li3  1  0.513686  0.493647  0.501207  1
  Li  Li4  1  0.592193  0.207274  0.997777  1
  Li  Li5  1  0.707807  0.892726  0.502223  1
  Li  Li6  1  0.786314  0.606353  0.998793  1
  Li  Li7  1  0.011616  0.992860  0.996506  1
  Fe  Fe8  1  0.150000  0.050000  0.250000  1
  Co  Co9  1  0.050047  0.350649  0.748038  1
  Co  Co10  1  0.351397  0.453682  0.250056  1
  Co  Co11  1  0.249953  0.749351  0.751962  1
  Co  Co12  1  0.449008  0.147154  0.751094  1
  Co  Co13  1  0.550688  0.851155  0.248008  1
  Co  Co14  1  0.749312  0.248845  0.251992  1
  Co  Co15  1  0.650000  0.550000  0.750000  1
  Co  Co16  1  0.948603  0.646318  0.249944  1
  Co  Co17  1  0.850992  0.952846  0.748906  1
  O  O18  1  0.074846  0.018797  0.645164  1
  O  O19  1  0.134468  0.377096  0.356254  1
  O  O20  1  0.165532  0.722904  0.143746  1
  O  O21  1  0.027769  0.676743  0.858164  1
  O  O22  1  0.225154  0.081203  0.854836  1
  O  O23  1  0.369642  0.137643  0.143432  1
  O  O24  1  0.272231  0.423257  0.641836  1
  O  O25  1  0.325909  0.783278  0.359523  1
  O  O26  1  0.529053  0.177483  0.358799  1
  O  O27  1  0.431501  0.466049  0.854548  1
  O  O28  1  0.575907  0.519756  0.144720  1
  O  O29  1  0.471611  0.821647  0.642652  1
  O  O30  1  0.667071  0.221517  0.647312  1
  O  O31  1  0.724093  0.580244  0.355280  1
  O  O32  1  0.770947  0.922517  0.141201  1
  O  O33  1  0.632929  0.878483  0.852688  1
  O  O34  1  0.974091  0.316722  0.140477  1
  O  O35  1  0.828389  0.278353  0.857348  1
  O  O36  1  0.868499  0.633951  0.645452  1
  O  O37  1  0.930358  0.962357  0.356568  1
