# generated using pymatgen
data_Na6V2P(CO4)4
_symmetry_space_group_name_H-M   'P 1'
_cell_length_a   9.96705020
_cell_length_b   9.96704965
_cell_length_c   9.96704974
_cell_angle_alpha   59.99999934
_cell_angle_beta   60.00000178
_cell_angle_gamma   60.00000150
_symmetry_Int_Tables_number   1
_chemical_formula_structural   Na6V2P(CO4)4
_chemical_formula_sum   'Na12 V4 P2 C8 O32'
_cell_volume   700.14002156
_cell_formula_units_Z   2
loop_
 _symmetry_equiv_pos_site_id
 _symmetry_equiv_pos_as_xyz
  1  'x, y, z'
loop_
 _atom_site_type_symbol
 _atom_site_label
 _atom_site_symmetry_multiplicity
 _atom_site_fract_x
 _atom_site_fract_y
 _atom_site_fract_z
 _atom_site_occupancy
  Na  Na0  1  0.169252  0.080748  0.080748  1
  Na  Na1  1  0.169252  0.669252  0.080748  1
  Na  Na2  1  0.169252  0.080748  0.669252  1
  Na  Na3  1  0.419252  0.330748  0.330748  1
  Na  Na4  1  0.580748  0.080748  0.669252  1
  Na  Na5  1  0.580748  0.669252  0.080748  1
  Na  Na6  1  0.419252  0.330748  0.919252  1
  Na  Na7  1  0.419252  0.919252  0.330748  1
  Na  Na8  1  0.580748  0.669252  0.669252  1
  Na  Na9  1  0.830748  0.330748  0.919252  1
  Na  Na10  1  0.830748  0.919252  0.330748  1
  Na  Na11  1  0.830748  0.919252  0.919252  1
  V  V12  1  0.000000  0.000000  0.500000  1
  V  V13  1  0.000000  0.500000  0.000000  1
  V  V14  1  0.000000  0.500000  0.500000  1
  V  V15  1  0.500000  0.500000  0.500000  1
  P  P16  1  0.625000  0.125000  0.125000  1
  P  P17  1  0.375000  0.875000  0.875000  1
  C  C18  1  0.146832  0.284390  0.284390  1
  C  C19  1  0.215610  0.353168  0.715610  1
  C  C20  1  0.215610  0.715610  0.353168  1
  C  C21  1  0.215610  0.715610  0.715610  1
  C  C22  1  0.784390  0.284390  0.284390  1
  C  C23  1  0.784390  0.646832  0.284390  1
  C  C24  1  0.784390  0.284390  0.646832  1
  C  C25  1  0.853168  0.715610  0.715610  1
  O  O26  1  0.147901  0.307857  0.143542  1
  O  O27  1  0.147901  0.143542  0.400701  1
  O  O28  1  0.147901  0.400701  0.307857  1
  O  O29  1  0.099299  0.692143  0.352099  1
  O  O30  1  0.560992  0.060992  0.060992  1
  O  O31  1  0.192143  0.352099  0.599299  1
  O  O32  1  0.099299  0.352099  0.856458  1
  O  O33  1  0.560992  0.317026  0.060992  1
  O  O34  1  0.560992  0.060992  0.317026  1
  O  O35  1  0.192143  0.856458  0.352099  1
  O  O36  1  0.356458  0.599299  0.352099  1
  O  O37  1  0.817026  0.060992  0.060992  1
  O  O38  1  0.099299  0.856458  0.692143  1
  O  O39  1  0.356458  0.352099  0.692143  1
  O  O40  1  0.192143  0.599299  0.856458  1
  O  O41  1  0.643542  0.307857  0.400701  1
  O  O42  1  0.356458  0.692143  0.599299  1
  O  O43  1  0.807857  0.400701  0.143542  1
  O  O44  1  0.643542  0.647901  0.307857  1
  O  O45  1  0.900701  0.143542  0.307857  1
  O  O46  1  0.182974  0.939008  0.939008  1
  O  O47  1  0.643542  0.400701  0.647901  1
  O  O48  1  0.807857  0.143542  0.647901  1
  O  O49  1  0.439008  0.939008  0.682974  1
  O  O50  1  0.439008  0.682974  0.939008  1
  O  O51  1  0.900701  0.647901  0.143542  1
  O  O52  1  0.807857  0.647901  0.400701  1
  O  O53  1  0.439008  0.939008  0.939008  1
  O  O54  1  0.900701  0.307857  0.647901  1
  O  O55  1  0.852099  0.599299  0.692143  1
  O  O56  1  0.852099  0.856458  0.599299  1
  O  O57  1  0.852099  0.692143  0.856458  1
