# generated using pymatgen
data_Li6V3P8O29
_symmetry_space_group_name_H-M   'P 1'
_cell_length_a   9.80183910
_cell_length_b   9.79866526
_cell_length_c   13.90678469
_cell_angle_alpha   90.08461809
_cell_angle_beta   90.08491838
_cell_angle_gamma   60.11184386
_symmetry_Int_Tables_number   1
_chemical_formula_structural   Li6V3P8O29
_chemical_formula_sum   'Li12 V6 P16 O58'
_cell_volume   1158.02936371
_cell_formula_units_Z   2
loop_
 _symmetry_equiv_pos_site_id
 _symmetry_equiv_pos_as_xyz
  1  'x, y, z'
loop_
 _atom_site_type_symbol
 _atom_site_label
 _atom_site_symmetry_multiplicity
 _atom_site_fract_x
 _atom_site_fract_y
 _atom_site_fract_z
 _atom_site_occupancy
  Li  Li0  1  0.919696  0.777131  0.060071  1
  Li  Li1  1  0.900619  0.333707  0.561347  1
  Li  Li2  1  0.659732  0.674426  0.885128  1
  Li  Li3  1  0.776023  0.313422  0.061185  1
  Li  Li4  1  0.311459  0.913013  0.058080  1
  Li  Li5  1  0.661339  0.233949  0.440902  1
  Li  Li6  1  0.333770  0.763193  0.563733  1
  Li  Li7  1  0.681341  0.092032  0.936433  1
  Li  Li8  1  0.097890  0.664760  0.440691  1
  Li  Li9  1  0.232868  0.101093  0.441054  1
  Li  Li10  1  0.095797  0.225320  0.939464  1
  Li  Li11  1  0.963232  0.987061  0.508258  1
  V  V12  1  0.565349  0.432968  0.248995  1
  V  V13  1  0.432443  0.564078  0.754388  1
  V  V14  1  0.568941  0.995936  0.743106  1
  V  V15  1  0.433468  0.000880  0.251566  1
  V  V16  1  0.001236  0.568252  0.249988  1
  V  V17  1  0.000005  0.437944  0.748568  1
  P  P18  1  0.910063  0.772333  0.842921  1
  P  P19  1  0.775751  0.915762  0.341535  1
  P  P20  1  0.911800  0.316900  0.342082  1
  P  P21  1  0.668102  0.666703  0.128005  1
  P  P22  1  0.662351  0.664784  0.627741  1
  P  P23  1  0.772436  0.321466  0.842291  1
  P  P24  1  0.687062  0.228542  0.657185  1
  P  P25  1  0.320278  0.908929  0.842678  1
  P  P26  1  0.679426  0.086479  0.155423  1
  P  P27  1  0.316035  0.770101  0.344944  1
  P  P28  1  0.231126  0.684414  0.158617  1
  P  P29  1  0.331532  0.334382  0.373095  1
  P  P30  1  0.337536  0.325306  0.870929  1
  P  P31  1  0.086089  0.689563  0.657218  1
  P  P32  1  0.226876  0.087486  0.657538  1
  P  P33  1  0.088975  0.232262  0.158283  1
  O  O34  1  0.007466  0.778966  0.567120  1
  O  O35  1  0.918138  0.745008  0.340710  1
  O  O36  1  0.752059  -0.000134  0.063592  1
  O  O37  1  0.745974  0.922030  0.840438  1
  O  O38  1  0.883039  0.629762  0.821537  1
  O  O39  1  0.815094  0.673619  0.167079  1
  O  O40  1  0.907546  0.473904  0.329743  1
  O  O41  1  0.999230  0.245166  0.067753  1
  O  O42  1  0.922558  0.334913  0.844639  1
  O  O43  1  0.668933  0.809833  0.672553  1
  O  O44  1  0.618887  0.917769  0.334617  1
  O  O45  1  0.811414  0.510696  0.667824  1
  O  O46  1  0.668567  0.666899  0.019737  1
  O  O47  1  0.657326  0.664742  0.520960  1
  O  O48  1  0.674559  0.512250  0.165971  1
  O  O49  1  0.486137  0.889431  0.826898  1
  O  O50  1  0.515553  0.813547  0.168039  1
  O  O51  1  0.743829  0.338112  0.339081  1
  O  O52  1  0.793739  0.213150  0.750715  1
  O  O53  1  0.781521  0.220331  0.568425  1
  O  O54  1  0.753964  0.244738  0.931206  1
  O  O55  1  0.629991  0.489459  0.826531  1
  O  O56  1  0.509810  0.673614  0.671324  1
  O  O57  1  0.665256  0.250909  0.157588  1
  O  O58  1  0.473211  0.619098  0.330599  1
  O  O59  1  0.336815  0.917655  0.340555  1
  O  O60  1  0.796412  0.989467  0.241689  1
  O  O61  1  0.792976  0.008185  0.422073  1
  O  O62  1  0.226281  0.997584  0.568976  1
  O  O63  1  0.662678  0.086967  0.660556  1
  O  O64  1  0.533582  0.385524  0.666750  1
  O  O65  1  0.338536  0.744598  0.842249  1
  O  O66  1  0.488211  0.320874  0.332874  1
  O  O67  1  0.381838  0.522267  0.176933  1
  O  O68  1  0.241212  0.769583  0.073866  1
  O  O69  1  0.228023  0.774551  0.435258  1
  O  O70  1  0.205115  0.787966  0.255264  1
  O  O71  1  0.255024  0.661768  0.661790  1
  O  O72  1  0.483835  0.175902  0.827058  1
  O  O73  1  0.518408  0.100684  0.177380  1
  O  O74  1  0.342709  0.469733  0.824708  1
  O  O75  1  0.342942  0.320677  0.977451  1
  O  O76  1  0.328328  0.335049  0.480616  1
  O  O77  1  0.189693  0.491186  0.331738  1
  O  O78  1  0.379047  0.094772  0.667936  1
  O  O79  1  0.317417  0.191539  0.331543  1
  O  O80  1  0.084879  0.662847  0.158599  1
  O  O81  1  0.999089  0.792099  0.750969  1
  O  O82  1  0.998331  0.753031  0.932989  1
  O  O83  1  0.085212  0.532583  0.667495  1
  O  O84  1  0.183182  0.331711  0.829707  1
  O  O85  1  0.101358  0.380521  0.177679  1
  O  O86  1  0.253191  0.082835  0.158368  1
  O  O87  1  0.242337  0.004036  0.931144  1
  O  O88  1  0.209475  0.001147  0.751588  1
  O  O89  1  0.080060  0.252983  0.658148  1
  O  O90  1  0.997607  0.226836  0.431222  1
  O  O91  1  0.998142  0.210100  0.248543  1
