# generated using pymatgen
data_Li2Cr3Si3O10
_symmetry_space_group_name_H-M   'P 1'
_cell_length_a   4.88346977
_cell_length_b   8.56702736
_cell_length_c   10.36357761
_cell_angle_alpha   93.10993901
_cell_angle_beta   89.96500637
_cell_angle_gamma   73.46762564
_symmetry_Int_Tables_number   1
_chemical_formula_structural   Li2Cr3Si3O10
_chemical_formula_sum   'Li4 Cr6 Si6 O20'
_cell_volume   414.98409368
_cell_formula_units_Z   2
loop_
 _symmetry_equiv_pos_site_id
 _symmetry_equiv_pos_as_xyz
  1  'x, y, z'
loop_
 _atom_site_type_symbol
 _atom_site_label
 _atom_site_symmetry_multiplicity
 _atom_site_fract_x
 _atom_site_fract_y
 _atom_site_fract_z
 _atom_site_occupancy
  Li  Li0  1  0.270528  0.891107  0.026594  1
  Li  Li1  1  0.844718  0.888143  0.524391  1
  Li  Li2  1  0.158667  0.108199  0.471973  1
  Li  Li3  1  0.740935  0.107362  0.972457  1
  Cr  Cr4  1  0.379471  0.693095  0.287229  1
  Cr  Cr5  1  0.929143  0.693367  0.786932  1
  Cr  Cr6  1  0.500863  0.500305  0.999010  1
  Cr  Cr7  1  0.000590  0.499528  0.499132  1
  Cr  Cr8  1  0.071969  0.306797  0.210874  1
  Cr  Cr9  1  0.622958  0.307061  0.710908  1
  Si  Si10  1  0.850600  0.694502  0.100099  1
  Si  Si11  1  0.456716  0.695021  0.599585  1
  Si  Si12  1  0.544362  0.304736  0.398213  1
  Si  Si13  1  0.152545  0.305758  0.898074  1
  Si  Si14  1  0.820213  0.999263  0.249277  1
  Si  Si15  1  0.179440  0.000620  0.749481  1
  O  O16  1  0.045103  0.902041  0.354588  1
  O  O17  1  0.664106  0.881869  0.158856  1
  O  O18  1  0.050256  0.903993  0.855019  1
  O  O19  1  0.451827  0.882497  0.658929  1
  O  O20  1  0.188512  0.692370  0.101449  1
  O  O21  1  0.607199  0.680308  0.456231  1
  O  O22  1  0.121621  0.691206  0.600611  1
  O  O23  1  0.717065  0.678879  0.956481  1
  O  O24  1  0.762917  0.562896  0.186135  1
  O  O25  1  0.676303  0.563411  0.685128  1
  O  O26  1  0.325584  0.436651  0.312514  1
  O  O27  1  0.240174  0.437423  0.812066  1
  O  O28  1  0.284956  0.322290  0.041818  1
  O  O29  1  0.880182  0.307234  0.396851  1
  O  O30  1  0.395105  0.320534  0.541833  1
  O  O31  1  0.814224  0.308511  0.896918  1
  O  O32  1  0.546382  0.117310  0.339156  1
  O  O33  1  0.951519  0.095568  0.144298  1
  O  O34  1  0.336330  0.117875  0.839674  1
  O  O35  1  0.954289  0.097456  0.644127  1
