# generated using pymatgen
data_LiBiB2O5
_symmetry_space_group_name_H-M   'P 1'
_cell_length_a   7.32450086
_cell_length_b   10.03066850
_cell_length_c   6.45870092
_cell_angle_alpha   90.00000000
_cell_angle_beta   69.24545278
_cell_angle_gamma   90.00000000
_symmetry_Int_Tables_number   1
_chemical_formula_structural   LiBiB2O5
_chemical_formula_sum   'Li4 Bi4 B8 O20'
_cell_volume   443.72554899
_cell_formula_units_Z   4
loop_
 _symmetry_equiv_pos_site_id
 _symmetry_equiv_pos_as_xyz
  1  'x, y, z'
loop_
 _atom_site_type_symbol
 _atom_site_label
 _atom_site_symmetry_multiplicity
 _atom_site_fract_x
 _atom_site_fract_y
 _atom_site_fract_z
 _atom_site_occupancy
  Li  Li0  1  0.223362  0.803793  0.283870  1
  Li  Li1  1  0.223362  0.696207  0.783870  1
  Li  Li2  1  0.776638  0.303793  0.216130  1
  Li  Li3  1  0.776638  0.196207  0.716130  1
  Bi  Bi4  1  0.232410  0.451095  0.269024  1
  Bi  Bi5  1  0.232410  0.048905  0.769024  1
  Bi  Bi6  1  0.767590  0.951095  0.230976  1
  Bi  Bi7  1  0.767590  0.548905  0.730976  1
  B  B8  1  0.110848  0.144619  0.272738  1
  B  B9  1  0.110848  0.355381  0.772738  1
  B  B10  1  0.459008  0.092612  0.237397  1
  B  B11  1  0.540992  0.592612  0.262603  1
  B  B12  1  0.459008  0.407388  0.737397  1
  B  B13  1  0.540992  0.907388  0.762603  1
  B  B14  1  0.889152  0.644619  0.227262  1
  B  B15  1  0.889152  0.855381  0.727262  1
  O  O16  1  0.043290  0.710177  0.094501  1
  O  O17  1  0.098632  0.041684  0.130765  1
  O  O18  1  0.043290  0.789823  0.594501  1
  O  O19  1  0.098632  0.458316  0.630765  1
  O  O20  1  0.302058  0.179805  0.265975  1
  O  O21  1  0.361330  0.645555  0.288425  1
  O  O22  1  0.302058  0.320195  0.765975  1
  O  O23  1  0.439259  0.956248  0.259366  1
  O  O24  1  0.361330  0.854445  0.788425  1
  O  O25  1  0.560741  0.456248  0.240634  1
  O  O26  1  0.439259  0.543752  0.759366  1
  O  O27  1  0.638670  0.145555  0.211575  1
  O  O28  1  0.560741  0.043752  0.740634  1
  O  O29  1  0.697942  0.679805  0.234025  1
  O  O30  1  0.638670  0.354445  0.711575  1
  O  O31  1  0.697942  0.820195  0.734025  1
  O  O32  1  0.901368  0.541684  0.369235  1
  O  O33  1  0.956710  0.210177  0.405499  1
  O  O34  1  0.901368  0.958316  0.869235  1
  O  O35  1  0.956710  0.289823  0.905499  1
