# generated using pymatgen
data_Li3Sb2(PO4)3
_symmetry_space_group_name_H-M   'P 1'
_cell_length_a   5.14272736
_cell_length_b   5.14272736
_cell_length_c   20.09506593
_cell_angle_alpha   89.89607580
_cell_angle_beta   89.89607580
_cell_angle_gamma   67.07674036
_symmetry_Int_Tables_number   1
_chemical_formula_structural   Li3Sb2(PO4)3
_chemical_formula_sum   'Li6 Sb4 P6 O24'
_cell_volume   489.49464030
_cell_formula_units_Z   2
loop_
 _symmetry_equiv_pos_site_id
 _symmetry_equiv_pos_as_xyz
  1  'x, y, z'
loop_
 _atom_site_type_symbol
 _atom_site_label
 _atom_site_symmetry_multiplicity
 _atom_site_fract_x
 _atom_site_fract_y
 _atom_site_fract_z
 _atom_site_occupancy
  Li  Li0  1  0.000693  0.000693  0.829225  1
  Li  Li1  1  0.339402  0.339402  0.573807  1
  Li  Li2  1  0.337070  0.337070  0.906362  1
  Li  Li3  1  0.662930  0.662930  0.426972  1
  Li  Li4  1  0.999307  0.999307  0.504109  1
  Li  Li5  1  0.660598  0.660598  0.759527  1
  Sb  Sb6  1  0.000000  0.000000  0.166667  1
  Sb  Sb7  1  0.991234  0.991234  0.991708  1
  Sb  Sb8  1  0.008766  0.008766  0.341626  1
  Sb  Sb9  1  0.000000  0.000000  0.666667  1
  P  P10  1  0.353876  0.353876  0.424650  1
  P  P11  1  0.354229  0.354229  0.751346  1
  P  P12  1  0.355954  0.355954  0.076893  1
  P  P13  1  0.644046  0.644046  0.256440  1
  P  P14  1  0.645771  0.645771  0.581987  1
  P  P15  1  0.646124  0.646124  0.908684  1
  O  O16  1  0.235797  0.689596  0.080631  1
  O  O17  1  0.249963  0.687812  0.422619  1
  O  O18  1  0.248393  0.688577  0.751928  1
  O  O19  1  0.311423  0.751607  0.581406  1
  O  O20  1  0.310404  0.764203  0.252702  1
  O  O21  1  0.312188  0.750037  0.910714  1
  O  O22  1  0.750171  0.750171  0.195158  1
  O  O23  1  0.752995  0.752995  0.521782  1
  O  O24  1  0.748781  0.748781  0.847267  1
  O  O25  1  0.275326  0.275326  0.008427  1
  O  O26  1  0.746529  0.746529  0.973035  1
  O  O27  1  0.735686  0.735686  0.649741  1
  O  O28  1  0.724674  0.724674  0.324906  1
  O  O29  1  0.249829  0.249829  0.138175  1
  O  O30  1  0.253471  0.253471  0.360299  1
  O  O31  1  0.251219  0.251219  0.486066  1
  O  O32  1  0.264314  0.264314  0.683592  1
  O  O33  1  0.247005  0.247005  0.811551  1
  O  O34  1  0.764203  0.310404  0.252702  1
  O  O35  1  0.750037  0.312188  0.910714  1
  O  O36  1  0.751607  0.311423  0.581406  1
  O  O37  1  0.689596  0.235797  0.080631  1
  O  O38  1  0.688577  0.248393  0.751928  1
  O  O39  1  0.687812  0.249963  0.422619  1
