# generated using pymatgen
data_Li5SbS
_symmetry_space_group_name_H-M   'P 1'
_cell_length_a   6.15884177
_cell_length_b   9.74956263
_cell_length_c   8.18470760
_cell_angle_alpha   90.00000000
_cell_angle_beta   90.06185280
_cell_angle_gamma   90.00000000
_symmetry_Int_Tables_number   1
_chemical_formula_structural   Li5SbS
_chemical_formula_sum   'Li20 Sb4 S4'
_cell_volume   491.45877744
_cell_formula_units_Z   4
loop_
 _symmetry_equiv_pos_site_id
 _symmetry_equiv_pos_as_xyz
  1  'x, y, z'
loop_
 _atom_site_type_symbol
 _atom_site_label
 _atom_site_symmetry_multiplicity
 _atom_site_fract_x
 _atom_site_fract_y
 _atom_site_fract_z
 _atom_site_occupancy
  Li  Li0  1  0.999571  0.828354  0.424862  1
  Li  Li1  1  0.246465  0.513574  0.798677  1
  Li  Li2  1  0.256569  0.272598  0.300585  1
  Li  Li3  1  0.263338  0.559695  0.412003  1
  Li  Li4  1  0.236736  0.224984  0.910067  1
  Li  Li5  1  0.265466  0.058750  0.587126  1
  Li  Li6  1  0.235466  0.726039  0.088032  1
  Li  Li7  1  0.252927  0.773051  0.701687  1
  Li  Li8  1  0.243036  0.014050  0.198623  1
  Li  Li9  1  0.501018  0.954563  0.924944  1
  Li  Li10  1  0.498982  0.454563  0.075056  1
  Li  Li11  1  0.756964  0.514050  0.801377  1
  Li  Li12  1  0.747073  0.273051  0.298313  1
  Li  Li13  1  0.764534  0.226039  0.911968  1
  Li  Li14  1  0.734534  0.558750  0.412874  1
  Li  Li15  1  0.763264  0.724984  0.089933  1
  Li  Li16  1  0.736662  0.059695  0.587997  1
  Li  Li17  1  0.743431  0.772598  0.699415  1
  Li  Li18  1  0.753535  0.013574  0.201323  1
  Li  Li19  1  0.000429  0.328354  0.575138  1
  Sb  Sb20  1  0.999063  0.969674  0.883060  1
  Sb  Sb21  1  0.501148  0.316505  0.616679  1
  Sb  Sb22  1  0.498852  0.816505  0.383321  1
  Sb  Sb23  1  0.000937  0.469674  0.116940  1
  S  S24  1  0.999616  0.606027  0.607218  1
  S  S25  1  0.499854  0.180635  0.106897  1
  S  S26  1  0.500146  0.680635  0.893103  1
  S  S27  1  0.000384  0.106027  0.392782  1
