# generated using pymatgen
data_MnP2O7
_symmetry_space_group_name_H-M   'P 1'
_cell_length_a   7.98338855
_cell_length_b   7.98658228
_cell_length_c   7.98557937
_cell_angle_alpha   90.00000000
_cell_angle_beta   90.00000000
_cell_angle_gamma   90.00000000
_symmetry_Int_Tables_number   1
_chemical_formula_structural   MnP2O7
_chemical_formula_sum   'Mn4 P8 O28'
_cell_volume   509.16045700
_cell_formula_units_Z   4
loop_
 _symmetry_equiv_pos_site_id
 _symmetry_equiv_pos_as_xyz
  1  'x, y, z'
loop_
 _atom_site_type_symbol
 _atom_site_label
 _atom_site_symmetry_multiplicity
 _atom_site_fract_x
 _atom_site_fract_y
 _atom_site_fract_z
 _atom_site_occupancy
  Mn  Mn0  1  0.000000  0.000000  0.000000  1
  Mn  Mn1  1  0.000000  0.500000  0.500000  1
  Mn  Mn2  1  0.500000  0.000000  0.500000  1
  Mn  Mn3  1  0.500000  0.500000  0.000000  1
  P  P4  1  0.116272  0.883714  0.383722  1
  P  P5  1  0.116272  0.616286  0.883722  1
  P  P6  1  0.383728  0.116286  0.883722  1
  P  P7  1  0.383728  0.383714  0.383722  1
  P  P8  1  0.616272  0.616286  0.616278  1
  P  P9  1  0.616272  0.883714  0.116278  1
  P  P10  1  0.883728  0.116286  0.616278  1
  P  P11  1  0.883728  0.383714  0.116278  1
  O  O12  1  0.000000  0.000000  0.500000  1
  O  O13  1  0.000000  0.500000  0.000000  1
  O  O14  1  0.056704  0.703216  0.389179  1
  O  O15  1  0.056704  0.796784  0.889179  1
  O  O16  1  0.110810  0.943252  0.203236  1
  O  O17  1  0.110810  0.556748  0.703236  1
  O  O18  1  0.203212  0.110871  0.943257  1
  O  O19  1  0.203212  0.389129  0.443257  1
  O  O20  1  0.296788  0.610871  0.943257  1
  O  O21  1  0.296788  0.889129  0.443257  1
  O  O22  1  0.389190  0.056748  0.703236  1
  O  O23  1  0.389190  0.443252  0.203236  1
  O  O24  1  0.443296  0.296784  0.889179  1
  O  O25  1  0.443296  0.203216  0.389179  1
  O  O26  1  0.500000  0.500000  0.500000  1
  O  O27  1  0.500000  0.000000  0.000000  1
  O  O28  1  0.556704  0.703216  0.110821  1
  O  O29  1  0.556704  0.796784  0.610821  1
  O  O30  1  0.610810  0.556748  0.796764  1
  O  O31  1  0.610810  0.943252  0.296764  1
  O  O32  1  0.703212  0.110871  0.556743  1
  O  O33  1  0.703212  0.389129  0.056743  1
  O  O34  1  0.796788  0.610871  0.556743  1
  O  O35  1  0.796788  0.889129  0.056743  1
  O  O36  1  0.889190  0.056748  0.796764  1
  O  O37  1  0.889190  0.443252  0.296764  1
  O  O38  1  0.943296  0.203216  0.110821  1
  O  O39  1  0.943296  0.296784  0.610821  1
