# generated using pymatgen
data_Li3Ti2NiO6
_symmetry_space_group_name_H-M   'P 1'
_cell_length_a   15.49592167
_cell_length_b   9.94052118
_cell_length_c   9.94052107
_cell_angle_alpha   16.95705978
_cell_angle_beta   16.56029308
_cell_angle_gamma   16.56029565
_symmetry_Int_Tables_number   1
_chemical_formula_structural   Li3Ti2NiO6
_chemical_formula_sum   'Li3 Ti2 Ni1 O6'
_cell_volume   110.13823541
_cell_formula_units_Z   1
loop_
 _symmetry_equiv_pos_site_id
 _symmetry_equiv_pos_as_xyz
  1  'x, y, z'
loop_
 _atom_site_type_symbol
 _atom_site_label
 _atom_site_symmetry_multiplicity
 _atom_site_fract_x
 _atom_site_fract_y
 _atom_site_fract_z
 _atom_site_occupancy
  Li  Li0  1  0.166667  0.500000  0.500000  1
  Li  Li1  1  0.502655  0.500080  0.500080  1
  Li  Li2  1  0.830678  0.499920  0.499920  1
  Ti  Ti3  1  0.019125  0.986614  0.986614  1
  Ti  Ti4  1  0.314208  0.013387  0.013387  1
  Ni  Ni5  1  0.666667  0.000000  0.000000  1
  O  O6  1  0.235305  0.264345  0.264345  1
  O  O7  1  0.586049  0.254644  0.254644  1
  O  O8  1  0.098028  0.735655  0.735655  1
  O  O9  1  0.934232  0.240615  0.240615  1
  O  O10  1  0.399102  0.759385  0.759385  1
  O  O11  1  0.747284  0.745356  0.745356  1
