# generated using pymatgen
data_Ba3Y2Br12
_symmetry_space_group_name_H-M   'P 1'
_cell_length_a   9.62577376
_cell_length_b   9.62577376
_cell_length_c   16.18193287
_cell_angle_alpha   78.29104405
_cell_angle_beta   101.70895595
_cell_angle_gamma   68.88590906
_symmetry_Int_Tables_number   1
_chemical_formula_structural   Ba3Y2Br12
_chemical_formula_sum   'Ba6 Y4 Br24'
_cell_volume   1305.54660948
_cell_formula_units_Z   2
loop_
 _symmetry_equiv_pos_site_id
 _symmetry_equiv_pos_as_xyz
  1  'x, y, z'
loop_
 _atom_site_type_symbol
 _atom_site_label
 _atom_site_symmetry_multiplicity
 _atom_site_fract_x
 _atom_site_fract_y
 _atom_site_fract_z
 _atom_site_occupancy
  Ba  Ba0  1  0.479294  0.794214  0.926664  1
  Ba  Ba1  1  0.887786  0.887786  0.750000  1
  Ba  Ba2  1  0.205786  0.520706  0.426664  1
  Ba  Ba3  1  0.794214  0.479294  0.573336  1
  Ba  Ba4  1  0.112214  0.112214  0.250000  1
  Ba  Ba5  1  0.520706  0.205786  0.073336  1
  Y  Y6  1  0.265721  0.967920  0.596923  1
  Y  Y7  1  0.032080  0.734279  0.096923  1
  Y  Y8  1  0.967920  0.265721  0.903077  1
  Y  Y9  1  0.734279  0.032080  0.403077  1
  Br  Br10  1  0.100310  0.941144  0.926761  1
  Br  Br11  1  0.248532  0.757669  0.745229  1
  Br  Br12  1  0.515512  0.943132  0.731083  1
  Br  Br13  1  0.058856  0.899690  0.426761  1
  Br  Br14  1  0.242331  0.751468  0.245229  1
  Br  Br15  1  0.713379  0.867446  0.559910  1
  Br  Br16  1  0.307658  0.176412  0.895607  1
  Br  Br17  1  0.673141  0.430692  0.934158  1
  Br  Br18  1  0.056868  0.484488  0.231083  1
  Br  Br19  1  0.430692  0.673141  0.565842  1
  Br  Br20  1  0.176412  0.307658  0.604393  1
  Br  Br21  1  0.867446  0.713379  0.940090  1
  Br  Br22  1  0.132554  0.286621  0.059910  1
  Br  Br23  1  0.823588  0.692342  0.395607  1
  Br  Br24  1  0.569308  0.326859  0.434158  1
  Br  Br25  1  0.943132  0.515512  0.768917  1
  Br  Br26  1  0.326859  0.569308  0.065842  1
  Br  Br27  1  0.692342  0.823588  0.104393  1
  Br  Br28  1  0.286621  0.132554  0.440090  1
  Br  Br29  1  0.757669  0.248532  0.754771  1
  Br  Br30  1  0.941144  0.100310  0.573239  1
  Br  Br31  1  0.484488  0.056868  0.268917  1
  Br  Br32  1  0.751468  0.242331  0.254771  1
  Br  Br33  1  0.899690  0.058856  0.073239  1
