# generated using pymatgen
data_Li6MnV3(PO4)6
_symmetry_space_group_name_H-M   'P 1'
_cell_length_a   8.59515661
_cell_length_b   8.66849025
_cell_length_c   6.37594482
_cell_angle_alpha   73.98929252
_cell_angle_beta   105.95748225
_cell_angle_gamma   85.65262042
_symmetry_Int_Tables_number   1
_chemical_formula_structural   Li6MnV3(PO4)6
_chemical_formula_sum   'Li6 Mn1 V3 P6 O24'
_cell_volume   433.08020040
_cell_formula_units_Z   1
loop_
 _symmetry_equiv_pos_site_id
 _symmetry_equiv_pos_as_xyz
  1  'x, y, z'
loop_
 _atom_site_type_symbol
 _atom_site_label
 _atom_site_symmetry_multiplicity
 _atom_site_fract_x
 _atom_site_fract_y
 _atom_site_fract_z
 _atom_site_occupancy
  Li  Li0  1  0.004953  0.004337  0.748431  1
  Li  Li1  1  0.284720  0.290175  0.248547  1
  Li  Li2  1  0.500627  0.500434  0.499150  1
  Li  Li3  1  0.502521  0.499834  0.001763  1
  Li  Li4  1  0.712259  0.709892  0.752664  1
  Li  Li5  1  0.991766  0.997231  0.252442  1
  Mn  Mn6  1  0.940210  0.373812  0.365927  1
  V  V7  1  0.058127  0.621423  0.641195  1
  V  V8  1  0.378780  0.943262  0.137178  1
  V  V9  1  0.618975  0.056549  0.860821  1
  P  P10  1  0.285810  0.287355  0.749384  1
  P  P11  1  0.140409  0.663990  0.136707  1
  P  P12  1  0.338767  0.861707  0.635308  1
  P  P13  1  0.660540  0.132407  0.365906  1
  P  P14  1  0.861638  0.339653  0.864011  1
  P  P15  1  0.714997  0.714091  0.251158  1
  O  O16  1  0.013766  0.658257  0.911628  1
  O  O17  1  0.054847  0.615161  0.327902  1
  O  O18  1  0.257483  0.172091  0.965478  1
  O  O19  1  0.172206  0.262595  0.527056  1
  O  O20  1  0.155055  0.841598  0.606599  1
  O  O21  1  0.264439  0.461805  0.768709  1
  O  O22  1  0.161082  0.848384  0.093815  1
  O  O23  1  0.297958  0.544886  0.205443  1
  O  O24  1  0.397507  0.951249  0.822475  1
  O  O25  1  0.338789  0.986013  0.405681  1
  O  O26  1  0.463047  0.262256  0.733221  1
  O  O27  1  0.456956  0.704302  0.705421  1
  O  O28  1  0.547899  0.293517  0.296774  1
  O  O29  1  0.537770  0.737764  0.267689  1
  O  O30  1  0.653519  0.010591  0.593473  1
  O  O31  1  0.597453  0.047499  0.174929  1
  O  O32  1  0.703001  0.457455  0.795990  1
  O  O33  1  0.839463  0.158246  0.887527  1
  O  O34  1  0.737519  0.539228  0.228896  1
  O  O35  1  0.846205  0.142019  0.397622  1
  O  O36  1  0.827872  0.740957  0.469236  1
  O  O37  1  0.742294  0.830501  0.034549  1
  O  O38  1  0.951223  0.401162  0.674472  1
  O  O39  1  0.987547  0.336312  0.094824  1
