# generated using pymatgen
data_Mn6O5F7
_symmetry_space_group_name_H-M   'P 1'
_cell_length_a   4.74537457
_cell_length_b   5.75731484
_cell_length_c   15.59549682
_cell_angle_alpha   91.17309180
_cell_angle_beta   91.38950196
_cell_angle_gamma   85.49082346
_symmetry_Int_Tables_number   1
_chemical_formula_structural   Mn6O5F7
_chemical_formula_sum   'Mn12 O10 F14'
_cell_volume   424.56115873
_cell_formula_units_Z   2
loop_
 _symmetry_equiv_pos_site_id
 _symmetry_equiv_pos_as_xyz
  1  'x, y, z'
loop_
 _atom_site_type_symbol
 _atom_site_label
 _atom_site_symmetry_multiplicity
 _atom_site_fract_x
 _atom_site_fract_y
 _atom_site_fract_z
 _atom_site_occupancy
  Mn  Mn0  1  0.989323  0.151720  0.415829  1
  Mn  Mn1  1  0.033682  0.838411  0.243176  1
  Mn  Mn2  1  0.018998  0.172220  0.087518  1
  Mn  Mn3  1  0.026653  0.164301  0.750144  1
  Mn  Mn4  1  0.026705  0.831436  0.578086  1
  Mn  Mn5  1  0.001201  0.841020  0.908458  1
  Mn  Mn6  1  0.511582  0.357319  0.593540  1
  Mn  Mn7  1  0.491973  0.343176  0.919991  1
  Mn  Mn8  1  0.495034  0.356325  0.254069  1
  Mn  Mn9  1  0.493632  0.636837  0.088066  1
  Mn  Mn10  1  0.481243  0.651512  0.411441  1
  Mn  Mn11  1  0.468946  0.636321  0.750761  1
  O  O12  1  0.234559  0.883154  0.141092  1
  O  O13  1  0.214988  0.880998  0.467245  1
  O  O14  1  0.227558  0.885668  0.801692  1
  O  O15  1  0.289548  0.391778  0.145202  1
  O  O16  1  0.273916  0.616111  0.305198  1
  O  O17  1  0.282807  0.609074  0.641460  1
  O  O18  1  0.271682  0.384484  0.812623  1
  O  O19  1  0.716902  0.385771  0.027204  1
  O  O20  1  0.709990  0.382348  0.362682  1
  O  O21  1  0.734202  0.396754  0.697589  1
  F  F22  1  0.230504  0.117885  0.309267  1
  F  F23  1  0.240656  0.110758  0.634898  1
  F  F24  1  0.227913  0.110503  0.971619  1
  F  F25  1  0.261082  0.378530  0.485245  1
  F  F26  1  0.251081  0.609166  0.975672  1
  F  F27  1  0.753999  0.612175  0.193914  1
  F  F28  1  0.719966  0.625893  0.518576  1
  F  F29  1  0.706404  0.620520  0.858779  1
  F  F30  1  0.767116  0.113424  0.199249  1
  F  F31  1  0.760814  0.123375  0.529422  1
  F  F32  1  0.780625  0.882719  0.347550  1
  F  F33  1  0.758735  0.878250  0.026469  1
  F  F34  1  0.759149  0.120145  0.859619  1
  F  F35  1  0.786833  0.899918  0.686655  1
