# generated using pymatgen
data_FeOF
_symmetry_space_group_name_H-M   'P 1'
_cell_length_a   6.71518220
_cell_length_b   14.25830537
_cell_length_c   3.09897945
_cell_angle_alpha   90.00000000
_cell_angle_beta   90.00000000
_cell_angle_gamma   135.05653753
_symmetry_Int_Tables_number   1
_chemical_formula_structural   FeOF
_chemical_formula_sum   'Fe6 O6 F6'
_cell_volume   209.60442196
_cell_formula_units_Z   6
loop_
 _symmetry_equiv_pos_site_id
 _symmetry_equiv_pos_as_xyz
  1  'x, y, z'
loop_
 _atom_site_type_symbol
 _atom_site_label
 _atom_site_symmetry_multiplicity
 _atom_site_fract_x
 _atom_site_fract_y
 _atom_site_fract_z
 _atom_site_occupancy
  Fe  Fe0  1  0.995095  0.011198  0.000000  1
  Fe  Fe1  1  0.039043  0.344261  0.000000  1
  Fe  Fe2  1  0.038810  0.678110  0.000000  1
  Fe  Fe3  1  0.461878  0.318064  0.500000  1
  Fe  Fe4  1  0.461694  0.651806  0.500000  1
  Fe  Fe5  1  0.491888  0.984929  0.500000  1
  O  O6  1  0.193233  0.332216  0.500000  1
  O  O7  1  0.197362  0.668730  0.500000  1
  O  O8  1  0.315076  0.204077  0.000000  1
  O  O9  1  0.305532  0.537378  0.000000  1
  O  O10  1  0.297182  0.870875  0.000000  1
  O  O11  1  0.805366  0.000437  0.500000  1
  F  F12  1  0.196753  0.000660  0.500000  1
  F  F13  1  0.697265  0.465356  0.000000  1
  F  F14  1  0.706009  0.798560  0.000000  1
  F  F15  1  0.689437  0.131852  0.000000  1
  F  F16  1  0.806597  0.335443  0.500000  1
  F  F17  1  0.801779  0.666050  0.500000  1
