# generated using pymatgen
data_YTl5Co2(NO2)12
_symmetry_space_group_name_H-M   'P 1'
_cell_length_a   10.60085691
_cell_length_b   10.60085691
_cell_length_c   10.60085691
_cell_angle_alpha   90.00000000
_cell_angle_beta   90.00000000
_cell_angle_gamma   90.00000000
_symmetry_Int_Tables_number   1
_chemical_formula_structural   YTl5Co2(NO2)12
_chemical_formula_sum   'Y2 Tl10 Co4 N24 O48'
_cell_volume   1191.30487057
_cell_formula_units_Z   2
loop_
 _symmetry_equiv_pos_site_id
 _symmetry_equiv_pos_as_xyz
  1  'x, y, z'
loop_
 _atom_site_type_symbol
 _atom_site_label
 _atom_site_symmetry_multiplicity
 _atom_site_fract_x
 _atom_site_fract_y
 _atom_site_fract_z
 _atom_site_occupancy
  Y  Y0  1  0.250000  0.250000  0.250000  1
  Y  Y1  1  0.750000  0.750000  0.750000  1
  Tl  Tl2  1  0.500000  0.500000  0.000000  1
  Tl  Tl3  1  0.500000  0.000000  0.500000  1
  Tl  Tl4  1  0.250000  0.750000  0.750000  1
  Tl  Tl5  1  0.750000  0.250000  0.250000  1
  Tl  Tl6  1  0.750000  0.250000  0.750000  1
  Tl  Tl7  1  0.000000  0.000000  0.000000  1
  Tl  Tl8  1  0.750000  0.750000  0.250000  1
  Tl  Tl9  1  0.250000  0.750000  0.250000  1
  Tl  Tl10  1  0.000000  0.500000  0.500000  1
  Tl  Tl11  1  0.250000  0.250000  0.750000  1
  Co  Co12  1  0.000000  0.000000  0.500000  1
  Co  Co13  1  0.500000  0.000000  0.000000  1
  Co  Co14  1  0.000000  0.500000  0.000000  1
  Co  Co15  1  0.500000  0.500000  0.500000  1
  N  N16  1  0.502286  0.509118  0.684495  1
  N  N17  1  0.815505  0.997714  0.509118  1
  N  N18  1  0.684495  0.997714  0.990882  1
  N  N19  1  0.509118  0.815505  0.997714  1
  N  N20  1  0.997714  0.990882  0.684495  1
  N  N21  1  0.009118  0.315505  0.002286  1
  N  N22  1  0.315505  0.002286  0.009118  1
  N  N23  1  0.815505  0.502286  0.990882  1
  N  N24  1  0.509118  0.684495  0.502286  1
  N  N25  1  0.002286  0.490882  0.184495  1
  N  N26  1  0.990882  0.815505  0.502286  1
  N  N27  1  0.497714  0.490882  0.315505  1
  N  N28  1  0.502286  0.990882  0.815505  1
  N  N29  1  0.009118  0.184495  0.497714  1
  N  N30  1  0.684495  0.502286  0.509118  1
  N  N31  1  0.490882  0.184495  0.002286  1
  N  N32  1  0.490882  0.315505  0.497714  1
  N  N33  1  0.184495  0.002286  0.490882  1
  N  N34  1  0.990882  0.684495  0.997714  1
  N  N35  1  0.997714  0.509118  0.815505  1
  N  N36  1  0.497714  0.009118  0.184495  1
  N  N37  1  0.002286  0.009118  0.315505  1
  N  N38  1  0.184495  0.497714  0.009118  1
  N  N39  1  0.315505  0.497714  0.490882  1
  O  O40  1  0.504824  0.243283  0.900551  1
  O  O41  1  0.004824  0.743283  0.099449  1
  O  O42  1  0.400551  0.004824  0.756717  1
  O  O43  1  0.256717  0.599449  0.504824  1
  O  O44  1  0.900551  0.504824  0.243283  1
  O  O45  1  0.246572  0.101852  0.464018  1
  O  O46  1  0.398148  0.464018  0.253428  1
  O  O47  1  0.964018  0.753428  0.601852  1
  O  O48  1  0.599449  0.995176  0.243283  1
  O  O49  1  0.035982  0.246572  0.398148  1
  O  O50  1  0.099449  0.004824  0.743283  1
  O  O51  1  0.398148  0.035982  0.246572  1
  O  O52  1  0.756717  0.400551  0.004824  1
  O  O53  1  0.898148  0.964018  0.746572  1
  O  O54  1  0.035982  0.253428  0.101852  1
  O  O55  1  0.900551  0.995176  0.256717  1
  O  O56  1  0.898148  0.535982  0.753428  1
  O  O57  1  0.243283  0.900551  0.504824  1
  O  O58  1  0.099449  0.495176  0.756717  1
  O  O59  1  0.101852  0.035982  0.253428  1
  O  O60  1  0.535982  0.753428  0.898148  1
  O  O61  1  0.243283  0.599449  0.995176  1
  O  O62  1  0.246572  0.398148  0.035982  1
  O  O63  1  0.756717  0.099449  0.495176  1
  O  O64  1  0.004824  0.756717  0.400551  1
  O  O65  1  0.253428  0.398148  0.464018  1
  O  O66  1  0.400551  0.495176  0.743283  1
  O  O67  1  0.995176  0.243283  0.599449  1
  O  O68  1  0.599449  0.504824  0.256717  1
  O  O69  1  0.535982  0.746572  0.601852  1
  O  O70  1  0.753428  0.601852  0.964018  1
  O  O71  1  0.601852  0.964018  0.753428  1
  O  O72  1  0.256717  0.900551  0.995176  1
  O  O73  1  0.746572  0.898148  0.964018  1
  O  O74  1  0.743283  0.099449  0.004824  1
  O  O75  1  0.504824  0.256717  0.599449  1
  O  O76  1  0.753428  0.898148  0.535982  1
  O  O77  1  0.743283  0.400551  0.495176  1
  O  O78  1  0.995176  0.256717  0.900551  1
  O  O79  1  0.495176  0.756717  0.099449  1
  O  O80  1  0.101852  0.464018  0.246572  1
  O  O81  1  0.253428  0.101852  0.035982  1
  O  O82  1  0.464018  0.253428  0.398148  1
  O  O83  1  0.601852  0.535982  0.746572  1
  O  O84  1  0.495176  0.743283  0.400551  1
  O  O85  1  0.964018  0.746572  0.898148  1
  O  O86  1  0.746572  0.601852  0.535982  1
  O  O87  1  0.464018  0.246572  0.101852  1
