# generated using pymatgen
data_Li34(Sb3S2)3
_symmetry_space_group_name_H-M   'P 1'
_cell_length_a   9.90315371
_cell_length_b   11.70385752
_cell_length_c   9.89433851
_cell_angle_alpha   65.00010273
_cell_angle_beta   89.94741952
_cell_angle_gamma   114.98373780
_symmetry_Int_Tables_number   1
_chemical_formula_structural   Li34(Sb3S2)3
_chemical_formula_sum   'Li34 Sb9 S6'
_cell_volume   919.36082418
_cell_formula_units_Z   1
loop_
 _symmetry_equiv_pos_site_id
 _symmetry_equiv_pos_as_xyz
  1  'x, y, z'
loop_
 _atom_site_type_symbol
 _atom_site_label
 _atom_site_symmetry_multiplicity
 _atom_site_fract_x
 _atom_site_fract_y
 _atom_site_fract_z
 _atom_site_occupancy
  Li  Li0  1  0.717646  0.999965  0.149381  1
  Li  Li1  1  0.054791  0.252497  0.090183  1
  Li  Li2  1  0.148654  0.002299  0.279843  1
  Li  Li3  1  0.487102  0.153168  0.202370  1
  Li  Li4  1  0.656028  0.480513  0.066561  1
  Li  Li5  1  0.928427  0.479652  0.175417  1
  Li  Li6  1  0.796152  0.154680  0.334120  1
  Li  Li7  1  0.657945  0.750125  0.056119  1
  Li  Li8  1  0.074392  0.148785  0.424146  1
  Li  Li9  1  0.249234  0.501178  0.249469  1
  Li  Li10  1  0.426560  0.852360  0.074531  1
  Li  Li11  1  0.092740  0.747608  0.195980  1
  Li  Li12  1  0.358888  0.155357  0.509252  1
  Li  Li13  1  0.550272  0.478623  0.345109  1
  Li  Li14  1  0.823123  0.477520  0.452930  1
  Li  Li15  1  0.805079  0.747962  0.346025  1
  Li  Li16  1  0.665423  0.152019  0.643701  1
  Li  Li17  1  0.850331  0.998273  0.717364  1
  Li  Li18  1  0.333001  0.843849  0.356813  1
  Li  Li19  1  0.198857  0.252592  0.654500  1
  Li  Li20  1  0.174761  0.521127  0.548267  1
  Li  Li21  1  0.283340  0.000492  0.849077  1
  Li  Li22  1  0.452088  0.520050  0.656636  1
  Li  Li23  1  0.644963  0.846033  0.487755  1
  Li  Li24  1  0.908108  0.251541  0.801005  1
  Li  Li25  1  0.748425  0.499683  0.748730  1
  Li  Li26  1  0.927672  0.854966  0.573131  1
  Li  Li27  1  0.572202  0.144813  0.927978  1
  Li  Li28  1  0.341785  0.248973  0.943349  1
  Li  Li29  1  0.201881  0.846392  0.664442  1
  Li  Li30  1  0.070455  0.522264  0.824118  1
  Li  Li31  1  0.346344  0.521343  0.932050  1
  Li  Li32  1  0.511064  0.844887  0.797819  1
  Li  Li33  1  0.946642  0.752059  0.907380  1
  Sb  Sb34  1  0.785599  0.315171  0.030425  1
  Sb  Sb35  1  0.347866  0.316329  0.212550  1
  Sb  Sb36  1  0.499086  0.997994  0.499876  1
  Sb  Sb37  1  0.968148  0.315296  0.470500  1
  Sb  Sb38  1  0.471481  0.683448  0.348079  1
  Sb  Sb39  1  0.528437  0.313331  0.654337  1
  Sb  Sb40  1  0.030155  0.684762  0.528741  1
  Sb  Sb41  1  0.654525  0.685920  0.785814  1
  Sb  Sb42  1  0.213253  0.685843  0.968082  1
  S  S43  1  0.314180  0.999036  0.099306  1
  S  S44  1  0.901077  0.001449  0.314696  1
  S  S45  1  0.817349  0.634111  0.183215  1
  S  S46  1  0.100727  0.002258  0.682293  1
  S  S47  1  0.684614  0.999136  0.901533  1
  S  S48  1  0.183420  0.366795  0.815963  1
