# generated using pymatgen
data_Li4MnSb2WO12
_symmetry_space_group_name_H-M   'P 1'
_cell_length_a   5.41178116
_cell_length_b   10.83301618
_cell_length_c   9.53721060
_cell_angle_alpha   28.36472229
_cell_angle_beta   51.47464743
_cell_angle_gamma   56.74587471
_symmetry_Int_Tables_number   1
_chemical_formula_structural   Li4MnSb2WO12
_chemical_formula_sum   'Li4 Mn1 Sb2 W1 O12'
_cell_volume   207.81235216
_cell_formula_units_Z   1
loop_
 _symmetry_equiv_pos_site_id
 _symmetry_equiv_pos_as_xyz
  1  'x, y, z'
loop_
 _atom_site_type_symbol
 _atom_site_label
 _atom_site_symmetry_multiplicity
 _atom_site_fract_x
 _atom_site_fract_y
 _atom_site_fract_z
 _atom_site_occupancy
  Li  Li0  1  0.254776  0.998819  0.306475  1
  Li  Li1  1  0.314059  0.495823  0.269668  1
  Li  Li2  1  0.767433  0.004332  0.738474  1
  Li  Li3  1  0.777397  0.496770  0.811919  1
  Mn  Mn4  1  0.006145  0.500061  0.998808  1
  Sb  Sb5  1  0.497249  0.000959  0.502726  1
  Sb  Sb6  1  0.506270  0.501401  0.499658  1
  W  W7  1  0.995548  0.000564  0.003278  1
  O  O8  1  0.368556  0.302153  0.126617  1
  O  O9  1  0.230073  0.126425  0.631193  1
  O  O10  1  0.119286  0.313742  0.743483  1
  O  O11  1  0.872079  0.202909  0.227329  1
  O  O12  1  0.373931  0.817538  0.114697  1
  O  O13  1  0.724528  0.378929  0.371238  1
  O  O14  1  0.236616  0.629312  0.620051  1
  O  O15  1  0.621859  0.172593  0.888693  1
  O  O16  1  0.127870  0.814356  0.735979  1
  O  O17  1  0.892419  0.688759  0.241057  1
  O  O18  1  0.751785  0.873884  0.368782  1
  O  O19  1  0.633320  0.680669  0.871074  1
