# generated using pymatgen
data_Mn3CoCu2(PO4)6
_symmetry_space_group_name_H-M   'P 1'
_cell_length_a   8.49044733
_cell_length_b   8.47257933
_cell_length_c   8.47257903
_cell_angle_alpha   59.99999933
_cell_angle_beta   60.06959306
_cell_angle_gamma   60.06959147
_symmetry_Int_Tables_number   1
_chemical_formula_structural   Mn3CoCu2(PO4)6
_chemical_formula_sum   'Mn3 Co1 Cu2 P6 O24'
_cell_volume   431.42258106
_cell_formula_units_Z   1
loop_
 _symmetry_equiv_pos_site_id
 _symmetry_equiv_pos_as_xyz
  1  'x, y, z'
loop_
 _atom_site_type_symbol
 _atom_site_label
 _atom_site_symmetry_multiplicity
 _atom_site_fract_x
 _atom_site_fract_y
 _atom_site_fract_z
 _atom_site_occupancy
  Mn  Mn0  1  0.073078  0.642308  0.642308  1
  Mn  Mn1  1  0.425194  0.858269  0.858269  1
  Mn  Mn2  1  0.926564  0.357812  0.357812  1
  Co  Co3  1  0.578088  0.140638  0.140638  1
  Cu  Cu4  1  0.994193  0.001936  0.001936  1
  Cu  Cu5  1  0.499303  0.500232  0.500232  1
  P  P6  1  0.253024  0.249036  0.535163  1
  P  P7  1  0.253024  0.962776  0.249036  1
  P  P8  1  0.253024  0.535163  0.962776  1
  P  P9  1  0.749197  0.458964  0.039036  1
  P  P10  1  0.749197  0.039036  0.752803  1
  P  P11  1  0.749197  0.752803  0.458964  1
  O  O12  1  0.064165  0.123083  0.302686  1
  O  O13  1  0.064165  0.510067  0.123083  1
  O  O14  1  0.064165  0.302686  0.510067  1
  O  O15  1  0.235952  0.082127  0.736403  1
  O  O16  1  0.438127  0.197870  0.374195  1
  O  O17  1  0.262948  0.419565  0.554037  1
  O  O18  1  0.235952  0.945518  0.082127  1
  O  O19  1  0.262948  0.763450  0.419565  1
  O  O20  1  0.563865  0.623078  0.010380  1
  O  O21  1  0.262948  0.554037  0.763450  1
  O  O22  1  0.762172  0.261470  0.055666  1
  O  O23  1  0.563865  0.010380  0.802677  1
  O  O24  1  0.438127  0.989808  0.197870  1
  O  O25  1  0.235952  0.736403  0.945518  1
  O  O26  1  0.736459  0.445399  0.236603  1
  O  O27  1  0.438127  0.374195  0.989808  1
  O  O28  1  0.736459  0.236603  0.581539  1
  O  O29  1  0.762172  0.055666  0.920694  1
  O  O30  1  0.736459  0.581539  0.445399  1
  O  O31  1  0.563865  0.802677  0.623078  1
  O  O32  1  0.762172  0.920694  0.261470  1
  O  O33  1  0.935286  0.698259  0.489785  1
  O  O34  1  0.935286  0.489785  0.876670  1
  O  O35  1  0.935286  0.876670  0.698259  1
