# generated using pymatgen
data_KH8O4F
_symmetry_space_group_name_H-M   'P 1'
_cell_length_a   6.82746874
_cell_length_b   13.31792373
_cell_length_c   6.65505426
_cell_angle_alpha   90.00000000
_cell_angle_beta   90.80097938
_cell_angle_gamma   90.00000000
_symmetry_Int_Tables_number   1
_chemical_formula_structural   KH8O4F
_chemical_formula_sum   'K4 H32 O16 F4'
_cell_volume   605.06970043
_cell_formula_units_Z   4
loop_
 _symmetry_equiv_pos_site_id
 _symmetry_equiv_pos_as_xyz
  1  'x, y, z'
loop_
 _atom_site_type_symbol
 _atom_site_label
 _atom_site_symmetry_multiplicity
 _atom_site_fract_x
 _atom_site_fract_y
 _atom_site_fract_z
 _atom_site_occupancy
  K  K0  1  0.661141  0.370301  0.997910  1
  K  K1  1  0.338859  0.870301  0.502090  1
  K  K2  1  0.338859  0.629699  0.002090  1
  K  K3  1  0.661141  0.129699  0.497910  1
  H  H4  1  0.626336  0.130127  0.019295  1
  H  H5  1  0.373664  0.630127  0.480705  1
  H  H6  1  0.373664  0.869873  0.980705  1
  H  H7  1  0.626336  0.369873  0.519295  1
  H  H8  1  0.407931  0.337219  0.556521  1
  H  H9  1  0.592069  0.837219  0.943479  1
  H  H10  1  0.592069  0.662781  0.443479  1
  H  H11  1  0.407931  0.162781  0.056521  1
  H  H12  1  0.066869  0.331328  0.736088  1
  H  H13  1  0.933131  0.831328  0.763912  1
  H  H14  1  0.933131  0.668672  0.263912  1
  H  H15  1  0.066869  0.168672  0.236088  1
  H  H16  1  0.083832  0.246493  0.901982  1
  H  H17  1  0.916168  0.746493  0.598018  1
  H  H18  1  0.916168  0.753507  0.098018  1
  H  H19  1  0.083832  0.253507  0.401982  1
  H  H20  1  0.197650  0.391647  0.022120  1
  H  H21  1  0.802350  0.891647  0.477880  1
  H  H22  1  0.802350  0.608353  0.977880  1
  H  H23  1  0.197650  0.108353  0.522120  1
  H  H24  1  0.255098  0.087045  0.745689  1
  H  H25  1  0.744902  0.587045  0.754311  1
  H  H26  1  0.744902  0.912955  0.254311  1
  H  H27  1  0.255098  0.412955  0.245689  1
  H  H28  1  0.187930  0.490533  0.584591  1
  H  H29  1  0.812070  0.990533  0.915409  1
  H  H30  1  0.812070  0.509467  0.415409  1
  H  H31  1  0.187930  0.009467  0.084591  1
  H  H32  1  0.931271  0.090710  0.902130  1
  H  H33  1  0.068729  0.590710  0.597870  1
  H  H34  1  0.068729  0.909290  0.097870  1
  H  H35  1  0.931271  0.409290  0.402130  1
  O  O36  1  0.544911  0.324471  0.600768  1
  O  O37  1  0.455089  0.824471  0.899232  1
  O  O38  1  0.455089  0.675529  0.399232  1
  O  O39  1  0.544911  0.175529  0.100768  1
  O  O40  1  0.032548  0.315071  0.876232  1
  O  O41  1  0.967452  0.815071  0.623768  1
  O  O42  1  0.967452  0.684929  0.123768  1
  O  O43  1  0.032548  0.184929  0.376232  1
  O  O44  1  0.291245  0.069535  0.607532  1
  O  O45  1  0.708755  0.569535  0.892468  1
  O  O46  1  0.708755  0.930465  0.392468  1
  O  O47  1  0.291245  0.430465  0.107532  1
  O  O48  1  0.800435  0.061491  0.871938  1
  O  O49  1  0.199565  0.561491  0.628062  1
  O  O50  1  0.199565  0.938509  0.128062  1
  O  O51  1  0.800435  0.438509  0.371938  1
  F  F52  1  0.155672  0.367515  0.489274  1
  F  F53  1  0.844328  0.867515  0.010726  1
  F  F54  1  0.844328  0.632485  0.510726  1
  F  F55  1  0.155672  0.132485  0.989274  1
