# generated using pymatgen
data_Fe2O3
_symmetry_space_group_name_H-M   'P 1'
_cell_length_a   5.14466553
_cell_length_b   5.28838446
_cell_length_c   7.51141766
_cell_angle_alpha   89.69687560
_cell_angle_beta   90.16386562
_cell_angle_gamma   90.12385136
_symmetry_Int_Tables_number   1
_chemical_formula_structural   Fe2O3
_chemical_formula_sum   'Fe8 O12'
_cell_volume   204.35874281
_cell_formula_units_Z   4
loop_
 _symmetry_equiv_pos_site_id
 _symmetry_equiv_pos_as_xyz
  1  'x, y, z'
loop_
 _atom_site_type_symbol
 _atom_site_label
 _atom_site_symmetry_multiplicity
 _atom_site_fract_x
 _atom_site_fract_y
 _atom_site_fract_z
 _atom_site_occupancy
  Fe  Fe0  1  0.250096  0.970979  0.888079  1
  Fe  Fe1  1  0.251154  0.530762  0.114571  1
  Fe  Fe2  1  0.754502  0.030743  0.113571  1
  Fe  Fe3  1  0.255332  0.029387  0.388128  1
  Fe  Fe4  1  0.751220  0.530378  0.388970  1
  Fe  Fe5  1  0.749273  0.967726  0.616150  1
  Fe  Fe6  1  0.753471  0.471683  0.890922  1
  Fe  Fe7  1  0.254504  0.467411  0.614972  1
  O  O8  1  0.449493  0.747077  0.498003  1
  O  O9  1  0.544976  0.245570  0.496815  1
  O  O10  1  0.046603  0.254762  0.996965  1
  O  O11  1  0.947733  0.754292  0.996931  1
  O  O12  1  0.891318  0.895674  0.347250  1
  O  O13  1  0.106472  0.397550  0.344685  1
  O  O14  1  0.390227  0.900665  0.151086  1
  O  O15  1  0.608528  0.399894  0.154253  1
  O  O16  1  0.107985  0.095718  0.653615  1
  O  O17  1  0.605272  0.107389  0.844449  1
  O  O18  1  0.890298  0.594857  0.652932  1
  O  O19  1  0.391542  0.607484  0.847652  1
