# generated using pymatgen
data_Fe4OF7
_symmetry_space_group_name_H-M   'P 1'
_cell_length_a   5.80840145
_cell_length_b   5.80840145
_cell_length_c   5.80840145
_cell_angle_alpha   73.02994020
_cell_angle_beta   107.77337396
_cell_angle_gamma   66.24195220
_symmetry_Int_Tables_number   1
_chemical_formula_structural   Fe4OF7
_chemical_formula_sum   'Fe4 O1 F7'
_cell_volume   150.20580270
_cell_formula_units_Z   1
loop_
 _symmetry_equiv_pos_site_id
 _symmetry_equiv_pos_as_xyz
  1  'x, y, z'
loop_
 _atom_site_type_symbol
 _atom_site_label
 _atom_site_symmetry_multiplicity
 _atom_site_fract_x
 _atom_site_fract_y
 _atom_site_fract_z
 _atom_site_occupancy
  Fe  Fe0  1  0.741309  0.750000  0.491309  1
  Fe  Fe1  1  0.271938  0.250000  0.521938  1
  Fe  Fe2  1  0.511527  0.479746  0.991273  1
  Fe  Fe3  1  0.971020  0.020254  0.991273  1
  O  O4  1  0.555547  0.250000  0.805547  1
  F  F5  1  0.050523  0.750000  0.800523  1
  F  F6  1  0.502854  0.789508  0.705964  1
  F  F7  1  0.995471  0.296890  0.705964  1
  F  F8  1  0.995471  0.710492  0.292362  1
  F  F9  1  0.502854  0.203110  0.292362  1
  F  F10  1  0.966410  0.250000  0.216410  1
  F  F11  1  0.435075  0.750000  0.185075  1
