# generated using pymatgen
data_CuPO3
_symmetry_space_group_name_H-M   'P 1'
_cell_length_a   12.47116701
_cell_length_b   5.57196590
_cell_length_c   7.61075206
_cell_angle_alpha   90.00000000
_cell_angle_beta   85.45204993
_cell_angle_gamma   90.00000000
_symmetry_Int_Tables_number   1
_chemical_formula_structural   CuPO3
_chemical_formula_sum   'Cu8 P8 O24'
_cell_volume   527.19770176
_cell_formula_units_Z   8
loop_
 _symmetry_equiv_pos_site_id
 _symmetry_equiv_pos_as_xyz
  1  'x, y, z'
loop_
 _atom_site_type_symbol
 _atom_site_label
 _atom_site_symmetry_multiplicity
 _atom_site_fract_x
 _atom_site_fract_y
 _atom_site_fract_z
 _atom_site_occupancy
  Cu  Cu0  1  0.986041  0.375850  0.786048  1
  Cu  Cu1  1  0.147040  0.860102  0.600080  1
  Cu  Cu2  1  0.352960  0.360102  0.899920  1
  Cu  Cu3  1  0.513959  0.875850  0.713952  1
  Cu  Cu4  1  0.486041  0.124150  0.286048  1
  Cu  Cu5  1  0.647040  0.639898  0.100080  1
  Cu  Cu6  1  0.852960  0.139898  0.399920  1
  Cu  Cu7  1  0.013959  0.624150  0.213952  1
  P  P8  1  0.105820  0.124170  0.188013  1
  P  P9  1  0.208020  0.354992  0.493198  1
  P  P10  1  0.291980  0.854992  0.006802  1
  P  P11  1  0.394180  0.624170  0.311987  1
  P  P12  1  0.605820  0.375830  0.688013  1
  P  P13  1  0.708020  0.145008  0.993198  1
  P  P14  1  0.791980  0.645008  0.506802  1
  P  P15  1  0.894180  0.875830  0.811987  1
  O  O16  1  0.045603  0.320424  0.102338  1
  O  O17  1  0.040172  0.943189  0.298834  1
  O  O18  1  0.120637  0.540942  0.528693  1
  O  O19  1  0.176040  0.984245  0.032613  1
  O  O20  1  0.199269  0.238778  0.298884  1
  O  O21  1  0.215686  0.160609  0.628647  1
  O  O22  1  0.284314  0.660609  0.871353  1
  O  O23  1  0.300731  0.738778  0.201116  1
  O  O24  1  0.323960  0.484245  0.467387  1
  O  O25  1  0.379363  0.040942  0.971307  1
  O  O26  1  0.459828  0.443189  0.201166  1
  O  O27  1  0.454397  0.820424  0.397662  1
  O  O28  1  0.545603  0.179576  0.602338  1
  O  O29  1  0.540172  0.556811  0.798834  1
  O  O30  1  0.620637  0.959058  0.028693  1
  O  O31  1  0.676040  0.515755  0.532613  1
  O  O32  1  0.699269  0.261222  0.798884  1
  O  O33  1  0.715686  0.339391  0.128647  1
  O  O34  1  0.784314  0.839391  0.371353  1
  O  O35  1  0.800731  0.761222  0.701116  1
  O  O36  1  0.823960  0.015755  0.967387  1
  O  O37  1  0.879363  0.459058  0.471307  1
  O  O38  1  0.959828  0.056811  0.701166  1
  O  O39  1  0.954397  0.679576  0.897662  1
