# generated using pymatgen
data_Li3V4(OF3)3
_symmetry_space_group_name_H-M   'P 1'
_cell_length_a   6.08676357
_cell_length_b   5.97361406
_cell_length_c   5.95624873
_cell_angle_alpha   99.65221121
_cell_angle_beta   99.68698133
_cell_angle_gamma   99.09553631
_symmetry_Int_Tables_number   1
_chemical_formula_structural   Li3V4(OF3)3
_chemical_formula_sum   'Li3 V4 O3 F9'
_cell_volume   206.55569705
_cell_formula_units_Z   1
loop_
 _symmetry_equiv_pos_site_id
 _symmetry_equiv_pos_as_xyz
  1  'x, y, z'
loop_
 _atom_site_type_symbol
 _atom_site_label
 _atom_site_symmetry_multiplicity
 _atom_site_fract_x
 _atom_site_fract_y
 _atom_site_fract_z
 _atom_site_occupancy
  Li  Li0  1  0.992580  0.008096  0.984202  1
  Li  Li1  1  0.608764  0.329450  0.136147  1
  Li  Li2  1  0.885798  0.407215  0.709540  1
  V  V3  1  0.157719  0.595162  0.329092  1
  V  V4  1  0.389028  0.673377  0.859841  1
  V  V5  1  0.663823  0.850907  0.392931  1
  V  V6  1  0.324975  0.146189  0.603525  1
  O  O7  1  0.427808  0.829157  0.587039  1
  O  O8  1  0.201333  0.424039  0.587628  1
  O  O9  1  0.418580  0.593262  0.180777  1
  F  F10  1  0.085377  0.925637  0.335387  1
  F  F11  1  0.073158  0.688288  0.913447  1
  F  F12  1  0.686671  0.887182  0.056572  1
  F  F13  1  0.588217  0.416736  0.813670  1
  F  F14  1  0.307453  0.092448  0.916970  1
  F  F15  1  0.827184  0.590185  0.441018  1
  F  F16  1  0.533593  0.155599  0.375830  1
  F  F17  1  0.951646  0.323698  0.113461  1
  F  F18  1  0.876292  0.063372  0.662922  1
