# generated using pymatgen
data_Li4Fe5Sn3O16
_symmetry_space_group_name_H-M   'P 1'
_cell_length_a   6.10536856
_cell_length_b   6.11829138
_cell_length_c   9.69812004
_cell_angle_alpha   89.61600423
_cell_angle_beta   90.19545769
_cell_angle_gamma   120.11318704
_symmetry_Int_Tables_number   1
_chemical_formula_structural   Li4Fe5Sn3O16
_chemical_formula_sum   'Li4 Fe5 Sn3 O16'
_cell_volume   313.36754214
_cell_formula_units_Z   1
loop_
 _symmetry_equiv_pos_site_id
 _symmetry_equiv_pos_as_xyz
  1  'x, y, z'
loop_
 _atom_site_type_symbol
 _atom_site_label
 _atom_site_symmetry_multiplicity
 _atom_site_fract_x
 _atom_site_fract_y
 _atom_site_fract_z
 _atom_site_occupancy
  Li  Li0  1  0.350370  0.683538  0.888201  1
  Li  Li1  1  0.961453  0.977934  0.991417  1
  Li  Li2  1  0.976565  0.988706  0.499683  1
  Li  Li3  1  0.670200  0.336140  0.398319  1
  Fe  Fe4  1  0.337674  0.658168  0.494600  1
  Fe  Fe5  1  0.661747  0.829358  0.219474  1
  Fe  Fe6  1  0.677586  0.343447  0.987897  1
  Fe  Fe7  1  0.830014  0.659721  0.713518  1
  Fe  Fe8  1  0.836248  0.175975  0.716916  1
  Sn  Sn9  1  0.173743  0.834436  0.214167  1
  Sn  Sn10  1  0.170059  0.340639  0.210927  1
  Sn  Sn11  1  0.339994  0.164532  0.713158  1
  O  O12  1  0.148404  0.823262  0.599314  1
  O  O13  1  0.036555  0.516949  0.343292  1
  O  O14  1  0.345247  0.676008  0.096783  1
  O  O15  1  0.997888  -0.000452  0.314641  1
  O  O16  1  0.987218  0.983203  0.807593  1
  O  O17  1  0.157684  0.319967  0.596342  1
  O  O18  1  0.487214  0.961287  0.346583  1
  O  O19  1  0.484059  0.518415  0.342274  1
  O  O20  1  0.323760  0.164620  0.090567  1
  O  O21  1  0.667711  0.819913  0.605823  1
  O  O22  1  0.531444  0.491961  0.836202  1
  O  O23  1  0.533114  0.047014  0.844497  1
  O  O24  1  0.680835  0.347174  0.605430  1
  O  O25  1  0.833991  0.671582  0.100138  1
  O  O26  1  0.964747  0.501309  0.834102  1
  O  O27  1  0.834477  0.165492  0.095981  1
