# generated using pymatgen
data_LiSn2(PO4)3
_symmetry_space_group_name_H-M   'P 1'
_cell_length_a   9.17486660
_cell_length_b   9.17904549
_cell_length_c   9.12567057
_cell_angle_alpha   55.74603461
_cell_angle_beta   55.72647063
_cell_angle_gamma   55.35657018
_symmetry_Int_Tables_number   1
_chemical_formula_structural   LiSn2(PO4)3
_chemical_formula_sum   'Li2 Sn4 P6 O24'
_cell_volume   488.04919492
_cell_formula_units_Z   2
loop_
 _symmetry_equiv_pos_site_id
 _symmetry_equiv_pos_as_xyz
  1  'x, y, z'
loop_
 _atom_site_type_symbol
 _atom_site_label
 _atom_site_symmetry_multiplicity
 _atom_site_fract_x
 _atom_site_fract_y
 _atom_site_fract_z
 _atom_site_occupancy
  Li  Li0  1  0.410457  0.717442  0.243926  1
  Li  Li1  1  0.589543  0.282558  0.756074  1
  Sn  Sn2  1  0.140327  0.150125  0.142072  1
  Sn  Sn3  1  0.348401  0.343298  0.351896  1
  Sn  Sn4  1  0.651599  0.656702  0.648104  1
  Sn  Sn5  1  0.859673  0.849875  0.857928  1
  P  P6  1  0.037755  0.749517  0.458260  1
  P  P7  1  0.457279  0.045264  0.749960  1
  P  P8  1  0.747741  0.459021  0.040605  1
  P  P9  1  0.252258  0.540979  0.959395  1
  P  P10  1  0.542721  0.954736  0.250040  1
  P  P11  1  0.962245  0.250483  0.541740  1
  O  O12  1  0.994645  0.208589  0.382580  1
  O  O13  1  0.219950  0.380987  0.980139  1
  O  O14  1  0.393819  0.965510  0.205668  1
  O  O15  1  0.146643  0.221670  0.536917  1
  O  O16  1  0.225426  0.526140  0.148961  1
  O  O17  1  0.514156  0.153417  0.213950  1
  O  O18  1  0.191118  0.547437  0.473372  1
  O  O19  1  0.133337  0.882046  0.263395  1
  O  O20  1  0.257840  0.128873  0.883391  1
  O  O21  1  0.484384  0.179319  0.541386  1
  O  O22  1  0.538990  0.484845  0.186091  1
  O  O23  1  0.118091  0.737786  0.873839  1
  O  O24  1  0.881909  0.262214  0.126161  1
  O  O25  1  0.461010  0.515155  0.813909  1
  O  O26  1  0.515616  0.820681  0.458614  1
  O  O27  1  0.742160  0.871127  0.116609  1
  O  O28  1  0.866663  0.117954  0.736605  1
  O  O29  1  0.808882  0.452563  0.526628  1
  O  O30  1  0.485844  0.846583  0.786050  1
  O  O31  1  0.774574  0.473860  0.851039  1
  O  O32  1  0.853357  0.778330  0.463083  1
  O  O33  1  0.606181  0.034490  0.794332  1
  O  O34  1  0.780050  0.619013  0.019862  1
  O  O35  1  0.005355  0.791411  0.617420  1
