# generated using pymatgen
data_Li4Ti4V(Fe2O9)2
_symmetry_space_group_name_H-M   'P 1'
_cell_length_a   9.23969415
_cell_length_b   25.46873206
_cell_length_c   2.95209579
_cell_angle_alpha   89.99996434
_cell_angle_beta   90.00001588
_cell_angle_gamma   90.01964835
_symmetry_Int_Tables_number   1
_chemical_formula_structural   Li4Ti4V(Fe2O9)2
_chemical_formula_sum   'Li8 Ti8 V2 Fe8 O36'
_cell_volume   694.69686630
_cell_formula_units_Z   2
loop_
 _symmetry_equiv_pos_site_id
 _symmetry_equiv_pos_as_xyz
  1  'x, y, z'
loop_
 _atom_site_type_symbol
 _atom_site_label
 _atom_site_symmetry_multiplicity
 _atom_site_fract_x
 _atom_site_fract_y
 _atom_site_fract_z
 _atom_site_occupancy
  Li  Li0  1  0.197726  0.988670  0.999998  1
  Li  Li1  1  0.196166  0.184017  0.000000  1
  Li  Li2  1  0.303743  0.683960  0.999999  1
  Li  Li3  1  0.302249  0.488583  1.000000  1
  Li  Li4  1  0.697762  0.511367  0.000001  1
  Li  Li5  1  0.696128  0.315925  0.000002  1
  Li  Li6  1  0.804229  0.815832  -0.000000  1
  Li  Li7  1  0.802187  0.011461  0.000001  1
  Ti  Ti8  1  0.999116  0.099675  0.000002  1
  Ti  Ti9  1  0.158301  0.809755  0.500000  1
  Ti  Ti10  1  0.341833  0.309729  0.500002  1
  Ti  Ti11  1  0.500845  0.599622  0.999998  1
  Ti  Ti12  1  0.499184  0.400362  0.999996  1
  Ti  Ti13  1  0.658149  0.690284  0.500000  1
  Ti  Ti14  1  0.841737  0.190292  0.500001  1
  Ti  Ti15  1  0.000801  0.900371  0.999997  1
  V  V16  1  0.000028  0.499960  -0.000000  1
  V  V17  1  0.500030  0.000032  0.000000  1
  Fe  Fe18  1  0.999195  0.305633  0.000004  1
  Fe  Fe19  1  0.151505  0.586099  0.499999  1
  Fe  Fe20  1  0.348440  0.086133  0.499998  1
  Fe  Fe21  1  0.500892  0.805616  0.999998  1
  Fe  Fe22  1  0.499115  0.194391  0.000000  1
  Fe  Fe23  1  0.651567  0.913864  0.499998  1
  Fe  Fe24  1  0.848545  0.413832  0.499998  1
  Fe  Fe25  1  0.000788  0.694391  -0.000001  1
  O  O26  1  0.992905  0.425523  0.999998  1
  O  O27  1  0.007135  0.574370  0.000000  1
  O  O28  1  0.061595  0.943200  0.499999  1
  O  O29  1  0.043346  0.155872  0.499999  1
  O  O30  1  0.127418  0.664886  0.499999  1
  O  O31  1  0.102244  0.761388  0.999999  1
  O  O32  1  0.147951  0.503240  0.499999  1
  O  O33  1  0.139180  0.291413  0.500004  1
  O  O34  1  0.187017  0.858475  0.999999  1
  O  O35  1  0.198931  0.082642  0.000002  1
  O  O36  1  0.300982  0.582600  -0.000000  1
  O  O37  1  0.313001  0.358459  0.000003  1
  O  O38  1  0.360845  0.791409  0.500001  1
  O  O39  1  0.352048  0.003302  0.500000  1
  O  O40  1  0.397781  0.261388  -0.000000  1
  O  O41  1  0.372397  0.164938  0.500000  1
  O  O42  1  0.456586  0.655831  0.499998  1
  O  O43  1  0.438428  0.443187  0.500001  1
  O  O44  1  0.492866  0.074478  0.000002  1
  O  O45  1  0.507163  0.925612  0.000001  1
  O  O46  1  0.561634  0.556815  0.499998  1
  O  O47  1  0.543351  0.344150  0.500004  1
  O  O48  1  0.627622  0.835079  0.499998  1
  O  O49  1  0.602173  0.738608  0.999998  1
  O  O50  1  0.647965  0.996760  0.500000  1
  O  O51  1  0.639184  0.208633  0.500000  1
  O  O52  1  0.686975  0.641559  0.999998  1
  O  O53  1  0.699016  0.417359  0.000002  1
  O  O54  1  0.801031  0.917396  0.000000  1
  O  O55  1  0.812956  0.141554  0.000002  1
  O  O56  1  0.860787  0.708645  0.500001  1
  O  O57  1  0.852102  0.496681  0.500001  1
  O  O58  1  0.897717  0.238640  0.000001  1
  O  O59  1  0.872430  0.335062  0.500000  1
  O  O60  1  0.956648  0.844154  0.500002  1
  O  O61  1  0.938326  0.056837  0.500001  1
