# generated using pymatgen
data_K2NaNb2Fe7Si8H4O31
_symmetry_space_group_name_H-M   'P 1'
_cell_length_a   5.49217524
_cell_length_b   11.88539615
_cell_length_c   12.11776685
_cell_angle_alpha   112.87456901
_cell_angle_beta   102.73223262
_cell_angle_gamma   94.83518584
_symmetry_Int_Tables_number   1
_chemical_formula_structural   K2NaNb2Fe7Si8H4O31
_chemical_formula_sum   'K2 Na1 Nb2 Fe7 Si8 H4 O31'
_cell_volume   698.05221617
_cell_formula_units_Z   1
loop_
 _symmetry_equiv_pos_site_id
 _symmetry_equiv_pos_as_xyz
  1  'x, y, z'
loop_
 _atom_site_type_symbol
 _atom_site_label
 _atom_site_symmetry_multiplicity
 _atom_site_fract_x
 _atom_site_fract_y
 _atom_site_fract_z
 _atom_site_occupancy
  K  K0  1  0.628381  0.491876  0.759632  1
  K  K1  1  0.371619  0.508124  0.240369  1
  Na  Na2  1  0.000000  0.500000  0.500000  1
  Nb  Nb3  1  0.569899  0.683254  0.582966  1
  Nb  Nb4  1  0.430101  0.316746  0.417034  1
  Fe  Fe5  1  0.500000  0.000000  0.000000  1
  Fe  Fe6  1  0.917424  0.980720  0.846901  1
  Fe  Fe7  1  0.082576  0.019280  0.153099  1
  Fe  Fe8  1  0.358929  0.977220  0.705897  1
  Fe  Fe9  1  0.641071  0.022780  0.294103  1
  Fe  Fe10  1  0.777573  0.985219  0.570301  1
  Fe  Fe11  1  0.222427  0.014781  0.429699  1
  Si  Si12  1  0.678345  0.242443  0.947174  1
  Si  Si13  1  0.321655  0.757557  0.052826  1
  Si  Si14  1  0.119165  0.237780  0.823517  1
  Si  Si15  1  0.880835  0.762220  0.176483  1
  Si  Si16  1  0.993184  0.257485  0.566074  1
  Si  Si17  1  0.006816  0.742515  0.433926  1
  Si  Si18  1  0.823746  0.266733  0.220131  1
  Si  Si19  1  0.176254  0.733267  0.779869  1
  H  H20  1  0.242564  0.184293  0.079481  1
  H  H21  1  0.757436  0.815707  0.920519  1
  H  H22  1  0.538244  0.178466  0.650496  1
  H  H23  1  0.461756  0.821534  0.349504  1
  O  O24  1  0.354791  0.126444  0.336762  1
  O  O25  1  0.645209  0.873556  0.663238  1
  O  O26  1  0.768405  0.116668  0.178047  1
  O  O27  1  0.231595  0.883332  0.821953  1
  O  O28  1  0.198576  0.094209  0.037172  1
  O  O29  1  0.801424  0.905791  0.962828  1
  O  O30  1  0.616815  0.091965  0.886270  1
  O  O31  1  0.383185  0.908035  0.113730  1
  O  O32  1  0.064790  0.086828  0.762492  1
  O  O33  1  0.935210  0.913173  0.237508  1
  O  O34  1  0.494347  0.088562  0.613545  1
  O  O35  1  0.505653  0.911438  0.386455  1
  O  O36  1  0.925105  0.106945  0.478615  1
  O  O37  1  0.074895  0.893055  0.521385  1
  O  O38  1  0.638447  0.334105  0.303529  1
  O  O39  1  0.361553  0.665895  0.696471  1
  O  O40  1  0.117202  0.331323  0.296232  1
  O  O41  1  0.882798  0.668677  0.703768  1
  O  O42  1  0.764586  0.304161  0.099207  1
  O  O43  1  0.235414  0.695839  0.900793  1
  O  O44  1  0.917734  0.295265  0.905874  1
  O  O45  1  0.082266  0.704735  0.094126  1
  O  O46  1  0.419436  0.297370  0.908220  1
  O  O47  1  0.580564  0.702630  0.091780  1
  O  O48  1  0.078425  0.290988  0.716914  1
  O  O49  1  0.921575  0.709012  0.283086  1
  O  O50  1  0.235425  0.324336  0.542922  1
  O  O51  1  0.764575  0.675664  0.457078  1
  O  O52  1  0.755696  0.325525  0.545991  1
  O  O53  1  0.244304  0.674475  0.454009  1
  O  O54  1  0.500000  0.500000  0.500000  1
