# generated using pymatgen
data_FeOF
_symmetry_space_group_name_H-M   'P 1'
_cell_length_a   9.50399488
_cell_length_b   14.29663556
_cell_length_c   3.10840744
_cell_angle_alpha   90.00000000
_cell_angle_beta   90.00000000
_cell_angle_gamma   89.68155694
_symmetry_Int_Tables_number   1
_chemical_formula_structural   FeOF
_chemical_formula_sum   'Fe12 O12 F12'
_cell_volume   422.34880745
_cell_formula_units_Z   12
loop_
 _symmetry_equiv_pos_site_id
 _symmetry_equiv_pos_as_xyz
  1  'x, y, z'
loop_
 _atom_site_type_symbol
 _atom_site_label
 _atom_site_symmetry_multiplicity
 _atom_site_fract_x
 _atom_site_fract_y
 _atom_site_fract_z
 _atom_site_occupancy
  Fe  Fe0  1  0.008488  0.005234  0.000000  1
  Fe  Fe1  1  0.018485  0.331564  0.000000  1
  Fe  Fe2  1  0.002400  0.668671  0.000000  1
  Fe  Fe3  1  0.231517  0.164401  0.500000  1
  Fe  Fe4  1  0.247606  0.485579  0.500000  1
  Fe  Fe5  1  0.256795  0.854307  0.500000  1
  Fe  Fe6  1  0.497948  0.342511  0.000000  1
  Fe  Fe7  1  0.512131  0.996195  0.000000  1
  Fe  Fe8  1  0.516254  0.664937  0.000000  1
  Fe  Fe9  1  0.748297  0.149908  0.500000  1
  Fe  Fe10  1  0.726718  0.494977  0.500000  1
  Fe  Fe11  1  0.727323  0.832170  0.500000  1
  O  O12  1  0.097192  0.269780  0.500000  1
  O  O13  1  0.093226  0.937199  0.500000  1
  O  O14  1  0.156759  0.101948  0.000000  1
  O  O15  1  0.147535  0.439036  0.000000  1
  O  O16  1  0.348576  0.905998  0.000000  1
  O  O17  1  0.402793  0.396527  0.500000  1
  O  O18  1  0.598556  0.936601  0.500000  1
  O  O19  1  0.594488  0.600258  0.500000  1
  O  O20  1  0.652486  0.101160  0.000000  1
  O  O21  1  0.656726  0.429558  0.000000  1
  O  O22  1  0.648712  0.767631  0.000000  1
  O  O23  1  0.904479  0.060264  0.500000  1
  F  F24  1  0.105562  0.604235  0.500000  1
  F  F25  1  0.158288  0.772631  0.000000  1
  F  F26  1  0.353550  0.230481  0.000000  1
  F  F27  1  0.344902  0.567155  0.000000  1
  F  F28  1  0.405363  0.071480  0.500000  1
  F  F29  1  0.396200  0.731918  0.500000  1
  F  F30  1  0.598767  0.264464  0.500000  1
  F  F31  1  0.845529  0.232148  0.000000  1
  F  F32  1  0.846038  0.893112  0.000000  1
  F  F33  1  0.847615  0.562602  0.000000  1
  F  F34  1  0.900283  0.398486  0.500000  1
  F  F35  1  0.902411  0.734871  0.500000  1
