# generated using pymatgen
data_Li3MnV(PO4)3
_symmetry_space_group_name_H-M   'P 1'
_cell_length_a   10.31825605
_cell_length_b   10.44740628
_cell_length_c   10.31825657
_cell_angle_alpha   109.15097988
_cell_angle_beta   109.61331376
_cell_angle_gamma   109.15098221
_symmetry_Int_Tables_number   1
_chemical_formula_structural   Li3MnV(PO4)3
_chemical_formula_sum   'Li12 Mn4 V4 P12 O48'
_cell_volume   861.45954821
_cell_formula_units_Z   4
loop_
 _symmetry_equiv_pos_site_id
 _symmetry_equiv_pos_as_xyz
  1  'x, y, z'
loop_
 _atom_site_type_symbol
 _atom_site_label
 _atom_site_symmetry_multiplicity
 _atom_site_fract_x
 _atom_site_fract_y
 _atom_site_fract_z
 _atom_site_occupancy
  Li  Li0  1  0.256518  0.876727  0.628808  1
  Li  Li1  1  0.128808  0.376727  0.756518  1
  Li  Li2  1  0.125000  0.250000  0.375000  1
  Li  Li3  1  0.620209  0.876727  0.747921  1
  Li  Li4  1  0.375000  0.750000  0.125000  1
  Li  Li5  1  0.247921  0.376727  0.120209  1
  Li  Li6  1  0.752079  0.623273  0.879791  1
  Li  Li7  1  0.625000  0.250000  0.875000  1
  Li  Li8  1  0.379791  0.123273  0.252079  1
  Li  Li9  1  0.875000  0.750000  0.625000  1
  Li  Li10  1  0.871192  0.623273  0.243482  1
  Li  Li11  1  0.743482  0.123273  0.371192  1
  Mn  Mn12  1  0.000000  0.500000  0.000000  1
  Mn  Mn13  1  0.500000  0.000000  0.500000  1
  Mn  Mn14  1  0.500000  0.500000  0.000000  1
  Mn  Mn15  1  0.500000  0.000000  0.000000  1
  V  V16  1  0.000000  0.500000  0.500000  1
  V  V17  1  0.000000  0.000000  0.500000  1
  V  V18  1  0.000000  0.000000  0.000000  1
  V  V19  1  0.500000  0.500000  0.500000  1
  P  P20  1  0.124132  0.750000  0.874132  1
  P  P21  1  0.123077  0.875578  0.248576  1
  P  P22  1  0.372998  0.624422  0.747500  1
  P  P23  1  0.251424  0.624422  0.376923  1
  P  P24  1  0.247500  0.124422  0.872998  1
  P  P25  1  0.374132  0.250000  0.624132  1
  P  P26  1  0.625868  0.750000  0.375868  1
  P  P27  1  0.748576  0.375578  0.623077  1
  P  P28  1  0.752500  0.875578  0.127002  1
  P  P29  1  0.627002  0.375578  0.252500  1
  P  P30  1  0.876923  0.124422  0.751424  1
  P  P31  1  0.875868  0.250000  0.125868  1
  O  O32  1  0.108620  0.993977  0.698834  1
  O  O33  1  0.115500  0.613991  0.906202  1
  O  O34  1  0.006430  0.290799  0.884323  1
  O  O35  1  0.086230  0.704590  0.698000  1
  O  O36  1  0.091641  0.889361  0.391832  1
  O  O37  1  0.108168  0.610639  0.408359  1
  O  O38  1  0.198834  0.493977  0.608620  1
  O  O39  1  0.406476  0.790799  0.784369  1
  O  O40  1  0.380273  0.590913  0.884188  1
  O  O41  1  0.284369  0.290799  0.906476  1
  O  O42  1  0.293275  0.909087  0.289360  1
  O  O43  1  0.006589  0.204590  0.118360  1
  O  O44  1  0.198000  0.204590  0.586230  1
  O  O45  1  0.210640  0.590913  0.206725  1
  O  O46  1  0.384323  0.790799  0.506430  1
  O  O47  1  0.295143  0.493977  0.385358  1
  O  O48  1  0.292210  0.886009  0.001510  1
  O  O49  1  0.114642  0.006023  0.204857  1
  O  O50  1  0.502472  0.610639  0.702281  1
  O  O51  1  0.384188  0.090913  0.880273  1
  O  O52  1  0.501510  0.386009  0.792210  1
  O  O53  1  0.381640  0.295410  0.493411  1
  O  O54  1  0.593798  0.886009  0.384500  1
  O  O55  1  0.202281  0.110639  0.002472  1
  O  O56  1  0.797719  0.889361  0.997528  1
  O  O57  1  0.406202  0.113991  0.615500  1
  O  O58  1  0.618360  0.704590  0.506589  1
  O  O59  1  0.498490  0.613991  0.207790  1
  O  O60  1  0.615812  0.909087  0.119727  1
  O  O61  1  0.497528  0.389361  0.297719  1
  O  O62  1  0.885358  0.993977  0.795143  1
  O  O63  1  0.707790  0.113991  0.998490  1
  O  O64  1  0.704857  0.506023  0.614642  1
  O  O65  1  0.615677  0.209201  0.493570  1
  O  O66  1  0.789360  0.409087  0.793275  1
  O  O67  1  0.802000  0.795410  0.413770  1
  O  O68  1  0.993411  0.795410  0.881640  1
  O  O69  1  0.706725  0.090913  0.710640  1
  O  O70  1  0.715631  0.709201  0.093524  1
  O  O71  1  0.619727  0.409087  0.115812  1
  O  O72  1  0.593524  0.209201  0.215631  1
  O  O73  1  0.801166  0.506023  0.391380  1
  O  O74  1  0.891832  0.389361  0.591641  1
  O  O75  1  0.908359  0.110639  0.608168  1
  O  O76  1  0.913770  0.295410  0.302000  1
  O  O77  1  0.993570  0.709201  0.115677  1
  O  O78  1  0.884500  0.386009  0.093798  1
  O  O79  1  0.891380  0.006023  0.301166  1
