# generated using pymatgen
data_Re5H4(CO)20
_symmetry_space_group_name_H-M   'P 1'
_cell_length_a   9.94408612
_cell_length_b   19.67540782
_cell_length_c   21.70882813
_cell_angle_alpha   90.00000000
_cell_angle_beta   101.03144503
_cell_angle_gamma   90.00000000
_symmetry_Int_Tables_number   1
_chemical_formula_structural   Re5H4(CO)20
_chemical_formula_sum   'Re20 H16 C80 O80'
_cell_volume   4168.93552128
_cell_formula_units_Z   4
loop_
 _symmetry_equiv_pos_site_id
 _symmetry_equiv_pos_as_xyz
  1  'x, y, z'
loop_
 _atom_site_type_symbol
 _atom_site_label
 _atom_site_symmetry_multiplicity
 _atom_site_fract_x
 _atom_site_fract_y
 _atom_site_fract_z
 _atom_site_occupancy
  Re  Re0  1  0.791902  0.609110  0.716594  1
  Re  Re1  1  0.208098  0.109110  0.783406  1
  Re  Re2  1  0.208098  0.390890  0.283406  1
  Re  Re3  1  0.791902  0.890890  0.216594  1
  Re  Re4  1  0.847501  0.485568  0.832515  1
  Re  Re5  1  0.152499  0.985568  0.667485  1
  Re  Re6  1  0.152499  0.514432  0.167485  1
  Re  Re7  1  0.847501  0.014432  0.332515  1
  Re  Re8  1  0.160070  0.433058  0.831967  1
  Re  Re9  1  0.839930  0.933058  0.668033  1
  Re  Re10  1  0.839930  0.566942  0.168033  1
  Re  Re11  1  0.160070  0.066942  0.331967  1
  Re  Re12  1  0.180755  0.433211  0.690000  1
  Re  Re13  1  0.819245  0.933211  0.810000  1
  Re  Re14  1  0.819245  0.566789  0.310000  1
  Re  Re15  1  0.180755  0.066789  0.190000  1
  Re  Re16  1  0.059548  0.582910  0.639666  1
  Re  Re17  1  0.940452  0.082910  0.860334  1
  Re  Re18  1  0.940452  0.417090  0.360334  1
  Re  Re19  1  0.059548  0.917090  0.139666  1
  H  H20  1  0.835603  0.526402  0.755400  1
  H  H21  1  0.164397  0.026402  0.744600  1
  H  H22  1  0.164397  0.473598  0.244600  1
  H  H23  1  0.835603  0.973598  0.255400  1
  H  H24  1  0.990889  0.463640  0.792260  1
  H  H25  1  0.009111  0.963640  0.707740  1
  H  H26  1  0.009111  0.536360  0.207740  1
  H  H27  1  0.990889  0.036360  0.292260  1
  H  H28  1  0.123082  0.520261  0.702189  1
  H  H29  1  0.876918  0.020261  0.797811  1
  H  H30  1  0.876918  0.479739  0.297811  1
  H  H31  1  0.123082  0.979739  0.202189  1
  H  H32  1  0.951340  0.571734  0.699644  1
  H  H33  1  0.048660  0.071734  0.800356  1
  H  H34  1  0.048660  0.428266  0.300356  1
  H  H35  1  0.951340  0.928266  0.199644  1
  C  C36  1  0.913268  0.669327  0.777569  1
  C  C37  1  0.086732  0.169327  0.722431  1
  C  C38  1  0.086732  0.330673  0.222431  1
  C  C39  1  0.913268  0.830673  0.277569  1
  C  C40  1  0.634207  0.633098  0.753528  1
  C  C41  1  0.365793  0.133098  0.746472  1
  C  C42  1  0.365793  0.366902  0.246472  1
  C  C43  1  0.634207  0.866902  0.253528  1
  C  C44  1  0.740873  0.684011  0.658491  1
  C  C45  1  0.259127  0.184011  0.841509  1
  C  C46  1  0.259127  0.315989  0.341509  1
  C  C47  1  0.740873  0.815989  0.158491  1
  C  C48  1  0.680532  0.546765  0.653941  1
  C  C49  1  0.319468  0.046765  0.846059  1
  C  C50  1  0.319468  0.453235  0.346059  1
  C  C51  1  0.680532  0.953235  0.153941  1
  C  C52  1  0.957218  0.555145  0.888855  1
  C  C53  1  0.042782  0.055145  0.611145  1
  C  C54  1  0.042782  0.444855  0.111145  1
  C  C55  1  0.957218  0.944855  0.388855  1
  C  C56  1  0.866664  0.418661  0.899573  1
  C  C57  1  0.133336  0.918661  0.600427  1
  C  C58  1  0.133336  0.581339  0.100427  1
  C  C59  1  0.866664  0.081339  0.399573  1
  C  C60  1  0.681288  0.517505  0.858213  1
  C  C61  1  0.318712  0.017505  0.641787  1
  C  C62  1  0.318712  0.482495  0.141787  1
  C  C63  1  0.681288  0.982495  0.358213  1
  C  C64  1  0.737052  0.416400  0.776239  1
  C  C65  1  0.262948  0.916400  0.723761  1
  C  C66  1  0.262948  0.583600  0.223761  1
  C  C67  1  0.737052  0.083600  0.276239  1
  C  C68  1  0.225175  0.529046  0.828244  1
  C  C69  1  0.774825  0.029046  0.671756  1
  C  C70  1  0.774825  0.470954  0.171756  1
  C  C71  1  0.225175  0.970954  0.328244  1
  C  C72  1  0.347480  0.398372  0.841752  1
  C  C73  1  0.652520  0.898372  0.658248  1
  C  C74  1  0.652520  0.601628  0.158248  1
  C  C75  1  0.347480  0.101628  0.341752  1
  C  C76  1  0.180833  0.436806  0.921566  1
  C  C77  1  0.819167  0.936806  0.578434  1
  C  C78  1  0.819167  0.563194  0.078434  1
  C  C79  1  0.180833  0.063194  0.421566  1
  C  C80  1  0.075476  0.341221  0.820415  1
  C  C81  1  0.924524  0.841221  0.679585  1
  C  C82  1  0.924524  0.658779  0.179585  1
  C  C83  1  0.075476  0.158779  0.320415  1
  C  C84  1  0.362263  0.476837  0.714041  1
  C  C85  1  0.637737  0.976837  0.785959  1
  C  C86  1  0.637737  0.523163  0.285959  1
  C  C87  1  0.362263  0.023163  0.214041  1
  C  C88  1  0.190817  0.418390  0.603725  1
  C  C89  1  0.809183  0.918390  0.896275  1
  C  C90  1  0.809183  0.581610  0.396275  1
  C  C91  1  0.190817  0.081610  0.103725  1
  C  C92  1  0.257779  0.343141  0.709811  1
  C  C93  1  0.742221  0.843141  0.790189  1
  C  C94  1  0.742221  0.656859  0.290189  1
  C  C95  1  0.257779  0.156859  0.209811  1
  C  C96  1  0.991086  0.395346  0.678525  1
  C  C97  1  0.008914  0.895346  0.821475  1
  C  C98  1  0.008914  0.604654  0.321475  1
  C  C99  1  0.991086  0.104654  0.178525  1
  C  C100  1  0.169594  0.650465  0.697873  1
  C  C101  1  0.830406  0.150465  0.802127  1
  C  C102  1  0.830406  0.349535  0.302127  1
  C  C103  1  0.169594  0.849535  0.197873  1
  C  C104  1  0.981143  0.658421  0.586394  1
  C  C105  1  0.018857  0.158421  0.913606  1
  C  C106  1  0.018857  0.341579  0.413606  1
  C  C107  1  0.981143  0.841579  0.086394  1
  C  C108  1  0.212094  0.578160  0.595407  1
  C  C109  1  0.787906  0.078160  0.904593  1
  C  C110  1  0.787906  0.421840  0.404593  1
  C  C111  1  0.212094  0.921840  0.095407  1
  C  C112  1  0.944907  0.517433  0.581171  1
  C  C113  1  0.055093  0.017433  0.918829  1
  C  C114  1  0.055093  0.482567  0.418829  1
  C  C115  1  0.944907  0.982567  0.081171  1
  O  O116  1  0.983336  0.704761  0.812218  1
  O  O117  1  0.016664  0.204761  0.687782  1
  O  O118  1  0.016664  0.295239  0.187782  1
  O  O119  1  0.983336  0.795239  0.312218  1
  O  O120  1  0.539414  0.648867  0.774128  1
  O  O121  1  0.460586  0.148867  0.725872  1
  O  O122  1  0.460586  0.351133  0.225872  1
  O  O123  1  0.539414  0.851133  0.274128  1
  O  O124  1  0.702240  0.728360  0.624194  1
  O  O125  1  0.297760  0.228360  0.875806  1
  O  O126  1  0.297760  0.271640  0.375806  1
  O  O127  1  0.702240  0.771640  0.124194  1
  O  O128  1  0.615736  0.511791  0.617028  1
  O  O129  1  0.384264  0.011791  0.882972  1
  O  O130  1  0.384264  0.488209  0.382972  1
  O  O131  1  0.615736  0.988209  0.117028  1
  O  O132  1  0.017061  0.595174  0.922300  1
  O  O133  1  0.982939  0.095174  0.577700  1
  O  O134  1  0.982939  0.404826  0.077700  1
  O  O135  1  0.017061  0.904826  0.422300  1
  O  O136  1  0.873375  0.376313  0.937391  1
  O  O137  1  0.126625  0.876313  0.562609  1
  O  O138  1  0.126625  0.623687  0.062609  1
  O  O139  1  0.873375  0.123687  0.437391  1
  O  O140  1  0.583145  0.535121  0.875362  1
  O  O141  1  0.416855  0.035121  0.624638  1
  O  O142  1  0.416855  0.464879  0.124638  1
  O  O143  1  0.583145  0.964879  0.375362  1
  O  O144  1  0.668396  0.376978  0.745720  1
  O  O145  1  0.331604  0.876978  0.754280  1
  O  O146  1  0.331604  0.623022  0.254280  1
  O  O147  1  0.668396  0.123022  0.245720  1
  O  O148  1  0.259455  0.585050  0.825826  1
  O  O149  1  0.740545  0.085050  0.674174  1
  O  O150  1  0.740545  0.414950  0.174174  1
  O  O151  1  0.259455  0.914950  0.325826  1
  O  O152  1  0.459349  0.378107  0.848021  1
  O  O153  1  0.540651  0.878107  0.651979  1
  O  O154  1  0.540651  0.621893  0.151979  1
  O  O155  1  0.459349  0.121893  0.348021  1
  O  O156  1  0.197002  0.439422  0.976285  1
  O  O157  1  0.802998  0.939422  0.523715  1
  O  O158  1  0.802998  0.560578  0.023715  1
  O  O159  1  0.197002  0.060578  0.476285  1
  O  O160  1  0.018787  0.289657  0.811458  1
  O  O161  1  0.981213  0.789657  0.688542  1
  O  O162  1  0.981213  0.710343  0.188542  1
  O  O163  1  0.018787  0.210343  0.311458  1
  O  O164  1  0.465919  0.504435  0.729834  1
  O  O165  1  0.534081  0.004435  0.770166  1
  O  O166  1  0.534081  0.495565  0.270166  1
  O  O167  1  0.465919  0.995565  0.229834  1
  O  O168  1  0.198880  0.406969  0.551850  1
  O  O169  1  0.801120  0.906969  0.948150  1
  O  O170  1  0.801120  0.593031  0.448150  1
  O  O171  1  0.198880  0.093031  0.051850  1
  O  O172  1  0.307546  0.289963  0.721550  1
  O  O173  1  0.692454  0.789963  0.778450  1
  O  O174  1  0.692454  0.710037  0.278450  1
  O  O175  1  0.307546  0.210037  0.221550  1
  O  O176  1  0.880586  0.373921  0.670121  1
  O  O177  1  0.119414  0.873921  0.829879  1
  O  O178  1  0.119414  0.626079  0.329879  1
  O  O179  1  0.880586  0.126079  0.170121  1
  O  O180  1  0.231280  0.692048  0.728558  1
  O  O181  1  0.768720  0.192048  0.771442  1
  O  O182  1  0.768720  0.307952  0.271442  1
  O  O183  1  0.231280  0.807952  0.228558  1
  O  O184  1  0.937912  0.703173  0.553494  1
  O  O185  1  0.062088  0.203173  0.946506  1
  O  O186  1  0.062088  0.296827  0.446506  1
  O  O187  1  0.937912  0.796827  0.053494  1
  O  O188  1  0.306300  0.576925  0.570991  1
  O  O189  1  0.693700  0.076925  0.929009  1
  O  O190  1  0.693700  0.423075  0.429009  1
  O  O191  1  0.306300  0.923075  0.070991  1
  O  O192  1  0.878211  0.480105  0.547079  1
  O  O193  1  0.121789  0.980105  0.952921  1
  O  O194  1  0.121789  0.519895  0.452921  1
  O  O195  1  0.878211  0.019895  0.047079  1
