# generated using pymatgen
data_Cs3Mg3In(PO3)12
_symmetry_space_group_name_H-M   'P 1'
_cell_length_a   9.67616699
_cell_length_b   9.65273921
_cell_length_c   11.19965106
_cell_angle_alpha   101.39561620
_cell_angle_beta   105.81886621
_cell_angle_gamma   117.11641830
_symmetry_Int_Tables_number   1
_chemical_formula_structural   Cs3Mg3In(PO3)12
_chemical_formula_sum   'Cs3 Mg3 In1 P12 O36'
_cell_volume   830.15562539
_cell_formula_units_Z   1
loop_
 _symmetry_equiv_pos_site_id
 _symmetry_equiv_pos_as_xyz
  1  'x, y, z'
loop_
 _atom_site_type_symbol
 _atom_site_label
 _atom_site_symmetry_multiplicity
 _atom_site_fract_x
 _atom_site_fract_y
 _atom_site_fract_z
 _atom_site_occupancy
  Cs  Cs0  1  0.214045  0.211553  0.005083  1
  Cs  Cs1  1  0.493946  0.004320  0.498427  1
  Cs  Cs2  1  0.786730  0.792478  0.001235  1
  Mg  Mg3  1  0.324790  0.751000  0.076782  1
  Mg  Mg4  1  0.201783  0.204122  0.405892  1
  Mg  Mg5  1  0.676549  0.248988  0.924366  1
  In  In6  1  0.797040  0.794303  0.591928  1
  P  P7  1  0.070161  0.763709  0.831926  1
  P  P8  1  0.033063  0.579297  0.195445  1
  P  P9  1  0.030289  0.200481  0.632628  1
  P  P10  1  0.385117  0.838182  0.803655  1
  P  P11  1  0.431005  0.602371  0.631979  1
  P  P12  1  0.397748  0.328628  0.728398  1
  P  P13  1  0.601245  0.668431  0.267495  1
  P  P14  1  0.562479  0.390603  0.365771  1
  P  P15  1  0.615840  0.160890  0.196135  1
  P  P16  1  0.975086  0.804048  0.365176  1
  P  P17  1  0.967756  0.419362  0.803956  1
  P  P18  1  0.933490  0.235629  0.171248  1
  O  O19  1  0.160169  0.821413  0.980306  1
  O  O20  1  0.093629  0.947556  0.338621  1
  O  O21  1  0.199903  0.818167  0.762689  1
  O  O22  1  0.126021  0.496972  0.929915  1
  O  O23  1  0.001294  0.350082  0.675758  1
  O  O24  1  0.050334  0.436470  0.240152  1
  O  O25  1  0.028394  0.173175  0.496676  1
  O  O26  1  0.431341  0.804064  0.928835  1
  O  O27  1  0.206147  0.706411  0.208765  1
  O  O28  1  0.500687  0.997269  0.791131  1
  O  O29  1  0.325141  0.675955  0.674563  1
  O  O30  1  0.219375  0.272021  0.744768  1
  O  O31  1  0.045555  0.172346  0.219744  1
  O  O32  1  0.323160  0.469539  0.495411  1
  O  O33  1  0.467032  0.523187  0.743903  1
  O  O34  1  0.604505  0.754317  0.664307  1
  O  O35  1  0.362365  0.227395  0.591318  1
  O  O36  1  0.515169  0.335073  0.851587  1
  O  O37  1  0.484734  0.661050  0.143969  1
  O  O38  1  0.630946  0.772981  0.402851  1
  O  O39  1  0.390719  0.246352  0.337318  1
  O  O40  1  0.533790  0.477806  0.257447  1
  O  O41  1  0.676061  0.524647  0.504255  1
  O  O42  1  0.957461  0.829976  0.786194  1
  O  O43  1  0.781247  0.728656  0.256860  1
  O  O44  1  0.672357  0.322275  0.324959  1
  O  O45  1  0.499656  0.001124  0.208226  1
  O  O46  1  0.794838  0.292381  0.790413  1
  O  O47  1  0.568096  0.195061  0.070920  1
  O  O48  1  0.978093  0.827877  0.503309  1
  O  O49  1  0.949965  0.564430  0.761102  1
  O  O50  1  0.999674  0.651612  0.323233  1
  O  O51  1  0.874871  0.503075  0.069425  1
  O  O52  1  0.800665  0.183302  0.239009  1
  O  O53  1  0.907246  0.058537  0.662343  1
  O  O54  1  0.841195  0.179052  0.022190  1
