# generated using pymatgen
data_BaSiO3
_symmetry_space_group_name_H-M   'P 1'
_cell_length_a   7.57376225
_cell_length_b   7.57376225
_cell_length_c   11.47001830
_cell_angle_alpha   71.29285807
_cell_angle_beta   108.70714193
_cell_angle_gamma   119.86404470
_symmetry_Int_Tables_number   1
_chemical_formula_structural   BaSiO3
_chemical_formula_sum   'Ba6 Si6 O18'
_cell_volume   529.94365803
_cell_formula_units_Z   6
loop_
 _symmetry_equiv_pos_site_id
 _symmetry_equiv_pos_as_xyz
  1  'x, y, z'
loop_
 _atom_site_type_symbol
 _atom_site_label
 _atom_site_symmetry_multiplicity
 _atom_site_fract_x
 _atom_site_fract_y
 _atom_site_fract_z
 _atom_site_occupancy
  Ba  Ba0  1  0.000000  0.500000  0.500000  1
  Ba  Ba1  1  0.674110  0.849587  0.500962  1
  Ba  Ba2  1  0.849587  0.674110  0.999038  1
  Ba  Ba3  1  0.150413  0.325890  0.000962  1
  Ba  Ba4  1  0.325890  0.150413  0.499038  1
  Ba  Ba5  1  0.500000  0.000000  0.000000  1
  Si  Si6  1  0.418307  0.656068  0.753781  1
  Si  Si7  1  0.178908  0.178908  0.750000  1
  Si  Si8  1  0.343932  0.581693  0.253781  1
  Si  Si9  1  0.656068  0.418307  0.746219  1
  Si  Si10  1  0.821092  0.821092  0.250000  1
  Si  Si11  1  0.581693  0.343932  0.246219  1
  O  O12  1  0.374004  0.803929  0.622158  1
  O  O13  1  0.462622  0.712489  0.887294  1
  O  O14  1  0.214447  0.417217  0.751572  1
  O  O15  1  0.196071  0.625996  0.122158  1
  O  O16  1  0.287511  0.537378  0.387294  1
  O  O17  1  0.031243  0.120133  0.617775  1
  O  O18  1  0.620528  0.620528  0.750000  1
  O  O19  1  0.120133  0.031243  0.882225  1
  O  O20  1  0.582783  0.785553  0.251572  1
  O  O21  1  0.417217  0.214447  0.748428  1
  O  O22  1  0.879867  0.968757  0.117775  1
  O  O23  1  0.379472  0.379472  0.250000  1
  O  O24  1  0.968757  0.879867  0.382225  1
  O  O25  1  0.712489  0.462622  0.612706  1
  O  O26  1  0.803929  0.374004  0.877842  1
  O  O27  1  0.785553  0.582783  0.248428  1
  O  O28  1  0.537378  0.287511  0.112706  1
  O  O29  1  0.625996  0.196071  0.377842  1
