# generated using pymatgen
data_Li3Mn4(BO3)4
_symmetry_space_group_name_H-M   'P 1'
_cell_length_a   5.89372378
_cell_length_b   9.84392876
_cell_length_c   9.07375311
_cell_angle_alpha   98.17912778
_cell_angle_beta   102.77226885
_cell_angle_gamma   80.15443604
_symmetry_Int_Tables_number   1
_chemical_formula_structural   Li3Mn4(BO3)4
_chemical_formula_sum   'Li6 Mn8 B8 O24'
_cell_volume   502.84996689
_cell_formula_units_Z   2
loop_
 _symmetry_equiv_pos_site_id
 _symmetry_equiv_pos_as_xyz
  1  'x, y, z'
loop_
 _atom_site_type_symbol
 _atom_site_label
 _atom_site_symmetry_multiplicity
 _atom_site_fract_x
 _atom_site_fract_y
 _atom_site_fract_z
 _atom_site_occupancy
  Li  Li0  1  0.700392  0.960103  0.531782  1
  Li  Li1  1  0.769423  0.545164  0.469394  1
  Li  Li2  1  0.480577  0.204836  0.030606  1
  Li  Li3  1  0.549608  0.789897  0.968218  1
  Li  Li4  1  0.227276  0.461623  0.533667  1
  Li  Li5  1  0.022724  0.288377  0.966333  1
  Mn  Mn6  1  0.788583  0.970325  0.193640  1
  Mn  Mn7  1  0.983439  0.263515  0.301068  1
  Mn  Mn8  1  0.729307  0.519261  0.811333  1
  Mn  Mn9  1  0.461417  0.779675  0.306360  1
  Mn  Mn10  1  0.520693  0.230739  0.688667  1
  Mn  Mn11  1  0.266561  0.486485  0.198932  1
  Mn  Mn12  1  0.025050  0.729622  0.715518  1
  Mn  Mn13  1  0.224950  0.020378  0.784482  1
  B  B14  1  0.983451  0.286107  0.635600  1
  B  B15  1  0.724202  0.526783  0.135010  1
  B  B16  1  0.766939  0.980045  0.860467  1
  B  B17  1  0.483061  0.769955  0.639533  1
  B  B18  1  0.525798  0.223217  0.364990  1
  B  B19  1  0.237915  0.023784  0.125130  1
  B  B20  1  0.266549  0.463893  0.864400  1
  B  B21  1  0.012085  0.726216  0.374870  1
  O  O22  1  0.908609  0.415162  0.139770  1
  O  O23  1  0.820403  0.834434  0.358075  1
  O  O24  1  0.887941  0.943179  0.740063  1
  O  O25  1  0.935947  0.364867  0.517037  1
  O  O26  1  0.654742  0.602800  0.013441  1
  O  O27  1  0.810324  0.896946  0.975160  1
  O  O28  1  0.843975  0.308062  0.747695  1
  O  O29  1  0.608809  0.563167  0.257578  1
  O  O30  1  0.655387  0.654255  0.644583  1
  O  O31  1  0.429597  0.915566  0.141925  1
  O  O32  1  0.641191  0.186833  0.242422  1
  O  O33  1  0.439676  0.853054  0.524840  1
  O  O34  1  0.595258  0.147200  0.486559  1
  O  O35  1  0.362059  0.806821  0.759937  1
  O  O36  1  0.594613  0.095745  0.855417  1
  O  O37  1  0.341391  0.334838  0.360230  1
  O  O38  1  0.406025  0.441938  0.752305  1
  O  O39  1  0.152309  0.698778  0.266223  1
  O  O40  1  0.197551  0.106210  0.008873  1
  O  O41  1  0.314053  0.385133  0.982963  1
  O  O42  1  0.052449  0.643790  0.491127  1
  O  O43  1  0.097691  0.051222  0.233777  1
  O  O44  1  0.183094  0.188055  0.660697  1
  O  O45  1  0.066906  0.561945  0.839303  1
