# generated using pymatgen
data_VSiO3
_symmetry_space_group_name_H-M   'P 1'
_cell_length_a   6.64927737
_cell_length_b   6.64927737
_cell_length_c   5.12085590
_cell_angle_alpha   82.08156629
_cell_angle_beta   97.91843371
_cell_angle_gamma   92.93386745
_symmetry_Int_Tables_number   1
_chemical_formula_structural   VSiO3
_chemical_formula_sum   'V4 Si4 O12'
_cell_volume   221.99119750
_cell_formula_units_Z   4
loop_
 _symmetry_equiv_pos_site_id
 _symmetry_equiv_pos_as_xyz
  1  'x, y, z'
loop_
 _atom_site_type_symbol
 _atom_site_label
 _atom_site_symmetry_multiplicity
 _atom_site_fract_x
 _atom_site_fract_y
 _atom_site_fract_z
 _atom_site_occupancy
  V  V0  1  0.093572  0.093572  0.750000  1
  V  V1  1  0.719569  0.719569  0.750000  1
  V  V2  1  0.280431  0.280431  0.250000  1
  V  V3  1  0.906428  0.906428  0.250000  1
  Si  Si4  1  0.209085  0.611652  0.711289  1
  Si  Si5  1  0.388348  0.790915  0.211289  1
  Si  Si6  1  0.611652  0.209085  0.788711  1
  Si  Si7  1  0.790915  0.388348  0.288711  1
  O  O8  1  0.031296  0.779401  0.648213  1
  O  O9  1  0.220599  0.968704  0.148213  1
  O  O10  1  0.404883  0.702984  0.917928  1
  O  O11  1  0.145904  0.393439  0.855054  1
  O  O12  1  0.297016  0.595117  0.417928  1
  O  O13  1  0.606561  0.854096  0.355054  1
  O  O14  1  0.393439  0.145904  0.644946  1
  O  O15  1  0.702984  0.404883  0.582072  1
  O  O16  1  0.854096  0.606561  0.144946  1
  O  O17  1  0.595117  0.297016  0.082072  1
  O  O18  1  0.779401  0.031296  0.851787  1
  O  O19  1  0.968704  0.220599  0.351787  1
