# generated using pymatgen
data_K4Ti3Co(PO4)6
_symmetry_space_group_name_H-M   'P 1'
_cell_length_a   10.01531252
_cell_length_b   10.01074244
_cell_length_c   10.00266340
_cell_angle_alpha   90.00000000
_cell_angle_beta   90.00000000
_cell_angle_gamma   90.09974883
_symmetry_Int_Tables_number   1
_chemical_formula_structural   K4Ti3Co(PO4)6
_chemical_formula_sum   'K8 Ti6 Co2 P12 O48'
_cell_volume   1002.87265523
_cell_formula_units_Z   2
loop_
 _symmetry_equiv_pos_site_id
 _symmetry_equiv_pos_as_xyz
  1  'x, y, z'
loop_
 _atom_site_type_symbol
 _atom_site_label
 _atom_site_symmetry_multiplicity
 _atom_site_fract_x
 _atom_site_fract_y
 _atom_site_fract_z
 _atom_site_occupancy
  K  K0  1  0.038438  0.549916  0.955265  1
  K  K1  1  0.180173  0.820693  0.318485  1
  K  K2  1  0.319827  0.179307  0.818485  1
  K  K3  1  0.461562  0.450084  0.455265  1
  K  K4  1  0.552822  0.959792  0.045098  1
  K  K5  1  0.687449  0.688536  0.686005  1
  K  K6  1  0.812551  0.311464  0.186005  1
  K  K7  1  0.947178  0.040208  0.545098  1
  Ti  Ti8  1  0.106529  0.390119  0.609815  1
  Ti  Ti9  1  0.162366  0.160187  0.163102  1
  Ti  Ti10  1  0.337634  0.839813  0.663102  1
  Ti  Ti11  1  0.393471  0.609881  0.109815  1
  Ti  Ti12  1  0.663528  0.332822  0.835121  1
  Ti  Ti13  1  0.836472  0.667178  0.335121  1
  Co  Co14  1  0.605625  0.105110  0.394686  1
  Co  Co15  1  0.894375  0.894890  0.894686  1
  P  P16  1  0.024667  0.707995  0.621983  1
  P  P17  1  0.123172  0.476113  0.292643  1
  P  P18  1  0.206896  0.872877  0.978696  1
  P  P19  1  0.293104  0.127123  0.478696  1
  P  P20  1  0.376828  0.523887  0.792643  1
  P  P21  1  0.475333  0.292005  0.121983  1
  P  P22  1  0.521135  0.793863  0.374314  1
  P  P23  1  0.625803  0.020694  0.706626  1
  P  P24  1  0.708027  0.620558  0.023553  1
  P  P25  1  0.791973  0.379442  0.523553  1
  P  P26  1  0.874197  0.979306  0.206626  1
  P  P27  1  0.978865  0.206137  0.874314  1
  O  O28  1  0.016102  0.048620  0.221859  1
  O  O29  1  0.022295  0.557646  0.664408  1
  O  O30  1  0.048371  0.305347  0.774013  1
  O  O31  1  0.053836  0.228607  0.009452  1
  O  O32  1  0.065922  0.819937  0.990739  1
  O  O33  1  0.103079  0.329457  0.248143  1
  O  O34  1  0.172859  0.750998  0.601500  1
  O  O35  1  0.169878  0.481095  0.440406  1
  O  O36  1  0.195212  0.227697  0.548697  1
  O  O37  1  0.230197  0.008875  0.052306  1
  O  O38  1  0.228562  0.548113  0.204389  1
  O  O39  1  0.246829  0.105796  0.331435  1
  O  O40  1  0.253171  0.894204  0.831435  1
  O  O41  1  0.271438  0.451887  0.704389  1
  O  O42  1  0.269803  0.991125  0.552306  1
  O  O43  1  0.304788  0.772303  0.048697  1
  O  O44  1  0.330122  0.518905  0.940406  1
  O  O45  1  0.327141  0.249002  0.101500  1
  O  O46  1  0.396921  0.670543  0.748143  1
  O  O47  1  0.434078  0.180063  0.490739  1
  O  O48  1  0.446164  0.771393  0.509452  1
  O  O49  1  0.451629  0.694653  0.274013  1
  O  O50  1  0.477705  0.442354  0.164408  1
  O  O51  1  0.483898  0.951380  0.721859  1
  O  O52  1  0.509334  0.447610  0.770599  1
  O  O53  1  0.508400  0.934362  0.320183  1
  O  O54  1  0.548724  0.207753  0.222477  1
  O  O55  1  0.547443  0.275501  0.984486  1
  O  O56  1  0.557688  0.664602  0.021318  1
  O  O57  1  0.603399  0.170722  0.751279  1
  O  O58  1  0.668138  0.747381  0.395127  1
  O  O59  1  0.674104  0.011552  0.562966  1
  O  O60  1  0.706271  0.279610  0.451017  1
  O  O61  1  0.722318  0.483622  0.951068  1
  O  O62  1  0.716766  0.949870  0.804231  1
  O  O63  1  0.749986  0.399663  0.672511  1
  O  O64  1  0.750014  0.600337  0.172511  1
  O  O65  1  0.783234  0.050130  0.304231  1
  O  O66  1  0.777682  0.516378  0.451068  1
  O  O67  1  0.793729  0.720390  0.951017  1
  O  O68  1  0.825896  0.988448  0.062966  1
  O  O69  1  0.831862  0.252619  0.895127  1
  O  O70  1  0.896601  0.829278  0.251279  1
  O  O71  1  0.942312  0.335398  0.521318  1
  O  O72  1  0.952557  0.724499  0.484486  1
  O  O73  1  0.951276  0.792247  0.722477  1
  O  O74  1  0.991600  0.065638  0.820183  1
  O  O75  1  0.990666  0.552390  0.270599  1
