# generated using pymatgen
data_LiVF4
_symmetry_space_group_name_H-M   'P 1'
_cell_length_a   4.96898288
_cell_length_b   6.09777343
_cell_length_c   4.96898297
_cell_angle_alpha   65.95572880
_cell_angle_beta   90.00000001
_cell_angle_gamma   114.04427651
_symmetry_Int_Tables_number   1
_chemical_formula_structural   LiVF4
_chemical_formula_sum   'Li2 V2 F8'
_cell_volume   123.05193550
_cell_formula_units_Z   2
loop_
 _symmetry_equiv_pos_site_id
 _symmetry_equiv_pos_as_xyz
  1  'x, y, z'
loop_
 _atom_site_type_symbol
 _atom_site_label
 _atom_site_symmetry_multiplicity
 _atom_site_fract_x
 _atom_site_fract_y
 _atom_site_fract_z
 _atom_site_occupancy
  Li  Li0  1  0.875000  0.250000  0.875000  1
  Li  Li1  1  0.125000  0.750000  0.125000  1
  V  V2  1  0.625000  0.750000  0.625000  1
  V  V3  1  0.375000  0.250000  0.375000  1
  F  F4  1  0.987785  0.057267  0.697706  1
  F  F5  1  0.569483  0.057267  0.245027  1
  F  F6  1  0.697706  0.442733  0.569483  1
  F  F7  1  0.754973  0.557267  0.012215  1
  F  F8  1  0.302294  0.557267  0.430517  1
  F  F9  1  0.245027  0.442733  0.987785  1
  F  F10  1  0.430517  0.942733  0.754973  1
  F  F11  1  0.012215  0.942733  0.302294  1
