# generated using pymatgen
data_H12PtN6(ClO3)2
_symmetry_space_group_name_H-M   'P 1'
_cell_length_a   6.75392291
_cell_length_b   7.18187030
_cell_length_c   6.65283517
_cell_angle_alpha   114.58042418
_cell_angle_beta   96.56579142
_cell_angle_gamma   100.62831343
_symmetry_Int_Tables_number   1
_chemical_formula_structural   H12PtN6(ClO3)2
_chemical_formula_sum   'H12 Pt1 N6 Cl2 O6'
_cell_volume   281.75560789
_cell_formula_units_Z   1
loop_
 _symmetry_equiv_pos_site_id
 _symmetry_equiv_pos_as_xyz
  1  'x, y, z'
loop_
 _atom_site_type_symbol
 _atom_site_label
 _atom_site_symmetry_multiplicity
 _atom_site_fract_x
 _atom_site_fract_y
 _atom_site_fract_z
 _atom_site_occupancy
  H  H0  1  0.939455  0.139077  0.414109  1
  H  H1  1  0.060545  0.860923  0.585891  1
  H  H2  1  0.741410  0.153856  0.253688  1
  H  H3  1  0.258590  0.846144  0.746312  1
  H  H4  1  0.748278  0.921625  0.253075  1
  H  H5  1  0.251722  0.078375  0.746925  1
  H  H6  1  0.158711  0.367970  0.023547  1
  H  H7  1  0.841289  0.632030  0.976453  1
  H  H8  1  0.072760  0.411138  0.256274  1
  H  H9  1  0.927240  0.588862  0.743726  1
  H  H10  1  0.302342  0.346112  0.231434  1
  H  H11  1  0.697658  0.653888  0.768566  1
  Pt  Pt12  1  0.000000  0.000000  0.000000  1
  N  N13  1  0.837736  0.058387  0.258974  1
  N  N14  1  0.162264  0.941613  0.741026  1
  N  N15  1  0.152400  0.319228  0.148581  1
  N  N16  1  0.847600  0.680772  0.851419  1
  N  N17  1  0.318017  0.447104  0.716511  1
  N  N18  1  0.681983  0.552896  0.283489  1
  Cl  Cl19  1  0.746912  0.065879  0.786484  1
  Cl  Cl20  1  0.253088  0.934121  0.213516  1
  O  O21  1  0.399889  0.611376  0.697743  1
  O  O22  1  0.600111  0.388624  0.302257  1
  O  O23  1  0.426745  0.338631  0.759502  1
  O  O24  1  0.573255  0.661369  0.240499  1
  O  O25  1  0.120972  0.391429  0.691817  1
  O  O26  1  0.879028  0.608571  0.308183  1
