# generated using pymatgen
data_Na9Ni11O20
_symmetry_space_group_name_H-M   'P 1'
_cell_length_a   7.76933460
_cell_length_b   8.04933064
_cell_length_c   7.04900614
_cell_angle_alpha   91.47090978
_cell_angle_beta   88.44692594
_cell_angle_gamma   65.25492256
_symmetry_Int_Tables_number   1
_chemical_formula_structural   Na9Ni11O20
_chemical_formula_sum   'Na9 Ni11 O20'
_cell_volume   399.87308098
_cell_formula_units_Z   1
loop_
 _symmetry_equiv_pos_site_id
 _symmetry_equiv_pos_as_xyz
  1  'x, y, z'
loop_
 _atom_site_type_symbol
 _atom_site_label
 _atom_site_symmetry_multiplicity
 _atom_site_fract_x
 _atom_site_fract_y
 _atom_site_fract_z
 _atom_site_occupancy
  Na  Na0  1  0.902094  0.901542  0.395536  1
  Na  Na1  1  0.898592  0.400717  0.898923  1
  Na  Na2  1  0.697906  0.698458  0.204464  1
  Na  Na3  1  0.498643  0.503015  0.002562  1
  Na  Na4  1  0.701408  0.199283  0.701077  1
  Na  Na5  1  0.300000  0.800000  0.300000  1
  Na  Na6  1  0.501019  0.997272  0.499719  1
  Na  Na7  1  0.098981  0.602728  0.100281  1
  Na  Na8  1  0.101357  0.096985  0.597438  1
  Ni  Ni9  1  0.800000  0.800000  0.800000  1
  Ni  Ni10  1  0.800000  0.300000  0.300000  1
  Ni  Ni11  1  0.594865  0.102061  0.092607  1
  Ni  Ni12  1  0.599627  0.597913  0.604723  1
  Ni  Ni13  1  0.395767  0.908467  0.893625  1
  Ni  Ni14  1  0.400888  0.399471  0.406930  1
  Ni  Ni15  1  0.204233  0.691533  0.706375  1
  Ni  Ni16  1  0.199112  0.200529  0.193070  1
  Ni  Ni17  1  0.300000  0.300000  0.800000  1
  Ni  Ni18  1  0.000373  0.002087  0.995277  1
  Ni  Ni19  1  0.005135  0.497939  0.507393  1
  O  O20  1  0.960160  0.416526  0.222182  1
  O  O21  1  0.964574  0.911985  0.724289  1
  O  O22  1  0.823108  0.874559  0.063645  1
  O  O23  1  0.776892  0.725441  0.536355  1
  O  O24  1  0.847956  0.376771  0.576768  1
  O  O25  1  0.752044  0.223229  0.023232  1
  O  O26  1  0.437933  0.985994  0.178365  1
  O  O27  1  0.558795  0.520710  0.330370  1
  O  O28  1  0.639840  0.183474  0.377818  1
  O  O29  1  0.635426  0.688015  0.875711  1
  O  O30  1  0.429193  0.465013  0.692764  1
  O  O31  1  0.532565  0.045297  0.813766  1
  O  O32  1  0.354815  0.320393  0.105363  1
  O  O33  1  0.352439  0.816742  0.619947  1
  O  O34  1  0.162067  0.614006  0.421635  1
  O  O35  1  0.245185  0.279606  0.494637  1
  O  O36  1  0.247561  0.783258  0.980053  1
  O  O37  1  0.170807  0.134987  0.907236  1
  O  O38  1  0.067435  0.554703  0.786234  1
  O  O39  1  0.041205  0.079290  0.269630  1
