# generated using pymatgen
data_Li10Si(PO6)2
_symmetry_space_group_name_H-M   'P 1'
_cell_length_a   6.99575712
_cell_length_b   7.00022131
_cell_length_c   10.65401999
_cell_angle_alpha   90.89879810
_cell_angle_beta   89.71747707
_cell_angle_gamma   89.88465482
_symmetry_Int_Tables_number   1
_chemical_formula_structural   Li10Si(PO6)2
_chemical_formula_sum   'Li20 Si2 P4 O24'
_cell_volume   521.67537112
_cell_formula_units_Z   2
loop_
 _symmetry_equiv_pos_site_id
 _symmetry_equiv_pos_as_xyz
  1  'x, y, z'
loop_
 _atom_site_type_symbol
 _atom_site_label
 _atom_site_symmetry_multiplicity
 _atom_site_fract_x
 _atom_site_fract_y
 _atom_site_fract_z
 _atom_site_occupancy
  Li  Li0  1  0.985683  0.519277  0.935662  1
  Li  Li1  1  0.951748  0.519398  0.424702  1
  Li  Li2  1  0.524797  0.958096  0.561029  1
  Li  Li3  1  0.490734  0.009032  0.058544  1
  Li  Li4  1  0.264029  0.271156  0.155125  1
  Li  Li5  1  0.731825  0.733623  0.281019  1
  Li  Li6  1  0.200978  0.832401  0.746129  1
  Li  Li7  1  0.217318  0.757299  0.253061  1
  Li  Li8  1  0.754285  0.240286  0.355628  1
  Li  Li9  1  0.454767  0.524778  0.744671  1
  Li  Li10  1  0.230711  0.264186  0.378777  1
  Li  Li11  1  0.758391  0.249204  0.864218  1
  Li  Li12  1  0.221714  0.778070  0.999353  1
  Li  Li13  1  0.746223  0.242159  0.126950  1
  Li  Li14  1  0.762426  0.746628  0.690598  1
  Li  Li15  1  0.183355  0.235513  0.917863  1
  Li  Li16  1  0.772722  0.784961  0.005861  1
  Li  Li17  1  0.277505  0.697618  0.491047  1
  Li  Li18  1  0.752599  0.219923  0.628523  1
  Li  Li19  1  0.263236  0.205574  0.652357  1
  Si  Si20  1  0.997154  0.490382  0.175964  1
  Si  Si21  1  0.504919  0.990054  0.815054  1
  P  P22  1  0.995701  0.966046  0.498666  1
  P  P23  1  0.495271  0.509656  0.995041  1
  P  P24  1  0.013599  0.484329  0.685619  1
  P  P25  1  0.485692  0.004271  0.314012  1
  O  O26  1  0.991835  0.162884  0.434275  1
  O  O27  1  0.009299  0.793105  0.405538  1
  O  O28  1  0.314710  0.510071  0.908213  1
  O  O29  1  0.682462  0.512450  0.913416  1
  O  O30  1  0.488995  0.694879  0.077418  1
  O  O31  1  0.493559  0.319665  0.068502  1
  O  O32  1  0.178490  0.954736  0.583232  1
  O  O33  1  0.809852  0.954549  0.579218  1
  O  O34  1  0.010871  0.315867  0.068638  1
  O  O35  1  0.001857  0.694178  0.098757  1
  O  O36  1  0.206122  0.485300  0.609767  1
  O  O37  1  0.837744  0.487827  0.596519  1
  O  O38  1  0.476466  0.805888  0.378219  1
  O  O39  1  0.491756  0.164284  0.417476  1
  O  O40  1  0.300117  0.989450  0.894830  1
  O  O41  1  0.683182  0.997802  0.914476  1
  O  O42  1  0.998153  0.661421  0.774713  1
  O  O43  1  0.005233  0.297226  0.764354  1
  O  O44  1  0.803612  0.466179  0.262690  1
  O  O45  1  0.179111  0.475357  0.273374  1
  O  O46  1  0.519579  0.182718  0.724706  1
  O  O47  1  0.497071  0.800842  0.719095  1
  O  O48  1  0.670968  0.017370  0.232069  1
  O  O49  1  0.308974  0.029135  0.228231  1
