# generated using pymatgen
data_Li24Ti7Cr5O36
_symmetry_space_group_name_H-M   'P 1'
_cell_length_a   5.06305657
_cell_length_b   13.44869724
_cell_length_c   9.80866798
_cell_angle_alpha   97.56768724
_cell_angle_beta   94.62804660
_cell_angle_gamma   101.06543690
_symmetry_Int_Tables_number   1
_chemical_formula_structural   Li24Ti7Cr5O36
_chemical_formula_sum   'Li24 Ti7 Cr5 O36'
_cell_volume   645.89525078
_cell_formula_units_Z   1
loop_
 _symmetry_equiv_pos_site_id
 _symmetry_equiv_pos_as_xyz
  1  'x, y, z'
loop_
 _atom_site_type_symbol
 _atom_site_label
 _atom_site_symmetry_multiplicity
 _atom_site_fract_x
 _atom_site_fract_y
 _atom_site_fract_z
 _atom_site_occupancy
  Li  Li0  1  0.839793  0.166050  0.998822  1
  Li  Li1  1  0.956094  0.388756  0.999336  1
  Li  Li2  1  0.000272  0.750149  0.250130  1
  Li  Li3  1  0.666036  0.084077  0.250100  1
  Li  Li4  1  0.952724  0.887918  0.501448  1
  Li  Li5  1  0.614501  0.219406  0.498147  1
  Li  Li6  1  0.828423  0.666612  0.499970  1
  Li  Li7  1  0.504724  0.000512  0.499360  1
  Li  Li8  1  0.719164  0.448323  0.500302  1
  Li  Li9  1  0.670143  0.584325  0.749758  1
  Li  Li10  1  0.497618  0.499120  0.999654  1
  Li  Li11  1  0.711979  0.945644  0.998444  1
  Li  Li12  1  0.375977  0.279177  0.001057  1
  Li  Li13  1  0.622811  0.721733  0.998222  1
  Li  Li14  1  0.284375  0.054893  0.001288  1
  Li  Li15  1  0.332303  0.416179  0.249786  1
  Li  Li16  1  0.281752  0.551980  0.501035  1
  Li  Li17  1  0.168876  0.332404  0.501023  1
  Li  Li18  1  0.383218  0.780247  0.500287  1
  Li  Li19  1  0.046646  0.112788  0.500227  1
  Li  Li20  1  0.333480  0.916629  0.750293  1
  Li  Li21  1  0.163888  0.832817  0.001350  1
  Li  Li22  1  0.999386  0.249688  0.749871  1
  Li  Li23  1  0.048765  0.611634  0.000675  1
  Ti  Ti24  1  0.774186  0.306881  0.245648  1
  Ti  Ti25  1  0.559607  0.361288  0.754155  1
  Ti  Ti26  1  0.440074  0.138618  0.746701  1
  Ti  Ti27  1  0.557992  0.859316  0.247861  1
  Ti  Ti28  1  0.444158  0.635347  0.249793  1
  Ti  Ti29  1  0.220013  0.693443  0.749127  1
  Ti  Ti30  1  0.116424  0.974277  0.254476  1
  Cr  Cr31  1  0.881724  0.025814  0.749126  1
  Cr  Cr32  1  0.891492  0.528666  0.251476  1
  Cr  Cr33  1  0.782568  0.807336  0.751977  1
  Cr  Cr34  1  0.217172  0.194367  0.250499  1
  Cr  Cr35  1  0.115948  0.473050  0.748998  1
  O  O36  1  0.001819  0.074497  0.138481  1
  O  O37  1  0.936675  0.215570  0.364008  1
  O  O38  1  0.997528  0.571993  0.636102  1
  O  O39  1  0.860350  0.358159  0.637741  1
  O  O40  1  0.734394  0.118772  0.634157  1
  O  O41  1  0.666783  0.406462  0.137520  1
  O  O42  1  0.932348  0.714643  0.866788  1
  O  O43  1  0.814603  0.478237  0.861473  1
  O  O44  1  0.603492  0.047294  0.864890  1
  O  O45  1  0.856469  0.856534  0.135978  1
  O  O46  1  0.742527  0.615700  0.136179  1
  O  O47  1  0.519265  0.189675  0.137538  1
  O  O48  1  0.665171  0.262626  0.864839  1
  O  O49  1  0.810296  0.977691  0.363598  1
  O  O50  1  0.591354  0.547832  0.366789  1
  O  O51  1  0.473151  0.308694  0.362134  1
  O  O52  1  0.666880  0.762290  0.363509  1
  O  O53  1  0.339630  0.095791  0.363792  1
  O  O54  1  0.666576  0.907860  0.639257  1
  O  O55  1  0.333620  0.237574  0.635900  1
  O  O56  1  0.526292  0.692082  0.637677  1
  O  O57  1  0.396235  0.452828  0.635567  1
  O  O58  1  0.185469  0.021496  0.638194  1
  O  O59  1  0.332068  0.736381  0.136179  1
  O  O60  1  0.481578  0.810707  0.861877  1
  O  O61  1  0.264423  0.380756  0.865393  1
  O  O62  1  0.139359  0.140981  0.861941  1
  O  O63  1  0.403080  0.951753  0.133902  1
  O  O64  1  0.193376  0.522174  0.136145  1
  O  O65  1  0.069035  0.285520  0.134008  1
  O  O66  1  0.332556  0.592567  0.862078  1
  O  O67  1  0.262387  0.881926  0.366161  1
  O  O68  1  0.134720  0.641458  0.362498  1
  O  O69  1  0.999238  0.431205  0.361394  1
  O  O70  1  0.063261  0.785539  0.635021  1
  O  O71  1  0.999686  0.925269  0.860870  1
