# generated using pymatgen
data_NaLi2MnPCO7
_symmetry_space_group_name_H-M   'P 1'
_cell_length_a   8.72124227
_cell_length_b   6.66461297
_cell_length_c   10.07300448
_cell_angle_alpha   90.24389058
_cell_angle_beta   89.17929460
_cell_angle_gamma   89.23364278
_symmetry_Int_Tables_number   1
_chemical_formula_structural   NaLi2MnPCO7
_chemical_formula_sum   'Na4 Li8 Mn4 P4 C4 O28'
_cell_volume   585.36211184
_cell_formula_units_Z   4
loop_
 _symmetry_equiv_pos_site_id
 _symmetry_equiv_pos_as_xyz
  1  'x, y, z'
loop_
 _atom_site_type_symbol
 _atom_site_label
 _atom_site_symmetry_multiplicity
 _atom_site_fract_x
 _atom_site_fract_y
 _atom_site_fract_z
 _atom_site_occupancy
  Na  Na0  1  0.083067  0.248118  0.878715  1
  Na  Na1  1  0.083148  0.245329  0.379750  1
  Na  Na2  1  0.254171  0.501040  0.123493  1
  Na  Na3  1  0.745796  0.500350  0.376872  1
  Li  Li4  1  0.264401  0.013208  0.618027  1
  Li  Li5  1  0.263803  0.487973  0.619223  1
  Li  Li6  1  0.265447  0.011218  0.118915  1
  Li  Li7  1  0.736932  0.511431  0.880857  1
  Li  Li8  1  0.736611  0.987348  0.881900  1
  Li  Li9  1  0.735466  0.989267  0.381242  1
  Li  Li10  1  0.917397  0.752905  0.623885  1
  Li  Li11  1  0.914672  0.758394  0.120712  1
  Mn  Mn12  1  0.359047  0.752734  0.885810  1
  Mn  Mn13  1  0.360162  0.749587  0.391363  1
  Mn  Mn14  1  0.642631  0.247166  0.614316  1
  Mn  Mn15  1  0.641094  0.249808  0.109004  1
  P  P16  1  0.411102  0.249876  0.848231  1
  P  P17  1  0.411053  0.241172  0.353093  1
  P  P18  1  0.594426  0.750034  0.652104  1
  P  P19  1  0.594688  0.758097  0.147278  1
  C  C20  1  0.044061  0.751047  0.866012  1
  C  C21  1  0.047341  0.759059  0.367146  1
  C  C22  1  0.948416  0.248800  0.633621  1
  C  C23  1  0.945292  0.240633  0.132110  1
  O  O24  1  0.097960  0.250920  0.641331  1
  O  O25  1  0.094115  0.228390  0.141158  1
  O  O26  1  0.096771  0.752317  0.986685  1
  O  O27  1  0.098823  0.750104  0.487991  1
  O  O28  1  0.139496  0.752062  0.764914  1
  O  O29  1  0.143831  0.753912  0.266650  1
  O  O30  1  0.320648  0.067188  0.901547  1
  O  O31  1  0.320492  0.438625  0.896778  1
  O  O32  1  0.314925  0.062866  0.405833  1
  O  O33  1  0.322442  0.434008  0.400261  1
  O  O34  1  0.412583  0.246014  0.692560  1
  O  O35  1  0.424534  0.750903  0.603083  1
  O  O36  1  0.417146  0.234424  0.197700  1
  O  O37  1  0.427666  0.765951  0.094916  1
  O  O38  1  0.580380  0.249276  0.895431  1
  O  O39  1  0.587594  0.754152  0.807625  1
  O  O40  1  0.577573  0.233806  0.403493  1
  O  O41  1  0.583224  0.765519  0.302353  1
  O  O42  1  0.686704  0.562692  0.604639  1
  O  O43  1  0.687701  0.930708  0.599890  1
  O  O44  1  0.684837  0.566606  0.101039  1
  O  O45  1  0.694220  0.933891  0.095815  1
  O  O46  1  0.862755  0.248164  0.740157  1
  O  O47  1  0.859375  0.244994  0.238540  1
  O  O48  1  0.883040  0.247075  0.518757  1
  O  O49  1  0.881055  0.249847  0.017058  1
  O  O50  1  0.897748  0.749043  0.845328  1
  O  O51  1  0.902142  0.771945  0.344788  1
