# generated using pymatgen
data_LiCu2PO4
_symmetry_space_group_name_H-M   'P 1'
_cell_length_a   4.39723537
_cell_length_b   5.50896027
_cell_length_c   4.39723537
_cell_angle_alpha   66.47817337
_cell_angle_beta   90.00000000
_cell_angle_gamma   113.52182663
_symmetry_Int_Tables_number   1
_chemical_formula_structural   LiCu2PO4
_chemical_formula_sum   'Li1 Cu2 P1 O4'
_cell_volume   87.93123635
_cell_formula_units_Z   1
loop_
 _symmetry_equiv_pos_site_id
 _symmetry_equiv_pos_as_xyz
  1  'x, y, z'
loop_
 _atom_site_type_symbol
 _atom_site_label
 _atom_site_symmetry_multiplicity
 _atom_site_fract_x
 _atom_site_fract_y
 _atom_site_fract_z
 _atom_site_occupancy
  Li  Li0  1  0.000000  0.000000  0.000000  1
  Cu  Cu1  1  0.250000  0.500000  0.250000  1
  Cu  Cu2  1  0.750000  0.500000  0.750000  1
  P  P3  1  0.500000  0.000000  0.500000  1
  O  O4  1  0.803897  0.193646  0.196103  1
  O  O5  1  0.389749  0.193646  0.610251  1
  O  O6  1  0.196103  0.806354  0.389749  1
  O  O7  1  0.610251  0.806354  0.803897  1
