# generated using pymatgen
data_Ta2CrNO5
_symmetry_space_group_name_H-M   'P 1'
_cell_length_a   4.74277923
_cell_length_b   4.74277923
_cell_length_c   9.27938665
_cell_angle_alpha   90.00000000
_cell_angle_beta   90.00000000
_cell_angle_gamma   89.54154838
_symmetry_Int_Tables_number   1
_chemical_formula_structural   Ta2CrNO5
_chemical_formula_sum   'Ta4 Cr2 N2 O10'
_cell_volume   208.72342196
_cell_formula_units_Z   2
loop_
 _symmetry_equiv_pos_site_id
 _symmetry_equiv_pos_as_xyz
  1  'x, y, z'
loop_
 _atom_site_type_symbol
 _atom_site_label
 _atom_site_symmetry_multiplicity
 _atom_site_fract_x
 _atom_site_fract_y
 _atom_site_fract_z
 _atom_site_occupancy
  Ta  Ta0  1  0.000000  0.000000  0.343550  1
  Ta  Ta1  1  0.000000  0.000000  0.656450  1
  Ta  Ta2  1  0.500000  0.500000  0.168006  1
  Ta  Ta3  1  0.500000  0.500000  0.831994  1
  Cr  Cr4  1  0.000000  0.000000  0.000000  1
  Cr  Cr5  1  0.500000  0.500000  0.500000  1
  N  N6  1  0.195512  0.804488  0.500000  1
  N  N7  1  0.804488  0.195512  0.500000  1
  O  O8  1  0.199333  0.800667  0.835845  1
  O  O9  1  0.199333  0.800667  0.164155  1
  O  O10  1  0.304504  0.304504  0.326571  1
  O  O11  1  0.304504  0.304504  0.673429  1
  O  O12  1  0.306353  0.306353  0.000000  1
  O  O13  1  0.693647  0.693647  0.000000  1
  O  O14  1  0.695496  0.695496  0.326571  1
  O  O15  1  0.695496  0.695496  0.673429  1
  O  O16  1  0.800667  0.199333  0.164155  1
  O  O17  1  0.800667  0.199333  0.835845  1
