# generated using pymatgen
data_LiFe2(BO3)2
_symmetry_space_group_name_H-M   'P 1'
_cell_length_a   5.28525762
_cell_length_b   9.04158231
_cell_length_c   10.08514032
_cell_angle_alpha   90.00000142
_cell_angle_beta   92.21619696
_cell_angle_gamma   90.00000201
_symmetry_Int_Tables_number   1
_chemical_formula_structural   LiFe2(BO3)2
_chemical_formula_sum   'Li4 Fe8 B8 O24'
_cell_volume   481.57904762
_cell_formula_units_Z   4
loop_
 _symmetry_equiv_pos_site_id
 _symmetry_equiv_pos_as_xyz
  1  'x, y, z'
loop_
 _atom_site_type_symbol
 _atom_site_label
 _atom_site_symmetry_multiplicity
 _atom_site_fract_x
 _atom_site_fract_y
 _atom_site_fract_z
 _atom_site_occupancy
  Li  Li0  1  0.648308  0.006358  0.090704  1
  Li  Li1  1  0.148308  0.493642  0.590704  1
  Li  Li2  1  0.843410  0.510881  0.848036  1
  Li  Li3  1  0.343410  0.989119  0.348036  1
  Fe  Fe4  1  0.151322  0.167468  0.117947  1
  Fe  Fe5  1  0.838309  0.171155  0.372406  1
  Fe  Fe6  1  0.338309  0.328845  0.872405  1
  Fe  Fe7  1  0.651322  0.332532  0.617947  1
  Fe  Fe8  1  0.334655  0.650684  0.363415  1
  Fe  Fe9  1  0.168277  0.837538  0.625834  1
  Fe  Fe10  1  0.668277  0.662462  0.125834  1
  Fe  Fe11  1  0.834655  0.849316  0.863415  1
  B  B12  1  0.159603  0.165652  0.622003  1
  B  B13  1  0.324132  0.323887  0.377687  1
  B  B14  1  0.824132  0.176113  0.877687  1
  B  B15  1  0.659603  0.334348  0.122003  1
  B  B16  1  0.341277  0.662774  0.867292  1
  B  B17  1  0.670058  0.670623  0.622977  1
  B  B18  1  0.170058  0.829377  0.122977  1
  B  B19  1  0.841277  0.837226  0.367292  1
  O  O20  1  0.284337  0.034147  0.622875  1
  O  O21  1  0.080637  0.185675  0.909406  1
  O  O22  1  0.697687  0.047415  0.896648  1
  O  O23  1  0.201174  0.193366  0.334617  1
  O  O24  1  0.278356  0.296135  0.670197  1
  O  O25  1  0.778356  0.203865  0.170197  1
  O  O26  1  0.916447  0.180280  0.567753  1
  O  O27  1  0.416447  0.319720  0.067753  1
  O  O28  1  0.197687  0.452585  0.396648  1
  O  O29  1  0.580637  0.314325  0.409406  1
  O  O30  1  0.701174  0.306634  0.834617  1
  O  O31  1  0.215233  0.528225  0.858777  1
  O  O32  1  0.784337  0.465853  0.122875  1
  O  O33  1  0.304291  0.699138  0.148548  1
  O  O34  1  0.410484  0.676277  0.587101  1
  O  O35  1  0.791101  0.536432  0.638437  1
  O  O36  1  0.596015  0.669104  0.912955  1
  O  O37  1  0.096015  0.830896  0.412955  1
  O  O38  1  0.211318  0.789249  0.825144  1
  O  O39  1  0.711318  0.710751  0.325144  1
  O  O40  1  0.804291  0.800862  0.648548  1
  O  O41  1  0.291101  0.963568  0.138437  1
  O  O42  1  0.910484  0.823723  0.087101  1
  O  O43  1  0.715233  0.971775  0.358777  1
