# generated using pymatgen
data_Ca5TaTi3Al(SiO5)5
_symmetry_space_group_name_H-M   'P 1'
_cell_length_a   5.48276088
_cell_length_b   27.53030289
_cell_length_c   7.11569192
_cell_angle_alpha   104.26340264
_cell_angle_beta   103.80188041
_cell_angle_gamma   105.80947405
_symmetry_Int_Tables_number   1
_chemical_formula_structural   Ca5TaTi3Al(SiO5)5
_chemical_formula_sum   'Ca10 Ta2 Ti6 Al2 Si10 O50'
_cell_volume   946.22770254
_cell_formula_units_Z   2
loop_
 _symmetry_equiv_pos_site_id
 _symmetry_equiv_pos_as_xyz
  1  'x, y, z'
loop_
 _atom_site_type_symbol
 _atom_site_label
 _atom_site_symmetry_multiplicity
 _atom_site_fract_x
 _atom_site_fract_y
 _atom_site_fract_z
 _atom_site_occupancy
  Ca  Ca0  1  0.177591  0.967303  0.769508  1
  Ca  Ca1  1  0.183194  0.768418  0.776314  1
  Ca  Ca2  1  0.173883  0.567059  0.755808  1
  Ca  Ca3  1  0.167767  0.365337  0.750711  1
  Ca  Ca4  1  0.816806  0.831582  0.223686  1
  Ca  Ca5  1  0.167285  0.166066  0.748379  1
  Ca  Ca6  1  0.822409  0.632697  0.230492  1
  Ca  Ca7  1  0.832715  0.433934  0.251621  1
  Ca  Ca8  1  0.832233  0.234663  0.249289  1
  Ca  Ca9  1  0.826117  0.032941  0.244192  1
  Ta  Ta10  1  0.496020  0.899423  0.498495  1
  Ta  Ta11  1  0.503980  0.700577  0.501505  1
  Ti  Ti12  1  0.504870  0.500733  0.500959  1
  Ti  Ti13  1  0.498292  0.498645  0.997039  1
  Ti  Ti14  1  0.500000  0.300000  0.500000  1
  Ti  Ti15  1  0.500000  0.300000  0.000000  1
  Ti  Ti16  1  0.495130  0.099267  0.499041  1
  Ti  Ti17  1  0.501708  0.101355  0.002961  1
  Al  Al18  1  0.501554  0.901132  0.002099  1
  Al  Al19  1  0.498446  0.698868  0.997901  1
  Si  Si20  1  0.176893  0.963499  0.243013  1
  Si  Si21  1  0.173764  0.761712  0.238737  1
  Si  Si22  1  0.180377  0.562339  0.247602  1
  Si  Si23  1  0.826236  0.838288  0.761263  1
  Si  Si24  1  0.183506  0.363902  0.251733  1
  Si  Si25  1  0.823107  0.636501  0.756987  1
  Si  Si26  1  0.182526  0.163955  0.252875  1
  Si  Si27  1  0.817474  0.436045  0.747125  1
  Si  Si28  1  0.816494  0.236098  0.748267  1
  Si  Si29  1  0.819623  0.037661  0.752398  1
  O  O30  1  0.126025  0.852014  0.916926  1
  O  O31  1  0.184853  0.922406  0.382403  1
  O  O32  1  0.428969  0.913561  0.756080  1
  O  O33  1  0.123561  0.650542  0.913353  1
  O  O34  1  0.242504  0.822589  0.402251  1
  O  O35  1  0.395462  0.962398  0.120064  1
  O  O36  1  0.186406  0.722252  0.382432  1
  O  O37  1  0.606208  0.838631  0.882473  1
  O  O38  1  0.754435  0.976845  0.595124  1
  O  O39  1  0.429673  0.713184  0.755623  1
  O  O40  1  0.117775  0.449600  0.909625  1
  O  O41  1  0.570327  0.886816  0.244377  1
  O  O42  1  0.245565  0.623155  0.404876  1
  O  O43  1  0.393792  0.761369  0.117527  1
  O  O44  1  0.187228  0.521881  0.382823  1
  O  O45  1  0.813594  0.877748  0.617568  1
  O  O46  1  0.604538  0.637602  0.879936  1
  O  O47  1  0.757496  0.777411  0.597749  1
  O  O48  1  0.432969  0.513908  0.751003  1
  O  O49  1  0.117901  0.250124  0.910053  1
  O  O50  1  0.876439  0.949458  0.086647  1
  O  O51  1  0.571031  0.686439  0.243920  1
  O  O52  1  0.250708  0.424110  0.410790  1
  O  O53  1  0.393067  0.562292  0.118069  1
  O  O54  1  0.186786  0.322082  0.382916  1
  O  O55  1  0.815147  0.677594  0.617597  1
  O  O56  1  0.605750  0.436426  0.878270  1
  O  O57  1  0.752789  0.576410  0.591106  1
  O  O58  1  0.432034  0.314090  0.750904  1
  O  O59  1  0.119253  0.051193  0.913165  1
  O  O60  1  0.873975  0.747986  0.083074  1
  O  O61  1  0.569492  0.485688  0.248727  1
  O  O62  1  0.248257  0.224063  0.412171  1
  O  O63  1  0.393516  0.362867  0.119314  1
  O  O64  1  0.184231  0.121910  0.382506  1
  O  O65  1  0.815769  0.478090  0.617494  1
  O  O66  1  0.606484  0.237133  0.880686  1
  O  O67  1  0.751743  0.375937  0.587829  1
  O  O68  1  0.430508  0.114312  0.751273  1
  O  O69  1  0.880747  0.548807  0.086835  1
  O  O70  1  0.567966  0.285910  0.249096  1
  O  O71  1  0.247211  0.023590  0.408894  1
  O  O72  1  0.394250  0.163574  0.121730  1
  O  O73  1  0.813214  0.277918  0.617084  1
  O  O74  1  0.606933  0.037708  0.881931  1
  O  O75  1  0.749292  0.175890  0.589210  1
  O  O76  1  0.882099  0.349876  0.089947  1
  O  O77  1  0.567031  0.086092  0.248997  1
  O  O78  1  0.812772  0.078119  0.617177  1
  O  O79  1  0.882225  0.150400  0.090375  1
