# generated using pymatgen
data_Y2Bi2O7
_symmetry_space_group_name_H-M   'P 1'
_cell_length_a   8.23469343
_cell_length_b   14.02065136
_cell_length_c   5.76184435
_cell_angle_alpha   90.00000000
_cell_angle_beta   90.00000000
_cell_angle_gamma   99.30285604
_symmetry_Int_Tables_number   1
_chemical_formula_structural   Y2Bi2O7
_chemical_formula_sum   'Y8 Bi8 O28'
_cell_volume   656.48871234
_cell_formula_units_Z   4
loop_
 _symmetry_equiv_pos_site_id
 _symmetry_equiv_pos_as_xyz
  1  'x, y, z'
loop_
 _atom_site_type_symbol
 _atom_site_label
 _atom_site_symmetry_multiplicity
 _atom_site_fract_x
 _atom_site_fract_y
 _atom_site_fract_z
 _atom_site_occupancy
  Y  Y0  1  0.133585  0.557428  0.309871  1
  Y  Y1  1  0.247802  0.932120  0.776541  1
  Y  Y2  1  0.293920  0.131618  0.239523  1
  Y  Y3  1  0.363794  0.388200  0.785736  1
  Y  Y4  1  0.636206  0.611800  0.285736  1
  Y  Y5  1  0.706080  0.868382  0.739523  1
  Y  Y6  1  0.752198  0.067880  0.276541  1
  Y  Y7  1  0.866415  0.442572  0.809871  1
  Bi  Bi8  1  0.078416  0.317716  0.261613  1
  Bi  Bi9  1  0.023362  0.117581  0.760782  1
  Bi  Bi10  1  0.407139  0.669239  0.779214  1
  Bi  Bi11  1  0.458841  0.868828  0.262811  1
  Bi  Bi12  1  0.541159  0.131172  0.762811  1
  Bi  Bi13  1  0.592861  0.330761  0.279214  1
  Bi  Bi14  1  0.976638  0.882419  0.260782  1
  Bi  Bi15  1  0.921584  0.682284  0.761613  1
  O  O16  1  0.067541  0.416970  0.547954  1
  O  O17  1  0.989089  0.175728  0.385136  1
  O  O18  1  0.160392  0.652897  0.635565  1
  O  O19  1  0.216578  0.870807  0.423655  1
  O  O20  1  0.167580  0.439978  0.047415  1
  O  O21  1  0.098003  0.022061  0.049371  1
  O  O22  1  0.161129  0.244959  0.967322  1
  O  O23  1  0.363733  0.627424  0.127137  1
  O  O24  1  0.414054  0.822012  0.869857  1
  O  O25  1  0.270348  0.077900  0.600218  1
  O  O26  1  0.323860  0.301678  0.429567  1
  O  O27  1  0.421088  0.538990  0.586078  1
  O  O28  1  0.566583  0.977664  0.557539  1
  O  O29  1  0.532702  0.741154  0.489588  1
  O  O30  1  0.467298  0.258846  0.989588  1
  O  O31  1  0.433417  0.022336  0.057539  1
  O  O32  1  0.578912  0.461010  0.086078  1
  O  O33  1  0.676140  0.698322  0.929567  1
  O  O34  1  0.729652  0.922100  0.100218  1
  O  O35  1  0.585946  0.177988  0.369857  1
  O  O36  1  0.636267  0.372576  0.627137  1
  O  O37  1  0.838871  0.755041  0.467322  1
  O  O38  1  0.901997  0.977939  0.549371  1
  O  O39  1  0.832420  0.560022  0.547415  1
  O  O40  1  0.783422  0.129193  0.923655  1
  O  O41  1  0.839608  0.347103  0.135565  1
  O  O42  1  0.010911  0.824272  0.885136  1
  O  O43  1  0.932459  0.583030  0.047954  1
