# generated using pymatgen
data_TiO2
_symmetry_space_group_name_H-M   'P 1'
_cell_length_a   9.90433790
_cell_length_b   11.71480744
_cell_length_c   11.74485857
_cell_angle_alpha   64.58151712
_cell_angle_beta   65.02188101
_cell_angle_gamma   65.01953841
_symmetry_Int_Tables_number   1
_chemical_formula_structural   TiO2
_chemical_formula_sum   'Ti18 O36'
_cell_volume   1066.23430936
_cell_formula_units_Z   18
loop_
 _symmetry_equiv_pos_site_id
 _symmetry_equiv_pos_as_xyz
  1  'x, y, z'
loop_
 _atom_site_type_symbol
 _atom_site_label
 _atom_site_symmetry_multiplicity
 _atom_site_fract_x
 _atom_site_fract_y
 _atom_site_fract_z
 _atom_site_occupancy
  Ti  Ti0  1  0.165204  0.084034  0.083120  1
  Ti  Ti1  1  0.020585  0.086205  0.411485  1
  Ti  Ti2  1  0.161945  0.502557  0.164150  1
  Ti  Ti3  1  0.161746  0.008153  0.680117  1
  Ti  Ti4  1  0.340335  0.243884  0.584416  1
  Ti  Ti5  1  0.159121  0.575708  0.582896  1
  Ti  Ti6  1  0.487316  0.243420  0.250491  1
  Ti  Ti7  1  0.344009  0.748993  0.081107  1
  Ti  Ti8  1  0.485501  0.671355  0.350220  1
  Ti  Ti9  1  0.817216  0.336994  0.017536  1
  Ti  Ti10  1  0.504068  0.166636  0.830309  1
  Ti  Ti11  1  0.828404  0.417392  0.415225  1
  Ti  Ti12  1  0.505125  0.751106  0.747807  1
  Ti  Ti13  1  0.676524  0.908784  0.249805  1
  Ti  Ti14  1  0.683092  0.415291  0.744959  1
  Ti  Ti15  1  0.837831  0.839152  0.498744  1
  Ti  Ti16  1  0.832815  0.906406  0.915488  1
  Ti  Ti17  1  0.007718  0.570825  0.916791  1
  O  O18  1  0.151231  0.073261  0.247912  1
  O  O19  1  0.126836  0.049430  0.524147  1
  O  O20  1  0.308225  0.343897  0.203927  1
  O  O21  1  0.227787  0.636429  0.143788  1
  O  O22  1  0.203906  0.145862  0.679233  1
  O  O23  1  0.232754  0.418937  0.550310  1
  O  O24  1  0.565454  0.082890  0.223469  1
  O  O25  1  0.217851  0.918786  0.070889  1
  O  O26  1  0.118337  0.539915  0.759061  1
  O  O27  1  0.445157  0.215453  0.425441  1
  O  O28  1  0.636128  0.328901  0.151986  1
  O  O29  1  0.308338  0.660790  0.488078  1
  O  O30  1  0.318099  0.159289  0.959284  1
  O  O31  1  0.450462  0.700397  0.197474  1
  O  O32  1  0.476654  0.195790  0.675187  1
  O  O33  1  0.141918  0.523049  0.008865  1
  O  O34  1  0.638776  0.516560  0.387086  1
  O  O35  1  0.975592  0.185923  0.054726  1
  O  O36  1  0.566485  0.301817  0.811047  1
  O  O37  1  0.868412  0.475273  0.003911  1
  O  O38  1  0.544163  0.806554  0.335045  1
  O  O39  1  0.325090  0.857856  0.704531  1
  O  O40  1  0.886042  0.253709  0.397982  1
  O  O41  1  0.560146  0.586615  0.732316  1
  O  O42  1  0.789617  0.881628  0.089947  1
  O  O43  1  0.475557  0.739457  0.916904  1
  O  O44  1  0.814735  0.403231  0.581370  1
  O  O45  1  0.973261  0.500898  0.290100  1
  O  O46  1  0.789511  0.367447  0.861059  1
  O  O47  1  0.658172  0.829872  0.634542  1
  O  O48  1  0.803482  0.868818  0.346295  1
  O  O49  1  0.657903  0.011101  0.863600  1
  O  O50  1  0.983949  0.679311  0.532058  1
  O  O51  1  0.911535  0.966883  0.481468  1
  O  O52  1  0.903627  0.746118  0.889367  1
  O  O53  1  0.987207  0.985427  0.816746  1
