# generated using pymatgen
data_BH5(NF2)2
_symmetry_space_group_name_H-M   'P 1'
_cell_length_a   7.54063015
_cell_length_b   7.54063015
_cell_length_c   12.45861276
_cell_angle_alpha   68.88251089
_cell_angle_beta   111.11748911
_cell_angle_gamma   138.31386291
_symmetry_Int_Tables_number   1
_chemical_formula_structural   BH5(NF2)2
_chemical_formula_sum   'B4 H20 N8 F16'
_cell_volume   434.71168698
_cell_formula_units_Z   4
loop_
 _symmetry_equiv_pos_site_id
 _symmetry_equiv_pos_as_xyz
  1  'x, y, z'
loop_
 _atom_site_type_symbol
 _atom_site_label
 _atom_site_symmetry_multiplicity
 _atom_site_fract_x
 _atom_site_fract_y
 _atom_site_fract_z
 _atom_site_occupancy
  B  B0  1  0.036416  0.819988  0.921874  1
  B  B1  1  0.819988  0.036416  0.578126  1
  B  B2  1  0.963584  0.180012  0.078126  1
  B  B3  1  0.180012  0.963584  0.421874  1
  H  H4  1  0.778589  0.611608  0.623901  1
  H  H5  1  0.611608  0.778589  0.876099  1
  H  H6  1  0.221411  0.388392  0.376099  1
  H  H7  1  0.388392  0.221411  0.123901  1
  H  H8  1  0.710529  0.375553  0.582872  1
  H  H9  1  0.375553  0.710529  0.917128  1
  H  H10  1  0.289471  0.624447  0.417128  1
  H  H11  1  0.624447  0.289471  0.082872  1
  H  H12  1  0.949458  0.520467  0.698192  1
  H  H13  1  0.520467  0.949458  0.801808  1
  H  H14  1  0.050542  0.479533  0.301808  1
  H  H15  1  0.479533  0.050542  0.198192  1
  H  H16  1  0.382215  0.175238  0.689886  1
  H  H17  1  0.175238  0.382215  0.810114  1
  H  H18  1  0.617785  0.824762  0.310114  1
  H  H19  1  0.824762  0.617785  0.189886  1
  H  H20  1  0.624159  0.327280  0.800117  1
  H  H21  1  0.327280  0.624159  0.699883  1
  H  H22  1  0.375841  0.672720  0.199883  1
  H  H23  1  0.672720  0.375841  0.300117  1
  N  N24  1  0.762212  0.453165  0.653920  1
  N  N25  1  0.453165  0.762212  0.846080  1
  N  N26  1  0.237788  0.546835  0.346080  1
  N  N27  1  0.546835  0.237788  0.153920  1
  N  N28  1  0.563645  0.239526  0.731713  1
  N  N29  1  0.239526  0.563645  0.768287  1
  N  N30  1  0.436355  0.760474  0.268287  1
  N  N31  1  0.760474  0.436355  0.231713  1
  F  F32  1  0.070991  0.777353  0.832455  1
  F  F33  1  0.777353  0.070991  0.667545  1
  F  F34  1  0.929009  0.222647  0.167545  1
  F  F35  1  0.222647  0.929009  0.332455  1
  F  F36  1  0.166163  0.788134  0.029619  1
  F  F37  1  0.788134  0.166163  0.470381  1
  F  F38  1  0.833837  0.211866  0.970381  1
  F  F39  1  0.211866  0.833837  0.529619  1
  F  F40  1  0.753343  0.625269  0.925778  1
  F  F41  1  0.625269  0.753343  0.574222  1
  F  F42  1  0.246657  0.374731  0.074222  1
  F  F43  1  0.374731  0.246657  0.425778  1
  F  F44  1  0.145381  0.081851  0.899187  1
  F  F45  1  0.081851  0.145381  0.600813  1
  F  F46  1  0.854619  0.918149  0.100813  1
  F  F47  1  0.918149  0.854619  0.399187  1
