# generated using pymatgen
data_Li2Mn3(BO3)3
_symmetry_space_group_name_H-M   'P 1'
_cell_length_a   8.24519773
_cell_length_b   14.76745268
_cell_length_c   6.33960029
_cell_angle_alpha   102.67793292
_cell_angle_beta   89.95668613
_cell_angle_gamma   90.07078410
_symmetry_Int_Tables_number   1
_chemical_formula_structural   Li2Mn3(BO3)3
_chemical_formula_sum   'Li8 Mn12 B12 O36'
_cell_volume   753.09275229
_cell_formula_units_Z   4
loop_
 _symmetry_equiv_pos_site_id
 _symmetry_equiv_pos_as_xyz
  1  'x, y, z'
loop_
 _atom_site_type_symbol
 _atom_site_label
 _atom_site_symmetry_multiplicity
 _atom_site_fract_x
 _atom_site_fract_y
 _atom_site_fract_z
 _atom_site_occupancy
  Li  Li0  1  0.294050  0.989982  0.246348  1
  Li  Li1  1  0.289512  0.990066  0.746841  1
  Li  Li2  1  0.339595  0.360622  0.933037  1
  Li  Li3  1  0.371948  0.650062  0.570008  1
  Li  Li4  1  0.789063  0.490797  0.494081  1
  Li  Li5  1  0.789468  0.489852  0.993883  1
  Li  Li6  1  0.837147  0.860584  0.179710  1
  Li  Li7  1  0.873341  0.149120  0.323500  1
  Mn  Mn8  1  0.143837  0.506402  0.754927  1
  Mn  Mn9  1  0.139833  0.506621  0.252251  1
  Mn  Mn10  1  0.170879  0.809643  0.903531  1
  Mn  Mn11  1  0.169382  0.811489  0.403860  1
  Mn  Mn12  1  0.188371  0.184695  0.593901  1
  Mn  Mn13  1  0.187971  0.184041  0.094799  1
  Mn  Mn14  1  0.643551  0.005884  0.506826  1
  Mn  Mn15  1  0.644587  0.005957  0.996521  1
  Mn  Mn16  1  0.670911  0.311264  0.653474  1
  Mn  Mn17  1  0.672083  0.309833  0.152798  1
  Mn  Mn18  1  0.685091  0.683603  0.840113  1
  Mn  Mn19  1  0.688296  0.684854  0.341796  1
  B  B20  1  0.006772  0.998789  0.006424  1
  B  B21  1  0.007427  0.000265  0.493164  1
  B  B22  1  0.998635  0.333938  0.417424  1
  B  B23  1  0.995703  0.337425  0.919328  1
  B  B24  1  0.002776  0.664817  0.580121  1
  B  B25  1  0.992274  0.665599  0.080962  1
  B  B26  1  0.504772  0.499038  0.747806  1
  B  B27  1  0.504958  0.500111  0.248931  1
  B  B28  1  0.493122  0.165109  0.831355  1
  B  B29  1  0.504945  0.165183  0.331662  1
  B  B30  1  0.496170  0.837754  0.168637  1
  B  B31  1  0.496630  0.832900  0.665850  1
  O  O32  1  0.017926  0.432895  0.967189  1
  O  O33  1  0.018210  0.429018  0.465085  1
  O  O34  1  0.011846  0.762488  0.127941  1
  O  O35  1  0.025009  0.759840  0.628157  1
  O  O36  1  0.139089  0.607040  0.553547  1
  O  O37  1  0.122823  0.608415  0.055605  1
  O  O38  1  0.126380  0.272358  0.390684  1
  O  O39  1  0.130865  0.280444  0.893246  1
  O  O40  1  0.156897  0.954111  0.976977  1
  O  O41  1  0.157610  0.955766  0.480060  1
  O  O42  1  0.349717  0.128074  0.315482  1
  O  O43  1  0.334867  0.129141  0.813934  1
  O  O44  1  0.339042  0.804765  0.150778  1
  O  O45  1  0.341299  0.794829  0.645940  1
  O  O46  1  0.365528  0.447964  0.742598  1
  O  O47  1  0.363499  0.450504  0.210020  1
  O  O48  1  0.497916  0.594068  0.773573  1
  O  O49  1  0.501108  0.595533  0.311801  1
  O  O50  1  0.516693  0.927843  0.713173  1
  O  O51  1  0.521981  0.932859  0.216163  1
  O  O52  1  0.526730  0.260506  0.376426  1
  O  O53  1  0.513274  0.261860  0.879899  1
  O  O54  1  0.640936  0.107819  0.303344  1
  O  O55  1  0.623022  0.107182  0.802358  1
  O  O56  1  0.630009  0.779330  0.140429  1
  O  O57  1  0.624782  0.771553  0.636076  1
  O  O58  1  0.656108  0.455294  0.727108  1
  O  O59  1  0.654561  0.454473  0.225003  1
  O  O60  1  0.847961  0.627302  0.558769  1
  O  O61  1  0.834012  0.629340  0.061522  1
  O  O62  1  0.843291  0.295662  0.394149  1
  O  O63  1  0.839126  0.303884  0.899914  1
  O  O64  1  0.866054  0.947924  0.989712  1
  O  O65  1  0.866956  0.949322  0.458001  1
  O  O66  1  0.001535  0.095762  0.532297  1
  O  O67  1  0.001014  0.094311  0.061187  1
