# generated using pymatgen
data_Li2MnPO4F
_symmetry_space_group_name_H-M   'P 1'
_cell_length_a   5.13672051
_cell_length_b   13.24081261
_cell_length_c   11.53000175
_cell_angle_alpha   90.00000000
_cell_angle_beta   90.00000000
_cell_angle_gamma   90.00000000
_symmetry_Int_Tables_number   1
_chemical_formula_structural   Li2MnPO4F
_chemical_formula_sum   'Li16 Mn8 P8 O32 F8'
_cell_volume   784.20561722
_cell_formula_units_Z   8
loop_
 _symmetry_equiv_pos_site_id
 _symmetry_equiv_pos_as_xyz
  1  'x, y, z'
loop_
 _atom_site_type_symbol
 _atom_site_label
 _atom_site_symmetry_multiplicity
 _atom_site_fract_x
 _atom_site_fract_y
 _atom_site_fract_z
 _atom_site_occupancy
  Li  Li0  1  0.217513  0.237466  0.178273  1
  Li  Li1  1  0.217513  0.762534  0.678273  1
  Li  Li2  1  0.219724  0.636129  0.396834  1
  Li  Li3  1  0.219724  0.363871  0.896834  1
  Li  Li4  1  0.280276  0.136129  0.396834  1
  Li  Li5  1  0.280276  0.863871  0.896834  1
  Li  Li6  1  0.282487  0.262534  0.678273  1
  Li  Li7  1  0.282487  0.737466  0.178273  1
  Li  Li8  1  0.717513  0.262534  0.821727  1
  Li  Li9  1  0.717513  0.737466  0.321727  1
  Li  Li10  1  0.719724  0.136129  0.103166  1
  Li  Li11  1  0.719724  0.863871  0.603166  1
  Li  Li12  1  0.780276  0.363871  0.603166  1
  Li  Li13  1  0.780276  0.636129  0.103166  1
  Li  Li14  1  0.782487  0.762534  0.821727  1
  Li  Li15  1  0.782487  0.237466  0.321727  1
  Mn  Mn16  1  0.229282  0.505918  0.164361  1
  Mn  Mn17  1  0.229282  0.494082  0.664361  1
  Mn  Mn18  1  0.270718  0.994082  0.664361  1
  Mn  Mn19  1  0.270718  0.005918  0.164361  1
  Mn  Mn20  1  0.729282  0.005918  0.335639  1
  Mn  Mn21  1  0.729282  0.994082  0.835639  1
  Mn  Mn22  1  0.770718  0.505918  0.335639  1
  Mn  Mn23  1  0.770718  0.494082  0.835639  1
  P  P24  1  0.209086  0.129578  0.915018  1
  P  P25  1  0.209086  0.870422  0.415018  1
  P  P26  1  0.290914  0.370422  0.415018  1
  P  P27  1  0.290914  0.629578  0.915018  1
  P  P28  1  0.709086  0.370422  0.084982  1
  P  P29  1  0.709086  0.629578  0.584982  1
  P  P30  1  0.790914  0.129578  0.584982  1
  P  P31  1  0.790914  0.870422  0.084982  1
  O  O32  1  0.096607  0.125772  0.591904  1
  O  O33  1  0.096607  0.874228  0.091904  1
  O  O34  1  0.184128  0.469291  0.355294  1
  O  O35  1  0.184128  0.530709  0.855294  1
  O  O36  1  0.180655  0.277105  0.353932  1
  O  O37  1  0.180655  0.722895  0.853932  1
  O  O38  1  0.204764  0.628236  0.044107  1
  O  O39  1  0.204764  0.371764  0.544107  1
  O  O40  1  0.295236  0.128236  0.044107  1
  O  O41  1  0.295236  0.871764  0.544107  1
  O  O42  1  0.319345  0.222895  0.853932  1
  O  O43  1  0.319345  0.777105  0.353932  1
  O  O44  1  0.315872  0.030708  0.855294  1
  O  O45  1  0.315872  0.969291  0.355294  1
  O  O46  1  0.403393  0.374228  0.091904  1
  O  O47  1  0.403393  0.625772  0.591904  1
  O  O48  1  0.596607  0.625772  0.908096  1
  O  O49  1  0.596607  0.374228  0.408096  1
  O  O50  1  0.684128  0.030708  0.644706  1
  O  O51  1  0.684128  0.969291  0.144706  1
  O  O52  1  0.680655  0.222895  0.646068  1
  O  O53  1  0.680655  0.777105  0.146068  1
  O  O54  1  0.704764  0.128236  0.455893  1
  O  O55  1  0.704764  0.871764  0.955893  1
  O  O56  1  0.795236  0.371764  0.955893  1
  O  O57  1  0.795236  0.628236  0.455893  1
  O  O58  1  0.819345  0.277105  0.146068  1
  O  O59  1  0.819345  0.722895  0.646068  1
  O  O60  1  0.815872  0.469291  0.144706  1
  O  O61  1  0.815872  0.530709  0.644706  1
  O  O62  1  0.903393  0.125772  0.908096  1
  O  O63  1  0.903393  0.874228  0.408096  1
  F  F64  1  0.000000  0.105959  0.250000  1
  F  F65  1  0.000000  0.637224  0.250000  1
  F  F66  1  0.000000  0.362776  0.750000  1
  F  F67  1  0.000000  0.894041  0.750000  1
  F  F68  1  0.500000  0.605959  0.250000  1
  F  F69  1  0.500000  0.137224  0.250000  1
  F  F70  1  0.500000  0.394041  0.750000  1
  F  F71  1  0.500000  0.862776  0.750000  1
