# generated using pymatgen
data_K2H17Ru2(SO6)4
_symmetry_space_group_name_H-M   'P 1'
_cell_length_a   9.25166193
_cell_length_b   9.13357404
_cell_length_c   9.64572183
_cell_angle_alpha   66.08045138
_cell_angle_beta   68.89769192
_cell_angle_gamma   77.18085061
_symmetry_Int_Tables_number   1
_chemical_formula_structural   K2H17Ru2(SO6)4
_chemical_formula_sum   'K2 H17 Ru2 S4 O24'
_cell_volume   692.34560176
_cell_formula_units_Z   1
loop_
 _symmetry_equiv_pos_site_id
 _symmetry_equiv_pos_as_xyz
  1  'x, y, z'
loop_
 _atom_site_type_symbol
 _atom_site_label
 _atom_site_symmetry_multiplicity
 _atom_site_fract_x
 _atom_site_fract_y
 _atom_site_fract_z
 _atom_site_occupancy
  K  K0  1  0.502091  0.441177  0.213311  1
  K  K1  1  0.497909  0.558823  0.786689  1
  H  H2  1  0.768869  0.793395  0.985911  1
  H  H3  1  0.231131  0.206605  0.014089  1
  H  H4  1  0.612101  0.903407  0.852565  1
  H  H5  1  0.387899  0.096593  0.147435  1
  H  H6  1  0.371534  0.850153  0.427894  1
  H  H7  1  0.628466  0.149847  0.572106  1
  H  H8  1  0.622706  0.124327  0.509305  1
  H  H9  1  0.377294  0.875673  0.490695  1
  H  H10  1  0.923840  0.660600  0.351273  1
  H  H11  1  0.076160  0.339400  0.648727  1
  H  H12  1  -0.018461  0.758283  0.725017  1
  H  H13  1  0.018461  0.241717  0.274983  1
  H  H14  1  0.887135  0.138424  0.303685  1
  H  H15  1  0.112865  0.861576  0.696315  1
  H  H16  1  0.512899  0.167597  -0.012160  1
  H  H17  1  0.487101  0.832403  0.012160  1
  H  H18  1  0.500000  0.500000  0.500000  1
  Ru  Ru19  1  0.908326  0.888194  0.945499  1
  Ru  Ru20  1  0.091674  0.111806  0.054501  1
  S  S21  1  0.690673  0.016930  0.210005  1
  S  S22  1  0.309327  0.983070  0.789995  1
  S  S23  1  0.918139  0.438231  0.817392  1
  S  S24  1  0.081861  0.561769  0.182608  1
  O  O25  1  0.776585  0.073834  0.892210  1
  O  O26  1  0.223415  0.926166  0.107790  1
  O  O27  1  0.617980  0.550007  0.394438  1
  O  O28  1  0.382020  0.449993  0.605562  1
  O  O29  1  0.691318  0.150091  0.259870  1
  O  O30  1  0.308682  0.849909  0.740130  1
  O  O31  1  0.449264  0.191734  0.085082  1
  O  O32  1  0.550736  0.808266  0.914918  1
  O  O33  1  0.961549  0.342466  0.700081  1
  O  O34  1  0.038451  0.657534  0.299919  1
  O  O35  1  0.749285  0.451863  0.876512  1
  O  O36  1  0.250715  0.548137  0.123488  1
  O  O37  1  0.013425  0.659388  0.050685  1
  O  O38  1  -0.013425  0.340612  0.949315  1
  O  O39  1  0.988808  0.588996  0.722752  1
  O  O40  1  0.011192  0.411004  0.277248  1
  O  O41  1  -0.000714  0.864366  0.724079  1
  O  O42  1  0.000714  0.135634  0.275921  1
  O  O43  1  0.665428  0.096965  0.824188  1
  O  O44  1  0.334572  0.903035  0.175812  1
  O  O45  1  0.680815  0.621922  0.453929  1
  O  O46  1  0.319185  0.378078  0.546071  1
  O  O47  1  0.139002  0.042837  0.860430  1
  O  O48  1  0.860998  0.957163  0.139570  1
