# generated using pymatgen
data_Na3NdV2O8
_symmetry_space_group_name_H-M   'P 1'
_cell_length_a   5.64668967
_cell_length_b   14.38861649
_cell_length_c   15.05064435
_cell_angle_alpha   91.35350943
_cell_angle_beta   100.80048741
_cell_angle_gamma   89.99567157
_symmetry_Int_Tables_number   1
_chemical_formula_structural   Na3NdV2O8
_chemical_formula_sum   'Na18 Nd6 V12 O48'
_cell_volume   1200.82687630
_cell_formula_units_Z   6
loop_
 _symmetry_equiv_pos_site_id
 _symmetry_equiv_pos_as_xyz
  1  'x, y, z'
loop_
 _atom_site_type_symbol
 _atom_site_label
 _atom_site_symmetry_multiplicity
 _atom_site_fract_x
 _atom_site_fract_y
 _atom_site_fract_z
 _atom_site_occupancy
  Na  Na0  1  0.677956  0.468820  0.340163  1
  Na  Na1  1  0.101686  0.913688  0.203084  1
  Na  Na2  1  0.311997  0.732677  0.642835  1
  Na  Na3  1  0.712876  0.809823  0.538341  1
  Na  Na4  1  0.965108  0.996932  0.954364  1
  Na  Na5  1  0.559807  0.559866  0.084181  1
  Na  Na6  1  0.215891  0.091189  0.402973  1
  Na  Na7  1  0.668253  0.970136  0.339368  1
  Na  Na8  1  0.093652  0.412964  0.202388  1
  Na  Na9  1  0.525809  0.059680  0.084188  1
  Na  Na10  1  0.925917  0.650917  0.754870  1
  Na  Na11  1  0.830953  0.151259  0.754563  1
  Na  Na12  1  0.992510  0.495794  0.956304  1
  Na  Na13  1  0.326256  0.231969  0.641713  1
  Na  Na14  1  0.454394  0.378391  0.880426  1
  Na  Na15  1  0.432928  0.878461  0.881792  1
  Na  Na16  1  0.823810  0.310459  0.540165  1
  Na  Na17  1  0.192155  0.591245  0.401537  1
  Nd  Nd18  1  0.424467  0.485905  0.644514  1
  Nd  Nd19  1  0.610306  0.718657  0.292718  1
  Nd  Nd20  1  0.042310  0.750991  0.001016  1
  Nd  Nd21  1  0.685563  0.217869  0.293499  1
  Nd  Nd22  1  0.218363  0.985441  0.645299  1
  Nd  Nd23  1  0.960958  0.251107  0.000687  1
  V  V24  1  0.403557  0.128881  0.869013  1
  V  V25  1  0.828324  0.883150  0.761249  1
  V  V26  1  0.810378  0.579280  0.530488  1
  V  V27  1  0.718382  0.078306  0.531358  1
  V  V28  1  0.079693  0.633597  0.188857  1
  V  V29  1  0.466999  0.628508  0.869727  1
  V  V30  1  0.181795  0.839310  0.423868  1
  V  V31  1  0.545229  0.339271  0.106552  1
  V  V32  1  0.931427  0.383937  0.760700  1
  V  V33  1  0.243727  0.337982  0.423937  1
  V  V34  1  0.108675  0.133341  0.189134  1
  V  V35  1  0.561578  0.840317  0.105936  1
  O  O36  1  0.962686  0.810986  0.692101  1
  O  O37  1  0.970851  0.352432  0.874009  1
  O  O38  1  0.250689  0.359423  0.539618  1
  O  O39  1  0.779345  0.648995  0.897970  1
  O  O40  1  0.395690  0.533464  0.926971  1
  O  O41  1  0.618699  0.870538  0.220753  1
  O  O42  1  0.750445  0.391786  0.049471  1
  O  O43  1  0.512883  0.721827  0.101769  1
  O  O44  1  0.955845  0.992043  0.754264  1
  O  O45  1  0.897566  0.850989  0.874251  1
  O  O46  1  0.312058  0.725469  0.901754  1
  O  O47  1  0.734400  0.610590  0.417516  1
  O  O48  1  0.839927  0.595900  0.236985  1
  O  O49  1  0.800214  0.871695  0.054803  1
  O  O50  1  0.872797  0.811814  0.401547  1
  O  O51  1  0.236332  0.933505  0.362348  1
  O  O52  1  0.119149  0.149355  0.897283  1
  O  O53  1  0.608986  0.369331  0.221456  1
  O  O54  1  0.589975  0.225406  0.902988  1
  O  O55  1  0.033656  0.601014  0.074449  1
  O  O56  1  0.053381  0.242110  0.393063  1
  O  O57  1  0.042822  0.101798  0.074551  1
  O  O58  1  0.531929  0.311313  0.402472  1
  O  O59  1  0.663062  0.645895  0.600308  1
  O  O60  1  0.344178  0.744368  0.392851  1
  O  O61  1  0.728659  0.311808  0.691556  1
  O  O62  1  0.510967  0.885080  0.728932  1
  O  O63  1  0.366572  0.610578  0.753129  1
  O  O64  1  0.127624  0.586001  0.561878  1
  O  O65  1  0.397517  0.096577  0.237365  1
  O  O66  1  0.532881  0.033208  0.924947  1
  O  O67  1  0.254888  0.371667  0.056627  1
  O  O68  1  0.299180  0.893100  0.049423  1
  O  O69  1  0.387001  0.112931  0.752201  1
  O  O70  1  0.217509  0.385348  0.729174  1
  O  O71  1  0.126954  0.431848  0.362162  1
  O  O72  1  0.683474  0.110687  0.418729  1
  O  O73  1  0.837899  0.967330  0.540665  1
  O  O74  1  0.342196  0.585225  0.248674  1
  O  O75  1  0.797979  0.492996  0.752177  1
  O  O76  1  0.106849  0.752521  0.192732  1
  O  O77  1  0.702920  0.468086  0.540580  1
  O  O78  1  0.932970  0.144927  0.602063  1
  O  O79  1  0.905641  0.083123  0.247912  1
  O  O80  1  0.080277  0.252032  0.194615  1
  O  O81  1  0.288202  0.860485  0.539660  1
  O  O82  1  0.431139  0.084200  0.561660  1
  O  O83  1  0.584892  0.220821  0.101646  1
