# generated using pymatgen
data_NaCa3MgFe(Si2O7)2
_symmetry_space_group_name_H-M   'P 1'
_cell_length_a   5.91945435
_cell_length_b   15.26609764
_cell_length_c   11.42194295
_cell_angle_alpha   41.56615992
_cell_angle_beta   90.00000000
_cell_angle_gamma   90.00000000
_symmetry_Int_Tables_number   1
_chemical_formula_structural   NaCa3MgFe(Si2O7)2
_chemical_formula_sum   'Na2 Ca6 Mg2 Fe2 Si8 O28'
_cell_volume   684.82630701
_cell_formula_units_Z   2
loop_
 _symmetry_equiv_pos_site_id
 _symmetry_equiv_pos_as_xyz
  1  'x, y, z'
loop_
 _atom_site_type_symbol
 _atom_site_label
 _atom_site_symmetry_multiplicity
 _atom_site_fract_x
 _atom_site_fract_y
 _atom_site_fract_z
 _atom_site_occupancy
  Na  Na0  1  0.146342  0.487410  0.262590  1
  Na  Na1  1  0.146342  0.512590  0.737410  1
  Ca  Ca2  1  0.064539  0.195902  0.054098  1
  Ca  Ca3  1  0.064539  0.804098  0.945902  1
  Ca  Ca4  1  0.792312  0.189606  0.409792  1
  Ca  Ca5  1  0.792312  0.189606  0.710996  1
  Ca  Ca6  1  0.792312  0.810394  0.590208  1
  Ca  Ca7  1  0.792312  0.810394  0.289004  1
  Mg  Mg8  1  0.279964  0.000000  0.000000  1
  Mg  Mg9  1  0.279964  0.000000  0.500000  1
  Fe  Fe10  1  0.459524  0.500000  0.000000  1
  Fe  Fe11  1  0.459524  0.500000  0.500000  1
  Si  Si12  1  0.333372  0.216417  0.420558  1
  Si  Si13  1  0.333372  0.783583  0.579442  1
  Si  Si14  1  0.333372  0.783583  0.353393  1
  Si  Si15  1  0.333372  0.216417  0.646607  1
  Si  Si16  1  0.597484  0.684540  0.065460  1
  Si  Si17  1  0.602853  0.953611  0.796389  1
  Si  Si18  1  0.597484  0.315460  0.934540  1
  Si  Si19  1  0.602853  0.046389  0.203611  1
  O  O20  1  0.861211  0.368078  0.881922  1
  O  O21  1  0.861211  0.631922  0.118078  1
  O  O22  1  0.449155  0.050426  0.811032  1
  O  O23  1  0.427629  0.598043  0.056056  1
  O  O24  1  0.427629  0.598043  0.247858  1
  O  O25  1  0.449155  0.949574  0.411884  1
  O  O26  1  0.449155  0.050426  0.588116  1
  O  O27  1  0.427629  0.401957  0.943944  1
  O  O28  1  0.449155  0.949574  0.188968  1
  O  O29  1  0.427629  0.401957  0.752142  1
  O  O30  1  0.140833  0.253708  0.496292  1
  O  O31  1  0.537832  0.753494  0.496506  1
  O  O32  1  0.537832  0.246506  0.503494  1
  O  O33  1  0.140833  0.746292  0.503708  1
  O  O34  1  0.611384  0.174042  0.176609  1
  O  O35  1  0.611384  0.825958  0.024694  1
  O  O36  1  0.611384  0.174042  0.975306  1
  O  O37  1  0.611384  0.825958  0.823391  1
  O  O38  1  0.475491  0.677236  0.765284  1
  O  O39  1  0.136610  0.831993  0.633977  1
  O  O40  1  0.136610  0.831993  0.202036  1
  O  O41  1  0.136610  0.168007  0.797964  1
  O  O42  1  0.475491  0.677236  0.380244  1
  O  O43  1  0.136610  0.168007  0.366023  1
  O  O44  1  0.475491  0.322764  0.619756  1
  O  O45  1  0.475491  0.322764  0.234716  1
  O  O46  1  0.857514  0.020378  0.729622  1
  O  O47  1  0.857514  0.979622  0.270378  1
