# generated using pymatgen
data_Li4CoO3F
_symmetry_space_group_name_H-M   'P 1'
_cell_length_a   7.75884192
_cell_length_b   5.22501531
_cell_length_c   5.34709058
_cell_angle_alpha   66.35036303
_cell_angle_beta   109.98201253
_cell_angle_gamma   97.08765599
_symmetry_Int_Tables_number   1
_chemical_formula_structural   Li4CoO3F
_chemical_formula_sum   'Li8 Co2 O6 F2'
_cell_volume   186.58869692
_cell_formula_units_Z   2
loop_
 _symmetry_equiv_pos_site_id
 _symmetry_equiv_pos_as_xyz
  1  'x, y, z'
loop_
 _atom_site_type_symbol
 _atom_site_label
 _atom_site_symmetry_multiplicity
 _atom_site_fract_x
 _atom_site_fract_y
 _atom_site_fract_z
 _atom_site_occupancy
  Li  Li0  1  0.006179  0.739790  0.247504  1
  Li  Li1  1  0.219292  0.283746  0.403953  1
  Li  Li2  1  0.416637  0.243165  0.905208  1
  Li  Li3  1  0.441969  0.754144  0.515166  1
  Li  Li4  1  0.572922  0.244797  0.520081  1
  Li  Li5  1  0.578316  0.770451  0.091547  1
  Li  Li6  1  0.785686  0.726324  0.599920  1
  Li  Li7  1  0.999714  0.247129  0.747082  1
  Co  Co8  1  0.205874  0.740707  0.797579  1
  Co  Co9  1  0.757508  0.304912  0.154856  1
  O  O10  1  0.014528  0.834451  0.852782  1
  O  O11  1  0.198865  0.501507  0.615869  1
  O  O12  1  0.393012  0.983849  0.704178  1
  O  O13  1  0.624435  0.459996  0.785470  1
  O  O14  1  0.601828  0.011532  0.300730  1
  O  O15  1  0.807157  0.501056  0.381105  1
  F  F16  1  0.378698  0.506572  0.195793  1
  F  F17  1  0.997384  0.145872  0.181178  1
