# generated using pymatgen
data_BaH6C2S2N2O3
_symmetry_space_group_name_H-M   'P 1'
_cell_length_a   8.48676434
_cell_length_b   8.48676434
_cell_length_c   13.57042350
_cell_angle_alpha   76.12863684
_cell_angle_beta   103.87136316
_cell_angle_gamma   149.03705306
_symmetry_Int_Tables_number   1
_chemical_formula_structural   BaH6C2S2N2O3
_chemical_formula_sum   'Ba2 H12 C4 S4 N4 O6'
_cell_volume   487.05394282
_cell_formula_units_Z   2
loop_
 _symmetry_equiv_pos_site_id
 _symmetry_equiv_pos_as_xyz
  1  'x, y, z'
loop_
 _atom_site_type_symbol
 _atom_site_label
 _atom_site_symmetry_multiplicity
 _atom_site_fract_x
 _atom_site_fract_y
 _atom_site_fract_z
 _atom_site_occupancy
  Ba  Ba0  1  0.878962  0.121038  0.728428  1
  Ba  Ba1  1  0.121038  0.878962  0.271572  1
  H  H2  1  0.207240  0.134808  0.617554  1
  H  H3  1  0.865192  0.792760  0.617554  1
  H  H4  1  0.792760  0.865192  0.382446  1
  H  H5  1  0.134808  0.207240  0.382446  1
  H  H6  1  0.060021  0.281629  0.973613  1
  H  H7  1  0.718371  0.939979  0.973613  1
  H  H8  1  0.939979  0.718371  0.026387  1
  H  H9  1  0.281629  0.060021  0.026387  1
  H  H10  1  0.231532  0.768468  0.744311  1
  H  H11  1  0.768468  0.231532  0.255689  1
  H  H12  1  0.271096  0.728904  0.860741  1
  H  H13  1  0.728904  0.271096  0.139259  1
  C  C14  1  0.658691  0.341309  0.504145  1
  C  C15  1  0.341309  0.658691  0.495855  1
  C  C16  1  0.564721  0.435279  0.851426  1
  C  C17  1  0.435279  0.564721  0.148574  1
  S  S18  1  0.654992  0.345008  0.623566  1
  S  S19  1  0.345008  0.654992  0.376434  1
  S  S20  1  0.663377  0.336623  0.916266  1
  S  S21  1  0.336623  0.663377  0.083734  1
  N  N22  1  0.660982  0.339018  0.417221  1
  N  N23  1  0.339018  0.660982  0.582779  1
  N  N24  1  0.492816  0.507184  0.804537  1
  N  N25  1  0.507184  0.492816  0.195463  1
  O  O26  1  0.000842  0.999158  0.623325  1
  O  O27  1  0.999158  0.000842  0.376675  1
  O  O28  1  0.900269  0.099731  0.934489  1
  O  O29  1  0.099731  0.900269  0.065511  1
  O  O30  1  0.285729  0.714271  0.795025  1
  O  O31  1  0.714271  0.285729  0.204975  1
