# generated using pymatgen
data_AgSnO3
_symmetry_space_group_name_H-M   'P 1'
_cell_length_a   6.60556914
_cell_length_b   6.60503166
_cell_length_c   3.28670323
_cell_angle_alpha   89.93330695
_cell_angle_beta   89.93561350
_cell_angle_gamma   69.81867774
_symmetry_Int_Tables_number   1
_chemical_formula_structural   AgSnO3
_chemical_formula_sum   'Ag2 Sn2 O6'
_cell_volume   134.59481414
_cell_formula_units_Z   2
loop_
 _symmetry_equiv_pos_site_id
 _symmetry_equiv_pos_as_xyz
  1  'x, y, z'
loop_
 _atom_site_type_symbol
 _atom_site_label
 _atom_site_symmetry_multiplicity
 _atom_site_fract_x
 _atom_site_fract_y
 _atom_site_fract_z
 _atom_site_occupancy
  Ag  Ag0  1  0.499077  0.499138  0.500110  1
  Ag  Ag1  1  0.999041  0.998949  0.500403  1
  Sn  Sn2  1  0.999620  0.499066  0.000144  1
  Sn  Sn3  1  0.499524  0.998971  0.000088  1
  O  O4  1  0.431618  0.826604  0.500795  1
  O  O5  1  0.172089  0.566790  0.499702  1
  O  O6  1  0.172686  0.172398  0.001677  1
  O  O7  1  0.826296  0.826015  0.001319  1
  O  O8  1  0.827938  0.430404  0.500795  1
  O  O9  1  0.568006  0.170754  0.499709  1
