# generated using pymatgen
data_LiFeSiO4
_symmetry_space_group_name_H-M   'P 1'
_cell_length_a   8.75019073
_cell_length_b   8.11741681
_cell_length_c   15.20981776
_cell_angle_alpha   90.00000000
_cell_angle_beta   90.34453099
_cell_angle_gamma   90.00000000
_symmetry_Int_Tables_number   1
_chemical_formula_structural   LiFeSiO4
_chemical_formula_sum   'Li12 Fe12 Si12 O48'
_cell_volume   1080.31778250
_cell_formula_units_Z   12
loop_
 _symmetry_equiv_pos_site_id
 _symmetry_equiv_pos_as_xyz
  1  'x, y, z'
loop_
 _atom_site_type_symbol
 _atom_site_label
 _atom_site_symmetry_multiplicity
 _atom_site_fract_x
 _atom_site_fract_y
 _atom_site_fract_z
 _atom_site_occupancy
  Li  Li0  1  0.201049  0.993991  0.940187  1
  Li  Li1  1  0.215744  0.016036  0.584914  1
  Li  Li2  1  0.251362  0.843567  0.247027  1
  Li  Li3  1  0.248638  0.343567  0.252973  1
  Li  Li4  1  0.284256  0.516036  0.915086  1
  Li  Li5  1  0.298951  0.493991  0.559813  1
  Li  Li6  1  0.701049  0.506009  0.440187  1
  Li  Li7  1  0.715744  0.483964  0.084914  1
  Li  Li8  1  0.751362  0.656433  0.747027  1
  Li  Li9  1  0.748638  0.156433  0.752973  1
  Li  Li10  1  0.784256  0.983964  0.415086  1
  Li  Li11  1  0.798951  0.006009  0.059813  1
  Fe  Fe12  1  0.055429  0.659411  0.405668  1
  Fe  Fe13  1  0.080291  0.833448  0.766887  1
  Fe  Fe14  1  0.102896  0.660153  0.077266  1
  Fe  Fe15  1  0.397104  0.160153  0.422734  1
  Fe  Fe16  1  0.419709  0.333448  0.733113  1
  Fe  Fe17  1  0.444571  0.159411  0.094332  1
  Fe  Fe18  1  0.555429  0.840589  0.905668  1
  Fe  Fe19  1  0.580291  0.666552  0.266887  1
  Fe  Fe20  1  0.602896  0.839847  0.577266  1
  Fe  Fe21  1  0.897104  0.339847  0.922734  1
  Fe  Fe22  1  0.919709  0.166552  0.233113  1
  Fe  Fe23  1  0.944571  0.340589  0.594332  1
  Si  Si24  1  0.050165  0.263143  0.411689  1
  Si  Si25  1  0.084929  0.218564  0.771460  1
  Si  Si26  1  0.109694  0.270154  0.071780  1
  Si  Si27  1  0.390306  0.770154  0.428220  1
  Si  Si28  1  0.415071  0.718564  0.728540  1
  Si  Si29  1  0.449835  0.763143  0.088311  1
  Si  Si30  1  0.550165  0.236857  0.911689  1
  Si  Si31  1  0.584929  0.281436  0.271460  1
  Si  Si32  1  0.609694  0.229846  0.571780  1
  Si  Si33  1  0.890306  0.729846  0.928220  1
  Si  Si34  1  0.915071  0.781436  0.228540  1
  Si  Si35  1  0.949835  0.736857  0.588311  1
  O  O36  1  0.030266  0.553903  0.600661  1
  O  O37  1  0.059024  0.868082  0.643325  1
  O  O38  1  0.054087  0.785042  0.974056  1
  O  O39  1  0.086731  0.040637  0.824439  1
  O  O40  1  0.070974  0.359722  0.848766  1
  O  O41  1  0.066029  0.768088  0.294384  1
  O  O42  1  0.067277  0.213980  0.516215  1
  O  O43  1  0.085589  0.280348  0.179366  1
  O  O44  1  0.167304  0.451319  0.034726  1
  O  O45  1  0.233242  0.231092  0.706492  1
  O  O46  1  0.223670  0.262969  0.368632  1
  O  O47  1  0.242792  0.135358  0.046870  1
  O  O48  1  0.257208  0.635358  0.453130  1
  O  O49  1  0.276330  0.762969  0.131368  1
  O  O50  1  0.266758  0.731092  0.793508  1
  O  O51  1  0.332696  0.951319  0.465274  1
  O  O52  1  0.414411  0.780348  0.320634  1
  O  O53  1  0.432723  0.713980  0.983785  1
  O  O54  1  0.429026  0.859722  0.651234  1
  O  O55  1  0.433971  0.268088  0.205616  1
  O  O56  1  0.413269  0.540637  0.675561  1
  O  O57  1  0.445913  0.285042  0.525944  1
  O  O58  1  0.440976  0.368082  0.856675  1
  O  O59  1  0.469734  0.053903  0.899339  1
  O  O60  1  0.530266  0.946097  0.100661  1
  O  O61  1  0.559024  0.631918  0.143325  1
  O  O62  1  0.554087  0.714958  0.474056  1
  O  O63  1  0.586731  0.459363  0.324439  1
  O  O64  1  0.566029  0.731912  0.794384  1
  O  O65  1  0.570974  0.140278  0.348766  1
  O  O66  1  0.567277  0.286020  0.016215  1
  O  O67  1  0.585589  0.219652  0.679366  1
  O  O68  1  0.667304  0.048681  0.534726  1
  O  O69  1  0.733242  0.268908  0.206492  1
  O  O70  1  0.723670  0.237031  0.868632  1
  O  O71  1  0.742792  0.364642  0.546870  1
  O  O72  1  0.757208  0.864642  0.953130  1
  O  O73  1  0.776330  0.737031  0.631368  1
  O  O74  1  0.766758  0.768908  0.293508  1
  O  O75  1  0.832696  0.548681  0.965274  1
  O  O76  1  0.914411  0.719652  0.820634  1
  O  O77  1  0.932723  0.786020  0.483785  1
  O  O78  1  0.933971  0.231912  0.705616  1
  O  O79  1  0.929026  0.640278  0.151234  1
  O  O80  1  0.913269  0.959363  0.175561  1
  O  O81  1  0.945913  0.214958  0.025944  1
  O  O82  1  0.940976  0.131918  0.356675  1
  O  O83  1  0.969734  0.446097  0.399339  1
