# generated using pymatgen
data_CoHRu(CO)6
_symmetry_space_group_name_H-M   'P 1'
_cell_length_a   9.35032750
_cell_length_b   11.61091031
_cell_length_c   16.72791591
_cell_angle_alpha   90.00000000
_cell_angle_beta   91.53445710
_cell_angle_gamma   90.00000000
_symmetry_Int_Tables_number   1
_chemical_formula_structural   CoHRu(CO)6
_chemical_formula_sum   'Co8 H8 Ru8 C48 O48'
_cell_volume   1815.42856429
_cell_formula_units_Z   8
loop_
 _symmetry_equiv_pos_site_id
 _symmetry_equiv_pos_as_xyz
  1  'x, y, z'
loop_
 _atom_site_type_symbol
 _atom_site_label
 _atom_site_symmetry_multiplicity
 _atom_site_fract_x
 _atom_site_fract_y
 _atom_site_fract_z
 _atom_site_occupancy
  Co  Co0  1  0.300172  0.275559  0.759328  1
  Co  Co1  1  0.699828  0.775559  0.740672  1
  Co  Co2  1  0.699828  0.724441  0.240672  1
  Co  Co3  1  0.300172  0.224441  0.259328  1
  Co  Co4  1  0.235997  0.389773  0.884786  1
  Co  Co5  1  0.764003  0.889773  0.615214  1
  Co  Co6  1  0.764003  0.610227  0.115214  1
  Co  Co7  1  0.235997  0.110227  0.384786  1
  H  H8  1  0.358426  0.142824  0.925076  1
  H  H9  1  0.641574  0.642824  0.574924  1
  H  H10  1  0.641574  0.857176  0.074924  1
  H  H11  1  0.358426  0.357176  0.425076  1
  H  H12  1  0.381243  0.372445  0.822467  1
  H  H13  1  0.618757  0.872445  0.677533  1
  H  H14  1  0.618757  0.627555  0.177533  1
  H  H15  1  0.381243  0.127555  0.322467  1
  Ru  Ru16  1  0.182403  0.160721  0.882596  1
  Ru  Ru17  1  0.817597  0.660721  0.617404  1
  Ru  Ru18  1  0.817597  0.839279  0.117404  1
  Ru  Ru19  1  0.182403  0.339279  0.382596  1
  Ru  Ru20  1  0.470913  0.259249  0.888525  1
  Ru  Ru21  1  0.529087  0.759249  0.611475  1
  Ru  Ru22  1  0.529087  0.740751  0.111475  1
  Ru  Ru23  1  0.470913  0.240751  0.388525  1
  C  C24  1  0.988658  0.163570  0.841694  1
  C  C25  1  0.011342  0.663570  0.658306  1
  C  C26  1  0.011342  0.836430  0.158306  1
  C  C27  1  0.988658  0.336430  0.341694  1
  C  C28  1  0.217916  0.005228  0.852053  1
  C  C29  1  0.782084  0.505228  0.647947  1
  C  C30  1  0.782084  0.994772  0.147947  1
  C  C31  1  0.217916  0.494772  0.352053  1
  C  C32  1  0.127009  0.123613  0.987680  1
  C  C33  1  0.872991  0.623613  0.512320  1
  C  C34  1  0.872991  0.876387  0.012320  1
  C  C35  1  0.127009  0.376387  0.487680  1
  C  C36  1  0.466125  0.168948  0.779625  1
  C  C37  1  0.533875  0.668948  0.720375  1
  C  C38  1  0.533875  0.831052  0.220375  1
  C  C39  1  0.466125  0.331052  0.279625  1
  C  C40  1  0.383846  0.357691  0.977695  1
  C  C41  1  0.616154  0.857691  0.522305  1
  C  C42  1  0.616154  0.642309  0.022305  1
  C  C43  1  0.383846  0.142309  0.477695  1
  C  C44  1  0.140222  0.384324  0.782148  1
  C  C45  1  0.859778  0.884324  0.717852  1
  C  C46  1  0.859778  0.615676  0.217852  1
  C  C47  1  0.140222  0.115676  0.282148  1
  C  C48  1  0.596562  0.163778  0.948732  1
  C  C49  1  0.403438  0.663778  0.551268  1
  C  C50  1  0.403438  0.836222  0.051268  1
  C  C51  1  0.596562  0.336222  0.448732  1
  C  C52  1  0.629395  0.354141  0.866723  1
  C  C53  1  0.370605  0.854141  0.633277  1
  C  C54  1  0.370605  0.645859  0.133277  1
  C  C55  1  0.629395  0.145859  0.366723  1
  C  C56  1  0.376054  0.347784  0.677114  1
  C  C57  1  0.623946  0.847784  0.822886  1
  C  C58  1  0.623946  0.652216  0.322885  1
  C  C59  1  0.376054  0.152216  0.177115  1
  C  C60  1  0.188909  0.179733  0.706346  1
  C  C61  1  0.811091  0.679733  0.793654  1
  C  C62  1  0.811091  0.820267  0.293654  1
  C  C63  1  0.188909  0.320267  0.206346  1
  C  C64  1  0.257213  0.541843  0.890853  1
  C  C65  1  0.742787  0.041843  0.609147  1
  C  C66  1  0.742787  0.458157  0.109147  1
  C  C67  1  0.257213  0.958157  0.390853  1
  C  C68  1  0.085535  0.369332  0.943032  1
  C  C69  1  0.914465  0.869332  0.556968  1
  C  C70  1  0.914465  0.630668  0.056968  1
  C  C71  1  0.085535  0.130668  0.443032  1
  O  O72  1  0.870829  0.161527  0.819038  1
  O  O73  1  0.129171  0.661527  0.680962  1
  O  O74  1  0.129171  0.838473  0.180962  1
  O  O75  1  0.870829  0.338473  0.319038  1
  O  O76  1  0.245522  0.911681  0.834964  1
  O  O77  1  0.754478  0.411681  0.665036  1
  O  O78  1  0.754478  0.088319  0.165036  1
  O  O79  1  0.245522  0.588319  0.334964  1
  O  O80  1  0.090443  0.100233  0.051436  1
  O  O81  1  0.909557  0.600233  0.448564  1
  O  O82  1  0.909557  0.899767  0.948564  1
  O  O83  1  0.090443  0.399767  0.551436  1
  O  O84  1  0.521534  0.092948  0.745925  1
  O  O85  1  0.478466  0.592948  0.754075  1
  O  O86  1  0.478466  0.907052  0.254075  1
  O  O87  1  0.521534  0.407052  0.245925  1
  O  O88  1  0.394845  0.386602  0.044842  1
  O  O89  1  0.605155  0.886602  0.455158  1
  O  O90  1  0.605155  0.613398  0.955158  1
  O  O91  1  0.394845  0.113398  0.544842  1
  O  O92  1  0.039507  0.420205  0.746908  1
  O  O93  1  0.960493  0.920205  0.753092  1
  O  O94  1  0.960493  0.579795  0.253092  1
  O  O95  1  0.039507  0.079795  0.246908  1
  O  O96  1  0.675471  0.105271  0.984717  1
  O  O97  1  0.324529  0.605271  0.515283  1
  O  O98  1  0.324529  0.894729  0.015283  1
  O  O99  1  0.675471  0.394729  0.484717  1
  O  O100  1  0.728997  0.409154  0.853187  1
  O  O101  1  0.271003  0.909154  0.646813  1
  O  O102  1  0.271003  0.590846  0.146813  1
  O  O103  1  0.728997  0.090846  0.353187  1
  O  O104  1  0.425160  0.390264  0.621548  1
  O  O105  1  0.574840  0.890264  0.878452  1
  O  O106  1  0.574840  0.609736  0.378452  1
  O  O107  1  0.425160  0.109736  0.121548  1
  O  O108  1  0.114781  0.126026  0.664018  1
  O  O109  1  0.885219  0.626026  0.835982  1
  O  O110  1  0.885219  0.873974  0.335982  1
  O  O111  1  0.114781  0.373974  0.164018  1
  O  O112  1  0.266944  0.640698  0.897297  1
  O  O113  1  0.733056  0.140698  0.602703  1
  O  O114  1  0.733056  0.359302  0.102703  1
  O  O115  1  0.266944  0.859302  0.397297  1
  O  O116  1  0.983637  0.372210  0.981462  1
  O  O117  1  0.016363  0.872210  0.518538  1
  O  O118  1  0.016363  0.627790  0.018538  1
  O  O119  1  0.983637  0.127790  0.481462  1
