# generated using pymatgen
data_Li32Mn5Cr11O48
_symmetry_space_group_name_H-M   'P 1'
_cell_length_a   5.02216671
_cell_length_b   5.02216939
_cell_length_c   38.48053640
_cell_angle_alpha   88.94803174
_cell_angle_beta   91.05192602
_cell_angle_gamma   60.23714866
_symmetry_Int_Tables_number   1
_chemical_formula_structural   Li32Mn5Cr11O48
_chemical_formula_sum   'Li32 Mn5 Cr11 O48'
_cell_volume   841.96925239
_cell_formula_units_Z   1
loop_
 _symmetry_equiv_pos_site_id
 _symmetry_equiv_pos_as_xyz
  1  'x, y, z'
loop_
 _atom_site_type_symbol
 _atom_site_label
 _atom_site_symmetry_multiplicity
 _atom_site_fract_x
 _atom_site_fract_y
 _atom_site_fract_z
 _atom_site_occupancy
  Li  Li0  1  0.086681  0.091559  0.249921  1
  Li  Li1  1  0.998741  0.499754  0.000185  1
  Li  Li2  1  0.059810  0.436691  0.187472  1
  Li  Li3  1  0.121469  0.374204  0.375050  1
  Li  Li4  1  0.189701  0.312565  0.562426  1
  Li  Li5  1  0.250477  0.254385  0.750203  1
  Li  Li6  1  0.312289  0.187632  0.937475  1
  Li  Li7  1  0.033971  0.791910  0.124912  1
  Li  Li8  1  0.372769  0.121471  0.124973  1
  Li  Li9  1  0.166910  0.658971  0.500088  1
  Li  Li10  1  0.281497  0.537675  0.874766  1
  Li  Li11  1  0.438003  0.063003  0.312500  1
  Li  Li12  1  0.496470  0.997770  0.500027  1
  Li  Li13  1  0.413228  0.412317  0.250031  1
  Li  Li14  1  0.531304  0.288673  0.624726  1
  Li  Li15  1  0.217309  0.962768  0.624951  1
  Li  Li16  1  0.337769  0.842309  0.000049  1
  Li  Li17  1  0.663673  0.156304  0.000274  1
  Li  Li18  1  0.787317  0.038228  0.374969  1
  Li  Li19  1  0.466559  0.711681  0.375079  1
  Li  Li20  1  0.588040  0.588237  0.750146  1
  Li  Li21  1  0.562632  0.937289  0.687525  1
  Li  Li22  1  0.718354  0.460478  0.125049  1
  Li  Li23  1  0.835478  0.343353  0.499951  1
  Li  Li24  1  0.629385  0.875477  0.874797  1
  Li  Li25  1  0.963237  0.213040  0.874854  1
  Li  Li26  1  0.687565  0.814701  0.062574  1
  Li  Li27  1  0.749204  0.746470  0.249951  1
  Li  Li28  1  0.811691  0.684810  0.437528  1
  Li  Li29  1  0.874754  0.623741  0.624815  1
  Li  Li30  1  0.939298  0.564297  0.812500  1
  Li  Li31  1  0.912675  0.906497  0.750234  1
  Mn  Mn32  1  0.020398  0.145979  0.062481  1
  Mn  Mn33  1  0.144555  0.019875  0.437407  1
  Mn  Mn34  1  0.605299  0.230299  0.812500  1
  Mn  Mn35  1  0.394873  0.769555  0.187593  1
  Mn  Mn36  1  0.520978  0.645396  0.562519  1
  Cr  Cr37  1  0.103586  0.728596  0.312501  1
  Cr  Cr38  1  0.233354  0.608142  0.687454  1
  Cr  Cr39  1  0.356225  0.484143  0.062536  1
  Cr  Cr40  1  0.478506  0.350360  0.437439  1
  Cr  Cr41  1  0.273102  0.898115  0.812500  1
  Cr  Cr42  1  0.725367  0.103486  0.187562  1
  Cr  Cr43  1  0.641317  0.516680  0.937469  1
  Cr  Cr44  1  0.771796  0.396770  0.312499  1
  Cr  Cr45  1  0.891703  0.266296  0.687530  1
  Cr  Cr46  1  0.859148  0.981269  0.562464  1
  Cr  Cr47  1  0.983128  0.858370  0.937545  1
  O  O48  1  0.082194  0.061883  0.340521  1
  O  O49  1  0.058299  0.086839  0.159452  1
  O  O50  1  0.071666  0.428876  0.283684  1
  O  O51  1  0.193959  0.305981  0.659020  1
  O  O52  1  0.057923  0.443240  0.090880  1
  O  O53  1  0.176565  0.319467  0.466096  1
  O  O54  1  0.305470  0.197188  0.841005  1
  O  O55  1  0.319857  0.178393  0.033951  1
  O  O56  1  0.444091  0.054546  0.408927  1
  O  O57  1  0.068725  0.792111  0.215417  1
  O  O58  1  0.429546  0.069092  0.216073  1
  O  O59  1  0.200699  0.657766  0.590616  1
  O  O60  1  0.332273  0.532148  0.965898  1
  O  O61  1  0.032768  0.825697  0.034384  1
  O  O62  1  0.167111  0.693724  0.409583  1
  O  O63  1  0.288058  0.565940  0.784375  1
  O  O64  1  0.217994  0.917274  0.715927  1
  O  O65  1  0.178973  0.961360  0.534623  1
  O  O66  1  0.292276  0.842992  0.909073  1
  O  O67  1  0.438409  0.417980  0.340627  1
  O  O68  1  0.582104  0.281398  0.715816  1
  O  O69  1  0.418378  0.442865  0.159638  1
  O  O70  1  0.532037  0.327235  0.534268  1
  O  O71  1  0.656397  0.207105  0.909184  1
  O  O72  1  0.336358  0.803972  0.090377  1
  O  O73  1  0.461841  0.683299  0.465549  1
  O  O74  1  0.582147  0.557136  0.840335  1
  O  O75  1  0.436880  0.707197  0.284479  1
  O  O76  1  0.543015  0.593044  0.659171  1
  O  O77  1  0.702235  0.157037  0.090731  1
  O  O78  1  0.817865  0.043378  0.465362  1
  O  O79  1  0.792981  0.063408  0.284373  1
  O  O80  1  0.712049  0.434238  0.215764  1
  O  O81  1  0.834699  0.302478  0.590406  1
  O  O82  1  0.968046  0.168016  0.965829  1
  O  O83  1  0.677475  0.459701  0.034594  1
  O  O84  1  0.809238  0.337047  0.409236  1
  O  O85  1  0.572184  0.930472  0.783995  1
  O  O86  1  0.932136  0.207147  0.784665  1
  O  O87  1  0.553393  0.944859  0.591049  1
  O  O88  1  0.680982  0.818957  0.965980  1
  O  O89  1  0.694467  0.801566  0.158904  1
  O  O90  1  0.818239  0.682923  0.534120  1
  O  O91  1  0.944164  0.555272  0.909005  1
  O  O92  1  0.803878  0.696669  0.341316  1
  O  O93  1  0.930271  0.569166  0.715995  1
  O  O94  1  0.940943  0.913058  0.840625  1
  O  O95  1  0.907147  0.957272  0.659102  1
