# generated using pymatgen
data_V4OF11
_symmetry_space_group_name_H-M   'P 1'
_cell_length_a   5.29878433
_cell_length_b   5.46664776
_cell_length_c   17.47077646
_cell_angle_alpha   91.79078206
_cell_angle_beta   98.71763258
_cell_angle_gamma   61.06002502
_symmetry_Int_Tables_number   1
_chemical_formula_structural   V4OF11
_chemical_formula_sum   'V8 O2 F22'
_cell_volume   437.23955621
_cell_formula_units_Z   2
loop_
 _symmetry_equiv_pos_site_id
 _symmetry_equiv_pos_as_xyz
  1  'x, y, z'
loop_
 _atom_site_type_symbol
 _atom_site_label
 _atom_site_symmetry_multiplicity
 _atom_site_fract_x
 _atom_site_fract_y
 _atom_site_fract_z
 _atom_site_occupancy
  V  V0  1  0.756576  0.620544  0.124227  1
  V  V1  1  0.750964  0.121229  0.624430  1
  V  V2  1  0.504257  0.252434  0.251563  1
  V  V3  1  0.497921  0.752541  0.750407  1
  V  V4  1  0.270962  0.846335  0.370103  1
  V  V5  1  0.245708  0.382927  0.876623  1
  V  V6  1  0.997653  0.027589  0.005361  1
  V  V7  1  0.003887  0.489775  0.498324  1
  O  O8  1  0.953802  0.303075  0.058954  1
  O  O9  1  0.449872  0.570868  0.316155  1
  F  F10  1  0.931588  0.833051  0.087364  1
  F  F11  1  0.982196  0.803655  0.562807  1
  F  F12  1  0.536746  0.937930  0.188357  1
  F  F13  1  0.932214  0.039337  0.288209  1
  F  F14  1  0.928218  0.333345  0.586241  1
  F  F15  1  0.925235  0.540756  0.788890  1
  F  F16  1  0.422236  0.795478  0.038406  1
  F  F17  1  0.573837  0.417988  0.164158  1
  F  F18  1  0.573683  0.909216  0.662281  1
  F  F19  1  0.574443  0.711659  0.462065  1
  F  F20  1  0.520575  0.437602  0.686625  1
  F  F21  1  0.433192  0.076561  0.337775  1
  F  F22  1  0.429619  0.280205  0.535945  1
  F  F23  1  0.425281  0.591694  0.838182  1
  F  F24  1  0.575100  0.205424  0.962370  1
  F  F25  1  0.070822  0.666153  0.412479  1
  F  F26  1  0.077014  0.455429  0.211393  1
  F  F27  1  0.070965  0.965195  0.712755  1
  F  F28  1  0.472726  0.069472  0.812675  1
  F  F29  1  0.028271  0.699464  0.941119  1
  F  F30  1  0.037664  0.171936  0.434056  1
  F  F31  1  0.074033  0.161014  0.913204  1
