# generated using pymatgen
data_Na2LiMnPCO7
_symmetry_space_group_name_H-M   'P 1'
_cell_length_a   8.86306089
_cell_length_b   6.78466205
_cell_length_c   10.24859189
_cell_angle_alpha   90.18648539
_cell_angle_beta   89.19911738
_cell_angle_gamma   89.22376250
_symmetry_Int_Tables_number   1
_chemical_formula_structural   Na2LiMnPCO7
_chemical_formula_sum   'Na8 Li4 Mn4 P4 C4 O28'
_cell_volume   616.15686115
_cell_formula_units_Z   4
loop_
 _symmetry_equiv_pos_site_id
 _symmetry_equiv_pos_as_xyz
  1  'x, y, z'
loop_
 _atom_site_type_symbol
 _atom_site_label
 _atom_site_symmetry_multiplicity
 _atom_site_fract_x
 _atom_site_fract_y
 _atom_site_fract_z
 _atom_site_occupancy
  Na  Na0  1  0.083294  0.241299  0.879230  1
  Na  Na1  1  0.082954  0.244277  0.378355  1
  Na  Na2  1  0.255438  0.998812  0.623958  1
  Na  Na3  1  0.256814  0.499887  0.622832  1
  Na  Na4  1  0.255152  0.501054  0.125917  1
  Na  Na5  1  0.745203  0.501102  0.875100  1
  Na  Na6  1  0.744362  0.502002  0.377271  1
  Na  Na7  1  0.745983  0.998744  0.376381  1
  Li  Li8  1  0.274956  0.026298  0.115960  1
  Li  Li9  1  0.728345  0.977394  0.883370  1
  Li  Li10  1  0.908115  0.760158  0.628049  1
  Li  Li11  1  0.911368  0.764997  0.125437  1
  Mn  Mn12  1  0.359888  0.751892  0.889931  1
  Mn  Mn13  1  0.363049  0.752123  0.387197  1
  Mn  Mn14  1  0.641952  0.247379  0.613018  1
  Mn  Mn15  1  0.643839  0.246467  0.110125  1
  P  P16  1  0.414387  0.244766  0.854813  1
  P  P17  1  0.409285  0.246118  0.351117  1
  P  P18  1  0.596453  0.753172  0.649797  1
  P  P19  1  0.591293  0.753335  0.145587  1
  C  C20  1  0.043957  0.759029  0.867362  1
  C  C21  1  0.051788  0.751246  0.363490  1
  C  C22  1  0.941774  0.249162  0.634193  1
  C  C23  1  0.948099  0.240112  0.131761  1
  O  O24  1  0.086658  0.253315  0.645028  1
  O  O25  1  0.093477  0.225864  0.140589  1
  O  O26  1  0.083314  0.747915  0.989113  1
  O  O27  1  0.086465  0.752696  0.487139  1
  O  O28  1  0.147916  0.752435  0.775127  1
  O  O29  1  0.157310  0.755117  0.273819  1
  O  O30  1  0.316547  0.068591  0.902225  1
  O  O31  1  0.329016  0.435427  0.899965  1
  O  O32  1  0.318304  0.067412  0.401508  1
  O  O33  1  0.315914  0.434764  0.387628  1
  O  O34  1  0.425985  0.243704  0.702512  1
  O  O35  1  0.436375  0.747435  0.589507  1
  O  O36  1  0.424555  0.230811  0.198374  1
  O  O37  1  0.428464  0.769356  0.090208  1
  O  O38  1  0.577603  0.230312  0.908197  1
  O  O39  1  0.576703  0.769121  0.801824  1
  O  O40  1  0.569952  0.252665  0.409030  1
  O  O41  1  0.576132  0.756156  0.297491  1
  O  O42  1  0.692030  0.566038  0.614637  1
  O  O43  1  0.691802  0.929410  0.600973  1
  O  O44  1  0.676901  0.562695  0.102086  1
  O  O45  1  0.693747  0.926360  0.099501  1
  O  O46  1  0.854835  0.246224  0.737418  1
  O  O47  1  0.862466  0.245339  0.236548  1
  O  O48  1  0.880272  0.247411  0.519100  1
  O  O49  1  0.883405  0.249931  0.018634  1
  O  O50  1  0.903678  0.776248  0.834440  1
  O  O51  1  0.912427  0.746422  0.327125  1
