# generated using pymatgen
data_LiCo(CO3)2
_symmetry_space_group_name_H-M   'P 1'
_cell_length_a   4.68535594
_cell_length_b   5.78941108
_cell_length_c   4.68535686
_cell_angle_alpha   66.13088444
_cell_angle_beta   119.99999239
_cell_angle_gamma   113.86911056
_symmetry_Int_Tables_number   1
_chemical_formula_structural   LiCo(CO3)2
_chemical_formula_sum   'Li1 Co1 C2 O6'
_cell_volume   97.31159907
_cell_formula_units_Z   1
loop_
 _symmetry_equiv_pos_site_id
 _symmetry_equiv_pos_as_xyz
  1  'x, y, z'
loop_
 _atom_site_type_symbol
 _atom_site_label
 _atom_site_symmetry_multiplicity
 _atom_site_fract_x
 _atom_site_fract_y
 _atom_site_fract_z
 _atom_site_occupancy
  Li  Li0  1  0.000000  0.000000  0.000000  1
  Co  Co1  1  0.500000  0.500000  0.500000  1
  C  C2  1  0.243881  0.731644  0.756119  1
  C  C3  1  0.756119  0.268356  0.243881  1
  O  O4  1  0.036161  0.266605  0.255666  1
  O  O5  1  0.513889  0.733395  0.036161  1
  O  O6  1  0.255666  0.733395  0.486111  1
  O  O7  1  0.744334  0.266605  0.513889  1
  O  O8  1  0.486111  0.266605  0.963839  1
  O  O9  1  0.963839  0.733395  0.744334  1
