# generated using pymatgen
data_Li2VO2F
_symmetry_space_group_name_H-M   'P 1'
_cell_length_a   6.00316505
_cell_length_b   5.20303877
_cell_length_c   7.36188872
_cell_angle_alpha   89.98786497
_cell_angle_beta   90.00000000
_cell_angle_gamma   90.00000000
_symmetry_Int_Tables_number   1
_chemical_formula_structural   Li2VO2F
_chemical_formula_sum   'Li8 V4 O8 F4'
_cell_volume   229.94638427
_cell_formula_units_Z   4
loop_
 _symmetry_equiv_pos_site_id
 _symmetry_equiv_pos_as_xyz
  1  'x, y, z'
loop_
 _atom_site_type_symbol
 _atom_site_label
 _atom_site_symmetry_multiplicity
 _atom_site_fract_x
 _atom_site_fract_y
 _atom_site_fract_z
 _atom_site_occupancy
  Li  Li0  1  0.999997  0.658027  0.848871  1
  Li  Li1  1  0.999997  0.341116  0.157704  1
  Li  Li2  1  0.260898  0.851694  0.132922  1
  Li  Li3  1  0.267095  0.157374  0.855640  1
  Li  Li4  1  0.499997  0.297085  0.139155  1
  Li  Li5  1  0.499997  0.691633  0.854673  1
  Li  Li6  1  0.732900  0.157374  0.855640  1
  Li  Li7  1  0.739097  0.851694  0.132922  1
  V  V8  1  0.000000  0.995521  0.500155  1
  V  V9  1  0.244021  0.494820  0.507640  1
  V  V10  1  0.500000  0.013099  0.504467  1
  V  V11  1  0.755979  0.494820  0.507640  1
  O  O12  1  0.999997  0.324179  0.655828  1
  O  O13  1  0.999997  0.657277  0.353795  1
  O  O14  1  0.254664  0.830633  0.645604  1
  O  O15  1  0.251681  0.170497  0.352856  1
  O  O16  1  0.499997  0.346276  0.650678  1
  O  O17  1  0.500000  0.997422  0.997850  1
  O  O18  1  0.745331  0.830633  0.645604  1
  O  O19  1  0.748314  0.170497  0.352856  1
  F  F20  1  0.000000  0.997583  0.001255  1
  F  F21  1  0.242033  0.500748  0.003539  1
  F  F22  1  0.499997  0.669249  0.339168  1
  F  F23  1  0.757967  0.500748  0.003539  1
