# generated using pymatgen
data_Li4V3P8O29
_symmetry_space_group_name_H-M   'P 1'
_cell_length_a   9.74317326
_cell_length_b   9.74243379
_cell_length_c   14.28338443
_cell_angle_alpha   90.13270043
_cell_angle_beta   90.12006133
_cell_angle_gamma   60.08716871
_symmetry_Int_Tables_number   1
_chemical_formula_structural   Li4V3P8O29
_chemical_formula_sum   'Li8 V6 P16 O58'
_cell_volume   1175.19254209
_cell_formula_units_Z   2
loop_
 _symmetry_equiv_pos_site_id
 _symmetry_equiv_pos_as_xyz
  1  'x, y, z'
loop_
 _atom_site_type_symbol
 _atom_site_label
 _atom_site_symmetry_multiplicity
 _atom_site_fract_x
 _atom_site_fract_y
 _atom_site_fract_z
 _atom_site_occupancy
  Li  Li0  1  0.905292  0.763915  0.060011  1
  Li  Li1  1  0.764042  0.905262  0.559963  1
  Li  Li2  1  0.902385  0.335901  0.556967  1
  Li  Li3  1  0.764192  0.332614  0.058619  1
  Li  Li4  1  0.336001  0.902475  0.056821  1
  Li  Li5  1  0.332544  0.764261  0.558612  1
  Li  Li6  1  0.011353  0.998979  0.993725  1
  Li  Li7  1  0.999244  0.011443  0.493737  1
  V  V8  1  0.563328  0.436021  0.251439  1
  V  V9  1  0.436063  0.563403  0.751398  1
  V  V10  1  0.563998  -0.000070  0.748398  1
  V  V11  1  0.436936  0.001623  0.250360  1
  V  V12  1  -0.000008  0.563843  0.248336  1
  V  V13  1  0.001712  0.436845  0.750278  1
  P  P14  1  0.912353  0.776604  0.842986  1
  P  P15  1  0.776691  0.912388  0.342966  1
  P  P16  1  0.913844  0.310236  0.343911  1
  P  P17  1  0.662941  0.668122  0.130787  1
  P  P18  1  0.668149  0.662946  0.630772  1
  P  P19  1  0.776698  0.311442  0.843086  1
  P  P20  1  0.695232  0.221098  0.661478  1
  P  P21  1  0.310181  0.913905  0.843907  1
  P  P22  1  0.697113  0.084425  0.161646  1
  P  P23  1  0.311290  0.776793  0.343088  1
  P  P24  1  0.221065  0.695223  0.161454  1
  P  P25  1  0.333966  0.334202  0.365501  1
  P  P26  1  0.334231  0.334006  0.865434  1
  P  P27  1  0.084426  0.697165  0.661645  1
  P  P28  1  0.219230  0.083895  0.662672  1
  P  P29  1  0.083927  0.219049  0.162656  1
  O  O30  1  0.990656  0.803233  0.583071  1
  O  O31  1  0.912676  0.742004  0.326121  1
  O  O32  1  0.803253  0.990635  0.083082  1
  O  O33  1  0.742026  0.912710  0.826194  1
  O  O34  1  0.913137  0.617603  0.826293  1
  O  O35  1  0.810792  0.675478  0.165339  1
  O  O36  1  0.915191  0.464926  0.331532  1
  O  O37  1  0.991062  0.203623  0.084292  1
  O  O38  1  0.914870  0.345400  0.827096  1
  O  O39  1  0.675601  0.810714  0.665474  1
  O  O40  1  0.617679  0.913171  0.326322  1
  O  O41  1  0.816447  0.511361  0.672840  1
  O  O42  1  0.649819  0.665620  0.026743  1
  O  O43  1  0.665507  0.650158  0.526715  1
  O  O44  1  0.670444  0.516386  0.175527  1
  O  O45  1  0.464867  0.915333  0.831621  1
  O  O46  1  0.511476  0.816394  0.172992  1
  O  O47  1  0.742264  0.340843  0.324954  1
  O  O48  1  0.789581  0.195303  0.760250  1
  O  O49  1  0.800237  0.213351  0.583535  1
  O  O50  1  0.793111  0.233040  0.935074  1
  O  O51  1  0.617297  0.468426  0.828424  1
  O  O52  1  0.516362  0.670546  0.675517  1
  O  O53  1  0.656368  0.260247  0.158790  1
  O  O54  1  0.468342  0.617347  0.328390  1
  O  O55  1  0.345325  0.914924  0.327170  1
  O  O56  1  0.788902  0.017564  0.260428  1
  O  O57  1  0.788360  0.977278  0.435054  1
  O  O58  1  0.203808  0.991175  0.584223  1
  O  O59  1  0.659347  0.083636  0.658188  1
  O  O60  1  0.539373  0.381872  0.672932  1
  O  O61  1  0.340825  0.742298  0.824992  1
  O  O62  1  0.482571  0.333080  0.317735  1
  O  O63  1  0.381749  0.539245  0.173032  1
  O  O64  1  0.213541  0.800057  0.083515  1
  O  O65  1  0.232918  0.793163  0.435070  1
  O  O66  1  0.195249  0.789628  0.260244  1
  O  O67  1  0.260153  0.656544  0.658813  1
  O  O68  1  0.478102  0.189956  0.821988  1
  O  O69  1  0.542256  0.076369  0.171384  1
  O  O70  1  0.333210  0.482596  0.817726  1
  O  O71  1  0.320603  0.348247  0.968021  1
  O  O72  1  0.348396  0.320506  0.468088  1
  O  O73  1  0.189790  0.477986  0.322189  1
  O  O74  1  0.381738  0.074950  0.671151  1
  O  O75  1  0.337835  0.183931  0.317444  1
  O  O76  1  0.083594  0.659390  0.158175  1
  O  O77  1  0.017478  0.788878  0.760447  1
  O  O78  1  0.977258  0.788256  0.935051  1
  O  O79  1  0.076329  0.542287  0.671375  1
  O  O80  1  0.183990  0.337807  0.817407  1
  O  O81  1  0.074980  0.381636  0.171050  1
  O  O82  1  0.260524  0.084647  0.159718  1
  O  O83  1  0.226017  0.973001  0.934917  1
  O  O84  1  0.191496  0.018969  0.761152  1
  O  O85  1  0.084812  0.260526  0.659735  1
  O  O86  1  0.972794  0.226234  0.434949  1
  O  O87  1  0.018971  0.191516  0.261172  1
