# generated using pymatgen
data_Li3Nb(CuO2)4
_symmetry_space_group_name_H-M   'P 1'
_cell_length_a   10.37835220
_cell_length_b   10.37835247
_cell_length_c   15.01123764
_cell_angle_alpha   19.29050667
_cell_angle_beta   19.29050689
_cell_angle_gamma   32.09353096
_symmetry_Int_Tables_number   1
_chemical_formula_structural   Li3Nb(CuO2)4
_chemical_formula_sum   'Li3 Nb1 Cu4 O8'
_cell_volume   161.70791207
_cell_formula_units_Z   1
loop_
 _symmetry_equiv_pos_site_id
 _symmetry_equiv_pos_as_xyz
  1  'x, y, z'
loop_
 _atom_site_type_symbol
 _atom_site_label
 _atom_site_symmetry_multiplicity
 _atom_site_fract_x
 _atom_site_fract_y
 _atom_site_fract_z
 _atom_site_occupancy
  Li  Li0  1  0.000000  0.500000  0.500000  1
  Li  Li1  1  0.500000  0.000000  0.500000  1
  Li  Li2  1  0.500000  0.500000  0.500000  1
  Nb  Nb3  1  0.500000  0.500000  0.000000  1
  Cu  Cu4  1  0.000000  0.000000  0.000000  1
  Cu  Cu5  1  0.000000  0.500000  0.000000  1
  Cu  Cu6  1  0.500000  0.000000  0.000000  1
  Cu  Cu7  1  0.000000  0.000000  0.500000  1
  O  O8  1  0.950418  0.950418  0.332983  1
  O  O9  1  0.056109  0.571060  0.162641  1
  O  O10  1  0.571060  0.056109  0.162641  1
  O  O11  1  0.049582  0.049582  0.667017  1
  O  O12  1  0.609784  0.609784  0.099597  1
  O  O13  1  0.943891  0.428940  0.837359  1
  O  O14  1  0.428940  0.943891  0.837359  1
  O  O15  1  0.390216  0.390216  0.900403  1
