# generated using pymatgen
data_LiMnOF2
_symmetry_space_group_name_H-M   'P 1'
_cell_length_a   10.00059897
_cell_length_b   9.00381880
_cell_length_c   5.62763331
_cell_angle_alpha   90.00000000
_cell_angle_beta   90.00000000
_cell_angle_gamma   90.00000000
_symmetry_Int_Tables_number   1
_chemical_formula_structural   LiMnOF2
_chemical_formula_sum   'Li8 Mn8 O8 F16'
_cell_volume   506.73225588
_cell_formula_units_Z   8
loop_
 _symmetry_equiv_pos_site_id
 _symmetry_equiv_pos_as_xyz
  1  'x, y, z'
loop_
 _atom_site_type_symbol
 _atom_site_label
 _atom_site_symmetry_multiplicity
 _atom_site_fract_x
 _atom_site_fract_y
 _atom_site_fract_z
 _atom_site_occupancy
  Li  Li0  1  0.202009  0.412259  0.552458  1
  Li  Li1  1  0.202009  0.587741  0.052458  1
  Li  Li2  1  0.297991  0.087741  0.052458  1
  Li  Li3  1  0.297991  0.912259  0.552458  1
  Li  Li4  1  0.689327  0.067551  0.470364  1
  Li  Li5  1  0.689327  0.932449  0.970364  1
  Li  Li6  1  0.810673  0.432449  0.970364  1
  Li  Li7  1  0.810673  0.567551  0.470364  1
  Mn  Mn8  1  0.012627  0.253288  0.245449  1
  Mn  Mn9  1  0.014599  0.090264  0.750507  1
  Mn  Mn10  1  0.014599  0.909736  0.250507  1
  Mn  Mn11  1  0.012627  0.746712  0.745449  1
  Mn  Mn12  1  0.485401  0.590264  0.750507  1
  Mn  Mn13  1  0.487373  0.753288  0.245449  1
  Mn  Mn14  1  0.487373  0.246712  0.745449  1
  Mn  Mn15  1  0.485401  0.409736  0.250507  1
  O  O16  1  0.094934  0.078305  0.100314  1
  O  O17  1  0.094934  0.921695  0.600314  1
  O  O18  1  0.086386  0.229665  0.546686  1
  O  O19  1  0.086386  0.770335  0.046686  1
  O  O20  1  0.413614  0.270335  0.046686  1
  O  O21  1  0.413614  0.729665  0.546686  1
  O  O22  1  0.405066  0.578305  0.100314  1
  O  O23  1  0.405066  0.421695  0.600314  1
  F  F24  1  0.148280  0.575356  0.723919  1
  F  F25  1  0.148280  0.424644  0.223919  1
  F  F26  1  0.351720  0.924644  0.223919  1
  F  F27  1  0.351720  0.075356  0.723919  1
  F  F28  1  0.624542  0.440698  0.890719  1
  F  F29  1  0.624542  0.559302  0.390719  1
  F  F30  1  0.580087  0.244105  0.420669  1
  F  F31  1  0.580087  0.755895  0.920669  1
  F  F32  1  0.630401  0.903428  0.298915  1
  F  F33  1  0.630401  0.096572  0.798915  1
  F  F34  1  0.869599  0.403428  0.298915  1
  F  F35  1  0.869599  0.596572  0.798915  1
  F  F36  1  0.919913  0.255895  0.920669  1
  F  F37  1  0.919913  0.744105  0.420669  1
  F  F38  1  0.875458  0.059302  0.390719  1
  F  F39  1  0.875458  0.940698  0.890719  1
