# generated using pymatgen
data_Sr24Fe16O53
_symmetry_space_group_name_H-M   'P 1'
_cell_length_a   11.11588320
_cell_length_b   11.96197033
_cell_length_c   11.96197033
_cell_angle_alpha   117.45638921
_cell_angle_beta   76.57790523
_cell_angle_gamma   76.57790523
_symmetry_Int_Tables_number   1
_chemical_formula_structural   Sr24Fe16O53
_chemical_formula_sum   'Sr24 Fe16 O53'
_cell_volume   1262.42885469
_cell_formula_units_Z   1
loop_
 _symmetry_equiv_pos_site_id
 _symmetry_equiv_pos_as_xyz
  1  'x, y, z'
loop_
 _atom_site_type_symbol
 _atom_site_label
 _atom_site_symmetry_multiplicity
 _atom_site_fract_x
 _atom_site_fract_y
 _atom_site_fract_z
 _atom_site_occupancy
  Sr  Sr0  1  0.750000  0.000000  0.000000  1
  Sr  Sr1  1  0.874197  0.069412  0.435164  1
  Sr  Sr2  1  0.874197  0.435164  0.069412  1
  Sr  Sr3  1  0.870113  0.259765  0.259765  1
  Sr  Sr4  1  0.750000  0.816923  0.183077  1
  Sr  Sr5  1  0.750000  0.183077  0.816923  1
  Sr  Sr6  1  0.501410  0.318993  0.680845  1
  Sr  Sr7  1  0.374398  0.251330  0.251330  1
  Sr  Sr8  1  0.510067  0.499877  0.499877  1
  Sr  Sr9  1  0.501410  0.680845  0.318993  1
  Sr  Sr10  1  0.625803  0.564836  0.930588  1
  Sr  Sr11  1  0.374645  0.433404  0.066775  1
  Sr  Sr12  1  0.374645  0.066775  0.433404  1
  Sr  Sr13  1  0.250000  0.000000  0.000000  1
  Sr  Sr14  1  0.629887  0.740235  0.740235  1
  Sr  Sr15  1  0.625803  0.930588  0.564836  1
  Sr  Sr16  1  0.250000  0.818611  0.181389  1
  Sr  Sr17  1  0.250000  0.181389  0.818611  1
  Sr  Sr18  1  0.125602  0.748670  0.748670  1
  Sr  Sr19  1  0.125355  0.566596  0.933225  1
  Sr  Sr20  1  0.998590  0.319155  0.681007  1
  Sr  Sr21  1  0.989933  0.500123  0.500123  1
  Sr  Sr22  1  0.998590  0.681007  0.319155  1
  Sr  Sr23  1  0.125355  0.933225  0.566596  1
  Fe  Fe24  1  0.750000  0.598246  0.401754  1
  Fe  Fe25  1  0.750000  0.401754  0.598246  1
  Fe  Fe26  1  0.624916  0.344431  0.153803  1
  Fe  Fe27  1  0.875084  0.655569  0.846197  1
  Fe  Fe28  1  0.624916  0.153803  0.344431  1
  Fe  Fe29  1  0.875084  0.846197  0.655569  1
  Fe  Fe30  1  0.500587  0.104896  0.894342  1
  Fe  Fe31  1  0.500587  0.894342  0.104896  1
  Fe  Fe32  1  0.374218  0.845736  0.655365  1
  Fe  Fe33  1  0.250000  0.394997  0.605003  1
  Fe  Fe34  1  0.125782  0.154264  0.344635  1
  Fe  Fe35  1  0.125782  0.344635  0.154264  1
  Fe  Fe36  1  0.250000  0.605003  0.394997  1
  Fe  Fe37  1  0.374218  0.655365  0.845736  1
  Fe  Fe38  1  0.999413  0.895104  0.105658  1
  Fe  Fe39  1  0.999413  0.105658  0.895104  1
  O  O40  1  0.936978  0.470700  0.279239  1
  O  O41  1  0.819352  0.210048  0.030238  1
  O  O42  1  0.936978  0.279239  0.470700  1
  O  O43  1  0.819352  0.030238  0.210048  1
  O  O44  1  0.750000  0.500000  0.500000  1
  O  O45  1  0.750000  0.695573  0.304427  1
  O  O46  1  0.688084  0.470495  0.278781  1
  O  O47  1  0.811916  0.529505  0.721219  1
  O  O48  1  0.939792  0.790085  0.968612  1
  O  O49  1  0.750000  0.304427  0.695573  1
  O  O50  1  0.874120  0.748684  0.748684  1
  O  O51  1  0.623622  0.437510  0.053567  1
  O  O52  1  0.688084  0.278781  0.470495  1
  O  O53  1  0.560208  0.031388  0.209915  1
  O  O54  1  0.560208  0.209915  0.031388  1
  O  O55  1  0.625880  0.251316  0.251316  1
  O  O56  1  0.876378  0.562490  0.946433  1
  O  O57  1  0.811916  0.721219  0.529505  1
  O  O58  1  0.623622  0.053567  0.437510  1
  O  O59  1  0.876378  0.946433  0.562490  1
  O  O60  1  0.939792  0.968612  0.790085  1
  O  O61  1  0.500986  0.801161  0.199891  1
  O  O62  1  0.500986  0.199891  0.801161  1
  O  O63  1  0.430362  0.289423  0.469092  1
  O  O64  1  0.430362  0.469092  0.289423  1
  O  O65  1  0.319680  0.209865  0.031310  1
  O  O66  1  0.680648  0.789952  0.969762  1
  O  O67  1  0.319680  0.031310  0.209865  1
  O  O68  1  0.680648  0.969762  0.789952  1
  O  O69  1  0.563022  0.720761  0.529300  1
  O  O70  1  0.563022  0.529300  0.720761  1
  O  O71  1  0.190240  0.289728  0.469163  1
  O  O72  1  0.369500  0.561940  0.945462  1
  O  O73  1  0.250000  0.699321  0.300679  1
  O  O74  1  0.130500  0.438060  0.054538  1
  O  O75  1  0.060235  0.030267  0.210034  1
  O  O76  1  0.439765  0.969733  0.789966  1
  O  O77  1  0.122943  0.251345  0.251345  1
  O  O78  1  0.309760  0.710272  0.530837  1
  O  O79  1  0.060235  0.210034  0.030267  1
  O  O80  1  0.130500  0.054538  0.438060  1
  O  O81  1  0.190240  0.469163  0.289728  1
  O  O82  1  0.309760  0.530837  0.710272  1
  O  O83  1  0.377057  0.748655  0.748655  1
  O  O84  1  0.439765  0.789966  0.969733  1
  O  O85  1  0.369500  0.945462  0.561940  1
  O  O86  1  0.250000  0.300679  0.699321  1
  O  O87  1  0.180320  0.790135  0.968690  1
  O  O88  1  0.180320  0.968690  0.790135  1
  O  O89  1  0.069638  0.710577  0.530908  1
  O  O90  1  0.999014  0.198839  0.800109  1
  O  O91  1  0.069638  0.530908  0.710577  1
  O  O92  1  0.999014  0.800109  0.198839  1
