# generated using pymatgen
data_Li3VF6
_symmetry_space_group_name_H-M   'P 1'
_cell_length_a   5.42558597
_cell_length_b   5.54956570
_cell_length_c   10.99098562
_cell_angle_alpha   99.60402527
_cell_angle_beta   75.74623939
_cell_angle_gamma   60.73478484
_symmetry_Int_Tables_number   1
_chemical_formula_structural   Li3VF6
_chemical_formula_sum   'Li6 V2 F12'
_cell_volume   263.17165384
_cell_formula_units_Z   2
loop_
 _symmetry_equiv_pos_site_id
 _symmetry_equiv_pos_as_xyz
  1  'x, y, z'
loop_
 _atom_site_type_symbol
 _atom_site_label
 _atom_site_symmetry_multiplicity
 _atom_site_fract_x
 _atom_site_fract_y
 _atom_site_fract_z
 _atom_site_occupancy
  Li  Li0  1  0.161346  0.159831  0.949213  1
  Li  Li1  1  0.228742  0.660828  0.449380  1
  Li  Li2  1  0.663205  0.870542  0.052527  1
  Li  Li3  1  0.544971  0.450181  0.821574  1
  Li  Li4  1  0.682546  0.951951  0.321954  1
  Li  Li5  1  0.914765  0.369362  0.551883  1
  V  V6  1  0.488886  0.469406  0.149119  1
  V  V7  1  0.393250  0.968141  0.648987  1
  F  F8  1  0.327341  0.247675  0.069934  1
  F  F9  1  0.363023  0.072069  0.486349  1
  F  F10  1  0.096962  0.797352  0.289237  1
  F  F11  1  0.317371  0.295849  0.788802  1
  F  F12  1  0.507450  0.317081  0.297010  1
  F  F13  1  0.876016  0.080431  0.046027  1
  F  F14  1  0.498516  0.579184  0.545462  1
  F  F15  1  0.379165  0.815749  0.796707  1
  F  F16  1  0.667805  0.699762  0.193563  1
  F  F17  1  0.939756  0.197887  0.692877  1
  F  F18  1  0.578803  0.572241  0.986430  1
  F  F19  1  0.855824  0.746442  0.569509  1
