# generated using pymatgen
data_Li4Ti5V3O16
_symmetry_space_group_name_H-M   'P 1'
_cell_length_a   5.96003869
_cell_length_b   5.95152392
_cell_length_c   9.63991772
_cell_angle_alpha   89.98686481
_cell_angle_beta   89.93683352
_cell_angle_gamma   119.95726681
_symmetry_Int_Tables_number   1
_chemical_formula_structural   Li4Ti5V3O16
_chemical_formula_sum   'Li4 Ti5 V3 O16'
_cell_volume   296.25632482
_cell_formula_units_Z   1
loop_
 _symmetry_equiv_pos_site_id
 _symmetry_equiv_pos_as_xyz
  1  'x, y, z'
loop_
 _atom_site_type_symbol
 _atom_site_label
 _atom_site_symmetry_multiplicity
 _atom_site_fract_x
 _atom_site_fract_y
 _atom_site_fract_z
 _atom_site_occupancy
  Li  Li0  1  0.328813  0.664401  0.895947  1
  Li  Li1  1  0.997609  0.998866  0.994148  1
  Li  Li2  1  0.010479  0.005094  0.493569  1
  Li  Li3  1  0.666123  0.333125  0.397308  1
  Ti  Ti4  1  0.184903  0.836857  0.219980  1
  Ti  Ti5  1  0.340000  0.670443  0.499692  1
  Ti  Ti6  1  0.184991  0.348070  0.220059  1
  Ti  Ti7  1  0.349503  0.175175  0.727218  1
  Ti  Ti8  1  0.688825  0.344508  0.996703  1
  V  V9  1  0.651954  0.826013  0.210214  1
  V  V10  1  0.829971  0.657590  0.711376  1
  V  V11  1  0.830004  0.172141  0.711244  1
  O  O12  1  0.174021  0.831189  0.594238  1
  O  O13  1  0.038012  0.519015  0.334733  1
  O  O14  1  0.309580  0.654827  0.101337  1
  O  O15  1  0.007467  0.003697  0.304976  1
  O  O16  1  0.004716  0.002052  0.805851  1
  O  O17  1  0.173398  0.342231  0.594468  1
  O  O18  1  0.465983  0.959895  0.345216  1
  O  O19  1  0.465892  0.505978  0.345188  1
  O  O20  1  0.335963  0.167946  0.099010  1
  O  O21  1  0.667312  0.833482  0.592397  1
  O  O22  1  0.507313  0.472554  0.840461  1
  O  O23  1  0.508127  0.034912  0.840015  1
  O  O24  1  0.653783  0.327130  0.603161  1
  O  O25  1  0.835533  0.660069  0.093061  1
  O  O26  1  0.954237  0.477525  0.843255  1
  O  O27  1  0.835490  0.175515  0.093017  1
