# generated using pymatgen
data_Mn3O5F
_symmetry_space_group_name_H-M   'P 1'
_cell_length_a   4.53567111
_cell_length_b   13.59994413
_cell_length_c   3.00765700
_cell_angle_alpha   90.00005822
_cell_angle_beta   89.99997619
_cell_angle_gamma   90.00064799
_symmetry_Int_Tables_number   1
_chemical_formula_structural   Mn3O5F
_chemical_formula_sum   'Mn6 O10 F2'
_cell_volume   185.52694214
_cell_formula_units_Z   2
loop_
 _symmetry_equiv_pos_site_id
 _symmetry_equiv_pos_as_xyz
  1  'x, y, z'
loop_
 _atom_site_type_symbol
 _atom_site_label
 _atom_site_symmetry_multiplicity
 _atom_site_fract_x
 _atom_site_fract_y
 _atom_site_fract_z
 _atom_site_occupancy
  Mn  Mn0  1  0.980926  0.999037  -0.000003  1
  Mn  Mn1  1  0.023556  0.339349  0.000003  1
  Mn  Mn2  1  0.024900  0.659892  0.000002  1
  Mn  Mn3  1  0.475173  0.159942  0.500006  1
  Mn  Mn4  1  0.519048  0.499059  0.499994  1
  Mn  Mn5  1  0.476414  0.839332  0.500001  1
  O  O6  1  0.198382  0.269157  0.499999  1
  O  O7  1  0.205613  0.599497  0.500000  1
  O  O8  1  0.183852  0.937472  0.499999  1
  O  O9  1  0.294429  0.099519  0.000001  1
  O  O10  1  0.301577  0.769144  0.000001  1
  O  O11  1  0.316143  0.437473  0.999999  1
  O  O12  1  0.701382  0.566495  0.999998  1
  O  O13  1  0.688027  0.896353  0.000001  1
  O  O14  1  0.798613  0.066497  0.499998  1
  O  O15  1  0.811960  0.396368  0.500000  1
  F  F16  1  0.698747  0.232714  -0.000000  1
  F  F17  1  0.801257  0.732699  0.499999  1
