# generated using pymatgen
data_Li5La3(SbO6)2
_symmetry_space_group_name_H-M   'P 1'
_cell_length_a   11.24991179
_cell_length_b   11.27351094
_cell_length_c   11.23140963
_cell_angle_alpha   109.07554961
_cell_angle_beta   109.51986753
_cell_angle_gamma   109.85217136
_symmetry_Int_Tables_number   1
_chemical_formula_structural   Li5La3(SbO6)2
_chemical_formula_sum   'Li20 La12 Sb8 O48'
_cell_volume   1096.03306320
_cell_formula_units_Z   4
loop_
 _symmetry_equiv_pos_site_id
 _symmetry_equiv_pos_as_xyz
  1  'x, y, z'
loop_
 _atom_site_type_symbol
 _atom_site_label
 _atom_site_symmetry_multiplicity
 _atom_site_fract_x
 _atom_site_fract_y
 _atom_site_fract_z
 _atom_site_occupancy
  Li  Li0  1  0.750761  0.310074  0.202124  1
  Li  Li1  1  0.905885  0.894198  0.169350  1
  Li  Li2  1  0.712302  0.392204  0.469324  1
  Li  Li3  1  0.896002  0.186921  0.937328  1
  Li  Li4  1  0.608935  0.525068  0.281135  1
  Li  Li5  1  0.249454  0.040918  0.431228  1
  Li  Li6  1  0.543511  0.290637  0.597987  1
  Li  Li7  1  0.953678  0.558979  0.749770  1
  Li  Li8  1  0.687851  0.791620  0.255151  1
  Li  Li9  1  0.039480  0.430864  0.244513  1
  Li  Li10  1  0.309322  0.209535  0.753438  1
  Li  Li11  1  0.384851  0.458197  0.705982  1
  Li  Li12  1  0.105938  0.818113  0.072047  1
  Li  Li13  1  0.756486  0.979041  0.582018  1
  Li  Li14  1  0.075460  0.109639  0.820594  1
  Li  Li15  1  0.223867  0.739341  0.327665  1
  Li  Li16  1  0.288219  0.604617  0.530077  1
  Li  Li17  1  0.569605  0.756526  0.967180  1
  Li  Li18  1  0.256264  0.679719  0.791742  1
  Li  Li19  1  0.193164  0.943508  0.895706  1
  La  La20  1  0.748365  0.120543  0.369713  1
  La  La21  1  0.383170  0.133403  0.242595  1
  La  La22  1  0.882607  0.631432  0.248915  1
  La  La23  1  0.258626  0.384001  0.132925  1
  La  La24  1  0.120593  0.243471  0.368679  1
  La  La25  1  0.869103  0.750494  0.621577  1
  La  La26  1  0.626297  0.247813  0.875732  1
  La  La27  1  0.374424  0.751730  0.131175  1
  La  La28  1  0.746657  0.618227  0.869083  1
  La  La29  1  0.110626  0.367387  0.750362  1
  La  La30  1  0.619843  0.871101  0.750079  1
  La  La31  1  0.252452  0.880531  0.631536  1
  Sb  Sb32  1  0.503274  0.001452  0.000885  1
  Sb  Sb33  1  0.997950  0.001724  0.000449  1
  Sb  Sb34  1  0.503524  0.002184  0.498888  1
  Sb  Sb35  1  0.496645  0.497369  0.997626  1
  Sb  Sb36  1  0.498296  0.501839  0.501341  1
  Sb  Sb37  1  0.002416  0.998737  0.501415  1
  Sb  Sb38  1  0.995607  0.496338  0.996499  1
  Sb  Sb39  1  0.001646  0.502919  0.500232  1
  O  O40  1  0.883125  0.406062  0.082379  1
  O  O41  1  0.930620  0.317141  0.325705  1
  O  O42  1  0.975675  0.672526  0.089857  1
  O  O43  1  0.925478  0.111801  0.597431  1
  O  O44  1  0.592862  0.172817  0.201062  1
  O  O45  1  0.189182  0.113536  0.014007  1
  O  O46  1  0.626284  0.434543  0.101159  1
  O  O47  1  0.884739  0.988459  0.808671  1
  O  O48  1  0.671442  0.067366  0.690118  1
  O  O49  1  0.823782  0.518887  0.401188  1
  O  O50  1  0.690856  0.679751  0.073360  1
  O  O51  1  0.805106  0.874729  0.975688  1
  O  O52  1  0.582497  0.171872  0.461174  1
  O  O53  1  0.898000  0.386602  0.572480  1
  O  O54  1  0.110974  0.014953  0.193619  1
  O  O55  1  0.481832  0.391218  0.309564  1
  O  O56  1  0.027909  0.328455  0.915971  1
  O  O57  1  0.031662  0.202744  0.117715  1
  O  O58  1  0.487766  0.598144  0.175281  1
  O  O59  1  0.430045  0.108268  0.612884  1
  O  O60  1  0.902465  0.015572  0.327643  1
  O  O61  1  0.580902  0.910482  0.115698  1
  O  O62  1  0.383480  0.302564  0.475588  1
  O  O63  1  0.671101  0.094659  0.972174  1
  O  O64  1  0.829531  0.798403  0.415810  1
  O  O65  1  0.694812  0.518174  0.616398  1
  O  O66  1  0.799859  0.421811  0.828547  1
  O  O67  1  0.402615  0.072509  0.877350  1
  O  O68  1  0.623460  0.700809  0.537303  1
  O  O69  1  0.174997  0.194583  0.579038  1
  O  O70  1  0.295777  0.468226  0.384518  1
  O  O71  1  0.189795  0.577106  0.171586  1
  O  O72  1  0.508135  0.396362  0.820762  1
  O  O73  1  0.591328  0.918416  0.386965  1
  O  O74  1  0.517026  0.610145  0.695879  1
  O  O75  1  0.321615  0.914441  0.302785  1
  O  O76  1  0.177982  0.487873  0.603014  1
  O  O77  1  0.292703  0.327891  0.913431  1
  O  O78  1  0.395271  0.831637  0.521777  1
  O  O79  1  0.102003  0.617529  0.421333  1
  O  O80  1  0.383346  0.577982  0.899693  1
  O  O81  1  0.088843  0.888571  0.414810  1
  O  O82  1  0.421348  0.822727  0.807923  1
  O  O83  1  0.079158  0.693548  0.677031  1
  O  O84  1  0.112540  0.590504  0.915962  1
  O  O85  1  0.093503  0.977780  0.677715  1
  O  O86  1  0.327100  0.912891  0.025558  1
  O  O87  1  0.986311  0.810512  0.884327  1
