# generated using pymatgen
data_CuCO3
_symmetry_space_group_name_H-M   'P 1'
_cell_length_a   8.10577211
_cell_length_b   8.10470612
_cell_length_c   3.25826878
_cell_angle_alpha   90.00000000
_cell_angle_beta   90.00000000
_cell_angle_gamma   119.91938618
_symmetry_Int_Tables_number   1
_chemical_formula_structural   CuCO3
_chemical_formula_sum   'Cu3 C3 O9'
_cell_volume   185.52456116
_cell_formula_units_Z   3
loop_
 _symmetry_equiv_pos_site_id
 _symmetry_equiv_pos_as_xyz
  1  'x, y, z'
loop_
 _atom_site_type_symbol
 _atom_site_label
 _atom_site_symmetry_multiplicity
 _atom_site_fract_x
 _atom_site_fract_y
 _atom_site_fract_z
 _atom_site_occupancy
  Cu  Cu0  1  0.010984  0.367058  0.000000  1
  Cu  Cu1  1  0.355501  0.987700  0.000000  1
  Cu  Cu2  1  0.631937  0.644335  0.000000  1
  C  C3  1  0.333014  0.666542  0.500000  1
  C  C4  1  0.000093  -0.000081  0.000000  1
  C  C5  1  0.666694  0.333337  0.000000  1
  O  O6  1  0.091739  0.908027  0.000000  1
  O  O7  1  0.152369  0.543420  0.500000  1
  O  O8  1  0.391507  0.848599  0.500000  1
  O  O9  1  0.091612  0.183753  0.000000  1
  O  O10  1  0.457574  0.609356  0.500000  1
  O  O11  1  0.816394  0.908225  0.000000  1
  O  O12  1  0.484430  0.262459  0.000000  1
  O  O13  1  0.778570  0.515710  0.000000  1
  O  O14  1  0.737586  0.221568  0.000000  1
