# generated using pymatgen
data_Ni5SbH17C15NO9
_symmetry_space_group_name_H-M   'P 1'
_cell_length_a   10.06606949
_cell_length_b   11.45919664
_cell_length_c   11.64583972
_cell_angle_alpha   118.31575032
_cell_angle_beta   91.67799312
_cell_angle_gamma   92.23549297
_symmetry_Int_Tables_number   1
_chemical_formula_structural   Ni5SbH17C15NO9
_chemical_formula_sum   'Ni10 Sb2 H34 C30 N2 O18'
_cell_volume   1179.95775244
_cell_formula_units_Z   2
loop_
 _symmetry_equiv_pos_site_id
 _symmetry_equiv_pos_as_xyz
  1  'x, y, z'
loop_
 _atom_site_type_symbol
 _atom_site_label
 _atom_site_symmetry_multiplicity
 _atom_site_fract_x
 _atom_site_fract_y
 _atom_site_fract_z
 _atom_site_occupancy
  Ni  Ni0  1  0.290147  0.613188  0.634434  1
  Ni  Ni1  1  0.709853  0.386812  0.365566  1
  Ni  Ni2  1  0.416932  0.686410  0.446964  1
  Ni  Ni3  1  0.583068  0.313590  0.553036  1
  Ni  Ni4  1  0.319220  0.366102  0.556605  1
  Ni  Ni5  1  0.680780  0.633898  0.443395  1
  Ni  Ni6  1  0.265109  0.477199  0.386040  1
  Ni  Ni7  1  0.734891  0.522801  0.613960  1
  Ni  Ni8  1  0.508243  0.505503  0.727276  1
  Ni  Ni9  1  0.491757  0.494497  0.272724  1
  Sb  Sb10  1  0.542390  0.679786  0.644240  1
  Sb  Sb11  1  0.457610  0.320214  0.355760  1
  H  H12  1  0.702391  0.884956  0.828228  1
  H  H13  1  0.297609  0.115044  0.171772  1
  H  H14  1  0.548554  0.877981  0.895525  1
  H  H15  1  0.451446  0.122019  0.104475  1
  H  H16  1  0.580209  0.088752  0.882229  1
  H  H17  1  0.419791  0.911248  0.117771  1
  H  H18  1  0.595255  0.998810  0.711055  1
  H  H19  1  0.404745  0.001190  0.288945  1
  H  H20  1  0.442086  0.992181  0.778952  1
  H  H21  1  0.557914  0.007819  0.221048  1
  H  H22  1  0.938670  0.998742  0.216878  1
  H  H23  1  0.061330  0.001258  0.783122  1
  H  H24  1  0.880238  0.887146  0.051275  1
  H  H25  1  0.119762  0.112854  0.948725  1
  H  H26  1  0.784451  0.900884  0.184748  1
  H  H27  1  0.215549  0.099116  0.815252  1
  H  H28  1  0.940861  0.587473  0.074556  1
  H  H29  1  0.059139  0.412527  0.925444  1
  H  H30  1  0.785912  0.665701  0.103131  1
  H  H31  1  0.214088  0.334299  0.896869  1
  H  H32  1  0.881817  0.651714  0.969303  1
  H  H33  1  0.118183  0.348286  0.030697  1
  H  H34  1  0.019721  0.735148  0.294038  1
  H  H35  1  0.980279  0.264852  0.705962  1
  H  H36  1  0.019451  0.911984  0.354760  1
  H  H37  1  0.980549  0.088016  0.645240  1
  H  H38  1  0.864670  0.814926  0.323509  1
  H  H39  1  0.135330  0.185074  0.676491  1
  H  H40  1  0.146972  0.716920  0.116370  1
  H  H41  1  0.853028  0.283080  0.883630  1
  H  H42  1  0.086408  0.781895  0.011756  1
  H  H43  1  0.913592  0.218105  0.988244  1
  H  H44  1  0.145199  0.893234  0.177553  1
  H  H45  1  0.854801  0.106766  0.822447  1
  C  C46  1  0.257827  0.761466  0.774837  1
  C  C47  1  0.742173  0.238534  0.225163  1
  C  C48  1  0.355992  0.843791  0.496069  1
  C  C49  1  0.644008  0.156209  0.503931  1
  C  C50  1  0.215710  0.219471  0.472159  1
  C  C51  1  0.784290  0.780529  0.527841  1
  C  C52  1  0.146831  0.351512  0.280115  1
  C  C53  1  0.853169  0.648488  0.719885  1
  C  C54  1  0.477709  0.599197  0.893775  1
  C  C55  1  0.522291  0.400803  0.106225  1
  C  C56  1  0.210951  0.488499  0.680529  1
  C  C57  1  0.789049  0.511501  0.319471  1
  C  C58  1  0.162636  0.609057  0.507670  1
  C  C59  1  0.837364  0.390943  0.492330  1
  C  C60  1  0.569130  0.671775  0.326669  1
  C  C61  1  0.430870  0.328225  0.673331  1
  C  C62  1  0.312589  0.569580  0.286481  1
  C  C63  1  0.687411  0.430420  0.713519  1
  C  C64  1  0.593939  0.878667  0.811278  1
  C  C65  1  0.406061  0.121333  0.188722  1
  C  C66  1  0.550442  0.995117  0.794139  1
  C  C67  1  0.449558  0.004883  0.205861  1
  C  C68  1  0.884569  0.904127  0.152010  1
  C  C69  1  0.115431  0.095873  0.847990  1
  C  C70  1  0.885849  0.664846  0.068566  1
  C  C71  1  0.114151  0.335154  0.931434  1
  C  C72  1  0.966181  0.815994  0.293234  1
  C  C73  1  0.033819  0.184006  0.706766  1
  C  C74  1  0.095067  0.796720  0.111619  1
  C  C75  1  0.904933  0.203280  0.888381  1
  N  N76  1  0.957849  0.795425  0.156447  1
  N  N77  1  0.042151  0.204575  0.843553  1
  O  O78  1  0.236633  0.857718  0.870137  1
  O  O79  1  0.763367  0.142282  0.129863  1
  O  O80  1  0.309385  0.943706  0.518817  1
  O  O81  1  0.690615  0.056294  0.481183  1
  O  O82  1  0.147695  0.122576  0.411691  1
  O  O83  1  0.852305  0.877424  0.588309  1
  O  O84  1  0.071942  0.264557  0.209319  1
  O  O85  1  0.928058  0.735443  0.790681  1
  O  O86  1  0.452532  0.658196  0.002902  1
  O  O87  1  0.547468  0.341804  0.997098  1
  O  O88  1  0.131965  0.493630  0.756509  1
  O  O89  1  0.868035  0.506370  0.243491  1
  O  O90  1  0.066179  0.665809  0.509470  1
  O  O91  1  0.933821  0.334191  0.490530  1
  O  O92  1  0.592327  0.737637  0.274196  1
  O  O93  1  0.407673  0.262363  0.725804  1
  O  O94  1  0.246961  0.585487  0.207823  1
  O  O95  1  0.753039  0.414513  0.792177  1
