# generated using pymatgen
data_Na2FeAsCO7
_symmetry_space_group_name_H-M   'P 1'
_cell_length_a   9.12240274
_cell_length_b   6.81200045
_cell_length_c   5.33258253
_cell_angle_alpha   90.00000000
_cell_angle_beta   89.16684179
_cell_angle_gamma   90.00000000
_symmetry_Int_Tables_number   1
_chemical_formula_structural   Na2FeAsCO7
_chemical_formula_sum   'Na4 Fe2 As2 C2 O14'
_cell_volume   331.34130466
_cell_formula_units_Z   2
loop_
 _symmetry_equiv_pos_site_id
 _symmetry_equiv_pos_as_xyz
  1  'x, y, z'
loop_
 _atom_site_type_symbol
 _atom_site_label
 _atom_site_symmetry_multiplicity
 _atom_site_fract_x
 _atom_site_fract_y
 _atom_site_fract_z
 _atom_site_occupancy
  Na  Na0  1  0.220329  0.501574  0.231973  1
  Na  Na1  1  0.220329  0.998426  0.231973  1
  Na  Na2  1  0.779671  0.498426  0.768027  1
  Na  Na3  1  0.779671  0.001574  0.768027  1
  Fe  Fe4  1  0.349130  0.750000  0.784138  1
  Fe  Fe5  1  0.650870  0.250000  0.215862  1
  As  As6  1  0.424784  0.250000  0.711057  1
  As  As7  1  0.575216  0.750000  0.288943  1
  C  C8  1  0.073259  0.750000  0.730388  1
  C  C9  1  0.926741  0.250000  0.269612  1
  O  O10  1  0.062868  0.250000  0.300565  1
  O  O11  1  0.135336  0.750000  0.951527  1
  O  O12  1  0.169853  0.750000  0.541801  1
  O  O13  1  0.325451  0.047217  0.795602  1
  O  O14  1  0.325451  0.452783  0.795602  1
  O  O15  1  0.405071  0.750000  0.152442  1
  O  O16  1  0.453517  0.250000  0.387549  1
  O  O17  1  0.546483  0.750000  0.612451  1
  O  O18  1  0.594929  0.250000  0.847558  1
  O  O19  1  0.674549  0.547217  0.204398  1
  O  O20  1  0.674549  0.952783  0.204398  1
  O  O21  1  0.830147  0.250000  0.458199  1
  O  O22  1  0.864664  0.250000  0.048473  1
  O  O23  1  0.937132  0.750000  0.699435  1
