# generated using pymatgen
data_Li2BiBO4
_symmetry_space_group_name_H-M   'P 1'
_cell_length_a   7.18828121
_cell_length_b   5.02522712
_cell_length_c   11.11981761
_cell_angle_alpha   90.00000000
_cell_angle_beta   88.69433398
_cell_angle_gamma   90.00000000
_symmetry_Int_Tables_number   1
_chemical_formula_structural   Li2BiBO4
_chemical_formula_sum   'Li8 Bi4 B4 O16'
_cell_volume   401.57405193
_cell_formula_units_Z   4
loop_
 _symmetry_equiv_pos_site_id
 _symmetry_equiv_pos_as_xyz
  1  'x, y, z'
loop_
 _atom_site_type_symbol
 _atom_site_label
 _atom_site_symmetry_multiplicity
 _atom_site_fract_x
 _atom_site_fract_y
 _atom_site_fract_z
 _atom_site_occupancy
  Li  Li0  1  0.085051  0.347958  0.799472  1
  Li  Li1  1  0.085051  0.152042  0.299472  1
  Li  Li2  1  0.187658  0.219484  0.572247  1
  Li  Li3  1  0.187658  0.280516  0.072247  1
  Li  Li4  1  0.812342  0.719484  0.927753  1
  Li  Li5  1  0.812342  0.780516  0.427753  1
  Li  Li6  1  0.914949  0.847958  0.700528  1
  Li  Li7  1  0.914949  0.652042  0.200528  1
  Bi  Bi8  1  0.503069  0.234993  0.868193  1
  Bi  Bi9  1  0.496931  0.734993  0.631807  1
  Bi  Bi10  1  0.503069  0.265007  0.368193  1
  Bi  Bi11  1  0.496931  0.765007  0.131807  1
  B  B12  1  0.173602  0.792978  0.917767  1
  B  B13  1  0.173602  0.707022  0.417767  1
  B  B14  1  0.826398  0.292978  0.582233  1
  B  B15  1  0.826398  0.207022  0.082233  1
  O  O16  1  0.044470  0.718067  0.835407  1
  O  O17  1  0.044470  0.781933  0.335407  1
  O  O18  1  0.225871  0.066264  0.922940  1
  O  O19  1  0.225871  0.433736  0.422940  1
  O  O20  1  0.249975  0.885814  0.496979  1
  O  O21  1  0.384980  0.350054  0.689884  1
  O  O22  1  0.249975  0.614186  0.996979  1
  O  O23  1  0.384980  0.149946  0.189884  1
  O  O24  1  0.615020  0.850054  0.810116  1
  O  O25  1  0.750025  0.385814  0.003021  1
  O  O26  1  0.615020  0.649946  0.310116  1
  O  O27  1  0.750025  0.114186  0.503021  1
  O  O28  1  0.774129  0.566264  0.577060  1
  O  O29  1  0.774129  0.933736  0.077060  1
  O  O30  1  0.955530  0.218067  0.664593  1
  O  O31  1  0.955530  0.281933  0.164593  1
