# generated using pymatgen
data_LiMnPO4
_symmetry_space_group_name_H-M   'P 1'
_cell_length_a   5.02988804
_cell_length_b   8.45386221
_cell_length_c   5.02988801
_cell_angle_alpha   107.30693827
_cell_angle_beta   59.99999809
_cell_angle_gamma   107.30693915
_symmetry_Int_Tables_number   1
_chemical_formula_structural   LiMnPO4
_chemical_formula_sum   'Li2 Mn2 P2 O8'
_cell_volume   173.95484123
_cell_formula_units_Z   2
loop_
 _symmetry_equiv_pos_site_id
 _symmetry_equiv_pos_as_xyz
  1  'x, y, z'
loop_
 _atom_site_type_symbol
 _atom_site_label
 _atom_site_symmetry_multiplicity
 _atom_site_fract_x
 _atom_site_fract_y
 _atom_site_fract_z
 _atom_site_occupancy
  Li  Li0  1  0.005761  0.017283  0.005761  1
  Li  Li1  1  0.569767  0.709300  0.569767  1
  Mn  Mn2  1  0.132959  0.398876  0.132959  1
  Mn  Mn3  1  0.442527  0.327581  0.442527  1
  P  P4  1  0.864770  0.594310  0.864770  1
  P  P5  1  0.710763  0.132290  0.710763  1
  O  O6  1  0.151355  0.524957  0.563273  1
  O  O7  1  0.012355  0.201520  0.764986  1
  O  O8  1  0.424179  0.201520  0.012355  1
  O  O9  1  0.647915  0.943745  0.647915  1
  O  O10  1  0.810329  0.524957  0.151355  1
  O  O11  1  0.563273  0.524957  0.810329  1
  O  O12  1  0.764986  0.201520  0.424179  1
  O  O13  1  0.927592  0.782774  0.927592  1
