# generated using pymatgen
data_Ba2YF7
_symmetry_space_group_name_H-M   'P 1'
_cell_length_a   5.97800398
_cell_length_b   12.15660843
_cell_length_c   10.04579494
_cell_angle_alpha   90.00000000
_cell_angle_beta   89.66041659
_cell_angle_gamma   90.00000000
_symmetry_Int_Tables_number   1
_chemical_formula_structural   Ba2YF7
_chemical_formula_sum   'Ba8 Y4 F28'
_cell_volume   730.03773494
_cell_formula_units_Z   4
loop_
 _symmetry_equiv_pos_site_id
 _symmetry_equiv_pos_as_xyz
  1  'x, y, z'
loop_
 _atom_site_type_symbol
 _atom_site_label
 _atom_site_symmetry_multiplicity
 _atom_site_fract_x
 _atom_site_fract_y
 _atom_site_fract_z
 _atom_site_occupancy
  Ba  Ba0  1  0.260032  0.472820  0.716490  1
  Ba  Ba1  1  0.276928  0.851230  0.606608  1
  Ba  Ba2  1  0.258428  0.226862  0.112204  1
  Ba  Ba3  1  0.265148  0.612267  0.203415  1
  Ba  Ba4  1  0.734852  0.112267  0.796585  1
  Ba  Ba5  1  0.741572  0.726862  0.887796  1
  Ba  Ba6  1  0.723072  0.351230  0.393392  1
  Ba  Ba7  1  0.739968  0.972820  0.283510  1
  Y  Y8  1  0.210047  0.149851  0.533414  1
  Y  Y9  1  0.229999  0.928350  0.023864  1
  Y  Y10  1  0.770001  0.428350  0.976136  1
  Y  Y11  1  0.789953  0.649851  0.466586  1
  F  F12  1  0.035771  0.319924  0.891736  1
  F  F13  1  0.029513  0.560795  0.983334  1
  F  F14  1  0.006243  0.504925  0.503626  1
  F  F15  1  0.097708  0.853491  0.844760  1
  F  F16  1  0.083032  0.743024  0.392398  1
  F  F17  1  0.089692  0.223601  0.351934  1
  F  F18  1  0.187208  0.081794  0.737590  1
  F  F19  1  0.228858  0.992157  0.230536  1
  F  F20  1  0.420610  0.670453  0.714354  1
  F  F21  1  0.424879  0.410259  0.204427  1
  F  F22  1  0.420359  0.291662  0.588582  1
  F  F23  1  0.537802  0.298740  0.912599  1
  F  F24  1  0.498277  0.037518  0.525090  1
  F  F25  1  0.515436  0.557227  0.990697  1
  F  F26  1  0.484564  0.057227  0.009303  1
  F  F27  1  0.501723  0.537518  0.474910  1
  F  F28  1  0.462198  0.798740  0.087401  1
  F  F29  1  0.579641  0.791662  0.411418  1
  F  F30  1  0.575121  0.910259  0.795573  1
  F  F31  1  0.579390  0.170453  0.285647  1
  F  F32  1  0.771142  0.492157  0.769464  1
  F  F33  1  0.812792  0.581794  0.262410  1
  F  F34  1  0.910308  0.723601  0.648066  1
  F  F35  1  0.916968  0.243024  0.607602  1
  F  F36  1  0.902292  0.353491  0.155240  1
  F  F37  1  0.993757  0.004925  0.496374  1
  F  F38  1  0.970487  0.060795  0.016666  1
  F  F39  1  0.964229  0.819924  0.108264  1
