# generated using pymatgen
data_HfPbO3
_symmetry_space_group_name_H-M   'P 1'
_cell_length_a   5.83668910
_cell_length_b   8.27872997
_cell_length_c   5.80999872
_cell_angle_alpha   89.99533729
_cell_angle_beta   89.99810750
_cell_angle_gamma   90.01145576
_symmetry_Int_Tables_number   1
_chemical_formula_structural   HfPbO3
_chemical_formula_sum   'Hf4 Pb4 O12'
_cell_volume   280.74129818
_cell_formula_units_Z   4
loop_
 _symmetry_equiv_pos_site_id
 _symmetry_equiv_pos_as_xyz
  1  'x, y, z'
loop_
 _atom_site_type_symbol
 _atom_site_label
 _atom_site_symmetry_multiplicity
 _atom_site_fract_x
 _atom_site_fract_y
 _atom_site_fract_z
 _atom_site_occupancy
  Hf  Hf0  1  0.000248  0.999982  0.499829  1
  Hf  Hf1  1  0.000174  0.499998  0.499923  1
  Hf  Hf2  1  0.499766  0.000010  0.000167  1
  Hf  Hf3  1  0.499785  0.499959  0.000017  1
  Pb  Pb4  1  0.018274  0.250021  0.998593  1
  Pb  Pb5  1  0.481770  0.749804  0.498611  1
  Pb  Pb6  1  0.518257  0.249914  0.501249  1
  Pb  Pb7  1  0.981701  0.750162  0.001192  1
  O  O8  1  0.009184  0.750029  0.559472  1
  O  O9  1  0.213162  0.529686  0.212784  1
  O  O10  1  0.213127  0.970397  0.212776  1
  O  O11  1  0.286951  0.470374  0.712786  1
  O  O12  1  0.286728  0.029690  0.712759  1
  O  O13  1  0.490829  0.250020  0.059415  1
  O  O14  1  0.509351  0.749974  0.940698  1
  O  O15  1  0.712983  0.529647  0.287241  1
  O  O16  1  0.713044  0.970368  0.287210  1
  O  O17  1  0.787013  0.029606  0.787315  1
  O  O18  1  0.786934  0.470395  0.787233  1
  O  O19  1  0.990720  0.249960  0.440732  1
