# generated using pymatgen
data_Li3Mn2FeO6
_symmetry_space_group_name_H-M   'P 1'
_cell_length_a   15.23357114
_cell_length_b   9.83994924
_cell_length_c   9.83994936
_cell_angle_alpha   17.56756153
_cell_angle_beta   16.69891692
_cell_angle_gamma   16.69891660
_symmetry_Int_Tables_number   1
_chemical_formula_structural   Li3Mn2FeO6
_chemical_formula_sum   'Li3 Mn2 Fe1 O6'
_cell_volume   109.64912726
_cell_formula_units_Z   1
loop_
 _symmetry_equiv_pos_site_id
 _symmetry_equiv_pos_as_xyz
  1  'x, y, z'
loop_
 _atom_site_type_symbol
 _atom_site_label
 _atom_site_symmetry_multiplicity
 _atom_site_fract_x
 _atom_site_fract_y
 _atom_site_fract_z
 _atom_site_occupancy
  Li  Li0  1  0.166667  0.500000  0.500000  1
  Li  Li1  1  0.497234  0.502555  0.502555  1
  Li  Li2  1  0.836099  0.497445  0.497445  1
  Mn  Mn3  1  0.005474  0.993803  0.993803  1
  Mn  Mn4  1  0.327859  0.006197  0.006197  1
  Fe  Fe5  1  0.666667  0.000000  0.000000  1
  O  O6  1  0.265852  0.241967  0.241967  1
  O  O7  1  0.594565  0.245696  0.245696  1
  O  O8  1  0.067481  0.758033  0.758033  1
  O  O9  1  0.911854  0.262535  0.262535  1
  O  O10  1  0.421480  0.737465  0.737465  1
  O  O11  1  0.738768  0.754304  0.754304  1
