# generated using pymatgen
data_AlNiH16N(OF)6
_symmetry_space_group_name_H-M   'P 1'
_cell_length_a   12.67371116
_cell_length_b   6.52850807
_cell_length_c   12.81346435
_cell_angle_alpha   90.00000000
_cell_angle_beta   94.67076984
_cell_angle_gamma   90.00000000
_symmetry_Int_Tables_number   1
_chemical_formula_structural   AlNiH16N(OF)6
_chemical_formula_sum   'Al4 Ni4 H64 N4 O24 F24'
_cell_volume   1056.67066001
_cell_formula_units_Z   4
loop_
 _symmetry_equiv_pos_site_id
 _symmetry_equiv_pos_as_xyz
  1  'x, y, z'
loop_
 _atom_site_type_symbol
 _atom_site_label
 _atom_site_symmetry_multiplicity
 _atom_site_fract_x
 _atom_site_fract_y
 _atom_site_fract_z
 _atom_site_occupancy
  Al  Al0  1  0.000000  0.000000  0.500000  1
  Al  Al1  1  0.000000  0.500000  0.000000  1
  Al  Al2  1  0.500000  0.000000  0.500000  1
  Al  Al3  1  0.500000  0.500000  0.000000  1
  Ni  Ni4  1  0.230938  0.535484  0.693159  1
  Ni  Ni5  1  0.230938  0.964516  0.193159  1
  Ni  Ni6  1  0.769062  0.035484  0.806841  1
  Ni  Ni7  1  0.769062  0.464516  0.306841  1
  H  H8  1  0.028794  0.591689  0.630882  1
  H  H9  1  0.045157  0.351315  0.623599  1
  H  H10  1  0.028794  0.908311  0.130882  1
  H  H11  1  0.045157  0.148685  0.123599  1
  H  H12  1  0.126970  0.782536  0.806660  1
  H  H13  1  0.142096  0.902575  0.698935  1
  H  H14  1  0.153585  0.369467  0.860747  1
  H  H15  1  0.126970  0.717464  0.306660  1
  H  H16  1  0.142096  0.597425  0.198935  1
  H  H17  1  0.153585  0.130533  0.360747  1
  H  H18  1  0.171114  0.697473  0.506461  1
  H  H19  1  0.171114  0.802527  0.006461  1
  H  H20  1  0.229197  0.172801  0.610991  1
  H  H21  1  0.268755  0.460058  0.895490  1
  H  H22  1  0.229197  0.327199  0.110991  1
  H  H23  1  0.268755  0.039942  0.395490  1
  H  H24  1  0.313933  0.003615  0.940722  1
  H  H25  1  0.288540  0.767949  0.533421  1
  H  H26  1  0.311589  0.979652  0.811232  1
  H  H27  1  0.313933  0.496385  0.440722  1
  H  H28  1  0.288540  0.732051  0.033421  1
  H  H29  1  0.311589  0.520348  0.311232  1
  H  H30  1  0.350725  0.248580  0.608628  1
  H  H31  1  0.391173  0.159481  0.872477  1
  H  H32  1  0.350725  0.251420  0.108628  1
  H  H33  1  0.420674  0.906700  0.889482  1
  H  H34  1  0.429112  0.549378  0.778403  1
  H  H35  1  0.391173  0.340519  0.372477  1
  H  H36  1  0.426419  0.723758  0.689066  1
  H  H37  1  0.420674  0.593300  0.389482  1
  H  H38  1  0.429112  0.950622  0.278403  1
  H  H39  1  0.426419  0.776242  0.189066  1
  H  H40  1  0.573581  0.223758  0.810934  1
  H  H41  1  0.570888  0.049378  0.721597  1
  H  H42  1  0.579326  0.406700  0.610518  1
  H  H43  1  0.573581  0.276242  0.310934  1
  H  H44  1  0.608827  0.659481  0.627523  1
  H  H45  1  0.570888  0.450622  0.221597  1
  H  H46  1  0.579326  0.093300  0.110518  1
  H  H47  1  0.649275  0.748580  0.891372  1
  H  H48  1  0.608827  0.840519  0.127523  1
  H  H49  1  0.649275  0.751420  0.391372  1
  H  H50  1  0.688411  0.479652  0.688768  1
  H  H51  1  0.711460  0.267949  0.966579  1
  H  H52  1  0.686067  0.503615  0.559278  1
  H  H53  1  0.688411  0.020348  0.188768  1
  H  H54  1  0.711460  0.232051  0.466579  1
  H  H55  1  0.686067  0.996385  0.059278  1
  H  H56  1  0.731245  0.960058  0.604510  1
  H  H57  1  0.770803  0.672801  0.889009  1
  H  H58  1  0.731245  0.539942  0.104510  1
  H  H59  1  0.770803  0.827199  0.389009  1
  H  H60  1  0.828886  0.197473  0.993539  1
  H  H61  1  0.828886  0.302527  0.493539  1
  H  H62  1  0.846415  0.869467  0.639253  1
  H  H63  1  0.857904  0.402575  0.801065  1
  H  H64  1  0.873030  0.282536  0.693340  1
  H  H65  1  0.846415  0.630533  0.139253  1
  H  H66  1  0.857904  0.097425  0.301065  1
  H  H67  1  0.873030  0.217464  0.193340  1
  H  H68  1  0.954843  0.851315  0.876401  1
  H  H69  1  0.971206  0.091689  0.869118  1
  H  H70  1  0.954843  0.648685  0.376401  1
  H  H71  1  0.971206  0.408311  0.369118  1
  N  N72  1  0.360019  0.014045  0.877573  1
  N  N73  1  0.360019  0.485955  0.377573  1
  N  N74  1  0.639981  0.514045  0.622427  1
  N  N75  1  0.639981  0.985955  0.122427  1
  O  O76  1  0.072465  0.475472  0.659488  1
  O  O77  1  0.072465  0.024528  0.159488  1
  O  O78  1  0.177641  0.814743  0.754643  1
  O  O79  1  0.177641  0.685257  0.254643  1
  O  O80  1  0.225299  0.395440  0.837138  1
  O  O81  1  0.239755  0.650315  0.541975  1
  O  O82  1  0.225299  0.104560  0.337138  1
  O  O83  1  0.239755  0.849685  0.041975  1
  O  O84  1  0.286436  0.255613  0.647217  1
  O  O85  1  0.286436  0.244387  0.147217  1
  O  O86  1  0.382711  0.638937  0.732648  1
  O  O87  1  0.382711  0.861063  0.232648  1
  O  O88  1  0.617290  0.138937  0.767352  1
  O  O89  1  0.617290  0.361063  0.267352  1
  O  O90  1  0.713564  0.755614  0.852783  1
  O  O91  1  0.713564  0.744386  0.352783  1
  O  O92  1  0.760245  0.150315  0.958025  1
  O  O93  1  0.774701  0.895440  0.662862  1
  O  O94  1  0.760245  0.349685  0.458025  1
  O  O95  1  0.774701  0.604560  0.162862  1
  O  O96  1  0.822359  0.314743  0.745357  1
  O  O97  1  0.822359  0.185257  0.245357  1
  O  O98  1  0.927535  0.975472  0.840512  1
  O  O99  1  0.927535  0.524528  0.340512  1
  F  F100  1  0.042731  0.303764  0.910550  1
  F  F101  1  0.070864  0.701649  0.931345  1
  F  F102  1  0.042731  0.196236  0.410550  1
  F  F103  1  0.070864  0.798351  0.431345  1
  F  F104  1  0.117544  0.044179  0.589990  1
  F  F105  1  0.117544  0.455821  0.089990  1
  F  F106  1  0.358403  0.555586  0.987243  1
  F  F107  1  0.358403  0.944414  0.487243  1
  F  F108  1  0.487709  0.380675  0.867488  1
  F  F109  1  0.472265  0.247196  0.558675  1
  F  F110  1  0.527735  0.747196  0.941325  1
  F  F111  1  0.512291  0.880675  0.632512  1
  F  F112  1  0.487709  0.119325  0.367488  1
  F  F113  1  0.472265  0.252804  0.058675  1
  F  F114  1  0.527735  0.752804  0.441325  1
  F  F115  1  0.512291  0.619325  0.132512  1
  F  F116  1  0.641597  0.055586  0.512757  1
  F  F117  1  0.641597  0.444414  0.012757  1
  F  F118  1  0.882456  0.544179  0.910010  1
  F  F119  1  0.882456  0.955821  0.410010  1
  F  F120  1  0.929136  0.201649  0.568655  1
  F  F121  1  0.957269  0.803764  0.589450  1
  F  F122  1  0.929136  0.298351  0.068655  1
  F  F123  1  0.957269  0.696236  0.089450  1
