# generated using pymatgen
data_LiSiBiO4
_symmetry_space_group_name_H-M   'P 1'
_cell_length_a   10.57509785
_cell_length_b   14.87735639
_cell_length_c   5.35538977
_cell_angle_alpha   90.00000000
_cell_angle_beta   90.00000000
_cell_angle_gamma   90.00000000
_symmetry_Int_Tables_number   1
_chemical_formula_structural   LiSiBiO4
_chemical_formula_sum   'Li8 Si8 Bi8 O32'
_cell_volume   842.56079254
_cell_formula_units_Z   8
loop_
 _symmetry_equiv_pos_site_id
 _symmetry_equiv_pos_as_xyz
  1  'x, y, z'
loop_
 _atom_site_type_symbol
 _atom_site_label
 _atom_site_symmetry_multiplicity
 _atom_site_fract_x
 _atom_site_fract_y
 _atom_site_fract_z
 _atom_site_occupancy
  Li  Li0  1  0.028412  0.751981  0.051958  1
  Li  Li1  1  0.212332  0.003037  0.548724  1
  Li  Li2  1  0.287668  0.503037  0.548724  1
  Li  Li3  1  0.471588  0.251981  0.051958  1
  Li  Li4  1  0.528412  0.751981  0.948042  1
  Li  Li5  1  0.712332  0.003037  0.451276  1
  Li  Li6  1  0.787668  0.503037  0.451276  1
  Li  Li7  1  0.971588  0.251981  0.948042  1
  Si  Si8  1  0.034207  0.374822  0.443769  1
  Si  Si9  1  0.215569  0.128325  0.068958  1
  Si  Si10  1  0.284431  0.628325  0.068958  1
  Si  Si11  1  0.465793  0.874822  0.443769  1
  Si  Si12  1  0.534207  0.374822  0.556231  1
  Si  Si13  1  0.715569  0.128325  0.931042  1
  Si  Si14  1  0.784431  0.628325  0.931042  1
  Si  Si15  1  0.965793  0.874822  0.556231  1
  Bi  Bi16  1  0.032108  0.501388  0.940772  1
  Bi  Bi17  1  0.212228  0.751556  0.556480  1
  Bi  Bi18  1  0.287772  0.251556  0.556480  1
  Bi  Bi19  1  0.467892  0.001388  0.940772  1
  Bi  Bi20  1  0.532108  0.501388  0.059228  1
  Bi  Bi21  1  0.712228  0.751556  0.443520  1
  Bi  Bi22  1  0.787772  0.251556  0.443520  1
  Bi  Bi23  1  0.967892  0.001388  0.059228  1
  O  O24  1  0.009557  0.863847  0.847442  1
  O  O25  1  0.966294  0.467383  0.559429  1
  O  O26  1  0.016504  0.783345  0.408909  1
  O  O27  1  0.061240  0.137319  0.032983  1
  O  O28  1  0.186868  0.387186  0.491943  1
  O  O29  1  0.238874  0.539318  0.904226  1
  O  O30  1  0.288876  0.220208  0.971921  1
  O  O31  1  0.252193  0.115885  0.365933  1
  O  O32  1  0.247807  0.615885  0.365933  1
  O  O33  1  0.211124  0.720208  0.971921  1
  O  O34  1  0.261126  0.039318  0.904226  1
  O  O35  1  0.313132  0.887186  0.491943  1
  O  O36  1  0.438760  0.637319  0.032983  1
  O  O37  1  0.483496  0.283345  0.408909  1
  O  O38  1  0.533706  0.967383  0.559429  1
  O  O39  1  0.490443  0.363847  0.847442  1
  O  O40  1  0.509557  0.863847  0.152558  1
  O  O41  1  0.466294  0.467383  0.440571  1
  O  O42  1  0.516504  0.783345  0.591091  1
  O  O43  1  0.561240  0.137319  0.967017  1
  O  O44  1  0.686868  0.387186  0.508057  1
  O  O45  1  0.738874  0.539318  0.095774  1
  O  O46  1  0.788876  0.220208  0.028079  1
  O  O47  1  0.752193  0.115885  0.634067  1
  O  O48  1  0.747807  0.615885  0.634067  1
  O  O49  1  0.711124  0.720208  0.028079  1
  O  O50  1  0.761126  0.039318  0.095774  1
  O  O51  1  0.813132  0.887186  0.508057  1
  O  O52  1  0.938760  0.637319  0.967017  1
  O  O53  1  0.983496  0.283345  0.591091  1
  O  O54  1  0.033706  0.967383  0.440571  1
  O  O55  1  0.990443  0.363847  0.152558  1
