# generated using pymatgen
data_V6O13
_symmetry_space_group_name_H-M   'P 1'
_cell_length_a   3.76627133
_cell_length_b   11.73803417
_cell_length_c   11.73911505
_cell_angle_alpha   117.91963711
_cell_angle_beta   90.00000000
_cell_angle_gamma   90.00000000
_symmetry_Int_Tables_number   1
_chemical_formula_structural   V6O13
_chemical_formula_sum   'V12 O26'
_cell_volume   458.56467641
_cell_formula_units_Z   2
loop_
 _symmetry_equiv_pos_site_id
 _symmetry_equiv_pos_as_xyz
  1  'x, y, z'
loop_
 _atom_site_type_symbol
 _atom_site_label
 _atom_site_symmetry_multiplicity
 _atom_site_fract_x
 _atom_site_fract_y
 _atom_site_fract_z
 _atom_site_occupancy
  V  V0  1  0.750000  0.719392  0.584427  1
  V  V1  1  0.250000  0.578289  0.711073  1
  V  V2  1  0.250000  0.211073  0.078281  1
  V  V3  1  0.750000  0.789176  0.921902  1
  V  V4  1  0.250000  0.280440  0.415290  1
  V  V5  1  0.250000  0.915138  0.780261  1
  V  V6  1  0.750000  0.084117  0.219037  1
  V  V7  1  0.750000  0.421850  0.289184  1
  V  V8  1  0.250000  0.400635  0.900554  1
  V  V9  1  0.750000  0.598919  0.098941  1
  V  V10  1  0.750000  0.897938  0.398002  1
  V  V11  1  0.250000  0.101989  0.601959  1
  O  O12  1  0.250000  0.502775  0.802585  1
  O  O13  1  0.250000  0.302633  0.002762  1
  O  O14  1  0.750000  0.001903  0.304666  1
  O  O15  1  0.750000  0.804672  0.501834  1
  O  O16  1  0.750000  0.497294  0.197601  1
  O  O17  1  0.750000  0.697614  -0.002602  1
  O  O18  1  0.250000  -0.001580  0.695548  1
  O  O19  1  0.250000  0.195531  0.498402  1
  O  O20  1  0.750000  0.068939  0.568895  1
  O  O21  1  0.750000  0.425754  0.925742  1
  O  O22  1  0.250000  0.573790  0.073868  1
  O  O23  1  0.250000  0.931182  0.431180  1
  O  O24  1  0.750000  0.275632  0.368932  1
  O  O25  1  0.250000  0.774947  0.871092  1
  O  O26  1  0.250000  0.130684  0.224626  1
  O  O27  1  0.750000  0.628608  0.725241  1
  O  O28  1  0.750000  0.225319  0.128660  1
  O  O29  1  0.750000  0.868881  0.775572  1
  O  O30  1  0.250000  0.724466  0.630626  1
  O  O31  1  0.250000  0.371288  0.275047  1
  O  O32  1  0.250000  0.452787  0.557001  1
  O  O33  1  0.250000  0.057055  0.952837  1
  O  O34  1  0.750000  0.547740  0.443379  1
  O  O35  1  0.750000  0.943505  0.047990  1
  O  O36  1  0.250000  0.245217  0.745157  1
  O  O37  1  0.750000  0.754408  0.254448  1
