# generated using pymatgen
data_Bi7(O2F3)3
_symmetry_space_group_name_H-M   'P 1'
_cell_length_a   11.78279844
_cell_length_b   20.27979853
_cell_length_c   5.76017141
_cell_angle_alpha   81.83539309
_cell_angle_beta   90.00000000
_cell_angle_gamma   90.00000000
_symmetry_Int_Tables_number   1
_chemical_formula_structural   Bi7(O2F3)3
_chemical_formula_sum   'Bi28 O24 F36'
_cell_volume   1362.45788518
_cell_formula_units_Z   4
loop_
 _symmetry_equiv_pos_site_id
 _symmetry_equiv_pos_as_xyz
  1  'x, y, z'
loop_
 _atom_site_type_symbol
 _atom_site_label
 _atom_site_symmetry_multiplicity
 _atom_site_fract_x
 _atom_site_fract_y
 _atom_site_fract_z
 _atom_site_occupancy
  Bi  Bi0  1  0.142655  0.070430  0.704354  1
  Bi  Bi1  1  0.143202  0.929234  0.273893  1
  Bi  Bi2  1  0.147334  0.644685  0.386318  1
  Bi  Bi3  1  0.142025  0.353710  0.562953  1
  Bi  Bi4  1  0.136339  0.500859  0.053617  1
  Bi  Bi5  1  0.148212  0.213279  0.178569  1
  Bi  Bi6  1  0.146574  0.787060  0.884592  1
  Bi  Bi7  1  0.351788  0.786721  0.391847  1
  Bi  Bi8  1  0.353426  0.212940  0.671652  1
  Bi  Bi9  1  0.363661  0.499141  0.554476  1
  Bi  Bi10  1  0.352666  0.355315  0.031003  1
  Bi  Bi11  1  0.357975  0.646290  0.916664  1
  Bi  Bi12  1  0.357345  0.929570  0.774784  1
  Bi  Bi13  1  0.356798  0.070766  0.203127  1
  Bi  Bi14  1  0.643202  0.070766  0.703127  1
  Bi  Bi15  1  0.642655  0.929570  0.274784  1
  Bi  Bi16  1  0.642025  0.646290  0.416664  1
  Bi  Bi17  1  0.647334  0.355315  0.531003  1
  Bi  Bi18  1  0.636339  0.499141  0.054476  1
  Bi  Bi19  1  0.648212  0.786721  0.891847  1
  Bi  Bi20  1  0.646574  0.212940  0.171652  1
  Bi  Bi21  1  0.853426  0.787060  0.384592  1
  Bi  Bi22  1  0.851788  0.213279  0.678569  1
  Bi  Bi23  1  0.863661  0.500859  0.553617  1
  Bi  Bi24  1  0.857975  0.353710  0.062953  1
  Bi  Bi25  1  0.852666  0.644685  0.886318  1
  Bi  Bi26  1  0.857345  0.070430  0.204354  1
  Bi  Bi27  1  0.856798  0.929234  0.773893  1
  O  O28  1  0.238992  0.431889  0.800348  1
  O  O29  1  0.245670  0.145040  0.947159  1
  O  O30  1  0.244145  0.855942  0.592127  1
  O  O31  1  0.238823  0.287326  0.851334  1
  O  O32  1  0.244017  0.709326  0.643214  1
  O  O33  1  0.250000  0.000000  0.491686  1
  O  O34  1  0.250000  0.000000  0.991061  1
  O  O35  1  0.255983  0.290674  0.352541  1
  O  O36  1  0.261177  0.712674  0.138660  1
  O  O37  1  0.254330  0.854960  0.092199  1
  O  O38  1  0.255855  0.144058  0.448068  1
  O  O39  1  0.261008  0.568111  0.232237  1
  O  O40  1  0.738992  0.568111  0.732237  1
  O  O41  1  0.744145  0.144058  0.948069  1
  O  O42  1  0.745670  0.854960  0.592199  1
  O  O43  1  0.744017  0.290674  0.852541  1
  O  O44  1  0.738823  0.712674  0.638660  1
  O  O45  1  0.750000  0.000000  0.491061  1
  O  O46  1  0.750000  0.000000  0.991686  1
  O  O47  1  0.761177  0.287326  0.351334  1
  O  O48  1  0.755983  0.709326  0.143214  1
  O  O49  1  0.754330  0.145040  0.447159  1
  O  O50  1  0.755855  0.855942  0.092127  1
  O  O51  1  0.761008  0.431889  0.300348  1
  F  F52  1  0.000446  0.000204  0.064604  1
  F  F53  1  0.999554  0.000204  0.564604  1
  F  F54  1  0.023184  0.128615  0.364758  1
  F  F55  1  0.022294  0.871310  0.988566  1
  F  F56  1  0.036946  0.260324  0.507879  1
  F  F57  1  0.041407  0.740908  0.246110  1
  F  F58  1  0.060429  0.386680  0.173375  1
  F  F59  1  0.057158  0.613747  0.041115  1
  F  F60  1  0.061232  0.498985  0.425442  1
  F  F61  1  0.232770  0.570218  0.732476  1
  F  F62  1  0.267230  0.429782  0.302694  1
  F  F63  1  0.438768  0.501015  0.924425  1
  F  F64  1  0.442842  0.386253  0.654862  1
  F  F65  1  0.439571  0.613320  0.560054  1
  F  F66  1  0.458593  0.259092  0.987018  1
  F  F67  1  0.463054  0.739676  0.768203  1
  F  F68  1  0.477706  0.128690  0.859876  1
  F  F69  1  0.476816  0.871385  0.493373  1
  F  F70  1  0.499554  0.999796  0.064807  1
  F  F71  1  0.500446  0.999796  0.564807  1
  F  F72  1  0.523184  0.871385  0.993373  1
  F  F73  1  0.522294  0.128690  0.359876  1
  F  F74  1  0.541407  0.259092  0.487018  1
  F  F75  1  0.536946  0.739676  0.268203  1
  F  F76  1  0.560429  0.613320  0.060054  1
  F  F77  1  0.557158  0.386253  0.154862  1
  F  F78  1  0.561232  0.501015  0.424425  1
  F  F79  1  0.732770  0.429782  0.802694  1
  F  F80  1  0.767230  0.570218  0.232476  1
  F  F81  1  0.938768  0.498985  0.925442  1
  F  F82  1  0.942842  0.613747  0.541115  1
  F  F83  1  0.939571  0.386680  0.673375  1
  F  F84  1  0.963054  0.260324  0.007879  1
  F  F85  1  0.958593  0.740908  0.746110  1
  F  F86  1  0.977706  0.871310  0.488566  1
  F  F87  1  0.976816  0.128615  0.864758  1
