# generated using pymatgen
data_KLi4FeO5
_symmetry_space_group_name_H-M   'P 1'
_cell_length_a   8.04804494
_cell_length_b   5.89731478
_cell_length_c   5.84166890
_cell_angle_alpha   122.11061714
_cell_angle_beta   90.89857822
_cell_angle_gamma   99.82932277
_symmetry_Int_Tables_number   1
_chemical_formula_structural   KLi4FeO5
_chemical_formula_sum   'K2 Li8 Fe2 O10'
_cell_volume   229.50627183
_cell_formula_units_Z   2
loop_
 _symmetry_equiv_pos_site_id
 _symmetry_equiv_pos_as_xyz
  1  'x, y, z'
loop_
 _atom_site_type_symbol
 _atom_site_label
 _atom_site_symmetry_multiplicity
 _atom_site_fract_x
 _atom_site_fract_y
 _atom_site_fract_z
 _atom_site_occupancy
  K  K0  1  0.420228  0.612874  0.845823  1
  K  K1  1  0.579772  0.387126  0.154177  1
  Li  Li2  1  0.101851  0.615784  0.208962  1
  Li  Li3  1  0.121501  0.659246  0.663332  1
  Li  Li4  1  0.117736  0.093514  0.689894  1
  Li  Li5  1  0.397928  0.883269  0.565997  1
  Li  Li6  1  0.602072  0.116731  0.434003  1
  Li  Li7  1  0.882264  0.906486  0.310106  1
  Li  Li8  1  0.878499  0.340754  0.336668  1
  Li  Li9  1  0.898149  0.384216  0.791038  1
  Fe  Fe10  1  0.182350  0.141782  0.199729  1
  Fe  Fe11  1  0.817650  0.858218  0.800271  1
  O  O12  1  0.026028  0.782650  0.010685  1
  O  O13  1  0.054409  0.260312  0.502152  1
  O  O14  1  0.279064  0.512255  0.345177  1
  O  O15  1  0.284004  0.029441  0.881857  1
  O  O16  1  0.341024  0.047024  0.361975  1
  O  O17  1  0.658976  0.952976  0.638025  1
  O  O18  1  0.715996  0.970559  0.118143  1
  O  O19  1  0.720936  0.487745  0.654823  1
  O  O20  1  0.945591  0.739688  0.497848  1
  O  O21  1  0.973972  0.217350  0.989315  1
