# generated using pymatgen
data_Cr4OF11
_symmetry_space_group_name_H-M   'P 1'
_cell_length_a   5.09924301
_cell_length_b   7.29265032
_cell_length_c   5.36447841
_cell_angle_alpha   94.06060400
_cell_angle_beta   90.00000000
_cell_angle_gamma   90.00000000
_symmetry_Int_Tables_number   1
_chemical_formula_structural   Cr4OF11
_chemical_formula_sum   'Cr4 O1 F11'
_cell_volume   198.98806263
_cell_formula_units_Z   1
loop_
 _symmetry_equiv_pos_site_id
 _symmetry_equiv_pos_as_xyz
  1  'x, y, z'
loop_
 _atom_site_type_symbol
 _atom_site_label
 _atom_site_symmetry_multiplicity
 _atom_site_fract_x
 _atom_site_fract_y
 _atom_site_fract_z
 _atom_site_occupancy
  Cr  Cr0  1  0.501913  0.511281  0.499460  1
  Cr  Cr1  1  0.501913  0.988719  0.500540  1
  Cr  Cr2  1  0.998533  0.499590  0.998986  1
  Cr  Cr3  1  0.998533  0.000410  0.001014  1
  O  O4  1  0.620882  0.750000  0.500000  1
  F  F5  1  0.870890  0.750000  0.000000  1
  F  F6  1  0.807734  0.059685  0.309367  1
  F  F7  1  0.807734  0.440315  0.690633  1
  F  F8  1  0.689235  0.439573  0.190823  1
  F  F9  1  0.689235  0.060427  0.809177  1
  F  F10  1  0.392886  0.250000  0.500000  1
  F  F11  1  0.309449  0.938656  0.189984  1
  F  F12  1  0.309449  0.561344  0.810016  1
  F  F13  1  0.187938  0.561170  0.310150  1
  F  F14  1  0.187938  0.938830  0.689850  1
  F  F15  1  0.125742  0.250000  0.000000  1
