# generated using pymatgen
data_BPH9C2
_symmetry_space_group_name_H-M   'P 1'
_cell_length_a   6.61556795
_cell_length_b   7.78153477
_cell_length_c   10.57328726
_cell_angle_alpha   90.00000000
_cell_angle_beta   87.08098932
_cell_angle_gamma   90.00000000
_symmetry_Int_Tables_number   1
_chemical_formula_structural   BPH9C2
_chemical_formula_sum   'B4 P4 H36 C8'
_cell_volume   543.59890334
_cell_formula_units_Z   4
loop_
 _symmetry_equiv_pos_site_id
 _symmetry_equiv_pos_as_xyz
  1  'x, y, z'
loop_
 _atom_site_type_symbol
 _atom_site_label
 _atom_site_symmetry_multiplicity
 _atom_site_fract_x
 _atom_site_fract_y
 _atom_site_fract_z
 _atom_site_occupancy
  B  B0  1  0.219474  0.751157  0.405766  1
  B  B1  1  0.280526  0.251157  0.094234  1
  B  B2  1  0.719474  0.748843  0.905766  1
  B  B3  1  0.780526  0.248843  0.594234  1
  P  P4  1  0.021470  0.115436  0.560005  1
  P  P5  1  0.521470  0.384564  0.060005  1
  P  P6  1  0.478530  0.615436  0.939995  1
  P  P7  1  0.978530  0.884564  0.439995  1
  H  H8  1  0.022228  0.942383  0.751265  1
  H  H9  1  0.140303  0.654629  0.039891  1
  H  H10  1  0.155418  0.343234  0.148561  1
  H  H11  1  0.162656  0.635627  0.338212  1
  H  H12  1  0.172541  0.278493  0.383699  1
  H  H13  1  0.165090  0.134473  0.763662  1
  H  H14  1  0.228218  0.197595  0.992854  1
  H  H15  1  0.260949  0.347210  0.530924  1
  H  H16  1  0.271782  0.697595  0.507146  1
  H  H17  1  0.271882  0.956252  0.676641  1
  H  H18  1  0.228118  0.456252  0.823359  1
  H  H19  1  0.239051  0.847210  0.969076  1
  H  H20  1  0.327459  0.778493  0.116301  1
  H  H21  1  0.337344  0.135627  0.161788  1
  H  H22  1  0.344582  0.843234  0.351439  1
  H  H23  1  0.359697  0.154629  0.460109  1
  H  H24  1  0.334910  0.634473  0.736338  1
  H  H25  1  0.477772  0.442383  0.748735  1
  H  H26  1  0.522228  0.557617  0.251265  1
  H  H27  1  0.665090  0.365527  0.263662  1
  H  H28  1  0.640303  0.845371  0.539891  1
  H  H29  1  0.655418  0.156766  0.648561  1
  H  H30  1  0.662656  0.864373  0.838212  1
  H  H31  1  0.672541  0.221507  0.883699  1
  H  H32  1  0.760949  0.152790  0.030924  1
  H  H33  1  0.771882  0.543748  0.176641  1
  H  H34  1  0.728118  0.043748  0.323359  1
  H  H35  1  0.728218  0.302405  0.492854  1
  H  H36  1  0.739051  0.652790  0.469076  1
  H  H37  1  0.771782  0.802405  0.007146  1
  H  H38  1  0.834910  0.865527  0.236338  1
  H  H39  1  0.827459  0.721507  0.616301  1
  H  H40  1  0.837344  0.364373  0.661788  1
  H  H41  1  0.844582  0.656766  0.851439  1
  H  H42  1  0.859697  0.345371  0.960109  1
  H  H43  1  0.977772  0.057617  0.248735  1
  C  C44  1  0.131854  0.027168  0.700620  1
  C  C45  1  0.223243  0.233871  0.475117  1
  C  C46  1  0.276757  0.733871  0.024883  1
  C  C47  1  0.368146  0.527168  0.799380  1
  C  C48  1  0.631854  0.472832  0.200620  1
  C  C49  1  0.723243  0.266129  0.975117  1
  C  C50  1  0.776757  0.766129  0.524883  1
  C  C51  1  0.868146  0.972832  0.299380  1
