# generated using pymatgen
data_Li10FeNi9O20
_symmetry_space_group_name_H-M   'P 1'
_cell_length_a   7.67389424
_cell_length_b   7.69378276
_cell_length_c   6.48520478
_cell_angle_alpha   90.79690512
_cell_angle_beta   90.38803188
_cell_angle_gamma   65.43440073
_symmetry_Int_Tables_number   1
_chemical_formula_structural   Li10FeNi9O20
_chemical_formula_sum   'Li10 Fe1 Ni9 O20'
_cell_volume   348.20349018
_cell_formula_units_Z   1
loop_
 _symmetry_equiv_pos_site_id
 _symmetry_equiv_pos_as_xyz
  1  'x, y, z'
loop_
 _atom_site_type_symbol
 _atom_site_label
 _atom_site_symmetry_multiplicity
 _atom_site_fract_x
 _atom_site_fract_y
 _atom_site_fract_z
 _atom_site_occupancy
  Li  Li0  1  0.900074  0.900112  0.400898  1
  Li  Li1  1  0.894593  0.396217  0.901841  1
  Li  Li2  1  0.700322  0.697102  0.202473  1
  Li  Li3  1  0.499678  0.502898  0.997527  1
  Li  Li4  1  0.696353  0.198741  0.695817  1
  Li  Li5  1  0.503647  0.001259  0.504183  1
  Li  Li6  1  0.305407  0.803783  0.298159  1
  Li  Li7  1  0.100000  0.600000  0.100000  1
  Li  Li8  1  0.299926  0.299888  0.799102  1
  Li  Li9  1  0.100000  0.100000  0.600000  1
  Fe  Fe10  1  0.600000  0.100000  0.100000  1
  Ni  Ni11  1  0.801346  0.800232  0.797627  1
  Ni  Ni12  1  0.799537  0.301949  0.300333  1
  Ni  Ni13  1  0.600000  0.600000  0.600000  1
  Ni  Ni14  1  0.398654  0.399768  0.402373  1
  Ni  Ni15  1  0.400463  0.898051  0.899667  1
  Ni  Ni16  1  0.196874  0.200982  0.200919  1
  Ni  Ni17  1  0.200932  0.698460  0.700683  1
  Ni  Ni18  1  0.999068  0.501540  0.499317  1
  Ni  Ni19  1  0.003126  0.999018  0.999081  1
  O  O20  1  0.954654  0.451698  0.222926  1
  O  O21  1  0.858580  0.863527  0.087966  1
  O  O22  1  0.973579  0.928751  0.709513  1
  O  O23  1  0.852953  0.366516  0.585844  1
  O  O24  1  0.750187  0.246762  0.010161  1
  O  O25  1  0.767429  0.726437  0.505421  1
  O  O26  1  0.449813  0.953238  0.189839  1
  O  O27  1  0.648176  0.155032  0.395167  1
  O  O28  1  0.552791  0.547489  0.323802  1
  O  O29  1  0.647209  0.652511  0.876198  1
  O  O30  1  0.347047  0.833484  0.614155  1
  O  O31  1  0.341420  0.336473  0.112034  1
  O  O32  1  0.551824  0.044968  0.804833  1
  O  O33  1  0.432571  0.473563  0.694579  1
  O  O34  1  0.245346  0.748302  0.977074  1
  O  O35  1  0.226421  0.271249  0.490487  1
  O  O36  1  0.145750  0.642810  0.426475  1
  O  O37  1  0.054250  0.557190  0.773525  1
  O  O38  1  0.054099  0.063645  0.282565  1
  O  O39  1  0.145901  0.136355  0.917435  1
