# generated using pymatgen
data_Na3Li3Mn2P2(CO7)2
_symmetry_space_group_name_H-M   'P 1'
_cell_length_a   8.74789116
_cell_length_b   6.76992803
_cell_length_c   10.13898929
_cell_angle_alpha   90.03763292
_cell_angle_beta   88.82604396
_cell_angle_gamma   89.78736237
_symmetry_Int_Tables_number   1
_chemical_formula_structural   Na3Li3Mn2P2(CO7)2
_chemical_formula_sum   'Na6 Li6 Mn4 P4 C4 O28'
_cell_volume   600.32691080
_cell_formula_units_Z   2
loop_
 _symmetry_equiv_pos_site_id
 _symmetry_equiv_pos_as_xyz
  1  'x, y, z'
loop_
 _atom_site_type_symbol
 _atom_site_label
 _atom_site_symmetry_multiplicity
 _atom_site_fract_x
 _atom_site_fract_y
 _atom_site_fract_z
 _atom_site_occupancy
  Na  Na0  1  0.084281  0.249786  0.379012  1
  Na  Na1  1  0.252709  0.999843  0.627370  1
  Na  Na2  1  0.256341  0.999213  0.122653  1
  Na  Na3  1  0.255910  0.501388  0.122633  1
  Na  Na4  1  0.747155  0.500331  0.875384  1
  Na  Na5  1  0.745768  0.501268  0.374762  1
  Li  Li6  1  0.079131  0.247984  0.875109  1
  Li  Li7  1  0.270059  0.477137  0.619030  1
  Li  Li8  1  0.734464  0.980366  0.884236  1
  Li  Li9  1  0.728650  0.978027  0.385682  1
  Li  Li10  1  0.913811  0.753252  0.626735  1
  Li  Li11  1  0.910418  0.760968  0.123289  1
  Mn  Mn12  1  0.358335  0.748543  0.884942  1
  Mn  Mn13  1  0.360418  0.746202  0.391056  1
  Mn  Mn14  1  0.645067  0.244276  0.613433  1
  Mn  Mn15  1  0.644193  0.245444  0.108648  1
  P  P16  1  0.404851  0.249778  0.849103  1
  P  P17  1  0.414598  0.243828  0.354308  1
  P  P18  1  0.595229  0.748842  0.648371  1
  P  P19  1  0.598296  0.753645  0.145424  1
  C  C20  1  0.045184  0.757557  0.865254  1
  C  C21  1  0.045414  0.758861  0.367082  1
  C  C22  1  0.948021  0.256484  0.639310  1
  C  C23  1  0.947959  0.248658  0.129732  1
  O  O24  1  0.094584  0.275979  0.655115  1
  O  O25  1  0.093496  0.250645  0.150101  1
  O  O26  1  0.088723  0.752005  0.987495  1
  O  O27  1  0.089089  0.753377  0.488790  1
  O  O28  1  0.146629  0.744656  0.769329  1
  O  O29  1  0.147744  0.745326  0.271375  1
  O  O30  1  0.303901  0.067949  0.886584  1
  O  O31  1  0.315254  0.433811  0.900043  1
  O  O32  1  0.316819  0.062018  0.396701  1
  O  O33  1  0.325223  0.429750  0.405631  1
  O  O34  1  0.420895  0.263752  0.695149  1
  O  O35  1  0.429398  0.733874  0.595255  1
  O  O36  1  0.426939  0.251174  0.200694  1
  O  O37  1  0.435151  0.750701  0.087921  1
  O  O38  1  0.568862  0.234297  0.904908  1
  O  O39  1  0.580797  0.770143  0.801797  1
  O  O40  1  0.579137  0.233297  0.408050  1
  O  O41  1  0.580323  0.770747  0.299214  1
  O  O42  1  0.694237  0.564442  0.612638  1
  O  O43  1  0.685606  0.927462  0.590656  1
  O  O44  1  0.692737  0.565487  0.109700  1
  O  O45  1  0.695694  0.928803  0.091094  1
  O  O46  1  0.858270  0.239604  0.742552  1
  O  O47  1  0.852240  0.244446  0.229924  1
  O  O48  1  0.889158  0.252429  0.523005  1
  O  O49  1  0.897785  0.250575  0.010052  1
  O  O50  1  0.902368  0.775083  0.836236  1
  O  O51  1  0.902678  0.776485  0.337434  1
