# generated using pymatgen
data_Li2TiCr3O8
_symmetry_space_group_name_H-M   'P 1'
_cell_length_a   5.90255925
_cell_length_b   5.90230843
_cell_length_c   9.43517415
_cell_angle_alpha   90.00413257
_cell_angle_beta   89.99780443
_cell_angle_gamma   119.99795950
_symmetry_Int_Tables_number   1
_chemical_formula_structural   Li2TiCr3O8
_chemical_formula_sum   'Li4 Ti2 Cr6 O16'
_cell_volume   284.67657736
_cell_formula_units_Z   2
loop_
 _symmetry_equiv_pos_site_id
 _symmetry_equiv_pos_as_xyz
  1  'x, y, z'
loop_
 _atom_site_type_symbol
 _atom_site_label
 _atom_site_symmetry_multiplicity
 _atom_site_fract_x
 _atom_site_fract_y
 _atom_site_fract_z
 _atom_site_occupancy
  Li  Li0  1  0.333372  0.666784  0.890853  1
  Li  Li1  1  0.000011  0.999945  0.994725  1
  Li  Li2  1  0.999987  0.999931  0.494729  1
  Li  Li3  1  0.666625  0.333412  0.390854  1
  Ti  Ti4  1  0.333385  0.666639  0.497801  1
  Ti  Ti5  1  0.666617  0.333252  0.997803  1
  Cr  Cr6  1  0.171945  0.828064  0.216874  1
  Cr  Cr7  1  0.171890  0.343822  0.216716  1
  Cr  Cr8  1  0.656223  0.828123  0.216639  1
  Cr  Cr9  1  0.343774  0.171915  0.716647  1
  Cr  Cr10  1  0.828061  0.656113  0.716855  1
  Cr  Cr11  1  0.828120  0.171937  0.716712  1
  O  O12  1  0.167484  0.832398  0.596189  1
  O  O13  1  0.040201  0.520189  0.342073  1
  O  O14  1  0.333185  0.666725  0.104136  1
  O  O15  1  0.000182  0.999970  0.301465  1
  O  O16  1  0.999827  0.999803  0.801464  1
  O  O17  1  0.167504  0.335065  0.596136  1
  O  O18  1  0.479792  0.959799  0.342081  1
  O  O19  1  0.479796  0.520139  0.342051  1
  O  O20  1  0.335051  0.167498  0.096189  1
  O  O21  1  0.664949  0.832452  0.596189  1
  O  O22  1  0.520203  0.480000  0.842079  1
  O  O23  1  0.520202  0.040347  0.842047  1
  O  O24  1  0.666804  0.333524  0.604141  1
  O  O25  1  0.832517  0.664914  0.096190  1
  O  O26  1  0.959797  0.479981  0.842069  1
  O  O27  1  0.832494  0.167561  0.096132  1
