# generated using pymatgen
data_Li3FeSiBO7
_symmetry_space_group_name_H-M   'P 1'
_cell_length_a   8.45592153
_cell_length_b   6.36509447
_cell_length_c   5.07323561
_cell_angle_alpha   90.00000000
_cell_angle_beta   85.60817132
_cell_angle_gamma   90.00000000
_symmetry_Int_Tables_number   1
_chemical_formula_structural   Li3FeSiBO7
_chemical_formula_sum   'Li6 Fe2 Si2 B2 O14'
_cell_volume   272.25366068
_cell_formula_units_Z   2
loop_
 _symmetry_equiv_pos_site_id
 _symmetry_equiv_pos_as_xyz
  1  'x, y, z'
loop_
 _atom_site_type_symbol
 _atom_site_label
 _atom_site_symmetry_multiplicity
 _atom_site_fract_x
 _atom_site_fract_y
 _atom_site_fract_z
 _atom_site_occupancy
  Li  Li0  1  0.106658  0.250000  0.750317  1
  Li  Li1  1  0.241371  0.996705  0.243863  1
  Li  Li2  1  0.241371  0.503295  0.243863  1
  Li  Li3  1  0.758629  0.496705  0.756137  1
  Li  Li4  1  0.758629  0.003295  0.756137  1
  Li  Li5  1  0.893342  0.750000  0.249683  1
  Fe  Fe6  1  0.330234  0.750000  0.798069  1
  Fe  Fe7  1  0.669766  0.250000  0.201931  1
  Si  Si8  1  0.425291  0.250000  0.724259  1
  Si  Si9  1  0.574709  0.750000  0.275741  1
  B  B10  1  0.038150  0.750000  0.735535  1
  B  B11  1  0.961850  0.250000  0.264465  1
  O  O12  1  0.108864  0.250000  0.352173  1
  O  O13  1  0.080117  0.750000  0.992367  1
  O  O14  1  0.168406  0.750000  0.543299  1
  O  O15  1  0.305755  0.056746  0.824669  1
  O  O16  1  0.305755  0.443254  0.824669  1
  O  O17  1  0.464766  0.250000  0.402651  1
  O  O18  1  0.402164  0.750000  0.148948  1
  O  O19  1  0.597836  0.250000  0.851052  1
  O  O20  1  0.535234  0.750000  0.597349  1
  O  O21  1  0.694245  0.556746  0.175331  1
  O  O22  1  0.694245  0.943254  0.175331  1
  O  O23  1  0.831594  0.250000  0.456701  1
  O  O24  1  0.919883  0.250000  0.007633  1
  O  O25  1  0.891136  0.750000  0.647827  1
