# generated using pymatgen
data_Na4Sb2C4SO16
_symmetry_space_group_name_H-M   'P 1'
_cell_length_a   10.23742966
_cell_length_b   10.21319061
_cell_length_c   10.34526673
_cell_angle_alpha   120.27296461
_cell_angle_beta   59.49543312
_cell_angle_gamma   119.22246851
_symmetry_Int_Tables_number   1
_chemical_formula_structural   Na4Sb2C4SO16
_chemical_formula_sum   'Na8 Sb4 C8 S2 O32'
_cell_volume   764.63585743
_cell_formula_units_Z   2
loop_
 _symmetry_equiv_pos_site_id
 _symmetry_equiv_pos_as_xyz
  1  'x, y, z'
loop_
 _atom_site_type_symbol
 _atom_site_label
 _atom_site_symmetry_multiplicity
 _atom_site_fract_x
 _atom_site_fract_y
 _atom_site_fract_z
 _atom_site_occupancy
  Na  Na0  1  0.918382  0.168382  0.331618  1
  Na  Na1  1  0.918539  0.168539  0.918539  1
  Na  Na2  1  0.920370  0.579630  0.329630  1
  Na  Na3  1  0.329630  0.170370  0.920370  1
  Na  Na4  1  0.678429  0.821571  0.071571  1
  Na  Na5  1  0.331618  0.581618  0.918382  1
  Na  Na6  1  0.331461  0.581461  0.331461  1
  Na  Na7  1  0.071571  0.428429  0.678429  1
  Sb  Sb8  1  0.495285  0.006019  0.000331  1
  Sb  Sb9  1  0.493981  0.004715  0.510403  1
  Sb  Sb10  1  0.510403  0.499669  0.493981  1
  Sb  Sb11  1  0.000331  0.989597  0.495285  1
  C  C12  1  0.716957  0.157365  0.720555  1
  C  C13  1  0.671007  0.217079  0.270803  1
  C  C14  1  0.270803  0.224731  0.671007  1
  C  C15  1  0.275269  0.229197  0.282921  1
  C  C16  1  0.720555  0.780147  0.716957  1
  C  C17  1  0.719853  0.779445  0.342635  1
  C  C18  1  0.342635  0.783043  0.719853  1
  C  C19  1  0.282921  0.828993  0.275269  1
  S  S20  1  0.875000  0.625000  0.875000  1
  S  S21  1  0.125000  0.375000  0.125000  1
  O  O22  1  0.851142  0.166531  0.714449  1
  O  O23  1  0.673880  0.100793  0.287807  1
  O  O24  1  0.707510  0.152478  0.597779  1
  O  O25  1  0.670240  0.199475  0.138172  1
  O  O26  1  0.590088  0.149696  0.848612  1
  O  O27  1  0.937045  0.562995  0.695660  1
  O  O28  1  0.937005  0.562955  0.930289  1
  O  O29  1  0.672876  0.353987  0.388006  1
  O  O30  1  0.293104  0.111994  0.146013  1
  O  O31  1  0.388006  0.206896  0.672876  1
  O  O32  1  0.695660  0.569711  0.937045  1
  O  O33  1  0.930289  0.804340  0.937005  1
  O  O34  1  0.848612  0.789003  0.590088  1
  O  O35  1  0.710997  0.651388  0.350304  1
  O  O36  1  0.391063  0.361828  0.300525  1
  O  O37  1  0.138172  0.108937  0.670240  1
  O  O38  1  0.597779  0.652810  0.707510  1
  O  O39  1  0.847190  0.902221  0.347522  1
  O  O40  1  0.287807  0.360895  0.673880  1
  O  O41  1  0.139105  0.212193  0.399207  1
  O  O42  1  0.303565  0.433427  0.064778  1
  O  O43  1  0.066573  0.196435  0.065083  1
  O  O44  1  0.600940  0.785551  0.333469  1
  O  O45  1  0.714449  0.899060  0.851142  1
  O  O46  1  0.333469  0.648858  0.600940  1
  O  O47  1  0.064778  0.434917  0.303565  1
  O  O48  1  0.065083  0.435222  0.066573  1
  O  O49  1  0.399207  0.826120  0.139105  1
  O  O50  1  0.347522  0.792490  0.847190  1
  O  O51  1  0.300525  0.829760  0.391063  1
  O  O52  1  0.350304  0.909912  0.710997  1
  O  O53  1  0.146013  0.827124  0.293104  1
