# generated using pymatgen
data_Li2Fe3CoO8
_symmetry_space_group_name_H-M   'P 1'
_cell_length_a   5.89467311
_cell_length_b   5.89467223
_cell_length_c   5.89467301
_cell_angle_alpha   60.35547370
_cell_angle_beta   60.35547996
_cell_angle_gamma   60.35547929
_symmetry_Int_Tables_number   1
_chemical_formula_structural   Li2Fe3CoO8
_chemical_formula_sum   'Li2 Fe3 Co1 O8'
_cell_volume   145.99649723
_cell_formula_units_Z   1
loop_
 _symmetry_equiv_pos_site_id
 _symmetry_equiv_pos_as_xyz
  1  'x, y, z'
loop_
 _atom_site_type_symbol
 _atom_site_label
 _atom_site_symmetry_multiplicity
 _atom_site_fract_x
 _atom_site_fract_y
 _atom_site_fract_z
 _atom_site_occupancy
  Li  Li0  1  0.119815  0.119815  0.119815  1
  Li  Li1  1  0.498734  0.498734  0.498734  1
  Fe  Fe2  1  0.006962  0.497139  0.497139  1
  Fe  Fe3  1  0.497139  0.006962  0.497139  1
  Fe  Fe4  1  0.497139  0.497139  0.006962  1
  Co  Co5  1  0.883288  0.883288  0.883288  1
  O  O6  1  0.254058  0.254058  0.254058  1
  O  O7  1  0.252859  0.252859  0.707080  1
  O  O8  1  0.252859  0.707080  0.252859  1
  O  O9  1  0.707080  0.252859  0.252859  1
  O  O10  1  0.287754  0.747585  0.747585  1
  O  O11  1  0.747585  0.287754  0.747585  1
  O  O12  1  0.747585  0.747585  0.287754  1
  O  O13  1  0.747143  0.747143  0.747143  1
