# generated using pymatgen
data_Zr2Bi2O7
_symmetry_space_group_name_H-M   'P 1'
_cell_length_a   8.09740237
_cell_length_b   13.97767807
_cell_length_c   5.71712051
_cell_angle_alpha   90.00000000
_cell_angle_beta   90.00000000
_cell_angle_gamma   98.40161083
_symmetry_Int_Tables_number   1
_chemical_formula_structural   Zr2Bi2O7
_chemical_formula_sum   'Zr8 Bi8 O28'
_cell_volume   640.13586595
_cell_formula_units_Z   4
loop_
 _symmetry_equiv_pos_site_id
 _symmetry_equiv_pos_as_xyz
  1  'x, y, z'
loop_
 _atom_site_type_symbol
 _atom_site_label
 _atom_site_symmetry_multiplicity
 _atom_site_fract_x
 _atom_site_fract_y
 _atom_site_fract_z
 _atom_site_occupancy
  Zr  Zr0  1  0.073752  0.316917  0.261802  1
  Zr  Zr1  1  0.028094  0.114270  0.764417  1
  Zr  Zr2  1  0.411422  0.676841  0.765659  1
  Zr  Zr3  1  0.470872  0.882403  0.263117  1
  Zr  Zr4  1  0.529128  0.117597  0.763117  1
  Zr  Zr5  1  0.588578  0.323159  0.265659  1
  Zr  Zr6  1  0.971906  0.885730  0.264417  1
  Zr  Zr7  1  0.926248  0.683083  0.761802  1
  Bi  Bi8  1  0.136316  0.559478  0.296926  1
  Bi  Bi9  1  0.230842  0.913910  0.768692  1
  Bi  Bi10  1  0.286645  0.130241  0.238156  1
  Bi  Bi11  1  0.367395  0.401719  0.731655  1
  Bi  Bi12  1  0.632605  0.598281  0.231655  1
  Bi  Bi13  1  0.713355  0.869759  0.738156  1
  Bi  Bi14  1  0.769158  0.086090  0.268692  1
  Bi  Bi15  1  0.863684  0.440522  0.796926  1
  O  O16  1  0.077283  0.413697  0.545523  1
  O  O17  1  0.006086  0.178676  0.441737  1
  O  O18  1  0.173932  0.691728  0.681047  1
  O  O19  1  0.222590  0.885567  0.364719  1
  O  O20  1  0.140528  0.437074  0.055995  1
  O  O21  1  0.062439  0.019591  0.055803  1
  O  O22  1  0.127169  0.224344  0.979067  1
  O  O23  1  0.374378  0.616222  0.089850  1
  O  O24  1  0.422592  0.823328  0.933015  1
  O  O25  1  0.271539  0.084076  0.659313  1
  O  O26  1  0.326629  0.305656  0.385837  1
  O  O27  1  0.413950  0.548604  0.575932  1
  O  O28  1  0.551484  0.979806  0.553532  1
  O  O29  1  0.515536  0.773079  0.480696  1
  O  O30  1  0.484464  0.226921  0.980696  1
  O  O31  1  0.448516  0.020194  0.053532  1
  O  O32  1  0.586050  0.451396  0.075932  1
  O  O33  1  0.673371  0.694344  0.885837  1
  O  O34  1  0.728461  0.915924  0.159313  1
  O  O35  1  0.577408  0.176672  0.433015  1
  O  O36  1  0.625622  0.383778  0.589850  1
  O  O37  1  0.872831  0.775656  0.479067  1
  O  O38  1  0.937561  0.980409  0.555803  1
  O  O39  1  0.859472  0.562926  0.555995  1
  O  O40  1  0.777410  0.114433  0.864719  1
  O  O41  1  0.826068  0.308272  0.181047  1
  O  O42  1  0.993914  0.821324  0.941737  1
  O  O43  1  0.922717  0.586303  0.045523  1
