# generated using pymatgen
data_VP2H8(NO4)2
_symmetry_space_group_name_H-M   'P 1'
_cell_length_a   8.42552421
_cell_length_b   8.42597435
_cell_length_c   5.81121841
_cell_angle_alpha   90.01159444
_cell_angle_beta   90.01124006
_cell_angle_gamma   90.00003541
_symmetry_Int_Tables_number   1
_chemical_formula_structural   VP2H8(NO4)2
_chemical_formula_sum   'V2 P4 H16 N4 O16'
_cell_volume   412.55727012
_cell_formula_units_Z   2
loop_
 _symmetry_equiv_pos_site_id
 _symmetry_equiv_pos_as_xyz
  1  'x, y, z'
loop_
 _atom_site_type_symbol
 _atom_site_label
 _atom_site_symmetry_multiplicity
 _atom_site_fract_x
 _atom_site_fract_y
 _atom_site_fract_z
 _atom_site_occupancy
  V  V0  1  0.000022  0.000022  0.096926  1
  V  V1  1  0.500025  0.500022  0.096805  1
  P  P2  1  0.128242  0.371816  0.111974  1
  P  P3  1  0.371830  0.871766  0.111966  1
  P  P4  1  0.628187  0.128251  0.111964  1
  P  P5  1  0.871846  0.628265  0.111966  1
  H  H6  1  0.098391  0.597796  0.694330  1
  H  H7  1  0.108398  0.749145  0.509149  1
  H  H8  1  0.237832  0.736879  0.730772  1
  H  H9  1  0.249257  0.608072  0.508357  1
  H  H10  1  0.250812  0.108409  0.509133  1
  H  H11  1  0.263146  0.237809  0.730754  1
  H  H12  1  0.391922  0.249232  0.508377  1
  H  H13  1  0.402215  0.098361  0.694361  1
  H  H14  1  0.598375  0.902232  0.694363  1
  H  H15  1  0.608399  0.750865  0.509125  1
  H  H16  1  0.737835  0.763176  0.730752  1
  H  H17  1  0.749284  0.891914  0.508384  1
  H  H18  1  0.750720  0.391913  0.508359  1
  H  H19  1  0.762214  0.263173  0.730733  1
  H  H20  1  0.891583  0.250838  0.509152  1
  H  H21  1  0.901648  0.402248  0.694391  1
  N  N22  1  0.174016  0.673542  0.610513  1
  N  N23  1  0.326465  0.173986  0.610509  1
  N  N24  1  0.674006  0.826489  0.610512  1
  N  N25  1  0.826018  0.326498  0.610505  1
  O  O26  1  0.000008  0.000034  0.379095  1
  O  O27  1  0.000032  0.500027  0.004345  1
  O  O28  1  0.075958  0.215155  0.996378  1
  O  O29  1  0.127036  0.373248  0.368947  1
  O  O30  1  0.215154  0.924025  0.996419  1
  O  O31  1  0.284859  0.423969  0.996149  1
  O  O32  1  0.373294  0.873005  0.368962  1
  O  O33  1  0.423988  0.715144  0.996111  1
  O  O34  1  0.500036  0.500010  0.378985  1
  O  O35  1  0.500003  1.000000  0.004341  1
  O  O36  1  0.576013  0.284854  0.996105  1
  O  O37  1  0.626787  0.127086  0.368936  1
  O  O38  1  0.715176  0.575962  0.996397  1
  O  O39  1  0.784844  0.075973  0.996417  1
  O  O40  1  0.873277  0.627064  0.368952  1
  O  O41  1  0.923985  0.784868  0.996130  1
