# generated using pymatgen
data_Li2Co3NiO8
_symmetry_space_group_name_H-M   'P 1'
_cell_length_a   5.64048896
_cell_length_b   5.73235520
_cell_length_c   5.85260382
_cell_angle_alpha   60.67736207
_cell_angle_beta   90.62091802
_cell_angle_gamma   120.54024298
_symmetry_Int_Tables_number   1
_chemical_formula_structural   Li2Co3NiO8
_chemical_formula_sum   'Li2 Co3 Ni1 O8'
_cell_volume   134.77305956
_cell_formula_units_Z   1
loop_
 _symmetry_equiv_pos_site_id
 _symmetry_equiv_pos_as_xyz
  1  'x, y, z'
loop_
 _atom_site_type_symbol
 _atom_site_label
 _atom_site_symmetry_multiplicity
 _atom_site_fract_x
 _atom_site_fract_y
 _atom_site_fract_z
 _atom_site_occupancy
  Li  Li0  1  0.500000  0.000000  0.500000  1
  Li  Li1  1  0.500000  0.500000  0.500000  1
  Co  Co2  1  0.000000  0.500000  0.000000  1
  Co  Co3  1  0.500000  0.000000  0.000000  1
  Co  Co4  1  0.500000  0.500000  0.000000  1
  Ni  Ni5  1  0.000000  0.000000  0.000000  1
  O  O6  1  0.274247  0.037875  0.198496  1
  O  O7  1  0.273270  0.535037  0.203197  1
  O  O8  1  0.750156  0.028762  0.211221  1
  O  O9  1  0.750156  0.510173  0.211221  1
  O  O10  1  0.249844  0.489827  0.788779  1
  O  O11  1  0.249844  0.971238  0.788779  1
  O  O12  1  0.726730  0.464963  0.796803  1
  O  O13  1  0.725753  0.962125  0.801504  1
