# generated using pymatgen
data_Li2Ti3ZnO8
_symmetry_space_group_name_H-M   'P 1'
_cell_length_a   8.44672259
_cell_length_b   8.44681236
_cell_length_c   8.44723423
_cell_angle_alpha   90.00009103
_cell_angle_beta   89.99997002
_cell_angle_gamma   90.00012651
_symmetry_Int_Tables_number   1
_chemical_formula_structural   Li2Ti3ZnO8
_chemical_formula_sum   'Li8 Ti12 Zn4 O32'
_cell_volume   602.69226072
_cell_formula_units_Z   4
loop_
 _symmetry_equiv_pos_site_id
 _symmetry_equiv_pos_as_xyz
  1  'x, y, z'
loop_
 _atom_site_type_symbol
 _atom_site_label
 _atom_site_symmetry_multiplicity
 _atom_site_fract_x
 _atom_site_fract_y
 _atom_site_fract_z
 _atom_site_occupancy
  Li  Li0  1  0.002132  0.497870  0.502128  1
  Li  Li1  1  0.124824  0.875181  0.375171  1
  Li  Li2  1  0.375181  0.124822  0.875170  1
  Li  Li3  1  0.497866  0.502135  0.002130  1
  Li  Li4  1  0.502133  0.002133  0.497873  1
  Li  Li5  1  0.624820  0.624820  0.624823  1
  Li  Li6  1  0.875188  0.375189  0.124827  1
  Li  Li7  1  0.997878  0.997865  0.997873  1
  Ti  Ti8  1  0.120413  0.627332  0.134930  1
  Ti  Ti9  1  0.127301  0.365057  0.879628  1
  Ti  Ti10  1  0.134949  0.120397  0.627310  1
  Ti  Ti11  1  0.365093  0.879646  0.127322  1
  Ti  Ti12  1  0.372697  0.634946  0.379603  1
  Ti  Ti13  1  0.379603  0.372710  0.634942  1
  Ti  Ti14  1  0.620390  0.872697  0.865049  1
  Ti  Ti15  1  0.627330  0.134963  0.120376  1
  Ti  Ti16  1  0.634943  0.379610  0.372703  1
  Ti  Ti17  1  0.865056  0.620392  0.872704  1
  Ti  Ti18  1  0.872707  0.865048  0.620385  1
  Ti  Ti19  1  0.879610  0.127302  0.365071  1
  Zn  Zn20  1  0.247880  0.747876  0.752120  1
  Zn  Zn21  1  0.252117  0.252138  0.252121  1
  Zn  Zn22  1  0.747882  0.752120  0.247882  1
  Zn  Zn23  1  0.752127  0.247875  0.747882  1
  O  O24  1  0.107047  0.127234  0.389694  1
  O  O25  1  0.110313  0.892954  0.627230  1
  O  O26  1  0.112092  0.612092  0.887912  1
  O  O27  1  0.123129  0.144439  0.858604  1
  O  O28  1  0.127236  0.389693  0.107033  1
  O  O29  1  0.138896  0.361103  0.638881  1
  O  O30  1  0.141399  0.623134  0.355539  1
  O  O31  1  0.144463  0.858608  0.123120  1
  O  O32  1  0.355561  0.141399  0.623121  1
  O  O33  1  0.358603  0.376871  0.855543  1
  O  O34  1  0.361110  0.638897  0.138891  1
  O  O35  1  0.372765  0.610315  0.607035  1
  O  O36  1  0.376880  0.855569  0.358607  1
  O  O37  1  0.387911  0.387911  0.387912  1
  O  O38  1  0.389691  0.107065  0.127226  1
  O  O39  1  0.392960  0.872769  0.889703  1
  O  O40  1  0.607046  0.372766  0.610303  1
  O  O41  1  0.610312  0.607047  0.372770  1
  O  O42  1  0.612090  0.887911  0.112093  1
  O  O43  1  0.623135  0.355571  0.141394  1
  O  O44  1  0.627237  0.110313  0.892959  1
  O  O45  1  0.638895  0.138899  0.361113  1
  O  O46  1  0.641395  0.876870  0.644454  1
  O  O47  1  0.644440  0.641399  0.876878  1
  O  O48  1  0.855562  0.358602  0.376878  1
  O  O49  1  0.858610  0.123132  0.144454  1
  O  O50  1  0.861106  0.861104  0.861118  1
  O  O51  1  0.872767  0.889685  0.392962  1
  O  O52  1  0.876871  0.644438  0.641398  1
  O  O53  1  0.887907  0.112093  0.612084  1
  O  O54  1  0.889689  0.392956  0.872771  1
  O  O55  1  0.892964  0.627239  0.110300  1
