# generated using pymatgen
data_H9PbC3I
_symmetry_space_group_name_H-M   'P 1'
_cell_length_a   6.70095001
_cell_length_b   10.59445387
_cell_length_c   11.54124354
_cell_angle_alpha   90.00000000
_cell_angle_beta   90.00000000
_cell_angle_gamma   90.00000000
_symmetry_Int_Tables_number   1
_chemical_formula_structural   H9PbC3I
_chemical_formula_sum   'H36 Pb4 C12 I4'
_cell_volume   819.34641506
_cell_formula_units_Z   4
loop_
 _symmetry_equiv_pos_site_id
 _symmetry_equiv_pos_as_xyz
  1  'x, y, z'
loop_
 _atom_site_type_symbol
 _atom_site_label
 _atom_site_symmetry_multiplicity
 _atom_site_fract_x
 _atom_site_fract_y
 _atom_site_fract_z
 _atom_site_occupancy
  H  H0  1  0.056896  0.024127  0.445124  1
  H  H1  1  0.077493  0.219449  0.021057  1
  H  H2  1  0.121653  0.338928  0.679859  1
  H  H3  1  0.136140  0.230031  0.800010  1
  H  H4  1  0.189820  0.176419  0.654543  1
  H  H5  1  0.194995  0.838189  0.585340  1
  H  H6  1  0.214366  0.886685  0.932930  1
  H  H7  1  0.238621  0.984118  0.335001  1
  H  H8  1  0.242233  0.327443  0.095597  1
  H  H9  1  0.257767  0.672557  0.595597  1
  H  H10  1  0.261379  0.015882  0.835001  1
  H  H11  1  0.285634  0.113315  0.432930  1
  H  H12  1  0.305005  0.161811  0.085340  1
  H  H13  1  0.310180  0.823581  0.154544  1
  H  H14  1  0.363860  0.769969  0.300010  1
  H  H15  1  0.378347  0.661072  0.179859  1
  H  H16  1  0.422507  0.780551  0.521057  1
  H  H17  1  0.443104  0.975873  0.945124  1
  H  H18  1  0.556896  0.475873  0.554876  1
  H  H19  1  0.577493  0.280551  0.978943  1
  H  H20  1  0.621653  0.161072  0.320141  1
  H  H21  1  0.636140  0.269969  0.199990  1
  H  H22  1  0.689820  0.323581  0.345456  1
  H  H23  1  0.694995  0.661811  0.414660  1
  H  H24  1  0.714366  0.613315  0.067070  1
  H  H25  1  0.738621  0.515882  0.664999  1
  H  H26  1  0.742233  0.172557  0.904403  1
  H  H27  1  0.757767  0.827443  0.404403  1
  H  H28  1  0.761379  0.484118  0.164999  1
  H  H29  1  0.785634  0.386685  0.567070  1
  H  H30  1  0.805005  0.338189  0.914660  1
  H  H31  1  0.810180  0.676419  0.845457  1
  H  H32  1  0.863860  0.730031  0.699990  1
  H  H33  1  0.878347  0.838928  0.820141  1
  H  H34  1  0.922507  0.719449  0.478943  1
  H  H35  1  0.943104  0.524127  0.054876  1
  Pb  Pb36  1  0.021446  0.193344  0.260656  1
  Pb  Pb37  1  0.478554  0.806656  0.760656  1
  Pb  Pb38  1  0.521446  0.306656  0.739344  1
  Pb  Pb39  1  0.978554  0.693344  0.239344  1
  C  C40  1  0.171351  0.060028  0.385860  1
  C  C41  1  0.184248  0.231134  0.092193  1
  C  C42  1  0.196787  0.255671  0.715059  1
  C  C43  1  0.303213  0.744328  0.215059  1
  C  C44  1  0.315752  0.768866  0.592193  1
  C  C45  1  0.328649  0.939972  0.885860  1
  C  C46  1  0.671351  0.439972  0.614140  1
  C  C47  1  0.684248  0.268866  0.907807  1
  C  C48  1  0.696787  0.244329  0.284941  1
  C  C49  1  0.803213  0.755672  0.784941  1
  C  C50  1  0.815752  0.731134  0.407807  1
  C  C51  1  0.828649  0.560028  0.114140  1
  I  I52  1  0.178945  0.436130  0.379294  1
  I  I53  1  0.321055  0.563870  0.879294  1
  I  I54  1  0.678945  0.063870  0.620706  1
  I  I55  1  0.821055  0.936130  0.120706  1
