# generated using pymatgen
data_Li2MnF4
_symmetry_space_group_name_H-M   'P 1'
_cell_length_a   3.85372613
_cell_length_b   6.68670058
_cell_length_c   8.44758695
_cell_angle_alpha   73.25181046
_cell_angle_beta   103.18501704
_cell_angle_gamma   73.25196041
_symmetry_Int_Tables_number   1
_chemical_formula_structural   Li2MnF4
_chemical_formula_sum   'Li4 Mn2 F8'
_cell_volume   187.76537581
_cell_formula_units_Z   2
loop_
 _symmetry_equiv_pos_site_id
 _symmetry_equiv_pos_as_xyz
  1  'x, y, z'
loop_
 _atom_site_type_symbol
 _atom_site_label
 _atom_site_symmetry_multiplicity
 _atom_site_fract_x
 _atom_site_fract_y
 _atom_site_fract_z
 _atom_site_occupancy
  Li  Li0  1  0.344614  0.719972  0.409199  1
  Li  Li1  1  0.165000  0.443514  0.773515  1
  Li  Li2  1  0.835000  0.556486  0.226485  1
  Li  Li3  1  0.655386  0.280028  0.590801  1
  Mn  Mn4  1  0.431435  0.875053  0.737923  1
  Mn  Mn5  1  0.568565  0.124947  0.262077  1
  F  F6  1  0.845072  0.947802  0.637946  1
  F  F7  1  0.788446  0.762613  0.339506  1
  F  F8  1  0.640821  0.711667  0.993310  1
  F  F9  1  0.546980  0.571441  0.665400  1
  F  F10  1  0.453020  0.428559  0.334600  1
  F  F11  1  0.359179  0.288333  0.006690  1
  F  F12  1  0.211554  0.237387  0.660494  1
  F  F13  1  0.154928  0.052198  0.362054  1
