# generated using pymatgen
data_LiCu2C2O7
_symmetry_space_group_name_H-M   'P 1'
_cell_length_a   4.81447913
_cell_length_b   4.83438740
_cell_length_c   15.24270448
_cell_angle_alpha   89.65741764
_cell_angle_beta   89.62444947
_cell_angle_gamma   60.27491891
_symmetry_Int_Tables_number   1
_chemical_formula_structural   LiCu2C2O7
_chemical_formula_sum   'Li2 Cu4 C4 O14'
_cell_volume   308.08347355
_cell_formula_units_Z   2
loop_
 _symmetry_equiv_pos_site_id
 _symmetry_equiv_pos_as_xyz
  1  'x, y, z'
loop_
 _atom_site_type_symbol
 _atom_site_label
 _atom_site_symmetry_multiplicity
 _atom_site_fract_x
 _atom_site_fract_y
 _atom_site_fract_z
 _atom_site_occupancy
  Li  Li0  1  0.001909  0.995771  0.499380  1
  Li  Li1  1  0.000065  0.004156  0.999905  1
  Cu  Cu2  1  0.330755  0.334291  0.864882  1
  Cu  Cu3  1  0.331982  0.337962  0.634605  1
  Cu  Cu4  1  0.663662  0.668562  0.366536  1
  Cu  Cu5  1  0.671722  0.659507  0.136226  1
  C  C6  1  0.664129  0.669655  0.588693  1
  C  C7  1  0.665461  0.669455  0.910550  1
  C  C8  1  0.333670  0.331787  0.410556  1
  C  C9  1  0.334153  0.329806  0.088904  1
  O  O10  1  0.388287  0.925685  0.912790  1
  O  O11  1  0.077778  0.609386  0.412538  1
  O  O12  1  0.386083  0.688640  0.585812  1
  O  O13  1  0.316344  0.606165  0.091017  1
  O  O14  1  0.684897  0.926772  0.586926  1
  O  O15  1  0.073903  0.312946  0.085548  1
  O  O16  1  0.677068  0.679042  0.251195  1
  O  O17  1  0.347664  0.308877  0.749730  1
  O  O18  1  0.922954  0.691152  0.908107  1
  O  O19  1  0.309363  0.076677  0.411372  1
  O  O20  1  0.683794  0.392549  0.912890  1
  O  O21  1  0.613291  0.308979  0.409854  1
  O  O22  1  0.920160  0.392719  0.591127  1
  O  O23  1  0.610136  0.072032  0.087896  1
