# generated using pymatgen
data_Li5Mn2(PO4)3
_symmetry_space_group_name_H-M   'P 1'
_cell_length_a   8.50623965
_cell_length_b   9.40693219
_cell_length_c   8.53336679
_cell_angle_alpha   116.82887863
_cell_angle_beta   60.93637736
_cell_angle_gamma   116.45485847
_symmetry_Int_Tables_number   1
_chemical_formula_structural   Li5Mn2(PO4)3
_chemical_formula_sum   'Li10 Mn4 P6 O24'
_cell_volume   509.69744958
_cell_formula_units_Z   2
loop_
 _symmetry_equiv_pos_site_id
 _symmetry_equiv_pos_as_xyz
  1  'x, y, z'
loop_
 _atom_site_type_symbol
 _atom_site_label
 _atom_site_symmetry_multiplicity
 _atom_site_fract_x
 _atom_site_fract_y
 _atom_site_fract_z
 _atom_site_occupancy
  Li  Li0  1  0.975792  0.826957  0.232119  1
  Li  Li1  1  0.208779  0.922238  0.738241  1
  Li  Li2  1  0.654363  0.845363  0.923100  1
  Li  Li3  1  0.240946  0.633655  0.545110  1
  Li  Li4  1  0.684397  0.621936  0.353001  1
  Li  Li5  1  0.315603  0.378064  0.646999  1
  Li  Li6  1  0.759054  0.366345  0.454890  1
  Li  Li7  1  0.345636  0.154637  0.076900  1
  Li  Li8  1  0.791221  0.077762  0.261759  1
  Li  Li9  1  0.024208  0.173043  0.767881  1
  Mn  Mn10  1  0.140518  0.448759  0.142398  1
  Mn  Mn11  1  0.354121  0.035694  0.341597  1
  Mn  Mn12  1  0.645879  0.964306  0.658403  1
  Mn  Mn13  1  0.859482  0.551241  0.857602  1
  P  P14  1  0.051140  0.254113  0.455461  1
  P  P15  1  0.548858  0.742294  0.248826  1
  P  P16  1  0.261216  0.762461  0.942376  1
  P  P17  1  0.738784  0.237539  0.057624  1
  P  P18  1  0.451142  0.257706  0.751174  1
  P  P19  1  0.948860  0.745887  0.544539  1
  O  O20  1  0.247798  0.929199  0.111046  1
  O  O21  1  0.157708  0.620998  0.029649  1
  O  O22  1  0.947531  0.566609  0.410553  1
  O  O23  1  0.153206  0.866427  0.519465  1
  O  O24  1  0.149282  0.256722  0.249925  1
  O  O25  1  0.574334  0.900395  0.210415  1
  O  O26  1  0.152494  0.747785  0.827741  1
  O  O27  1  0.393922  0.594147  0.192390  1
  O  O28  1  0.155113  0.193469  0.513249  1
  O  O29  1  0.501765  0.773191  0.462211  1
  O  O30  1  0.747238  0.709427  0.149040  1
  O  O31  1  0.466770  0.766378  0.810784  1
  O  O32  1  0.533230  0.233622  0.189216  1
  O  O33  1  0.252762  0.290573  0.850960  1
  O  O34  1  0.498235  0.226809  0.537789  1
  O  O35  1  0.844887  0.806531  0.486751  1
  O  O36  1  0.606078  0.405853  0.807610  1
  O  O37  1  0.847506  0.252215  0.172259  1
  O  O38  1  0.425666  0.099605  0.789585  1
  O  O39  1  0.850718  0.743278  0.750075  1
  O  O40  1  0.846794  0.133573  0.480535  1
  O  O41  1  0.052469  0.433391  0.589447  1
  O  O42  1  0.842292  0.379002  0.970351  1
  O  O43  1  0.752202  0.070801  0.888954  1
