# generated using pymatgen
data_CrNi(PO4)2
_symmetry_space_group_name_H-M   'P 1'
_cell_length_a   8.38723927
_cell_length_b   8.63881062
_cell_length_c   8.63881021
_cell_angle_alpha   60.00000115
_cell_angle_beta   59.00273554
_cell_angle_gamma   59.00273325
_symmetry_Int_Tables_number   1
_chemical_formula_structural   CrNi(PO4)2
_chemical_formula_sum   'Cr3 Ni3 P6 O24'
_cell_volume   435.81115030
_cell_formula_units_Z   3
loop_
 _symmetry_equiv_pos_site_id
 _symmetry_equiv_pos_as_xyz
  1  'x, y, z'
loop_
 _atom_site_type_symbol
 _atom_site_label
 _atom_site_symmetry_multiplicity
 _atom_site_fract_x
 _atom_site_fract_y
 _atom_site_fract_z
 _atom_site_occupancy
  Cr  Cr0  1  0.004558  0.998480  0.998480  1
  Cr  Cr1  1  0.573097  0.142301  0.142301  1
  Cr  Cr2  1  0.502351  0.499216  0.499216  1
  Ni  Ni3  1  0.074837  0.641721  0.641721  1
  Ni  Ni4  1  0.429426  0.856858  0.856858  1
  Ni  Ni5  1  0.926304  0.357899  0.357899  1
  P  P6  1  0.248624  0.251214  0.546716  1
  P  P7  1  0.248624  0.953447  0.251214  1
  P  P8  1  0.248624  0.546716  0.953447  1
  P  P9  1  0.749618  0.452101  0.047973  1
  P  P10  1  0.749618  0.047973  0.750308  1
  P  P11  1  0.749618  0.750308  0.452101  1
  O  O12  1  0.059934  0.103270  0.329026  1
  O  O13  1  0.059934  0.507770  0.103270  1
  O  O14  1  0.059934  0.329026  0.507770  1
  O  O15  1  0.214583  0.097613  0.749537  1
  O  O16  1  0.434603  0.173693  0.388300  1
  O  O17  1  0.295186  0.400838  0.553521  1
  O  O18  1  0.214583  0.938267  0.097613  1
  O  O19  1  0.295186  0.750454  0.400838  1
  O  O20  1  0.561462  0.601662  0.007168  1
  O  O21  1  0.295186  0.553521  0.750454  1
  O  O22  1  0.780801  0.244583  0.067091  1
  O  O23  1  0.561462  0.007168  0.829709  1
  O  O24  1  0.434603  0.003402  0.173693  1
  O  O25  1  0.214583  0.749537  0.938267  1
  O  O26  1  0.711551  0.436077  0.252384  1
  O  O27  1  0.434603  0.388300  0.003402  1
  O  O28  1  0.711551  0.252384  0.599990  1
  O  O29  1  0.780801  0.067091  0.907526  1
  O  O30  1  0.711551  0.599990  0.436077  1
  O  O31  1  0.561462  0.829709  0.601662  1
  O  O32  1  0.780801  0.907526  0.244583  1
  O  O33  1  0.940115  0.680440  0.484361  1
  O  O34  1  0.940115  0.484361  0.895085  1
  O  O35  1  0.940115  0.895085  0.680440  1
