# generated using pymatgen
data_Li3Fe8(BO3)8
_symmetry_space_group_name_H-M   'P 1'
_cell_length_a   5.21989885
_cell_length_b   9.11484648
_cell_length_c   10.19454836
_cell_angle_alpha   90.68652939
_cell_angle_beta   90.55139260
_cell_angle_gamma   89.42141171
_symmetry_Int_Tables_number   1
_chemical_formula_structural   Li3Fe8(BO3)8
_chemical_formula_sum   'Li3 Fe8 B8 O24'
_cell_volume   484.96065050
_cell_formula_units_Z   1
loop_
 _symmetry_equiv_pos_site_id
 _symmetry_equiv_pos_as_xyz
  1  'x, y, z'
loop_
 _atom_site_type_symbol
 _atom_site_label
 _atom_site_symmetry_multiplicity
 _atom_site_fract_x
 _atom_site_fract_y
 _atom_site_fract_z
 _atom_site_occupancy
  Li  Li0  1  0.850695  0.827002  0.658247  1
  Li  Li1  1  0.813215  0.830271  0.169749  1
  Li  Li2  1  0.665999  0.674067  0.905431  1
  Fe  Fe3  1  0.834140  0.173142  0.632144  1
  Fe  Fe4  1  0.811066  0.491720  0.131502  1
  Fe  Fe5  1  0.679576  0.011090  0.879267  1
  Fe  Fe6  1  0.662808  0.337130  0.376848  1
  Fe  Fe7  1  0.347197  0.647814  0.621274  1
  Fe  Fe8  1  0.328694  0.004754  0.123676  1
  Fe  Fe9  1  0.185377  0.837768  0.383967  1
  Fe  Fe10  1  0.166750  0.498274  0.878990  1
  B  B11  1  0.849926  0.502202  0.630003  1
  B  B12  1  0.833105  0.160614  0.135491  1
  B  B13  1  0.670700  0.006047  0.377523  1
  B  B14  1  0.660799  0.340582  0.872352  1
  B  B15  1  0.333448  0.997856  0.628885  1
  B  B16  1  0.323958  0.678130  0.118605  1
  B  B17  1  0.158312  0.499725  0.373996  1
  B  B18  1  0.175174  0.825428  0.879493  1
  O  O19  1  0.901997  0.493102  0.335874  1
  O  O20  1  0.912785  0.831533  0.861940  1
  O  O21  1  0.785896  0.216152  0.824283  1
  O  O22  1  0.752978  0.136258  0.434604  1
  O  O23  1  0.832343  0.888096  0.360261  1
  O  O24  1  0.803281  0.462172  0.915822  1
  O  O25  1  0.719755  0.632214  0.631342  1
  O  O26  1  0.695216  0.035004  0.093374  1
  O  O27  1  0.743781  0.373362  0.576967  1
  O  O28  1  0.699504  0.282125  0.180821  1
  O  O29  1  0.586578  0.677546  0.108451  1
  O  O30  1  0.597153  0.997410  0.660274  1
  O  O31  1  0.417983  0.994721  0.331734  1
  O  O32  1  0.402332  0.344926  0.880888  1
  O  O33  1  0.312011  0.698153  0.841990  1
  O  O34  1  0.253629  0.635397  0.415946  1
  O  O35  1  0.313393  0.379802  0.373194  1
  O  O36  1  0.313437  0.941012  0.933512  1
  O  O37  1  0.173136  0.564790  0.074058  1
  O  O38  1  0.181616  0.117853  0.640473  1
  O  O39  1  0.222531  0.865453  0.581867  1
  O  O40  1  0.194911  0.804003  0.172795  1
  O  O41  1  0.091820  0.156115  0.130227  1
  O  O42  1  0.095257  0.494702  0.683262  1
