# generated using pymatgen
data_Fe6O5F7
_symmetry_space_group_name_H-M   'P 1'
_cell_length_a   4.79378424
_cell_length_b   7.83666079
_cell_length_c   5.72794318
_cell_angle_alpha   94.51723588
_cell_angle_beta   87.71179324
_cell_angle_gamma   91.02161194
_symmetry_Int_Tables_number   1
_chemical_formula_structural   Fe6O5F7
_chemical_formula_sum   'Fe6 O5 F7'
_cell_volume   214.32036935
_cell_formula_units_Z   1
loop_
 _symmetry_equiv_pos_site_id
 _symmetry_equiv_pos_as_xyz
  1  'x, y, z'
loop_
 _atom_site_type_symbol
 _atom_site_label
 _atom_site_symmetry_multiplicity
 _atom_site_fract_x
 _atom_site_fract_y
 _atom_site_fract_z
 _atom_site_occupancy
  Fe  Fe0  1  0.496398  0.664037  0.168744  1
  Fe  Fe1  1  0.471762  0.000077  0.487431  1
  Fe  Fe2  1  0.546784  0.340614  0.836423  1
  Fe  Fe3  1  0.010432  0.672645  0.660504  1
  Fe  Fe4  1  0.930060  0.328342  0.333517  1
  Fe  Fe5  1  0.039812  0.991878  0.017236  1
  O  O6  1  0.807418  0.435855  0.628710  1
  O  O7  1  0.801322  0.095831  0.290494  1
  O  O8  1  0.692731  0.444627  0.126415  1
  O  O9  1  0.302746  0.883103  0.209058  1
  O  O10  1  0.200396  0.912493  0.712952  1
  F  F11  1  0.793681  0.775518  0.974332  1
  F  F12  1  0.692471  0.103622  0.794191  1
  F  F13  1  0.686239  0.766130  0.460424  1
  F  F14  1  0.310410  0.562634  0.872932  1
  F  F15  1  0.312828  0.238663  0.541382  1
  F  F16  1  0.203069  0.236597  0.033509  1
  F  F17  1  0.201441  0.547332  0.351745  1
