# generated using pymatgen
data_Ti2N2O
_symmetry_space_group_name_H-M   'P 1'
_cell_length_a   8.22031146
_cell_length_b   8.21931590
_cell_length_c   8.23365750
_cell_angle_alpha   109.58688616
_cell_angle_beta   109.45160443
_cell_angle_gamma   109.41727311
_symmetry_Int_Tables_number   1
_chemical_formula_structural   Ti2N2O
_chemical_formula_sum   'Ti16 N16 O8'
_cell_volume   428.02407015
_cell_formula_units_Z   8
loop_
 _symmetry_equiv_pos_site_id
 _symmetry_equiv_pos_as_xyz
  1  'x, y, z'
loop_
 _atom_site_type_symbol
 _atom_site_label
 _atom_site_symmetry_multiplicity
 _atom_site_fract_x
 _atom_site_fract_y
 _atom_site_fract_z
 _atom_site_occupancy
  Ti  Ti0  1  0.959019  0.250835  0.206556  1
  Ti  Ti1  1  0.510046  0.008058  0.997962  1
  Ti  Ti2  1  0.797258  0.044178  0.762053  1
  Ti  Ti3  1  0.701983  0.454781  0.237438  1
  Ti  Ti4  1  0.745706  0.292457  0.530637  1
  Ti  Ti5  1  0.752085  0.786241  0.042964  1
  Ti  Ti6  1  0.008514  0.511178  0.993873  1
  Ti  Ti7  1  0.490196  0.495949  0.511186  1
  Ti  Ti8  1  0.452263  0.250033  0.709361  1
  Ti  Ti9  1  0.008964  0.996996  0.507302  1
  Ti  Ti10  1  0.544197  0.750864  0.301896  1
  Ti  Ti11  1  0.260425  0.710525  0.464884  1
  Ti  Ti12  1  0.237058  0.205136  0.946745  1
  Ti  Ti13  1  0.286750  0.543505  0.745253  1
  Ti  Ti14  1  0.216749  0.954550  0.258923  1
  Ti  Ti15  1  0.045472  0.751922  0.792376  1
  N  N16  1  0.734529  0.226083  0.275853  1
  N  N17  1  0.461513  0.223947  0.448398  1
  N  N18  1  0.771875  0.724237  0.262772  1
  N  N19  1  0.051563  0.275552  0.012401  1
  N  N20  1  0.277153  0.733614  0.222795  1
  N  N21  1  0.223413  0.447587  0.458617  1
  N  N22  1  0.988238  0.947824  0.722113  1
  N  N23  1  0.513130  0.237776  0.962044  1
  N  N24  1  0.548799  0.542229  0.775490  1
  N  N25  1  0.952818  0.727198  0.994378  1
  N  N26  1  0.538585  0.772746  0.546973  1
  N  N27  1  0.222323  0.273184  0.734582  1
  N  N28  1  0.035316  0.487894  0.761984  1
  N  N29  1  0.723575  0.989131  0.949309  1
  N  N30  1  0.230689  0.958639  0.506956  1
  N  N31  1  0.265804  0.776380  0.727416  1
  O  O32  1  0.761312  0.040113  0.490886  1
  O  O33  1  0.272045  0.008689  0.046822  1
  O  O34  1  0.957247  0.506598  0.232886  1
  O  O35  1  0.454730  0.461796  0.226930  1
  O  O36  1  0.725021  0.261659  0.773041  1
  O  O37  1  0.007866  0.051738  0.275598  1
  O  O38  1  0.774643  0.550068  0.539064  1
  O  O39  1  0.491129  0.768114  0.043287  1
