# generated using pymatgen
data_Ta2Pb2O7
_symmetry_space_group_name_H-M   'P 1'
_cell_length_a   13.95186134
_cell_length_b   13.95186134
_cell_length_c   5.90993093
_cell_angle_alpha   90.00000000
_cell_angle_beta   90.00000000
_cell_angle_gamma   16.41791653
_symmetry_Int_Tables_number   1
_chemical_formula_structural   Ta2Pb2O7
_chemical_formula_sum   'Ta4 Pb4 O14'
_cell_volume   325.14907183
_cell_formula_units_Z   2
loop_
 _symmetry_equiv_pos_site_id
 _symmetry_equiv_pos_as_xyz
  1  'x, y, z'
loop_
 _atom_site_type_symbol
 _atom_site_label
 _atom_site_symmetry_multiplicity
 _atom_site_fract_x
 _atom_site_fract_y
 _atom_site_fract_z
 _atom_site_occupancy
  Ta  Ta0  1  0.158872  0.158872  0.250038  1
  Ta  Ta1  1  0.056540  0.056540  0.748610  1
  Ta  Ta2  1  0.841128  0.841128  0.750038  1
  Ta  Ta3  1  0.943460  0.943460  0.248610  1
  Pb  Pb4  1  0.284848  0.284848  0.238586  1
  Pb  Pb5  1  0.446548  0.446548  0.722778  1
  Pb  Pb6  1  0.715152  0.715152  0.738586  1
  Pb  Pb7  1  0.553452  0.553452  0.222778  1
  O  O8  1  0.097861  0.097861  0.034166  1
  O  O9  1  0.001375  0.001375  0.539828  1
  O  O10  1  0.204823  0.204823  0.014774  1
  O  O11  1  0.104038  0.104038  0.526966  1
  O  O12  1  0.209697  0.209697  0.472652  1
  O  O13  1  0.351270  0.351270  0.762854  1
  O  O14  1  0.450145  0.450145  0.292409  1
  O  O15  1  0.790303  0.790303  0.972652  1
  O  O16  1  0.549855  0.549855  0.792409  1
  O  O17  1  0.648730  0.648730  0.262854  1
  O  O18  1  0.902139  0.902139  0.534166  1
  O  O19  1  0.895962  0.895962  0.026966  1
  O  O20  1  0.998625  0.998625  0.039828  1
  O  O21  1  0.795177  0.795177  0.514774  1
