# generated using pymatgen
data_H20C3(N2O5)2
_symmetry_space_group_name_H-M   'P 1'
_cell_length_a   6.40083194
_cell_length_b   6.40062892
_cell_length_c   8.78555500
_cell_angle_alpha   76.39555037
_cell_angle_beta   103.35824828
_cell_angle_gamma   68.95689001
_symmetry_Int_Tables_number   1
_chemical_formula_structural   H20C3(N2O5)2
_chemical_formula_sum   'H20 C3 N4 O10'
_cell_volume   306.12450475
_cell_formula_units_Z   1
loop_
 _symmetry_equiv_pos_site_id
 _symmetry_equiv_pos_as_xyz
  1  'x, y, z'
loop_
 _atom_site_type_symbol
 _atom_site_label
 _atom_site_symmetry_multiplicity
 _atom_site_fract_x
 _atom_site_fract_y
 _atom_site_fract_z
 _atom_site_occupancy
  H  H0  1  0.920045  0.290795  0.291159  1
  H  H1  1  0.441577  0.344100  0.098458  1
  H  H2  1  0.784239  0.098735  0.685183  1
  H  H3  1  0.222771  0.201809  0.335444  1
  H  H4  1  0.878091  0.544312  0.660245  1
  H  H5  1  0.046543  0.224015  0.149378  1
  H  H6  1  0.901382  0.373409  0.848217  1
  H  H7  1  0.575129  0.628073  0.288520  1
  H  H8  1  0.479540  0.021915  0.802468  1
  H  H9  1  0.677642  0.820004  0.200145  1
  H  H10  1  0.020755  0.476784  0.195410  1
  H  H11  1  0.825280  0.671798  0.804891  1
  H  H12  1  0.626864  0.578790  0.713546  1
  H  H13  1  0.225584  0.060609  0.848740  1
  H  H14  1  0.376178  0.904118  0.150539  1
  H  H15  1  0.540417  0.880000  0.339097  1
  H  H16  1  0.205727  0.219574  0.659395  1
  H  H17  1  0.103422  0.785979  0.313508  1
  H  H18  1  0.337804  0.447986  0.898448  1
  H  H19  1  0.290667  0.916203  0.714946  1
  C  C20  1  0.929829  0.928635  0.001322  1
  C  C21  1  0.635808  0.196290  0.443440  1
  C  C22  1  0.193830  0.639738  0.555970  1
  N  N23  1  0.052196  0.298414  0.242933  1
  N  N24  1  0.806934  0.542734  0.756326  1
  N  N25  1  0.300741  0.053710  0.756054  1
  N  N26  1  0.543023  0.807324  0.244668  1
  O  O27  1  0.048778  0.057059  0.998869  1
  O  O28  1  0.525004  0.068107  0.467671  1
  O  O29  1  0.340975  0.335551  0.998454  1
  O  O30  1  0.621558  0.323558  0.302152  1
  O  O31  1  0.784925  0.202124  0.577730  1
  O  O32  1  0.942969  0.795779  0.143703  1
  O  O33  1  0.060014  0.534811  0.531125  1
  O  O34  1  0.207799  0.783216  0.422870  1
  O  O35  1  0.321745  0.621780  0.698450  1
  O  O36  1  0.798937  0.932485  0.862321  1
