# generated using pymatgen
data_LiFe4(BO3)4
_symmetry_space_group_name_H-M   'P 1'
_cell_length_a   5.20561547
_cell_length_b   9.19183021
_cell_length_c   11.44389720
_cell_angle_alpha   66.78067101
_cell_angle_beta   76.45820558
_cell_angle_gamma   88.93710419
_symmetry_Int_Tables_number   1
_chemical_formula_structural   LiFe4(BO3)4
_chemical_formula_sum   'Li2 Fe8 B8 O24'
_cell_volume   487.56747858
_cell_formula_units_Z   2
loop_
 _symmetry_equiv_pos_site_id
 _symmetry_equiv_pos_as_xyz
  1  'x, y, z'
loop_
 _atom_site_type_symbol
 _atom_site_label
 _atom_site_symmetry_multiplicity
 _atom_site_fract_x
 _atom_site_fract_y
 _atom_site_fract_z
 _atom_site_occupancy
  Li  Li0  1  0.970341  0.975720  0.387809  1
  Li  Li1  1  0.021808  0.002571  0.646286  1
  Fe  Fe2  1  0.981711  0.641654  0.376524  1
  Fe  Fe3  1  0.728051  0.071343  0.878430  1
  Fe  Fe4  1  0.515501  0.840432  0.628261  1
  Fe  Fe5  1  0.766394  0.432297  0.129491  1
  Fe  Fe6  1  0.230867  0.564747  0.878710  1
  Fe  Fe7  1  0.477644  0.158475  0.377782  1
  Fe  Fe8  1  0.018556  0.355512  0.628110  1
  Fe  Fe9  1  0.271432  0.928332  0.129443  1
  B  B10  1  0.959787  0.305767  0.384510  1
  B  B11  1  0.730611  0.394702  0.878910  1
  B  B12  1  0.509927  0.179590  0.634184  1
  B  B13  1  0.764884  0.103638  0.131645  1
  B  B14  1  0.489548  0.817386  0.372495  1
  B  B15  1  0.237083  0.895382  0.875002  1
  B  B16  1  0.039482  0.691792  0.620652  1
  B  B17  1  0.269590  0.604537  0.126479  1
  O  O18  1  0.995706  0.938386  0.848641  1
  O  O19  1  0.868878  0.291124  0.826633  1
  O  O20  1  0.866001  0.472326  0.932134  1
  O  O21  1  0.921852  0.830566  0.600015  1
  O  O22  1  0.964123  0.583262  0.572283  1
  O  O23  1  0.754175  0.162483  0.674226  1
  O  O24  1  0.749385  0.344828  0.324387  1
  O  O25  1  0.475634  0.415419  0.875750  1
  O  O26  1  0.369100  0.780754  0.841044  1
  O  O27  1  0.568870  0.926786  0.414467  1
  O  O28  1  0.637568  0.695450  0.367541  1
  O  O29  1  0.360054  0.974771  0.933645  1
  O  O30  1  0.640751  0.024159  0.072938  1
  O  O31  1  0.363079  0.302448  0.637277  1
  O  O32  1  0.428407  0.069033  0.593662  1
  O  O33  1  0.630576  0.217091  0.166395  1
  O  O34  1  0.525185  0.584539  0.128435  1
  O  O35  1  0.245909  0.652878  0.683577  1
  O  O36  1  0.244463  0.833814  0.333082  1
  O  O37  1  0.036254  0.414066  0.433127  1
  O  O38  1  0.080104  0.168876  0.401794  1
  O  O39  1  0.132331  0.525353  0.074933  1
  O  O40  1  0.131828  0.708449  0.178384  1
  O  O41  1  0.007817  0.062963  0.154833  1
