# generated using pymatgen
data_Cs2Cr4O13
_symmetry_space_group_name_H-M   'P 1'
_cell_length_a   8.22503101
_cell_length_b   8.99562475
_cell_length_c   21.28402696
_cell_angle_alpha   90.00000000
_cell_angle_beta   90.00000000
_cell_angle_gamma   106.52852927
_symmetry_Int_Tables_number   1
_chemical_formula_structural   Cs2Cr4O13
_chemical_formula_sum   'Cs8 Cr16 O52'
_cell_volume   1509.71692998
_cell_formula_units_Z   4
loop_
 _symmetry_equiv_pos_site_id
 _symmetry_equiv_pos_as_xyz
  1  'x, y, z'
loop_
 _atom_site_type_symbol
 _atom_site_label
 _atom_site_symmetry_multiplicity
 _atom_site_fract_x
 _atom_site_fract_y
 _atom_site_fract_z
 _atom_site_occupancy
  O  O0  1  0.093687  0.222112  0.123847  1
  O  O1  1  0.406313  0.277888  0.623847  1
  O  O2  1  0.906313  0.777888  0.876153  1
  O  O3  1  0.593687  0.722112  0.376153  1
  O  O4  1  0.192113  0.433957  0.034107  1
  O  O5  1  0.307887  0.066043  0.534107  1
  O  O6  1  0.807887  0.566043  0.965893  1
  O  O7  1  0.692113  0.933957  0.465893  1
  O  O8  1  0.420140  0.382037  0.114497  1
  O  O9  1  0.079860  0.117963  0.614497  1
  O  O10  1  0.579860  0.617963  0.885503  1
  O  O11  1  0.920140  0.882037  0.385503  1
  O  O12  1  0.287271  0.156121  0.022343  1
  O  O13  1  0.212729  0.343879  0.522343  1
  O  O14  1  0.712729  0.843879  0.977657  1
  O  O15  1  0.787271  0.656121  0.477657  1
  O  O16  1  0.269789  0.976580  0.917719  1
  O  O17  1  0.230211  0.523420  0.417719  1
  O  O18  1  0.583500  0.167298  0.950895  1
  O  O19  1  0.730211  0.023420  0.082281  1
  O  O20  1  0.327089  0.274566  0.902617  1
  O  O21  1  0.172911  0.225434  0.402617  1
  O  O22  1  0.672911  0.725434  0.097383  1
  O  O23  1  0.827089  0.774566  0.597383  1
  O  O24  1  0.904688  0.320685  0.703161  1
  O  O25  1  0.595312  0.179315  0.203161  1
  O  O26  1  0.095312  0.679315  0.296839  1
  O  O27  1  0.404688  0.820685  0.796839  1
  O  O28  1  0.011470  0.600454  0.754563  1
  O  O29  1  0.488530  0.899546  0.254563  1
  O  O30  1  0.988530  0.399546  0.245437  1
  O  O31  1  0.511470  0.100454  0.745437  1
  O  O32  1  0.185643  0.393703  0.773762  1
  O  O33  1  0.314357  0.106297  0.273762  1
  O  O34  1  0.814357  0.606297  0.226238  1
  O  O35  1  0.685643  0.893703  0.726238  1
  O  O36  1  0.203385  0.529798  0.654498  1
  O  O37  1  0.296615  0.970202  0.154498  1
  O  O38  1  0.796615  0.470202  0.345502  1
  O  O39  1  0.703385  0.029798  0.845502  1
  O  O40  1  0.423877  0.719872  0.573338  1
  O  O41  1  0.076123  0.780128  0.073338  1
  O  O42  1  0.576123  0.280128  0.426662  1
  O  O43  1  0.923877  0.219872  0.926662  1
  O  O44  1  0.247121  0.840007  0.650038  1
  O  O45  1  0.252879  0.659993  0.150038  1
  O  O46  1  0.752879  0.159993  0.349962  1
  O  O47  1  0.747121  0.340007  0.849962  1
  O  O48  1  0.083500  0.667298  0.549105  1
  O  O49  1  0.416500  0.832702  0.049105  1
  O  O50  1  0.916500  0.332702  0.450895  1
  O  O51  1  0.769789  0.476580  0.582281  1
  Cr  Cr52  1  0.246455  0.304037  0.075744  1
  Cr  Cr53  1  0.253545  0.195963  0.575744  1
  Cr  Cr54  1  0.753545  0.695963  0.924256  1
  Cr  Cr55  1  0.746455  0.804037  0.424256  1
  Cr  Cr56  1  0.360599  0.143697  0.947427  1
  Cr  Cr57  1  0.139401  0.356303  0.447427  1
  Cr  Cr58  1  0.639401  0.856303  0.052573  1
  Cr  Cr59  1  0.860599  0.643697  0.552573  1
  Cr  Cr60  1  0.743919  0.192789  0.892796  1
  Cr  Cr61  1  0.756081  0.307211  0.392796  1
  Cr  Cr62  1  0.256081  0.807211  0.107204  1
  Cr  Cr63  1  0.243919  0.692789  0.607204  1
  Cr  Cr64  1  0.570781  0.958462  0.775992  1
  Cr  Cr65  1  0.929219  0.541538  0.275992  1
  Cr  Cr66  1  0.429219  0.041538  0.224008  1
  Cr  Cr67  1  0.070781  0.458462  0.724008  1
  Cs  Cs68  1  0.598584  0.500766  0.736472  1
  Cs  Cs69  1  0.901416  0.999234  0.236472  1
  Cs  Cs70  1  0.401416  0.499234  0.263528  1
  Cs  Cs71  1  0.098584  0.000766  0.763528  1
  Cs  Cs72  1  0.681980  0.090911  0.599290  1
  Cs  Cs73  1  0.818020  0.409089  0.099290  1
  Cs  Cs74  1  0.318020  0.909089  0.400710  1
  Cs  Cs75  1  0.181980  0.590911  0.900710  1
