# generated using pymatgen
data_Na2Ni4Mo4(HO4)5
_symmetry_space_group_name_H-M   'P 1'
_cell_length_a   5.87071728
_cell_length_b   11.87881417
_cell_length_c   7.77577188
_cell_angle_alpha   56.68791252
_cell_angle_beta   87.68148680
_cell_angle_gamma   67.62237728
_symmetry_Int_Tables_number   1
_chemical_formula_structural   Na2Ni4Mo4(HO4)5
_chemical_formula_sum   'Na2 Ni4 Mo4 H5 O20'
_cell_volume   408.93798024
_cell_formula_units_Z   1
loop_
 _symmetry_equiv_pos_site_id
 _symmetry_equiv_pos_as_xyz
  1  'x, y, z'
loop_
 _atom_site_type_symbol
 _atom_site_label
 _atom_site_symmetry_multiplicity
 _atom_site_fract_x
 _atom_site_fract_y
 _atom_site_fract_z
 _atom_site_occupancy
  Na  Na0  1  0.501974  0.500927  0.466367  1
  Na  Na1  1  0.498026  0.999073  0.533633  1
  Ni  Ni2  1  0.000000  0.250000  0.000000  1
  Ni  Ni3  1  0.509181  0.958855  0.004534  1
  Ni  Ni4  1  0.490819  0.541145  -0.004534  1
  Ni  Ni5  1  0.000000  0.750000  0.000000  1
  Mo  Mo6  1  0.953615  0.093597  0.795384  1
  Mo  Mo7  1  0.956787  0.603646  0.672282  1
  Mo  Mo8  1  0.046385  0.406403  0.204616  1
  Mo  Mo9  1  0.043213  0.896354  0.327718  1
  H  H10  1  0.247014  0.832566  0.679484  1
  H  H11  1  0.196523  0.359050  0.568628  1
  H  H12  1  0.500000  0.750000  0.000000  1
  H  H13  1  0.752986  0.667434  0.320516  1
  H  H14  1  0.803477  0.140950  0.431372  1
  O  O15  1  0.216857  0.315166  0.792467  1
  O  O16  1  0.207095  0.231290  0.243990  1
  O  O17  1  0.211178  0.403930  0.412125  1
  O  O18  1  0.325028  0.737647  0.943613  1
  O  O19  1  0.183269  0.018080  0.092566  1
  O  O20  1  0.720768  0.071636  0.230191  1
  O  O21  1  0.152910  0.702029  0.413628  1
  O  O22  1  0.279232  0.428364  0.769809  1
  O  O23  1  0.816731  0.481920  0.907434  1
  O  O24  1  0.788822  0.096070  0.587875  1
  O  O25  1  0.258674  0.879247  0.527377  1
  O  O26  1  0.137559  0.560384  -0.018578  1
  O  O27  1  0.734225  0.434274  0.265878  1
  O  O28  1  0.792905  0.268710  0.756010  1
  O  O29  1  0.265775  0.065726  0.734122  1
  O  O30  1  0.862441  0.939616  0.018578  1
  O  O31  1  0.783143  0.184834  0.207533  1
  O  O32  1  0.741325  0.620753  0.472623  1
  O  O33  1  0.847090  0.797971  0.586372  1
  O  O34  1  0.674972  0.762353  0.056387  1
