# generated using pymatgen
data_Li4TiCu2Ni3(PO4)6
_symmetry_space_group_name_H-M   'P 1'
_cell_length_a   8.35162613
_cell_length_b   8.75384973
_cell_length_c   8.53981389
_cell_angle_alpha   61.23394021
_cell_angle_beta   62.08375497
_cell_angle_gamma   61.95957105
_symmetry_Int_Tables_number   1
_chemical_formula_structural   Li4TiCu2Ni3(PO4)6
_chemical_formula_sum   'Li4 Ti1 Cu2 Ni3 P6 O24'
_cell_volume   458.81727197
_cell_formula_units_Z   1
loop_
 _symmetry_equiv_pos_site_id
 _symmetry_equiv_pos_as_xyz
  1  'x, y, z'
loop_
 _atom_site_type_symbol
 _atom_site_label
 _atom_site_symmetry_multiplicity
 _atom_site_fract_x
 _atom_site_fract_y
 _atom_site_fract_z
 _atom_site_occupancy
  Li  Li0  1  0.744744  0.153616  0.359134  1
  Li  Li1  1  0.281608  0.842644  0.643243  1
  Li  Li2  1  0.648895  0.296606  0.853279  1
  Li  Li3  1  0.855182  0.643397  0.294932  1
  Ti  Ti4  1  0.851210  0.846777  0.854155  1
  Cu  Cu5  1  0.012728  0.991360  0.006548  1
  Cu  Cu6  1  0.492462  0.500919  0.503680  1
  Ni  Ni7  1  0.142753  0.147331  0.142228  1
  Ni  Ni8  1  0.359614  0.354611  0.356044  1
  Ni  Ni9  1  0.642419  0.651724  0.647972  1
  P  P10  1  0.746743  0.451460  0.050447  1
  P  P11  1  0.054623  0.743243  0.451427  1
  P  P12  1  0.437057  0.039028  0.752098  1
  P  P13  1  0.247958  0.537324  0.955597  1
  P  P14  1  0.558208  0.968887  0.245961  1
  P  P15  1  0.946021  0.245889  0.536525  1
  O  O16  1  0.115583  0.294685  0.493860  1
  O  O17  1  0.302764  0.513855  0.112680  1
  O  O18  1  0.062721  0.908350  0.265057  1
  O  O19  1  0.561051  0.114407  0.293864  1
  O  O20  1  0.995987  0.811918  0.616983  1
  O  O21  1  0.248125  0.587804  0.451187  1
  O  O22  1  0.241869  0.071769  0.907125  1
  O  O23  1  0.460370  0.217570  0.587448  1
  O  O24  1  0.174305  0.393142  0.990604  1
  O  O25  1  0.593625  0.442411  0.248263  1
  O  O26  1  0.097899  0.740392  0.910986  1
  O  O27  1  0.400604  0.032530  0.168596  1
  O  O28  1  0.609277  0.970748  0.825801  1
  O  O29  1  0.898173  0.260286  0.077466  1
  O  O30  1  0.414312  0.552713  0.758642  1
  O  O31  1  0.813549  0.616338  0.996608  1
  O  O32  1  0.558580  0.780110  0.408551  1
  O  O33  1  0.767259  0.916433  0.092042  1
  O  O34  1  0.753345  0.415720  0.551475  1
  O  O35  1  0.959867  0.178065  0.395722  1
  O  O36  1  0.457080  0.889113  0.694599  1
  O  O37  1  0.910048  0.096246  0.742632  1
  O  O38  1  0.680278  0.483819  0.895574  1
  O  O39  1  0.901100  0.673763  0.483962  1
