# generated using pymatgen
data_Co3(OF2)2
_symmetry_space_group_name_H-M   'P 1'
_cell_length_a   4.61806454
_cell_length_b   4.53382539
_cell_length_c   9.38088554
_cell_angle_alpha   89.98762443
_cell_angle_beta   90.00024741
_cell_angle_gamma   90.01534257
_symmetry_Int_Tables_number   1
_chemical_formula_structural   Co3(OF2)2
_chemical_formula_sum   'Co6 O4 F8'
_cell_volume   196.41226336
_cell_formula_units_Z   2
loop_
 _symmetry_equiv_pos_site_id
 _symmetry_equiv_pos_as_xyz
  1  'x, y, z'
loop_
 _atom_site_type_symbol
 _atom_site_label
 _atom_site_symmetry_multiplicity
 _atom_site_fract_x
 _atom_site_fract_y
 _atom_site_fract_z
 _atom_site_occupancy
  Co  Co0  1  0.033730  0.004766  0.993359  1
  Co  Co1  1  0.033472  0.004790  0.339971  1
  Co  Co2  1  0.004698  0.971941  0.666669  1
  Co  Co3  1  0.495351  0.472081  0.166676  1
  Co  Co4  1  0.466483  0.504829  0.839943  1
  Co  Co5  1  0.466253  0.504784  0.493373  1
  O  O6  1  0.193556  0.803708  0.836055  1
  O  O7  1  0.193318  0.803732  0.497280  1
  O  O8  1  0.306363  0.303675  0.336091  1
  O  O9  1  0.306639  0.303684  0.997256  1
  F  F10  1  0.221533  0.804435  0.166719  1
  F  F11  1  0.278494  0.304391  0.666707  1
  F  F12  1  0.665802  0.692387  0.666612  1
  F  F13  1  0.717337  0.707180  0.004484  1
  F  F14  1  0.717265  0.707061  0.328838  1
  F  F15  1  0.834170  0.192405  0.166640  1
  F  F16  1  0.782812  0.207053  0.828854  1
  F  F17  1  0.782725  0.207098  0.504472  1
