# generated using pymatgen
data_Fe17O18
_symmetry_space_group_name_H-M   'P 1'
_cell_length_a   9.30407378
_cell_length_b   11.10523730
_cell_length_c   8.23081672
_cell_angle_alpha   37.84266020
_cell_angle_beta   55.21780561
_cell_angle_gamma   46.53269412
_symmetry_Int_Tables_number   1
_chemical_formula_structural   Fe17O18
_chemical_formula_sum   'Fe17 O18'
_cell_volume   377.95569584
_cell_formula_units_Z   1
loop_
 _symmetry_equiv_pos_site_id
 _symmetry_equiv_pos_as_xyz
  1  'x, y, z'
loop_
 _atom_site_type_symbol
 _atom_site_label
 _atom_site_symmetry_multiplicity
 _atom_site_fract_x
 _atom_site_fract_y
 _atom_site_fract_z
 _atom_site_occupancy
  Fe  Fe0  1  0.225892  0.329107  0.000307  1
  Fe  Fe1  1  0.271444  0.157152  0.518358  1
  Fe  Fe2  1  0.105261  0.674369  0.002404  1
  Fe  Fe3  1  0.562566  0.324737  0.006437  1
  Fe  Fe4  1  0.161031  0.517254  0.485582  1
  Fe  Fe5  1  0.607260  0.167535  0.507943  1
  Fe  Fe6  1  0.437434  0.675263  -0.006437  1
  Fe  Fe7  1  0.053523  0.832782  0.497237  1
  Fe  Fe8  1  0.894739  0.325631  -0.002404  1
  Fe  Fe9  1  0.500000  0.500000  0.500000  1
  Fe  Fe10  1  0.323958  0.002140  0.000562  1
  Fe  Fe11  1  0.946477  0.167218  0.502763  1
  Fe  Fe12  1  0.774108  0.670893  -0.000307  1
  Fe  Fe13  1  0.392740  0.832465  0.492057  1
  Fe  Fe14  1  0.838969  0.482746  0.514418  1
  Fe  Fe15  1  0.676042  0.997860  0.999438  1
  Fe  Fe16  1  0.728556  0.842848  0.481642  1
  O  O17  1  0.121946  0.097032  0.237088  1
  O  O18  1  0.038325  0.422414  0.233366  1
  O  O19  1  0.473469  0.074751  0.257287  1
  O  O20  1  0.079209  0.272952  0.745609  1
  O  O21  1  0.350418  0.422776  0.233541  1
  O  O22  1  0.411091  0.245233  0.762681  1
  O  O23  1  0.275835  0.726174  0.262728  1
  O  O24  1  0.806096  0.087681  0.259023  1
  O  O25  1  0.709467  0.399663  0.249665  1
  O  O26  1  0.290533  0.600337  0.750335  1
  O  O27  1  0.588909  0.754767  0.237319  1
  O  O28  1  0.193904  0.912319  0.740977  1
  O  O29  1  0.724165  0.273826  0.737272  1
  O  O30  1  0.649582  0.577224  0.766459  1
  O  O31  1  0.920791  0.727048  0.254391  1
  O  O32  1  0.526531  0.925249  0.742713  1
  O  O33  1  0.961675  0.577586  0.766634  1
  O  O34  1  0.878054  0.902968  0.762912  1
