# generated using pymatgen
data_Li2VCrP2(O4F)2
_symmetry_space_group_name_H-M   'P 1'
_cell_length_a   14.55085558
_cell_length_b   5.37081194
_cell_length_c   7.40905324
_cell_angle_alpha   109.78129165
_cell_angle_beta   85.76550471
_cell_angle_gamma   87.29617301
_symmetry_Int_Tables_number   1
_chemical_formula_structural   Li2VCrP2(O4F)2
_chemical_formula_sum   'Li6 V3 Cr3 P6 O24 F6'
_cell_volume   541.75359123
_cell_formula_units_Z   3
loop_
 _symmetry_equiv_pos_site_id
 _symmetry_equiv_pos_as_xyz
  1  'x, y, z'
loop_
 _atom_site_type_symbol
 _atom_site_label
 _atom_site_symmetry_multiplicity
 _atom_site_fract_x
 _atom_site_fract_y
 _atom_site_fract_z
 _atom_site_occupancy
  Li  Li0  1  0.026805  0.399492  0.784474  1
  Li  Li1  1  0.306746  0.268204  0.882265  1
  Li  Li2  1  0.361011  0.065909  0.450654  1
  Li  Li3  1  0.639194  0.933401  0.549676  1
  Li  Li4  1  0.693833  0.733207  0.117022  1
  Li  Li5  1  0.972466  0.599851  0.216135  1
  V  V6  1  0.999330  0.999942  0.000530  1
  V  V7  1  0.166909  0.334020  0.333459  1
  V  V8  1  0.666445  0.333672  0.333233  1
  Cr  Cr9  1  0.334007  0.666337  0.666231  1
  Cr  Cr10  1  0.499935  0.999455  0.999794  1
  Cr  Cr11  1  0.833278  0.666504  0.666702  1
  P  P12  1  0.147084  0.974281  0.616442  1
  P  P13  1  0.187260  0.691282  0.049426  1
  P  P14  1  0.519978  0.360402  0.719372  1
  P  P15  1  0.479286  0.640572  0.281329  1
  P  P16  1  0.812885  0.307618  0.947073  1
  P  P17  1  0.853438  0.025941  0.386524  1
  O  O18  1  0.094163  0.067522  0.820598  1
  O  O19  1  0.118898  0.703763  0.489934  1
  O  O20  1  0.116559  0.198023  0.540021  1
  O  O21  1  0.080242  0.695946  0.031819  1
  O  O22  1  0.238869  0.597716  0.844969  1
  O  O23  1  0.253850  0.967875  0.634484  1
  O  O24  1  0.214543  0.962976  0.176485  1
  O  O25  1  0.217739  0.468306  0.126996  1
  O  O26  1  0.413038  0.366369  0.699908  1
  O  O27  1  0.427789  0.736129  0.486861  1
  O  O28  1  0.449581  0.867137  0.206927  1
  O  O29  1  0.548038  0.631082  0.843688  1
  O  O30  1  0.451860  0.369042  0.156182  1
  O  O31  1  0.549822  0.133004  0.792458  1
  O  O32  1  0.572479  0.266014  0.513762  1
  O  O33  1  0.586436  0.635583  0.301463  1
  O  O34  1  0.782544  0.534466  0.874013  1
  O  O35  1  0.785477  0.036073  0.822876  1
  O  O36  1  0.746703  0.030544  0.364790  1
  O  O37  1  0.760842  0.400911  0.152928  1
  O  O38  1  0.919737  0.303568  0.967434  1
  O  O39  1  0.883824  0.799240  0.459707  1
  O  O40  1  0.881194  0.297138  0.510734  1
  O  O41  1  0.905807  0.931462  0.180905  1
  F  F42  1  0.044143  0.291651  0.218926  1
  F  F43  1  0.378906  0.954178  0.884074  1
  F  F44  1  0.290017  0.379947  0.451569  1
  F  F45  1  0.713087  0.626332  0.554472  1
  F  F46  1  0.620031  0.040594  0.111885  1
  F  F47  1  0.953897  0.707321  0.778793  1
