# generated using pymatgen
data_LiFe(PO3)4
_symmetry_space_group_name_H-M   'P 1'
_cell_length_a   7.42934120
_cell_length_b   7.42934120
_cell_length_c   18.11682598
_cell_angle_alpha   90.00000000
_cell_angle_beta   90.00000000
_cell_angle_gamma   101.71717337
_symmetry_Int_Tables_number   1
_chemical_formula_structural   LiFe(PO3)4
_chemical_formula_sum   'Li4 Fe4 P16 O48'
_cell_volume   979.12302814
_cell_formula_units_Z   4
loop_
 _symmetry_equiv_pos_site_id
 _symmetry_equiv_pos_as_xyz
  1  'x, y, z'
loop_
 _atom_site_type_symbol
 _atom_site_label
 _atom_site_symmetry_multiplicity
 _atom_site_fract_x
 _atom_site_fract_y
 _atom_site_fract_z
 _atom_site_occupancy
  Li  Li0  1  0.206054  0.101085  0.390471  1
  Li  Li1  1  0.898915  0.793946  0.609529  1
  Li  Li2  1  0.793946  0.898915  0.890471  1
  Li  Li3  1  0.101085  0.206054  0.109529  1
  Fe  Fe4  1  0.563033  0.953997  0.629097  1
  Fe  Fe5  1  0.046003  0.436967  0.370903  1
  Fe  Fe6  1  0.953997  0.563033  0.870903  1
  Fe  Fe7  1  0.436967  0.046003  0.129097  1
  P  P8  1  0.230964  0.954511  0.901718  1
  P  P9  1  0.045489  0.769036  0.098282  1
  P  P10  1  0.287417  0.772769  0.760534  1
  P  P11  1  0.227231  0.712583  0.239466  1
  P  P12  1  0.381276  0.618724  0.500000  1
  P  P13  1  0.234816  0.333060  0.942013  1
  P  P14  1  0.666940  0.765184  0.057987  1
  P  P15  1  0.365613  0.365613  0.250000  1
  P  P16  1  0.634387  0.634387  0.750000  1
  P  P17  1  0.333060  0.234816  0.557987  1
  P  P18  1  0.765184  0.666940  0.442013  1
  P  P19  1  0.618724  0.381276  0.000000  1
  P  P20  1  0.772769  0.287417  0.739466  1
  P  P21  1  0.712583  0.227231  0.260534  1
  P  P22  1  0.769036  0.045489  0.401718  1
  P  P23  1  0.954511  0.230964  0.598282  1
  O  O24  1  0.165689  0.962935  0.103886  1
  O  O25  1  0.037065  0.834311  0.896114  1
  O  O26  1  0.350772  0.949540  0.965241  1
  O  O27  1  0.050460  0.649228  0.034759  1
  O  O28  1  0.334824  0.904992  0.231259  1
  O  O29  1  0.095008  0.665176  0.768741  1
  O  O30  1  0.083164  0.659639  0.173623  1
  O  O31  1  0.340361  0.916836  0.826377  1
  O  O32  1  0.334826  0.872926  0.688604  1
  O  O33  1  0.127074  0.665174  0.311396  1
  O  O34  1  0.420788  0.788090  0.547844  1
  O  O35  1  0.211910  0.579212  0.452156  1
  O  O36  1  0.511010  0.822300  0.099967  1
  O  O37  1  0.177700  0.488990  0.900033  1
  O  O38  1  0.369448  0.574482  0.229012  1
  O  O39  1  0.425518  0.630552  0.770988  1
  O  O40  1  0.803048  0.838909  0.384731  1
  O  O41  1  0.161091  0.196952  0.615269  1
  O  O42  1  0.544262  0.611409  0.442495  1
  O  O43  1  0.388591  0.455738  0.557505  1
  O  O44  1  0.684597  0.746358  0.680236  1
  O  O45  1  0.253642  0.315403  0.319764  1
  O  O46  1  0.157653  0.284207  0.016014  1
  O  O47  1  0.715793  0.842347  0.983986  1
  O  O48  1  0.284207  0.157653  0.483986  1
  O  O49  1  0.842347  0.715793  0.516014  1
  O  O50  1  0.315403  0.253642  0.180236  1
  O  O51  1  0.746358  0.684597  0.819764  1
  O  O52  1  0.611409  0.544262  0.057505  1
  O  O53  1  0.455738  0.388591  0.942495  1
  O  O54  1  0.196952  0.161091  0.884731  1
  O  O55  1  0.838909  0.803048  0.115269  1
  O  O56  1  0.630552  0.425518  0.729012  1
  O  O57  1  0.574482  0.369448  0.270988  1
  O  O58  1  0.822300  0.511010  0.400033  1
  O  O59  1  0.488990  0.177700  0.599967  1
  O  O60  1  0.788090  0.420788  0.952156  1
  O  O61  1  0.579212  0.211910  0.047844  1
  O  O62  1  0.665174  0.127074  0.188604  1
  O  O63  1  0.872926  0.334826  0.811396  1
  O  O64  1  0.659639  0.083164  0.326377  1
  O  O65  1  0.916836  0.340361  0.673623  1
  O  O66  1  0.904992  0.334824  0.268741  1
  O  O67  1  0.665176  0.095008  0.731259  1
  O  O68  1  0.649228  0.050460  0.465241  1
  O  O69  1  0.949540  0.350772  0.534759  1
  O  O70  1  0.962935  0.165689  0.396114  1
  O  O71  1  0.834311  0.037065  0.603886  1
