# generated using pymatgen
data_Li5Fe8(BO3)8
_symmetry_space_group_name_H-M   'P 1'
_cell_length_a   5.25785122
_cell_length_b   9.05179681
_cell_length_c   10.16186808
_cell_angle_alpha   90.45032339
_cell_angle_beta   91.78680865
_cell_angle_gamma   89.62593325
_symmetry_Int_Tables_number   1
_chemical_formula_structural   Li5Fe8(BO3)8
_chemical_formula_sum   'Li5 Fe8 B8 O24'
_cell_volume   483.37415458
_cell_formula_units_Z   1
loop_
 _symmetry_equiv_pos_site_id
 _symmetry_equiv_pos_as_xyz
  1  'x, y, z'
loop_
 _atom_site_type_symbol
 _atom_site_label
 _atom_site_symmetry_multiplicity
 _atom_site_fract_x
 _atom_site_fract_y
 _atom_site_fract_z
 _atom_site_occupancy
  Li  Li0  1  0.341918  0.017202  0.835887  1
  Li  Li1  1  0.655417  0.006548  0.097668  1
  Li  Li2  1  0.145686  0.490730  0.588850  1
  Li  Li3  1  0.834382  0.505419  0.845440  1
  Li  Li4  1  0.341814  0.990129  0.337185  1
  Fe  Fe5  1  0.155341  0.175697  0.114717  1
  Fe  Fe6  1  0.837700  0.172354  0.370404  1
  Fe  Fe7  1  0.331368  0.345765  0.875911  1
  Fe  Fe8  1  0.647785  0.322241  0.622244  1
  Fe  Fe9  1  0.337232  0.648430  0.363197  1
  Fe  Fe10  1  0.160543  0.835763  0.617348  1
  Fe  Fe11  1  0.671622  0.659870  0.125110  1
  Fe  Fe12  1  0.842891  0.842117  0.867565  1
  B  B13  1  0.156943  0.168119  0.621605  1
  B  B14  1  0.323998  0.324299  0.377317  1
  B  B15  1  0.830886  0.168080  0.875598  1
  B  B16  1  0.657847  0.333273  0.124008  1
  B  B17  1  0.336535  0.673218  0.868257  1
  B  B18  1  0.669434  0.666987  0.623500  1
  B  B19  1  0.174110  0.829074  0.123643  1
  B  B20  1  0.836867  0.838698  0.366031  1
  O  O21  1  0.276975  0.033491  0.641519  1
  O  O22  1  0.092281  0.161967  0.901784  1
  O  O23  1  0.687745  0.041446  0.895775  1
  O  O24  1  0.202539  0.192470  0.335703  1
  O  O25  1  0.276159  0.298650  0.659385  1
  O  O26  1  0.779468  0.201623  0.169310  1
  O  O27  1  0.915678  0.174068  0.564175  1
  O  O28  1  0.411414  0.324199  0.079010  1
  O  O29  1  0.194530  0.452465  0.395029  1
  O  O30  1  0.581910  0.315248  0.408516  1
  O  O31  1  0.715827  0.298689  0.834542  1
  O  O32  1  0.192631  0.549699  0.860066  1
  O  O33  1  0.788333  0.463709  0.121978  1
  O  O34  1  0.308209  0.699750  0.152690  1
  O  O35  1  0.409578  0.677834  0.584546  1
  O  O36  1  0.788756  0.533706  0.638240  1
  O  O37  1  0.592383  0.670278  0.914967  1
  O  O38  1  0.093768  0.834938  0.413076  1
  O  O39  1  0.230485  0.809793  0.825691  1
  O  O40  1  0.714257  0.710348  0.325097  1
  O  O41  1  0.805579  0.796957  0.652864  1
  O  O42  1  0.294579  0.963151  0.135391  1
  O  O43  1  0.913389  0.822405  0.086716  1
  O  O44  1  0.710779  0.972253  0.356484  1
