# generated using pymatgen
data_LiTiCrSO8
_symmetry_space_group_name_H-M   'P 1'
_cell_length_a   9.24354470
_cell_length_b   9.22206121
_cell_length_c   9.07821376
_cell_angle_alpha   56.38988839
_cell_angle_beta   55.77516371
_cell_angle_gamma   56.02265453
_symmetry_Int_Tables_number   1
_chemical_formula_structural   LiTiCrSO8
_chemical_formula_sum   'Li3 Ti3 Cr3 S3 O24'
_cell_volume   497.27312374
_cell_formula_units_Z   3
loop_
 _symmetry_equiv_pos_site_id
 _symmetry_equiv_pos_as_xyz
  1  'x, y, z'
loop_
 _atom_site_type_symbol
 _atom_site_label
 _atom_site_symmetry_multiplicity
 _atom_site_fract_x
 _atom_site_fract_y
 _atom_site_fract_z
 _atom_site_occupancy
  Li  Li0  1  0.224540  0.832709  0.580735  1
  Li  Li1  1  0.587964  0.216906  0.820944  1
  Li  Li2  1  0.836210  0.854035  0.868561  1
  Ti  Ti3  1  0.149604  0.150532  0.132535  1
  Ti  Ti4  1  0.356561  0.362004  0.353564  1
  Ti  Ti5  1  0.646107  0.637962  0.647885  1
  Cr  Cr6  1  0.033262  0.750534  0.471369  1
  Cr  Cr7  1  0.744545  0.466303  0.048283  1
  Cr  Cr8  1  0.247286  0.532692  0.961430  1
  S  S9  1  0.462272  0.036768  0.747478  1
  S  S10  1  0.527752  0.967408  0.254119  1
  S  S11  1  0.970010  0.253831  0.523268  1
  O  O12  1  0.101833  0.311116  0.504903  1
  O  O13  1  0.321258  0.484513  0.130183  1
  O  O14  1  0.043080  0.969472  0.298000  1
  O  O15  1  0.487435  0.108888  0.316965  1
  O  O16  1  0.033111  0.727713  0.664454  1
  O  O17  1  0.247306  0.583064  0.392401  1
  O  O18  1  0.365993  0.217727  0.626504  1
  O  O19  1  0.330050  0.008597  0.951439  1
  O  O20  1  0.603172  0.355502  0.257166  1
  O  O21  1  0.035462  0.684166  0.994660  1
  O  O22  1  0.305100  0.312499  0.973286  1
  O  O23  1  0.342249  0.973080  0.292592  1
  O  O24  1  0.633591  0.037647  0.722355  1
  O  O25  1  0.703895  0.668818  0.029551  1
  O  O26  1  0.981373  0.312101  0.016793  1
  O  O27  1  0.399106  0.635459  0.734214  1
  O  O28  1  0.646347  0.005017  0.052129  1
  O  O29  1  0.617431  0.779445  0.374130  1
  O  O30  1  0.770293  0.376679  0.609357  1
  O  O31  1  0.994848  0.285555  0.331075  1
  O  O32  1  0.501034  0.883250  0.702261  1
  O  O33  1  0.991690  0.058847  0.649542  1
  O  O34  1  0.692137  0.505934  0.862650  1
  O  O35  1  0.863795  0.702524  0.497020  1
