# generated using pymatgen
data_Li2VO2F
_symmetry_space_group_name_H-M   'P 1'
_cell_length_a   6.02283345
_cell_length_b   6.02318617
_cell_length_c   7.96039567
_cell_angle_alpha   101.07864239
_cell_angle_beta   67.58951560
_cell_angle_gamma   120.11067666
_symmetry_Int_Tables_number   1
_chemical_formula_structural   Li2VO2F
_chemical_formula_sum   'Li8 V4 O8 F4'
_cell_volume   230.94177554
_cell_formula_units_Z   4
loop_
 _symmetry_equiv_pos_site_id
 _symmetry_equiv_pos_as_xyz
  1  'x, y, z'
loop_
 _atom_site_type_symbol
 _atom_site_label
 _atom_site_symmetry_multiplicity
 _atom_site_fract_x
 _atom_site_fract_y
 _atom_site_fract_z
 _atom_site_occupancy
  Li  Li0  1  0.098411  0.814483  0.135129  1
  Li  Li1  1  0.080679  0.347328  0.146987  1
  Li  Li2  1  0.588608  0.839102  0.143854  1
  Li  Li3  1  0.618631  0.334796  0.136232  1
  Li  Li4  1  0.380465  0.650486  0.855041  1
  Li  Li5  1  0.409575  0.170230  0.848853  1
  Li  Li6  1  0.914408  0.651326  0.859776  1
  Li  Li7  1  0.920302  0.194051  0.857206  1
  V  V8  1  0.238719  0.495770  0.508184  1
  V  V9  1  0.249391  0.999236  0.498960  1
  V  V10  1  0.751162  0.496859  0.505287  1
  V  V11  1  0.750653  0.006807  0.506804  1
  O  O12  1  0.000611  0.501094  0.002415  1
  O  O13  1  0.155975  0.660706  0.354436  1
  O  O14  1  0.153665  0.169598  0.355672  1
  O  O15  1  0.346267  0.833292  0.645280  1
  O  O16  1  0.347306  0.337385  0.646275  1
  O  O17  1  0.837111  0.829352  0.644533  1
  O  O18  1  0.661113  0.166651  0.353373  1
  O  O19  1  0.835053  0.333000  0.657287  1
  F  F20  1  0.999080  0.998778  0.000477  1
  F  F21  1  0.500111  0.501446  0.002750  1
  F  F22  1  0.662732  0.668189  0.335761  1
  F  F23  1  0.499933  0.000036  0.999430  1
