# generated using pymatgen
data_Li2Cu4S3
_symmetry_space_group_name_H-M   'P 1'
_cell_length_a   3.79772509
_cell_length_b   7.63218556
_cell_length_c   10.00827922
_cell_angle_alpha   72.30553516
_cell_angle_beta   89.99706280
_cell_angle_gamma   75.64222383
_symmetry_Int_Tables_number   1
_chemical_formula_structural   Li2Cu4S3
_chemical_formula_sum   'Li4 Cu8 S6'
_cell_volume   266.84053813
_cell_formula_units_Z   2
loop_
 _symmetry_equiv_pos_site_id
 _symmetry_equiv_pos_as_xyz
  1  'x, y, z'
loop_
 _atom_site_type_symbol
 _atom_site_label
 _atom_site_symmetry_multiplicity
 _atom_site_fract_x
 _atom_site_fract_y
 _atom_site_fract_z
 _atom_site_occupancy
  Li  Li0  1  0.169961  0.674075  0.847348  1
  Li  Li1  1  0.685915  0.614118  0.354768  1
  Li  Li2  1  0.315300  0.381696  0.651155  1
  Li  Li3  1  0.843262  0.327012  0.153532  1
  Cu  Cu4  1  0.508750  0.966916  0.882489  1
  Cu  Cu5  1  0.529464  0.940096  0.633758  1
  Cu  Cu6  1  0.099493  0.799137  0.512002  1
  Cu  Cu7  1  0.098386  0.793284  0.101502  1
  Cu  Cu8  1  0.894740  0.199527  0.901057  1
  Cu  Cu9  1  0.898855  0.204183  0.486698  1
  Cu  Cu10  1  0.461691  0.063284  0.363791  1
  Cu  Cu11  1  0.476268  0.030598  0.118069  1
  S  S12  1  0.021274  0.942251  0.273597  1
  S  S13  1  0.681320  0.635525  0.619685  1
  S  S14  1  0.658115  0.674505  0.042310  1
  S  S15  1  0.334460  0.322818  0.956314  1
  S  S16  1  0.317888  0.366559  0.379408  1
  S  S17  1  0.967990  0.057225  0.725009  1
