# generated using pymatgen
data_Fe4O3F5
_symmetry_space_group_name_H-M   'P 1'
_cell_length_a   4.84572696
_cell_length_b   9.65472216
_cell_length_c   6.21423924
_cell_angle_alpha   90.00000000
_cell_angle_beta   90.00000000
_cell_angle_gamma   91.98528639
_symmetry_Int_Tables_number   1
_chemical_formula_structural   Fe4O3F5
_chemical_formula_sum   'Fe8 O6 F10'
_cell_volume   290.55337741
_cell_formula_units_Z   2
loop_
 _symmetry_equiv_pos_site_id
 _symmetry_equiv_pos_as_xyz
  1  'x, y, z'
loop_
 _atom_site_type_symbol
 _atom_site_label
 _atom_site_symmetry_multiplicity
 _atom_site_fract_x
 _atom_site_fract_y
 _atom_site_fract_z
 _atom_site_occupancy
  Fe  Fe0  1  0.000000  0.000000  0.000000  1
  Fe  Fe1  1  0.000000  0.000000  0.500000  1
  Fe  Fe2  1  0.000000  0.500000  0.000000  1
  Fe  Fe3  1  0.000000  0.500000  0.500000  1
  Fe  Fe4  1  0.591342  0.241066  0.250000  1
  Fe  Fe5  1  0.539341  0.269333  0.750000  1
  Fe  Fe6  1  0.460659  0.730667  0.250000  1
  Fe  Fe7  1  0.408658  0.758934  0.750000  1
  O  O8  1  0.181035  0.907140  0.750000  1
  O  O9  1  0.286388  0.641783  0.002807  1
  O  O10  1  0.286388  0.641783  0.497193  1
  O  O11  1  0.713612  0.358217  0.997193  1
  O  O12  1  0.713612  0.358217  0.502807  1
  O  O13  1  0.818965  0.092860  0.250000  1
  F  F14  1  0.182434  0.406323  0.250000  1
  F  F15  1  0.199715  0.399712  0.750000  1
  F  F16  1  0.215514  0.895918  0.250000  1
  F  F17  1  0.327684  0.168607  0.997377  1
  F  F18  1  0.327684  0.168607  0.502623  1
  F  F19  1  0.672316  0.831393  0.002623  1
  F  F20  1  0.672316  0.831393  0.497377  1
  F  F21  1  0.817565  0.593677  0.750000  1
  F  F22  1  0.784486  0.104082  0.750000  1
  F  F23  1  0.800285  0.600288  0.250000  1
