# generated using pymatgen
data_Li3Mn2Fe(BO3)3
_symmetry_space_group_name_H-M   'P 1'
_cell_length_a   8.27475791
_cell_length_b   14.30438165
_cell_length_c   3.17140830
_cell_angle_alpha   90.00000000
_cell_angle_beta   90.00000000
_cell_angle_gamma   90.03605350
_symmetry_Int_Tables_number   1
_chemical_formula_structural   Li3Mn2Fe(BO3)3
_chemical_formula_sum   'Li6 Mn4 Fe2 B6 O18'
_cell_volume   375.38460516
_cell_formula_units_Z   2
loop_
 _symmetry_equiv_pos_site_id
 _symmetry_equiv_pos_as_xyz
  1  'x, y, z'
loop_
 _atom_site_type_symbol
 _atom_site_label
 _atom_site_symmetry_multiplicity
 _atom_site_fract_x
 _atom_site_fract_y
 _atom_site_fract_z
 _atom_site_occupancy
  Li  Li0  1  0.292254  0.990113  0.500000  1
  Li  Li1  1  0.339289  0.358842  0.500000  1
  Li  Li2  1  0.364850  0.650388  0.500000  1
  Li  Li3  1  0.793088  0.491932  0.500000  1
  Li  Li4  1  0.842292  0.856723  0.500000  1
  Li  Li5  1  0.867169  0.150786  0.500000  1
  Mn  Mn6  1  0.191571  0.179874  0.000000  1
  Mn  Mn7  1  0.634311  0.005470  0.000000  1
  Mn  Mn8  1  0.674066  0.314617  0.000000  1
  Mn  Mn9  1  0.692014  0.679954  0.000000  1
  Fe  Fe10  1  0.137647  0.504341  0.000000  1
  Fe  Fe11  1  0.175694  0.816191  0.000000  1
  B  B12  1  0.002662  0.666238  0.500000  1
  B  B13  1  0.999269  0.998800  0.000000  1
  B  B14  1  0.000960  0.334519  0.500000  1
  B  B15  1  0.499960  0.166704  0.500000  1
  B  B16  1  0.498702  0.500891  0.000000  1
  B  B17  1  0.497928  0.833334  0.500000  1
  O  O18  1  0.012339  0.431459  0.500000  1
  O  O19  1  0.019779  0.763177  0.500000  1
  O  O20  1  0.137881  0.608521  0.500000  1
  O  O21  1  0.140147  0.280145  0.500000  1
  O  O22  1  0.152825  0.958238  0.000000  1
  O  O23  1  0.347768  0.124941  0.500000  1
  O  O24  1  0.346880  0.790479  0.500000  1
  O  O25  1  0.361002  0.444181  0.000000  1
  O  O26  1  0.481524  0.597543  0.000000  1
  O  O27  1  0.509201  0.930225  0.500000  1
  O  O28  1  0.513555  0.263821  0.500000  1
  O  O29  1  0.638439  0.111605  0.500000  1
  O  O30  1  0.637936  0.779806  0.500000  1
  O  O31  1  0.652193  0.460756  0.000000  1
  O  O32  1  0.848505  0.626363  0.500000  1
  O  O33  1  0.850445  0.291306  0.500000  1
  O  O34  1  0.862967  0.941857  0.000000  1
  O  O35  1  0.982889  0.095860  0.000000  1
