# generated using pymatgen
data_V3O5F
_symmetry_space_group_name_H-M   'P 1'
_cell_length_a   4.62084666
_cell_length_b   4.62000141
_cell_length_c   9.05019859
_cell_angle_alpha   90.27073553
_cell_angle_beta   90.01956113
_cell_angle_gamma   90.00107961
_symmetry_Int_Tables_number   1
_chemical_formula_structural   V3O5F
_chemical_formula_sum   'V6 O10 F2'
_cell_volume   193.20435005
_cell_formula_units_Z   2
loop_
 _symmetry_equiv_pos_site_id
 _symmetry_equiv_pos_as_xyz
  1  'x, y, z'
loop_
 _atom_site_type_symbol
 _atom_site_label
 _atom_site_symmetry_multiplicity
 _atom_site_fract_x
 _atom_site_fract_y
 _atom_site_fract_z
 _atom_site_occupancy
  V  V0  1  0.004625  0.988034  0.007242  1
  V  V1  1  0.022725  0.022519  0.330997  1
  V  V2  1  0.005076  0.983507  0.656160  1
  V  V3  1  0.494325  0.484241  0.156164  1
  V  V4  1  0.477062  0.522291  0.831109  1
  V  V5  1  0.495386  0.487646  0.507137  1
  O  O6  1  0.208029  0.793261  0.177478  1
  O  O7  1  0.201690  0.804329  0.496088  1
  O  O8  1  0.192593  0.806035  0.831657  1
  O  O9  1  0.298115  0.304165  0.996163  1
  O  O10  1  0.307535  0.305773  0.331384  1
  O  O11  1  0.292566  0.293516  0.677505  1
  O  O12  1  0.688147  0.694036  0.993113  1
  O  O13  1  0.704284  0.708598  0.674428  1
  O  O14  1  0.795685  0.208506  0.174668  1
  O  O15  1  0.812169  0.194015  0.493195  1
  F  F16  1  0.700451  0.699767  0.332828  1
  F  F17  1  0.799539  0.199760  0.832683  1
