# generated using pymatgen
data_Ti17(NO4)6
_symmetry_space_group_name_H-M   'P 1'
_cell_length_a   10.39552605
_cell_length_b   11.47774007
_cell_length_c   11.30289787
_cell_angle_alpha   80.24244637
_cell_angle_beta   62.55042698
_cell_angle_gamma   68.39152316
_symmetry_Int_Tables_number   1
_chemical_formula_structural   Ti17(NO4)6
_chemical_formula_sum   'Ti34 N12 O48'
_cell_volume   1112.68807894
_cell_formula_units_Z   2
loop_
 _symmetry_equiv_pos_site_id
 _symmetry_equiv_pos_as_xyz
  1  'x, y, z'
loop_
 _atom_site_type_symbol
 _atom_site_label
 _atom_site_symmetry_multiplicity
 _atom_site_fract_x
 _atom_site_fract_y
 _atom_site_fract_z
 _atom_site_occupancy
  Ti  Ti0  1  0.102508  0.120848  0.071243  1
  Ti  Ti1  1  0.322714  0.101086  0.750309  1
  Ti  Ti2  1  0.078092  0.211149  0.571537  1
  Ti  Ti3  1  0.603578  0.123834  0.076573  1
  Ti  Ti4  1  0.431801  0.123519  0.422492  1
  Ti  Ti5  1  0.178627  0.231346  0.249046  1
  Ti  Ti6  1  0.584331  0.212348  0.557363  1
  Ti  Ti7  1  0.822663  0.103348  0.750612  1
  Ti  Ti8  1  0.398744  0.212702  0.924824  1
  Ti  Ti9  1  0.102821  0.453094  0.072293  1
  Ti  Ti10  1  0.922247  0.121275  0.429788  1
  Ti  Ti11  1  0.070961  0.551916  0.576703  1
  Ti  Ti12  1  0.891070  0.211700  0.946823  1
  Ti  Ti13  1  0.429039  0.448084  0.423297  1
  Ti  Ti14  1  0.321879  0.433212  0.749480  1
  Ti  Ti15  1  0.178121  0.566788  0.250520  1
  Ti  Ti16  1  0.604183  0.448070  0.076539  1
  Ti  Ti17  1  0.397179  0.546906  0.927707  1
  Ti  Ti18  1  0.101256  0.787298  0.075176  1
  Ti  Ti19  1  0.677538  0.568437  0.249596  1
  Ti  Ti20  1  0.573124  0.547332  0.571780  1
  Ti  Ti21  1  0.926876  0.452668  0.428220  1
  Ti  Ti22  1  0.822462  0.431563  0.750404  1
  Ti  Ti23  1  0.068199  0.876481  0.577508  1
  Ti  Ti24  1  0.177286  0.898914  0.249691  1
  Ti  Ti25  1  0.421908  0.788851  0.428463  1
  Ti  Ti26  1  0.895817  0.551930  0.923461  1
  Ti  Ti27  1  0.321373  0.768654  0.750954  1
  Ti  Ti28  1  0.608930  0.788300  0.053177  1
  Ti  Ti29  1  0.397492  0.879152  0.928757  1
  Ti  Ti30  1  0.915669  0.787652  0.442637  1
  Ti  Ti31  1  0.677337  0.896652  0.249388  1
  Ti  Ti32  1  0.577753  0.878725  0.570212  1
  Ti  Ti33  1  0.896422  0.876166  0.923427  1
  N  N34  1  0.108140  0.088526  0.250069  1
  N  N35  1  0.596131  0.079683  0.249340  1
  N  N36  1  0.105371  0.423916  0.250054  1
  N  N37  1  0.394524  0.244042  0.749092  1
  N  N38  1  0.595070  0.441355  0.249556  1
  N  N39  1  0.897847  0.243067  0.749403  1
  N  N40  1  0.105476  0.755958  0.250908  1
  N  N41  1  0.394629  0.576084  0.749946  1
  N  N42  1  0.602153  0.756934  0.250597  1
  N  N43  1  0.904930  0.558645  0.750444  1
  N  N44  1  0.391860  0.911474  0.749931  1
  N  N45  1  0.903869  0.920317  0.750660  1
  O  O46  1  0.029851  0.064326  0.566008  1
  O  O47  1  0.109877  0.150727  0.877716  1
  O  O48  1  0.260684  0.183709  0.381755  1
  O  O49  1  0.346666  0.062391  0.934345  1
  O  O50  1  0.529783  0.063630  0.561213  1
  O  O51  1  0.156282  0.270875  0.063128  1
  O  O52  1  0.238463  0.148384  0.619232  1
  O  O53  1  0.392012  0.183639  0.119261  1
  O  O54  1  0.028108  0.394818  0.563698  1
  O  O55  1  0.737645  0.150830  0.622905  1
  O  O56  1  0.606718  0.148863  0.881051  1
  O  O57  1  0.840884  0.065036  0.938415  1
  O  O58  1  0.451784  0.274930  0.448336  1
  O  O59  1  0.649932  0.274879  0.051449  1
  O  O60  1  0.761566  0.180708  0.390879  1
  O  O61  1  0.901226  0.181396  0.110760  1
  O  O62  1  0.261758  0.512390  0.380319  1
  O  O63  1  0.344889  0.395641  0.935816  1
  O  O64  1  0.107612  0.484374  0.881765  1
  O  O65  1  0.155111  0.604359  0.064184  1
  O  O66  1  0.238242  0.487610  0.619681  1
  O  O67  1  0.970273  0.270894  0.435242  1
  O  O68  1  0.530322  0.396047  0.561763  1
  O  O69  1  0.392388  0.515626  0.118235  1
  O  O70  1  0.048216  0.725070  0.551664  1
  O  O71  1  0.840298  0.395044  0.938253  1
  O  O72  1  0.471892  0.605182  0.436302  1
  O  O73  1  0.659702  0.604956  0.061747  1
  O  O74  1  0.761913  0.516100  0.381572  1
  O  O75  1  0.738087  0.483900  0.618428  1
  O  O76  1  0.893430  0.512849  0.120407  1
  O  O77  1  0.606570  0.487151  0.879593  1
  O  O78  1  0.261537  0.851616  0.380768  1
  O  O79  1  0.107988  0.816361  0.880739  1
  O  O80  1  0.343718  0.729125  0.936872  1
  O  O81  1  0.239316  0.816291  0.618245  1
  O  O82  1  0.529727  0.729106  0.564758  1
  O  O83  1  0.153334  0.937609  0.065655  1
  O  O84  1  0.390123  0.849273  0.122284  1
  O  O85  1  0.969678  0.603953  0.438237  1
  O  O86  1  0.470149  0.935674  0.433992  1
  O  O87  1  0.762355  0.849170  0.377095  1
  O  O88  1  0.893282  0.851137  0.118949  1
  O  O89  1  0.598774  0.818604  0.889240  1
  O  O90  1  0.659116  0.934964  0.061585  1
  O  O91  1  0.738434  0.819292  0.609121  1
  O  O92  1  0.850068  0.725121  0.948551  1
  O  O93  1  0.970217  0.936370  0.438787  1
