# generated using pymatgen
data_LiNiPO4
_symmetry_space_group_name_H-M   'P 1'
_cell_length_a   5.54984758
_cell_length_b   5.62795499
_cell_length_c   5.77399407
_cell_angle_alpha   59.13784667
_cell_angle_beta   90.00000000
_cell_angle_gamma   119.54195607
_symmetry_Int_Tables_number   1
_chemical_formula_structural   LiNiPO4
_chemical_formula_sum   'Li2 Ni2 P2 O8'
_cell_volume   126.72457878
_cell_formula_units_Z   2
loop_
 _symmetry_equiv_pos_site_id
 _symmetry_equiv_pos_as_xyz
  1  'x, y, z'
loop_
 _atom_site_type_symbol
 _atom_site_label
 _atom_site_symmetry_multiplicity
 _atom_site_fract_x
 _atom_site_fract_y
 _atom_site_fract_z
 _atom_site_occupancy
  Li  Li0  1  0.000000  0.000000  0.000000  1
  Li  Li1  1  0.500000  0.000000  0.000000  1
  Ni  Ni2  1  0.000000  0.500000  0.000000  1
  Ni  Ni3  1  0.000000  0.500000  0.500000  1
  P  P4  1  0.369938  0.239874  0.380062  1
  P  P5  1  0.630062  0.760126  0.619938  1
  O  O6  1  0.260911  0.021821  0.265336  1
  O  O7  1  0.739089  0.978179  0.287159  1
  O  O8  1  0.260339  0.479186  0.260407  1
  O  O9  1  0.718846  0.479186  0.260407  1
  O  O10  1  0.260911  0.021821  0.712841  1
  O  O11  1  0.739089  0.978179  0.734664  1
  O  O12  1  0.281154  0.520814  0.739593  1
  O  O13  1  0.739661  0.520814  0.739593  1
