# generated using pymatgen
data_Na5Co2As(CO4)4
_symmetry_space_group_name_H-M   'P 1'
_cell_length_a   10.02301401
_cell_length_b   9.98430602
_cell_length_c   10.01654385
_cell_angle_alpha   119.85075893
_cell_angle_beta   59.76590387
_cell_angle_gamma   119.91514494
_symmetry_Int_Tables_number   1
_chemical_formula_structural   Na5Co2As(CO4)4
_chemical_formula_sum   'Na10 Co4 As2 C8 O32'
_cell_volume   708.77435350
_cell_formula_units_Z   2
loop_
 _symmetry_equiv_pos_site_id
 _symmetry_equiv_pos_as_xyz
  1  'x, y, z'
loop_
 _atom_site_type_symbol
 _atom_site_label
 _atom_site_symmetry_multiplicity
 _atom_site_fract_x
 _atom_site_fract_y
 _atom_site_fract_z
 _atom_site_occupancy
  Na  Na0  1  0.911442  0.161442  0.911442  1
  Na  Na1  1  0.911315  0.161315  0.338685  1
  Na  Na2  1  0.911187  0.588813  0.338813  1
  Na  Na3  1  0.659524  0.409524  0.090476  1
  Na  Na4  1  0.338813  0.161187  0.911187  1
  Na  Na5  1  0.659710  0.840290  0.090290  1
  Na  Na6  1  0.338558  0.588558  0.338558  1
  Na  Na7  1  0.338685  0.588685  0.911315  1
  Na  Na8  1  0.090290  0.409710  0.659710  1
  Na  Na9  1  0.090476  0.840476  0.659524  1
  Co  Co10  1  0.495521  0.997938  0.000184  1
  Co  Co11  1  0.502062  0.004479  0.502233  1
  Co  Co12  1  0.502233  0.499816  0.502062  1
  Co  Co13  1  0.000184  0.997767  0.495521  1
  As  As14  1  0.875000  0.625000  0.875000  1
  As  As15  1  0.125000  0.375000  0.125000  1
  C  C16  1  0.713129  0.137763  0.711839  1
  C  C17  1  0.639170  0.212891  0.285222  1
  C  C18  1  0.285222  0.211499  0.639170  1
  C  C19  1  0.288501  0.214778  0.287109  1
  C  C20  1  0.711839  0.787205  0.713129  1
  C  C21  1  0.712795  0.788161  0.362237  1
  C  C22  1  0.362237  0.786871  0.712795  1
  C  C23  1  0.287109  0.860830  0.288501  1
  O  O24  1  0.856876  0.144982  0.686677  1
  O  O25  1  0.643037  0.100246  0.311643  1
  O  O26  1  0.684980  0.132364  0.596722  1
  O  O27  1  0.642680  0.183427  0.141007  1
  O  O28  1  0.600927  0.144512  0.855639  1
  O  O29  1  0.937419  0.539373  0.936758  1
  O  O30  1  0.960627  0.562581  0.665196  1
  O  O31  1  0.642348  0.355039  0.393638  1
  O  O32  1  0.319053  0.106362  0.144961  1
  O  O33  1  0.393638  0.180947  0.642348  1
  O  O34  1  0.936758  0.834804  0.937419  1
  O  O35  1  0.665196  0.563242  0.960627  1
  O  O36  1  0.855639  0.812054  0.600927  1
  O  O37  1  0.687946  0.644361  0.355488  1
  O  O38  1  0.141007  0.100260  0.642680  1
  O  O39  1  0.399740  0.358993  0.316573  1
  O  O40  1  0.850662  0.903278  0.367636  1
  O  O41  1  0.596722  0.649338  0.684980  1
  O  O42  1  0.311643  0.354434  0.643037  1
  O  O43  1  0.145566  0.188357  0.399754  1
  O  O44  1  0.335400  0.446426  0.057102  1
  O  O45  1  0.053574  0.164600  0.053922  1
  O  O46  1  0.686677  0.898571  0.856876  1
  O  O47  1  0.601429  0.813323  0.355018  1
  O  O48  1  0.355018  0.643124  0.601429  1
  O  O49  1  0.053922  0.442898  0.053574  1
  O  O50  1  0.057102  0.446078  0.335400  1
  O  O51  1  0.399754  0.856963  0.145566  1
  O  O52  1  0.367636  0.815020  0.850662  1
  O  O53  1  0.316573  0.857320  0.399740  1
  O  O54  1  0.355488  0.899073  0.687946  1
  O  O55  1  0.144961  0.857652  0.319053  1
