# generated using pymatgen
data_MnH(CO)4
_symmetry_space_group_name_H-M   'P 1'
_cell_length_a   8.28412867
_cell_length_b   14.93727850
_cell_length_c   9.11974236
_cell_angle_alpha   105.46720056
_cell_angle_beta   118.40858475
_cell_angle_gamma   96.56910780
_symmetry_Int_Tables_number   1
_chemical_formula_structural   MnH(CO)4
_chemical_formula_sum   'Mn6 H6 C24 O24'
_cell_volume   917.08566305
_cell_formula_units_Z   6
loop_
 _symmetry_equiv_pos_site_id
 _symmetry_equiv_pos_as_xyz
  1  'x, y, z'
loop_
 _atom_site_type_symbol
 _atom_site_label
 _atom_site_symmetry_multiplicity
 _atom_site_fract_x
 _atom_site_fract_y
 _atom_site_fract_z
 _atom_site_occupancy
  Mn  Mn0  1  0.840351  0.708874  0.815161  1
  Mn  Mn1  1  0.159649  0.291126  0.184839  1
  Mn  Mn2  1  0.026880  0.717582  0.216723  1
  Mn  Mn3  1  0.973120  0.282418  0.783277  1
  Mn  Mn4  1  0.770013  0.846737  0.085682  1
  Mn  Mn5  1  0.229987  0.153263  0.914318  1
  H  H6  1  0.940079  0.676410  0.994535  1
  H  H7  1  0.059921  0.323590  0.005465  1
  H  H8  1  0.907718  0.801345  0.247535  1
  H  H9  1  0.092282  0.198655  0.752465  1
  H  H10  1  0.754417  0.799517  0.882046  1
  H  H11  1  0.245583  0.200483  0.117954  1
  C  C12  1  0.616579  0.616265  0.736522  1
  C  C13  1  0.383421  0.383735  0.263478  1
  C  C14  1  0.724374  0.730820  0.606409  1
  C  C15  1  0.275626  0.269180  0.393591  1
  C  C16  1  0.061275  0.803682  0.897861  1
  C  C17  1  0.938725  0.196318  0.102139  1
  C  C18  1  0.926969  0.614723  0.724378  1
  C  C19  1  0.073031  0.385277  0.275622  1
  C  C20  1  0.816802  0.620380  0.152759  1
  C  C21  1  0.183198  0.379620  0.847241  1
  C  C22  1  0.157606  0.628511  0.204447  1
  C  C23  1  0.842394  0.371489  0.795553  1
  C  C24  1  0.237992  0.817314  0.289163  1
  C  C25  1  0.762008  0.182686  0.710837  1
  C  C26  1  0.111738  0.737725  0.450086  1
  C  C27  1  0.888262  0.262275  0.549914  1
  C  C28  1  0.558447  0.750847  0.023719  1
  C  C29  1  0.441553  0.249153  0.976281  1
  C  C30  1  0.767010  0.919586  0.279642  1
  C  C31  1  0.232990  0.080414  0.720358  1
  C  C32  1  0.983702  0.943820  0.157365  1
  C  C33  1  0.016298  0.056180  0.842635  1
  C  C34  1  0.612448  0.900812  0.936678  1
  C  C35  1  0.387552  0.099188  0.063322  1
  O  O36  1  0.477240  0.556803  0.679420  1
  O  O37  1  0.522760  0.443197  0.320580  1
  O  O38  1  0.652688  0.743896  0.472386  1
  O  O39  1  0.347312  0.256104  0.527614  1
  O  O40  1  0.195809  0.862399  0.941083  1
  O  O41  1  0.804191  0.137601  0.058917  1
  O  O42  1  0.979370  0.554824  0.664672  1
  O  O43  1  0.020630  0.445176  0.335328  1
  O  O44  1  0.694878  0.558544  0.122426  1
  O  O45  1  0.305122  0.441456  0.877574  1
  O  O46  1  0.239188  0.570873  0.197914  1
  O  O47  1  0.760812  0.429127  0.802086  1
  O  O48  1  0.375805  0.877315  0.344563  1
  O  O49  1  0.624195  0.122685  0.655437  1
  O  O50  1  0.165171  0.746210  0.597476  1
  O  O51  1  0.834829  0.253790  0.402524  1
  O  O52  1  0.424739  0.696353  0.992228  1
  O  O53  1  0.575261  0.303647  0.007772  1
  O  O54  1  0.769623  0.968138  0.403591  1
  O  O55  1  0.230377  0.031862  0.596409  1
  O  O56  1  0.109911  0.008387  0.202757  1
  O  O57  1  0.890089  0.991613  0.797243  1
  O  O58  1  0.513009  0.932883  0.837428  1
  O  O59  1  0.486991  0.067117  0.162572  1
