# generated using pymatgen
data_Fe6O5F7
_symmetry_space_group_name_H-M   'P 1'
_cell_length_a   4.78165039
_cell_length_b   7.83073137
_cell_length_c   5.69718886
_cell_angle_alpha   94.60075264
_cell_angle_beta   91.12961780
_cell_angle_gamma   89.41118260
_symmetry_Int_Tables_number   1
_chemical_formula_structural   Fe6O5F7
_chemical_formula_sum   'Fe6 O5 F7'
_cell_volume   212.58772615
_cell_formula_units_Z   1
loop_
 _symmetry_equiv_pos_site_id
 _symmetry_equiv_pos_as_xyz
  1  'x, y, z'
loop_
 _atom_site_type_symbol
 _atom_site_label
 _atom_site_symmetry_multiplicity
 _atom_site_fract_x
 _atom_site_fract_y
 _atom_site_fract_z
 _atom_site_occupancy
  Fe  Fe0  1  0.530158  0.671576  0.152612  1
  Fe  Fe1  1  0.532783  0.001968  0.492085  1
  Fe  Fe2  1  0.458861  0.348972  0.813389  1
  Fe  Fe3  1  0.987602  0.676832  0.676480  1
  Fe  Fe4  1  0.009954  0.311550  0.348190  1
  Fe  Fe5  1  0.975527  0.992327  0.013383  1
  O  O6  1  0.798983  0.760758  0.954817  1
  O  O7  1  0.802065  0.108562  0.307682  1
  O  O8  1  0.696647  0.766125  0.458489  1
  O  O9  1  0.299378  0.567894  0.872084  1
  O  O10  1  0.307698  0.228137  0.537727  1
  F  F11  1  0.805220  0.432042  0.631364  1
  F  F12  1  0.689660  0.116837  0.798124  1
  F  F13  1  0.700176  0.427132  0.128864  1
  F  F14  1  0.312127  0.895995  0.207372  1
  F  F15  1  0.203406  0.235710  0.039282  1
  F  F16  1  0.184762  0.555648  0.372019  1
  F  F17  1  0.204995  0.901934  0.696035  1
