# generated using pymatgen
data_LiMn2(BO3)2
_symmetry_space_group_name_H-M   'P 1'
_cell_length_a   5.77978740
_cell_length_b   5.30145472
_cell_length_c   22.21411772
_cell_angle_alpha   89.28641360
_cell_angle_beta   90.88875053
_cell_angle_gamma   114.15407355
_symmetry_Int_Tables_number   1
_chemical_formula_structural   LiMn2(BO3)2
_chemical_formula_sum   'Li5 Mn10 B10 O30'
_cell_volume   620.98673839
_cell_formula_units_Z   5
loop_
 _symmetry_equiv_pos_site_id
 _symmetry_equiv_pos_as_xyz
  1  'x, y, z'
loop_
 _atom_site_type_symbol
 _atom_site_label
 _atom_site_symmetry_multiplicity
 _atom_site_fract_x
 _atom_site_fract_y
 _atom_site_fract_z
 _atom_site_occupancy
  Li  Li0  1  0.857136  0.028416  0.813037  1
  Li  Li1  1  0.743107  0.773416  0.587257  1
  Li  Li2  1  0.256762  0.226681  0.413247  1
  Li  Li3  1  0.146092  0.979882  0.187814  1
  Li  Li4  1  0.344317  0.575996  0.988415  1
  Mn  Mn5  1  0.864544  0.526169  0.879979  1
  Mn  Mn6  1  0.734287  0.276109  0.520545  1
  Mn  Mn7  1  0.922446  0.869907  0.325459  1
  Mn  Mn8  1  0.474458  0.325396  0.277117  1
  Mn  Mn9  1  0.677212  0.929627  0.076488  1
  Mn  Mn10  1  0.331852  0.076383  0.922656  1
  Mn  Mn11  1  0.524264  0.671763  0.724982  1
  Mn  Mn12  1  0.075876  0.128609  0.675216  1
  Mn  Mn13  1  0.265611  0.723695  0.479768  1
  Mn  Mn14  1  0.135730  0.475555  0.122389  1
  B  B15  1  0.997601  0.576714  0.749545  1
  B  B16  1  0.602032  0.223446  0.650617  1
  B  B17  1  0.802481  0.826709  0.455809  1
  B  B18  1  0.598636  0.376223  0.145582  1
  B  B19  1  0.795957  0.972632  0.943928  1
  B  B20  1  0.198931  0.020693  0.052591  1
  B  B21  1  0.401953  0.627805  0.856350  1
  B  B22  1  0.196915  0.172077  0.544281  1
  B  B23  1  0.397713  0.776864  0.350046  1
  B  B24  1  0.005705  0.425632  0.250813  1
  O  O25  1  0.884781  0.004689  0.408075  1
  O  O26  1  0.931753  0.407793  0.798553  1
  O  O27  1  0.864994  0.483326  0.294761  1
  O  O28  1  0.685673  0.010009  0.659041  1
  O  O29  1  0.886417  0.621326  0.466439  1
  O  O30  1  0.709401  0.177635  0.932332  1
  O  O31  1  0.914925  0.791157  0.740686  1
  O  O32  1  0.773451  0.349644  0.105414  1
  O  O33  1  0.953565  0.943269  0.898335  1
  O  O34  1  0.667074  0.393943  0.601584  1
  O  O35  1  0.511812  0.202948  0.192923  1
  O  O36  1  0.713031  0.797238  0.990811  1
  O  O37  1  0.453877  0.268724  0.694707  1
  O  O38  1  0.650113  0.862816  0.501295  1
  O  O39  1  0.487176  0.423104  0.868290  1
  O  O40  1  0.502965  0.573126  0.130472  1
  O  O41  1  0.352615  0.140122  0.498693  1
  O  O42  1  0.552302  0.740403  0.306037  1
  O  O43  1  0.255492  0.193413  0.004097  1
  O  O44  1  0.486100  0.802961  0.808796  1
  O  O45  1  0.333014  0.604806  0.398242  1
  O  O46  1  0.076061  0.074106  0.102213  1
  O  O47  1  0.245712  0.661999  0.901443  1
  O  O48  1  0.075865  0.204127  0.258995  1
  O  O49  1  0.266031  0.796753  0.056702  1
  O  O50  1  0.111242  0.377462  0.533043  1
  O  O51  1  0.308256  0.987857  0.341741  1
  O  O52  1  0.145647  0.530498  0.705391  1
  O  O53  1  0.080120  0.599404  0.201876  1
  O  O54  1  0.114149  0.995458  0.591332  1
