# generated using pymatgen
data_Li2FePCO7
_symmetry_space_group_name_H-M   'P 1'
_cell_length_a   9.37477862
_cell_length_b   10.17008216
_cell_length_c   6.50418349
_cell_angle_alpha   90.23332188
_cell_angle_beta   90.64544689
_cell_angle_gamma   62.19488515
_symmetry_Int_Tables_number   1
_chemical_formula_structural   Li2FePCO7
_chemical_formula_sum   'Li8 Fe4 P4 C4 O28'
_cell_volume   548.48843271
_cell_formula_units_Z   4
loop_
 _symmetry_equiv_pos_site_id
 _symmetry_equiv_pos_as_xyz
  1  'x, y, z'
loop_
 _atom_site_type_symbol
 _atom_site_label
 _atom_site_symmetry_multiplicity
 _atom_site_fract_x
 _atom_site_fract_y
 _atom_site_fract_z
 _atom_site_occupancy
  Li  Li0  1  0.902484  0.429782  0.746950  1
  Li  Li1  1  0.902250  0.931384  0.743536  1
  Li  Li2  1  0.723296  0.265100  0.966984  1
  Li  Li3  1  0.723223  0.765189  0.535847  1
  Li  Li4  1  0.276102  0.237342  0.031929  1
  Li  Li5  1  0.274335  0.737836  0.030001  1
  Li  Li6  1  0.094937  0.072267  0.265534  1
  Li  Li7  1  0.097392  0.569508  0.252499  1
  Fe  Fe8  1  0.670873  0.063625  0.254324  1
  Fe  Fe9  1  0.670250  0.564251  0.245803  1
  Fe  Fe10  1  0.329282  0.435542  0.740585  1
  Fe  Fe11  1  0.329415  0.935491  0.738552  1
  P  P12  1  0.579764  0.071563  0.753366  1
  P  P13  1  0.580329  0.571066  0.755637  1
  P  P14  1  0.419687  0.428242  0.240157  1
  P  P15  1  0.419425  0.928575  0.247717  1
  C  C16  1  0.960149  0.370435  0.240212  1
  C  C17  1  0.960765  0.869960  0.244519  1
  C  C18  1  0.040882  0.128925  0.771071  1
  C  C19  1  0.039982  0.629799  0.747600  1
  O  O20  1  0.923512  0.011843  0.239996  1
  O  O21  1  0.923574  0.511413  0.259485  1
  O  O22  1  0.898561  0.234077  0.783226  1
  O  O23  1  0.835415  0.344338  0.243728  1
  O  O24  1  0.898648  0.735373  0.724035  1
  O  O25  1  0.837377  0.844472  0.273991  1
  O  O26  1  0.697285  0.056114  0.934469  1
  O  O27  1  0.679353  0.062560  0.560512  1
  O  O28  1  0.696444  0.552104  0.938505  1
  O  O29  1  0.682314  0.564108  0.564789  1
  O  O30  1  0.579726  0.282361  0.227309  1
  O  O31  1  0.539482  0.438819  0.763489  1
  O  O32  1  0.578717  0.783550  0.278877  1
  O  O33  1  0.539558  0.939002  0.743387  1
  O  O34  1  0.460921  0.059278  0.218777  1
  O  O35  1  0.420935  0.217376  0.773799  1
  O  O36  1  0.459456  0.560581  0.217725  1
  O  O37  1  0.420942  0.717087  0.767211  1
  O  O38  1  0.321071  0.445986  0.436783  1
  O  O39  1  0.301809  0.435520  0.064332  1
  O  O40  1  0.315772  0.924941  0.062475  1
  O  O41  1  0.306193  0.957866  0.434471  1
  O  O42  1  0.166175  0.154114  0.773801  1
  O  O43  1  0.101982  0.265748  0.218781  1
  O  O44  1  0.164497  0.654796  0.773056  1
  O  O45  1  0.101666  0.764648  0.220136  1
  O  O46  1  0.076565  0.488165  0.742132  1
  O  O47  1  0.077229  0.987878  0.751874  1
