# generated using pymatgen
data_LuAlO3
_symmetry_space_group_name_H-M   'P 1'
_cell_length_a   3.38960763
_cell_length_b   3.38957833
_cell_length_c   11.46932685
_cell_angle_alpha   90.00091444
_cell_angle_beta   89.99948559
_cell_angle_gamma   120.00045880
_symmetry_Int_Tables_number   1
_chemical_formula_structural   LuAlO3
_chemical_formula_sum   'Lu2 Al2 O6'
_cell_volume   114.11997193
_cell_formula_units_Z   2
loop_
 _symmetry_equiv_pos_site_id
 _symmetry_equiv_pos_as_xyz
  1  'x, y, z'
loop_
 _atom_site_type_symbol
 _atom_site_label
 _atom_site_symmetry_multiplicity
 _atom_site_fract_x
 _atom_site_fract_y
 _atom_site_fract_z
 _atom_site_occupancy
  Lu  Lu0  1  0.999992  0.000026  -0.000003  1
  Lu  Lu1  1  0.000006  0.000034  0.500002  1
  Al  Al2  1  0.333335  0.666677  0.250005  1
  Al  Al3  1  0.666660  0.333333  0.749996  1
  O  O4  1  0.333326  0.666685  0.089863  1
  O  O5  1  0.333338  0.666705  0.410137  1
  O  O6  1  0.000008  0.000014  0.250004  1
  O  O7  1  -0.000002  0.000008  0.749999  1
  O  O8  1  0.666672  0.333358  0.910136  1
  O  O9  1  0.666665  0.333359  0.589863  1
