# generated using pymatgen
data_Li5V3P8O29
_symmetry_space_group_name_H-M   'P 1'
_cell_length_a   9.76911157
_cell_length_b   9.78189907
_cell_length_c   14.00008022
_cell_angle_alpha   90.23886392
_cell_angle_beta   90.08952640
_cell_angle_gamma   60.22105394
_symmetry_Int_Tables_number   1
_chemical_formula_structural   Li5V3P8O29
_chemical_formula_sum   'Li10 V6 P16 O58'
_cell_volume   1161.17756435
_cell_formula_units_Z   2
loop_
 _symmetry_equiv_pos_site_id
 _symmetry_equiv_pos_as_xyz
  1  'x, y, z'
loop_
 _atom_site_type_symbol
 _atom_site_label
 _atom_site_symmetry_multiplicity
 _atom_site_fract_x
 _atom_site_fract_y
 _atom_site_fract_z
 _atom_site_occupancy
  Li  Li0  1  0.913417  0.773357  0.060321  1
  Li  Li1  1  0.763745  0.907411  0.558053  1
  Li  Li2  1  0.900211  0.337371  0.557843  1
  Li  Li3  1  0.767698  0.327779  0.063196  1
  Li  Li4  1  0.325529  0.903399  0.060669  1
  Li  Li5  1  0.336916  0.767512  0.557506  1
  Li  Li6  1  0.680529  0.090463  0.941236  1
  Li  Li7  1  0.101513  0.664454  0.438727  1
  Li  Li8  1  0.092908  0.222809  0.941480  1
  Li  Li9  1  0.983063  0.039266  0.491333  1
  V  V10  1  0.562564  0.431170  0.253693  1
  V  V11  1  0.432145  0.567725  0.752003  1
  V  V12  1  0.566134  0.998919  0.745567  1
  V  V13  1  0.431087  0.000921  0.254110  1
  V  V14  1  0.999707  0.567567  0.247794  1
  V  V15  1  0.000136  0.432262  0.750795  1
  P  P16  1  0.910895  0.769542  0.842111  1
  P  P17  1  0.775114  0.912149  0.343600  1
  P  P18  1  0.910677  0.315045  0.341502  1
  P  P19  1  0.664821  0.665309  0.129583  1
  P  P20  1  0.666029  0.663805  0.627821  1
  P  P21  1  0.766634  0.318795  0.844657  1
  P  P22  1  0.690028  0.226828  0.658491  1
  P  P23  1  0.320057  0.912106  0.842534  1
  P  P24  1  0.681644  0.086928  0.160284  1
  P  P25  1  0.314045  0.771148  0.341883  1
  P  P26  1  0.230750  0.684253  0.156418  1
  P  P27  1  0.328943  0.336774  0.372293  1
  P  P28  1  0.336802  0.329992  0.870103  1
  P  P29  1  0.088198  0.684773  0.659135  1
  P  P30  1  0.223022  0.084723  0.658575  1
  P  P31  1  0.088961  0.229764  0.159456  1
  O  O32  1  0.003628  0.773796  0.570023  1
  O  O33  1  0.919963  0.742608  0.335547  1
  O  O34  1  0.760240  0.999460  0.069954  1
  O  O35  1  0.743815  0.917651  0.836458  1
  O  O36  1  0.900926  0.618424  0.819383  1
  O  O37  1  0.813087  0.672284  0.169274  1
  O  O38  1  0.912558  0.469122  0.331294  1
  O  O39  1  0.997133  0.245033  0.069981  1
  O  O40  1  0.916481  0.334302  0.843210  1
  O  O41  1  0.678492  0.809259  0.666193  1
  O  O42  1  0.621072  0.909460  0.331866  1
  O  O43  1  0.810530  0.509618  0.666118  1
  O  O44  1  0.669364  0.656989  0.022956  1
  O  O45  1  0.654362  0.666145  0.521284  1
  O  O46  1  0.669009  0.513534  0.172764  1
  O  O47  1  0.479514  0.901243  0.822258  1
  O  O48  1  0.513239  0.813850  0.168806  1
  O  O49  1  0.740555  0.342127  0.330210  1
  O  O50  1  0.786291  0.203195  0.757832  1
  O  O51  1  0.794757  0.216458  0.577526  1
  O  O52  1  0.749826  0.248130  0.935876  1
  O  O53  1  0.618624  0.480075  0.822972  1
  O  O54  1  0.510625  0.675054  0.672290  1
  O  O55  1  0.660783  0.254745  0.159898  1
  O  O56  1  0.472383  0.616228  0.328345  1
  O  O57  1  0.341778  0.912512  0.336482  1
  O  O58  1  0.793248  0.001503  0.250925  1
  O  O59  1  0.792513  0.985750  0.433611  1
  O  O60  1  0.208936  0.993988  0.576532  1
  O  O61  1  0.660453  0.085022  0.656882  1
  O  O62  1  0.534669  0.384286  0.670311  1
  O  O63  1  0.340443  0.744492  0.834446  1
  O  O64  1  0.481422  0.332974  0.323578  1
  O  O65  1  0.381723  0.524581  0.176569  1
  O  O66  1  0.241447  0.769740  0.072877  1
  O  O67  1  0.230250  0.772495  0.432795  1
  O  O68  1  0.203289  0.788363  0.253652  1
  O  O69  1  0.257632  0.662783  0.661085  1
  O  O70  1  0.487495  0.183393  0.828779  1
  O  O71  1  0.522948  0.094129  0.178451  1
  O  O72  1  0.337432  0.477287  0.820108  1
  O  O73  1  0.341061  0.336838  0.975948  1
  O  O74  1  0.339372  0.344046  0.477776  1
  O  O75  1  0.186168  0.492013  0.332849  1
  O  O76  1  0.380642  0.084498  0.667726  1
  O  O77  1  0.324507  0.193580  0.328317  1
  O  O78  1  0.084217  0.662118  0.156000  1
  O  O79  1  0.002502  0.791329  0.752099  1
  O  O80  1  0.990844  0.758898  0.933680  1
  O  O81  1  0.093389  0.527363  0.671434  1
  O  O82  1  0.186537  0.326996  0.832343  1
  O  O83  1  0.100187  0.379702  0.178035  1
  O  O84  1  0.254287  0.082349  0.158332  1
  O  O85  1  0.246515  0.995382  0.934334  1
  O  O86  1  0.201484  0.010759  0.757319  1
  O  O87  1  0.082555  0.256616  0.660733  1
  O  O88  1  0.980485  0.226020  0.432080  1
  O  O89  1  0.002628  0.205090  0.250509  1
