# generated using pymatgen
data_Li4Fe7(OF7)2
_symmetry_space_group_name_H-M   'P 1'
_cell_length_a   6.18790530
_cell_length_b   6.25717889
_cell_length_c   10.80198431
_cell_angle_alpha   107.07985723
_cell_angle_beta   91.09905104
_cell_angle_gamma   59.97537536
_symmetry_Int_Tables_number   1
_chemical_formula_structural   Li4Fe7(OF7)2
_chemical_formula_sum   'Li4 Fe7 O2 F14'
_cell_volume   341.99552198
_cell_formula_units_Z   1
loop_
 _symmetry_equiv_pos_site_id
 _symmetry_equiv_pos_as_xyz
  1  'x, y, z'
loop_
 _atom_site_type_symbol
 _atom_site_label
 _atom_site_symmetry_multiplicity
 _atom_site_fract_x
 _atom_site_fract_y
 _atom_site_fract_z
 _atom_site_occupancy
  Li  Li0  1  0.594125  0.799437  0.125526  1
  Li  Li1  1  0.018012  0.978290  0.992517  1
  Li  Li2  1  0.106988  0.771710  0.632483  1
  Li  Li3  1  0.530875  0.950563  0.499474  1
  Fe  Fe4  1  0.062500  0.875000  0.312500  1
  Fe  Fe5  1  0.301603  0.370870  0.061918  1
  Fe  Fe6  1  0.562500  0.375000  0.312500  1
  Fe  Fe7  1  0.062500  0.375000  0.312500  1
  Fe  Fe8  1  0.562500  0.875000  0.812500  1
  Fe  Fe9  1  0.823397  0.379130  0.563082  1
  Fe  Fe10  1  0.562500  0.375000  0.812500  1
  O  O11  1  0.726916  0.550693  0.424608  1
  O  O12  1  0.398084  0.199307  0.200392  1
  F  F13  1  0.927775  0.646365  0.188015  1
  F  F14  1  0.414959  0.649097  0.192184  1
  F  F15  1  0.178081  0.645030  0.438759  1
  F  F16  1  0.946919  0.104970  0.186241  1
  F  F17  1  0.710041  0.100903  0.432816  1
  F  F18  1  0.197225  0.103635  0.436985  1
  F  F19  1  0.905361  0.651633  0.692011  1
  F  F20  1  0.440892  0.624891  0.689906  1
  F  F21  1  0.906722  0.153038  0.679169  1
  F  F22  1  0.471278  0.117304  0.693737  1
  F  F23  1  0.218278  0.596962  0.945831  1
  F  F24  1  0.653722  0.632696  0.931263  1
  F  F25  1  0.219639  0.098367  0.932989  1
  F  F26  1  0.684108  0.125109  0.935094  1
