# generated using pymatgen
data_NaCrCSO7
_symmetry_space_group_name_H-M   'P 1'
_cell_length_a   9.06159946
_cell_length_b   6.43428235
_cell_length_c   5.29649762
_cell_angle_alpha   90.00000000
_cell_angle_beta   87.65369080
_cell_angle_gamma   90.00000000
_symmetry_Int_Tables_number   1
_chemical_formula_structural   NaCrCSO7
_chemical_formula_sum   'Na2 Cr2 C2 S2 O14'
_cell_volume   308.55281080
_cell_formula_units_Z   2
loop_
 _symmetry_equiv_pos_site_id
 _symmetry_equiv_pos_as_xyz
  1  'x, y, z'
loop_
 _atom_site_type_symbol
 _atom_site_label
 _atom_site_symmetry_multiplicity
 _atom_site_fract_x
 _atom_site_fract_y
 _atom_site_fract_z
 _atom_site_occupancy
  Na  Na0  1  0.221051  0.485112  0.238360  1
  Na  Na1  1  0.778949  0.985112  0.761640  1
  Cr  Cr2  1  0.340171  0.759403  0.779453  1
  Cr  Cr3  1  0.659829  0.259403  0.220547  1
  C  C4  1  0.078243  0.742287  0.724199  1
  C  C5  1  0.921757  0.242287  0.275801  1
  S  S6  1  0.428170  0.254713  0.723271  1
  S  S7  1  0.571830  0.754713  0.276729  1
  O  O8  1  0.055342  0.243161  0.306764  1
  O  O9  1  0.142143  0.744922  0.946622  1
  O  O10  1  0.182765  0.741223  0.536968  1
  O  O11  1  0.332807  0.074236  0.782761  1
  O  O12  1  0.339374  0.439745  0.802706  1
  O  O13  1  0.432644  0.745464  0.138809  1
  O  O14  1  0.464418  0.267584  0.445467  1
  O  O15  1  0.535582  0.767584  0.554533  1
  O  O16  1  0.567356  0.245464  0.861191  1
  O  O17  1  0.660626  0.939745  0.197294  1
  O  O18  1  0.667193  0.574236  0.217239  1
  O  O19  1  0.817235  0.241223  0.463032  1
  O  O20  1  0.857857  0.244922  0.053378  1
  O  O21  1  0.944658  0.743161  0.693236  1
