# generated using pymatgen
data_LiFe2(PO4)2
_symmetry_space_group_name_H-M   'P 1'
_cell_length_a   8.88316027
_cell_length_b   8.17902524
_cell_length_c   15.25044765
_cell_angle_alpha   89.63677564
_cell_angle_beta   90.27516763
_cell_angle_gamma   89.54651569
_symmetry_Int_Tables_number   1
_chemical_formula_structural   LiFe2(PO4)2
_chemical_formula_sum   'Li6 Fe12 P12 O48'
_cell_volume   1107.96028592
_cell_formula_units_Z   6
loop_
 _symmetry_equiv_pos_site_id
 _symmetry_equiv_pos_as_xyz
  1  'x, y, z'
loop_
 _atom_site_type_symbol
 _atom_site_label
 _atom_site_symmetry_multiplicity
 _atom_site_fract_x
 _atom_site_fract_y
 _atom_site_fract_z
 _atom_site_occupancy
  Li  Li0  1  0.227180  0.944587  0.904744  1
  Li  Li1  1  0.256955  0.696094  0.250705  1
  Li  Li2  1  0.249248  0.433221  0.589776  1
  Li  Li3  1  0.745665  0.310858  0.751189  1
  Li  Li4  1  0.774632  0.054041  0.097481  1
  Li  Li5  1  0.767237  0.944512  0.441080  1
  Fe  Fe6  1  0.044777  0.732199  0.093743  1
  Fe  Fe7  1  0.078307  0.794785  0.726539  1
  Fe  Fe8  1  0.106206  0.736335  0.432612  1
  Fe  Fe9  1  0.382569  0.219368  0.072658  1
  Fe  Fe10  1  0.403468  0.273003  0.769885  1
  Fe  Fe11  1  0.449857  0.216278  0.403593  1
  Fe  Fe12  1  0.548187  0.779516  0.601126  1
  Fe  Fe13  1  0.598769  0.715014  0.229870  1
  Fe  Fe14  1  0.616038  0.779475  0.923941  1
  Fe  Fe15  1  0.887644  0.266563  0.570684  1
  Fe  Fe16  1  0.921704  0.214750  0.272836  1
  Fe  Fe17  1  0.956872  0.271831  0.907795  1
  P  P18  1  0.045800  0.328443  0.095970  1
  P  P19  1  0.086574  0.173674  0.727575  1
  P  P20  1  0.118667  0.335255  0.427031  1
  P  P21  1  0.394668  0.838364  0.076095  1
  P  P22  1  0.405049  0.665844  0.774037  1
  P  P23  1  0.440839  0.835414  0.408948  1
  P  P24  1  0.559291  0.160925  0.591856  1
  P  P25  1  0.590215  0.324676  0.224941  1
  P  P26  1  0.607459  0.159331  0.923028  1
  P  P27  1  0.878558  0.667453  0.574960  1
  P  P28  1  0.916247  0.837959  0.272377  1
  P  P29  1  0.953903  0.673619  0.902439  1
  O  O30  1  0.026025  0.655008  0.633138  1
  O  O31  1  0.017728  0.503823  0.886107  1
  O  O32  1  0.054256  0.779266  0.963016  1
  O  O33  1  0.066415  0.751799  0.297498  1
  O  O34  1  0.076461  0.225364  0.504605  1
  O  O35  1  0.066863  0.234742  0.185283  1
  O  O36  1  0.101776  0.142634  0.828339  1
  O  O37  1  0.090865  0.006192  0.679277  1
  O  O38  1  0.172193  0.502261  0.462936  1
  O  O39  1  0.206155  0.340293  0.053914  1
  O  O40  1  0.217568  0.281226  0.693605  1
  O  O41  1  0.248727  0.255093  0.373003  1
  O  O42  1  0.271957  0.747069  0.127887  1
  O  O43  1  0.263588  0.776368  0.792954  1
  O  O44  1  0.285997  0.876187  0.446125  1
  O  O45  1  0.323826  0.002503  0.038799  1
  O  O46  1  0.393608  0.500306  0.817697  1
  O  O47  1  0.415653  0.648054  0.670983  1
  O  O48  1  0.430398  0.737556  0.323325  1
  O  O49  1  0.441837  0.739527  0.992955  1
  O  O50  1  0.452689  0.228843  0.189311  1
  O  O51  1  0.456867  0.263861  0.527285  1
  O  O52  1  0.480362  0.997317  0.614826  1
  O  O53  1  0.469949  0.120323  0.864800  1
  O  O54  1  0.533205  0.873758  0.133439  1
  O  O55  1  0.529813  0.998961  0.391546  1
  O  O56  1  0.539712  0.740494  0.478354  1
  O  O57  1  0.546501  0.759400  0.806302  1
  O  O58  1  0.558115  0.259296  0.004870  1
  O  O59  1  0.578754  0.260812  0.676676  1
  O  O60  1  0.574546  0.336127  0.326717  1
  O  O61  1  0.599846  0.491086  0.181628  1
  O  O62  1  0.677664  0.994986  0.959730  1
  O  O63  1  0.710480  0.120906  0.545735  1
  O  O64  1  0.736049  0.219910  0.206388  1
  O  O65  1  0.729754  0.251867  0.872013  1
  O  O66  1  0.752588  0.750138  0.631355  1
  O  O67  1  0.781711  0.737486  0.302212  1
  O  O68  1  0.792631  0.659480  0.943579  1
  O  O69  1  0.830541  0.497810  0.547511  1
  O  O70  1  0.906212  0.003361  0.326304  1
  O  O71  1  0.913320  0.878716  0.172196  1
  O  O72  1  0.933199  0.770262  0.813945  1
  O  O73  1  0.911378  0.782664  0.496151  1
  O  O74  1  0.934896  0.258385  0.704608  1
  O  O75  1  0.944364  0.220376  0.037001  1
  O  O76  1  0.982225  0.499357  0.110535  1
  O  O77  1  0.983018  0.357069  0.362280  1
