# generated using pymatgen
data_Ca8La2Ti5Cr5O30
_symmetry_space_group_name_H-M   'P 1'
_cell_length_a   5.44406533
_cell_length_b   5.50157685
_cell_length_c   38.43539267
_cell_angle_alpha   89.96212016
_cell_angle_beta   89.95843053
_cell_angle_gamma   89.75838438
_symmetry_Int_Tables_number   1
_chemical_formula_structural   Ca8La2Ti5Cr5O30
_chemical_formula_sum   'Ca16 La4 Ti10 Cr10 O60'
_cell_volume   1151.16549675
_cell_formula_units_Z   2
loop_
 _symmetry_equiv_pos_site_id
 _symmetry_equiv_pos_as_xyz
  1  'x, y, z'
loop_
 _atom_site_type_symbol
 _atom_site_label
 _atom_site_symmetry_multiplicity
 _atom_site_fract_x
 _atom_site_fract_y
 _atom_site_fract_z
 _atom_site_occupancy
  Ca  Ca0  1  0.012513  0.965527  0.150681  1
  Ca  Ca1  1  0.012585  0.965233  0.350895  1
  Ca  Ca2  1  0.011202  0.966879  0.549097  1
  Ca  Ca3  1  0.011391  0.964457  0.948615  1
  Ca  Ca4  1  0.491478  0.458128  0.351627  1
  Ca  Ca5  1  0.491495  0.461391  0.148997  1
  Ca  Ca6  1  0.489476  0.462350  0.750151  1
  Ca  Ca7  1  0.491351  0.461543  0.949021  1
  Ca  Ca8  1  0.510524  0.537650  0.049849  1
  Ca  Ca9  1  0.508505  0.538609  0.651003  1
  Ca  Ca10  1  0.508522  0.541872  0.448373  1
  Ca  Ca11  1  0.508649  0.538457  0.850979  1
  Ca  Ca12  1  0.988798  0.033121  0.250903  1
  Ca  Ca13  1  0.987415  0.034767  0.449105  1
  Ca  Ca14  1  0.987487  0.034473  0.649319  1
  Ca  Ca15  1  0.988609  0.035543  0.851385  1
  La  La16  1  0.006925  0.973280  0.749916  1
  La  La17  1  0.493274  0.469096  0.549396  1
  La  La18  1  0.506726  0.530904  0.250604  1
  La  La19  1  0.993075  0.026720  0.050084  1
  Ti  Ti20  1  0.001564  0.500242  0.998436  1
  Ti  Ti21  1  0.001740  0.501075  0.100849  1
  Ti  Ti22  1  0.002726  0.497491  0.199138  1
  Ti  Ti23  1  0.001650  0.498816  0.302148  1
  Ti  Ti24  1  0.000000  0.500000  0.400000  1
  Ti  Ti25  1  0.998350  0.501184  0.497852  1
  Ti  Ti26  1  0.997274  0.502509  0.600862  1
  Ti  Ti27  1  0.998260  0.498925  0.699151  1
  Ti  Ti28  1  0.998436  0.499758  0.801564  1
  Ti  Ti29  1  0.000000  0.500000  0.900000  1
  Cr  Cr30  1  0.498887  0.000275  0.100836  1
  Cr  Cr31  1  0.501274  0.999171  0.301265  1
  Cr  Cr32  1  0.498726  0.000829  0.498735  1
  Cr  Cr33  1  0.499541  0.999540  0.998779  1
  Cr  Cr34  1  0.501113  0.999725  0.699164  1
  Cr  Cr35  1  0.500000  0.000000  0.900000  1
  Cr  Cr36  1  0.502801  0.000304  0.199204  1
  Cr  Cr37  1  0.500000  0.000000  0.400000  1
  Cr  Cr38  1  0.497199  0.999696  0.600796  1
  Cr  Cr39  1  0.500459  0.000460  0.801221  1
  O  O40  1  0.075961  0.490274  0.049724  1
  O  O41  1  0.067034  0.482513  0.249790  1
  O  O42  1  0.080276  0.478030  0.449755  1
  O  O43  1  0.080768  0.478890  0.649520  1
  O  O44  1  0.080051  0.482326  0.850353  1
  O  O45  1  0.222317  0.220813  0.191475  1
  O  O46  1  0.217151  0.216790  0.391221  1
  O  O47  1  0.219747  0.217401  0.590966  1
  O  O48  1  0.209963  0.217620  0.108370  1
  O  O49  1  0.221364  0.220964  0.792648  1
  O  O50  1  0.217922  0.220718  0.308560  1
  O  O51  1  0.214256  0.215723  0.991417  1
  O  O52  1  0.216357  0.221212  0.508621  1
  O  O53  1  0.219166  0.221073  0.707719  1
  O  O54  1  0.218307  0.216754  0.908381  1
  O  O55  1  0.275760  0.717647  0.108322  1
  O  O56  1  0.286778  0.714231  0.192108  1
  O  O57  1  0.284856  0.712112  0.307835  1
  O  O58  1  0.283200  0.714692  0.391843  1
  O  O59  1  0.278924  0.718830  0.592220  1
  O  O60  1  0.278387  0.718494  0.507108  1
  O  O61  1  0.280622  0.719034  0.791959  1
  O  O62  1  0.281294  0.715322  0.708192  1
  O  O63  1  0.277705  0.718176  0.991368  1
  O  O64  1  0.282507  0.715650  0.908318  1
  O  O65  1  0.426639  0.980765  0.049301  1
  O  O66  1  0.416149  0.981534  0.648505  1
  O  O67  1  0.419438  0.989954  0.248785  1
  O  O68  1  0.415676  0.983198  0.448267  1
  O  O69  1  0.417315  0.980303  0.851211  1
  O  O70  1  0.584324  0.016802  0.351733  1
  O  O71  1  0.583851  0.018466  0.151495  1
  O  O72  1  0.580562  0.010046  0.551215  1
  O  O73  1  0.573361  0.019235  0.750699  1
  O  O74  1  0.582685  0.019697  0.948789  1
  O  O75  1  0.719378  0.280966  0.008042  1
  O  O76  1  0.721613  0.281506  0.292892  1
  O  O77  1  0.718706  0.284678  0.091808  1
  O  O78  1  0.715144  0.287888  0.492165  1
  O  O79  1  0.716800  0.285308  0.408157  1
  O  O80  1  0.721076  0.281170  0.207780  1
  O  O81  1  0.724240  0.282353  0.691678  1
  O  O82  1  0.717493  0.284350  0.891682  1
  O  O83  1  0.713222  0.285769  0.607892  1
  O  O84  1  0.722295  0.281824  0.808632  1
  O  O85  1  0.780834  0.778927  0.092281  1
  O  O86  1  0.778636  0.779036  0.007352  1
  O  O87  1  0.780253  0.782599  0.209034  1
  O  O88  1  0.783643  0.778788  0.291379  1
  O  O89  1  0.782078  0.779282  0.491440  1
  O  O90  1  0.790037  0.782380  0.691630  1
  O  O91  1  0.782849  0.783210  0.408779  1
  O  O92  1  0.777683  0.779187  0.608525  1
  O  O93  1  0.785744  0.784277  0.808583  1
  O  O94  1  0.781693  0.783246  0.891619  1
  O  O95  1  0.919232  0.521110  0.150480  1
  O  O96  1  0.919724  0.521970  0.350245  1
  O  O97  1  0.932966  0.517487  0.550210  1
  O  O98  1  0.924039  0.509726  0.750275  1
  O  O99  1  0.919949  0.517674  0.949647  1
