# generated using pymatgen
data_Co6O7F5
_symmetry_space_group_name_H-M   'P 1'
_cell_length_a   7.50769470
_cell_length_b   5.47300533
_cell_length_c   5.47300533
_cell_angle_alpha   69.14945372
_cell_angle_beta   70.08125424
_cell_angle_gamma   70.08125424
_symmetry_Int_Tables_number   1
_chemical_formula_structural   Co6O7F5
_chemical_formula_sum   'Co6 O7 F5'
_cell_volume   191.32341006
_cell_formula_units_Z   1
loop_
 _symmetry_equiv_pos_site_id
 _symmetry_equiv_pos_as_xyz
  1  'x, y, z'
loop_
 _atom_site_type_symbol
 _atom_site_label
 _atom_site_symmetry_multiplicity
 _atom_site_fract_x
 _atom_site_fract_y
 _atom_site_fract_z
 _atom_site_occupancy
  Co  Co0  1  0.854581  0.679307  0.696299  1
  Co  Co1  1  0.327803  0.658273  0.669661  1
  Co  Co2  1  0.672197  0.330339  0.341727  1
  Co  Co3  1  0.145419  0.303701  0.320693  1
  Co  Co4  1  0.500000  0.996340  0.003660  1
  Co  Co5  1  0.000000  0.019787  0.980213  1
  O  O6  1  0.330451  0.353737  0.964248  1
  O  O7  1  0.669549  0.035752  0.646263  1
  O  O8  1  0.964918  0.228451  0.216113  1
  O  O9  1  0.035082  0.783887  0.771549  1
  O  O10  1  0.332591  0.956937  0.361369  1
  O  O11  1  0.667409  0.638631  0.043063  1
  O  O12  1  0.000000  0.317075  0.682925  1
  F  F13  1  0.628634  0.571365  0.573902  1
  F  F14  1  0.299059  0.892523  0.896455  1
  F  F15  1  0.371366  0.426098  0.428635  1
  F  F16  1  0.700941  0.103545  0.107477  1
  F  F17  1  0.000000  0.704252  0.295749  1
