# generated using pymatgen
data_Li10Cr3Co2Ni3O16
_symmetry_space_group_name_H-M   'P 1'
_cell_length_a   5.87379691
_cell_length_b   5.92352021
_cell_length_c   9.62333215
_cell_angle_alpha   89.85921027
_cell_angle_beta   90.20626947
_cell_angle_gamma   59.83543240
_symmetry_Int_Tables_number   1
_chemical_formula_structural   Li10Cr3Co2Ni3O16
_chemical_formula_sum   'Li10 Cr3 Co2 Ni3 O16'
_cell_volume   289.48377553
_cell_formula_units_Z   1
loop_
 _symmetry_equiv_pos_site_id
 _symmetry_equiv_pos_as_xyz
  1  'x, y, z'
loop_
 _atom_site_type_symbol
 _atom_site_label
 _atom_site_symmetry_multiplicity
 _atom_site_fract_x
 _atom_site_fract_y
 _atom_site_fract_z
 _atom_site_occupancy
  Li  Li0  1  0.380093  0.808724  0.938984  1
  Li  Li1  1  0.798632  0.793998  0.944956  1
  Li  Li2  1  0.681270  0.635968  0.716310  1
  Li  Li3  1  0.812876  0.379228  0.947162  1
  Li  Li4  1  0.991742  0.987382  0.012835  1
  Li  Li5  1  0.006669  0.977733  0.519086  1
  Li  Li6  1  0.613450  0.186793  0.445069  1
  Li  Li7  1  0.191360  0.597488  0.446058  1
  Li  Li8  1  0.323218  0.315756  0.217015  1
  Li  Li9  1  0.183259  0.191122  0.448099  1
  Cr  Cr10  1  0.824692  0.815773  0.214621  1
  Cr  Cr11  1  0.334103  0.815996  0.213843  1
  Cr  Cr12  1  0.179397  0.637754  0.714383  1
  Co  Co13  1  0.670294  0.645391  0.469297  1
  Co  Co14  1  0.336078  0.316940  0.968092  1
  Ni  Ni15  1  0.825382  0.324098  0.212958  1
  Ni  Ni16  1  0.668674  0.152097  0.713406  1
  Ni  Ni17  1  0.176328  0.152909  0.712482  1
  O  O18  1  0.845027  0.799761  0.589813  1
  O  O19  1  0.507290  0.960525  0.340463  1
  O  O20  1  0.657199  0.661973  0.096387  1
  O  O21  1  0.348872  0.799618  0.590905  1
  O  O22  1  0.969911  0.503924  0.340993  1
  O  O23  1  0.998848  0.976554  0.324908  1
  O  O24  1  0.506767  0.506688  0.342424  1
  O  O25  1  0.838617  0.319145  0.583749  1
  O  O26  1  0.487667  0.476615  0.845649  1
  O  O27  1  0.161052  0.651872  0.095042  1
  O  O28  1  0.029209  0.480127  0.843067  1
  O  O29  1  0.336078  0.321977  0.596581  1
  O  O30  1  0.657610  0.146554  0.089812  1
  O  O31  1  0.486037  0.024666  0.843142  1
  O  O32  1  0.168904  0.147676  0.086004  1
  O  O33  1  0.014586  0.973723  0.820176  1
