# generated using pymatgen
data_Li3Fe3(PO4)4
_symmetry_space_group_name_H-M   'P 1'
_cell_length_a   13.54413178
_cell_length_b   8.25816541
_cell_length_c   8.89327842
_cell_angle_alpha   89.93854852
_cell_angle_beta   84.27734360
_cell_angle_gamma   90.07984247
_symmetry_Int_Tables_number   1
_chemical_formula_structural   Li3Fe3(PO4)4
_chemical_formula_sum   'Li9 Fe9 P12 O48'
_cell_volume   989.75123626
_cell_formula_units_Z   3
loop_
 _symmetry_equiv_pos_site_id
 _symmetry_equiv_pos_as_xyz
  1  'x, y, z'
loop_
 _atom_site_type_symbol
 _atom_site_label
 _atom_site_symmetry_multiplicity
 _atom_site_fract_x
 _atom_site_fract_y
 _atom_site_fract_z
 _atom_site_occupancy
  Li  Li0  1  0.169059  0.476719  0.336623  1
  Li  Li1  1  0.496118  0.521559  0.993014  1
  Li  Li2  1  0.174836  0.147833  0.436606  1
  Li  Li3  1  0.164625  0.008110  0.822312  1
  Li  Li4  1  0.507096  0.997288  0.511762  1
  Li  Li5  1  0.838259  0.025377  0.174293  1
  Li  Li6  1  0.845149  0.352593  0.274267  1
  Li  Li7  1  0.490444  0.853859  0.894321  1
  Li  Li8  1  0.829075  0.493576  0.652250  1
  Fe  Fe9  1  0.163119  0.857249  0.234779  1
  Fe  Fe10  1  0.504928  0.145727  0.098351  1
  Fe  Fe11  1  0.162164  0.648026  0.735029  1
  Fe  Fe12  1  0.498666  0.650779  0.401380  1
  Fe  Fe13  1  0.827523  0.642466  0.072554  1
  Fe  Fe14  1  0.167554  0.345633  0.935072  1
  Fe  Fe15  1  0.507123  0.348578  0.598927  1
  Fe  Fe16  1  0.825732  0.850569  0.564643  1
  Fe  Fe17  1  0.837750  0.155597  0.764410  1
  P  P18  1  0.053153  0.193115  0.144620  1
  P  P19  1  0.279213  0.699785  0.025784  1
  P  P20  1  0.058094  0.297426  0.639014  1
  P  P21  1  0.387660  0.300352  0.307655  1
  P  P22  1  0.276097  0.796466  0.520621  1
  P  P23  1  0.609641  0.803234  0.187965  1
  P  P24  1  0.391259  0.203096  0.812966  1
  P  P25  1  0.724494  0.202314  0.471993  1
  P  P26  1  0.609033  0.702591  0.694782  1
  P  P27  1  0.943215  0.704225  0.354273  1
  P  P28  1  0.724149  0.302347  0.977641  1
  P  P29  1  0.941411  0.797891  0.857731  1
  O  O30  1  0.221958  0.865521  0.019521  1
  O  O31  1  0.111184  0.361068  0.145790  1
  O  O32  1  0.103790  0.070336  0.246410  1
  O  O33  1  0.054814  0.719196  0.308084  1
  O  O34  1  0.249722  0.647482  0.191971  1
  O  O35  1  0.073137  0.366851  0.481987  1
  O  O36  1  0.417265  0.353058  0.141001  1
  O  O37  1  0.278962  0.295155  0.357424  1
  O  O38  1  0.232300  0.915800  0.410633  1
  O  O39  1  0.612900  0.283707  0.027299  1
  O  O40  1  0.565500  0.929442  0.085380  1
  O  O41  1  0.221462  0.627838  0.523720  1
  O  O42  1  0.110478  0.136520  0.653729  1
  O  O43  1  0.552494  0.636900  0.186319  1
  O  O44  1  0.445232  0.134175  0.312205  1
  O  O45  1  0.103110  0.425782  0.756627  1
  O  O46  1  0.052785  0.785485  0.803975  1
  O  O47  1  0.441638  0.422296  0.417284  1
  O  O48  1  0.388621  0.781319  0.474951  1
  O  O49  1  0.768268  0.428137  0.081946  1
  O  O50  1  0.252508  0.849242  0.688413  1
  O  O51  1  0.721410  0.784649  0.138683  1
  O  O52  1  0.588991  0.847027  0.358908  1
  O  O53  1  0.920398  0.852405  0.023266  1
  O  O54  1  0.080433  0.148369  0.973065  1
  O  O55  1  0.414132  0.148771  0.645940  1
  O  O56  1  0.279033  0.218354  0.858700  1
  O  O57  1  0.737965  0.133240  0.314500  1
  O  O58  1  0.226442  0.576658  0.915926  1
  O  O59  1  0.611445  0.208081  0.532716  1
  O  O60  1  0.564144  0.573710  0.578200  1
  O  O61  1  0.943293  0.205391  0.189031  1
  O  O62  1  0.898431  0.583900  0.244315  1
  O  O63  1  0.555987  0.862569  0.679894  1
  O  O64  1  0.446616  0.370965  0.810130  1
  O  O65  1  0.886348  0.870665  0.354090  1
  O  O66  1  0.776958  0.363346  0.485872  1
  O  O67  1  0.435472  0.084398  0.924033  1
  O  O68  1  0.388641  0.705642  0.976147  1
  O  O69  1  0.770922  0.075341  0.588766  1
  O  O70  1  0.722106  0.710223  0.634548  1
  O  O71  1  0.595126  0.634067  0.852803  1
  O  O72  1  0.919442  0.652779  0.522313  1
  O  O73  1  0.744470  0.348700  0.807432  1
  O  O74  1  0.944967  0.290530  0.699219  1
  O  O75  1  0.894261  0.921213  0.747260  1
  O  O76  1  0.885690  0.632167  0.855179  1
  O  O77  1  0.782114  0.137155  0.978756  1
