# generated using pymatgen
data_LiP4WO12
_symmetry_space_group_name_H-M   'P 1'
_cell_length_a   11.96616784
_cell_length_b   8.31846566
_cell_length_c   11.89176046
_cell_angle_alpha   90.00000000
_cell_angle_beta   114.40016618
_cell_angle_gamma   90.00000000
_symmetry_Int_Tables_number   1
_chemical_formula_structural   LiP4WO12
_chemical_formula_sum   'Li4 P16 W4 O48'
_cell_volume   1077.98183850
_cell_formula_units_Z   4
loop_
 _symmetry_equiv_pos_site_id
 _symmetry_equiv_pos_as_xyz
  1  'x, y, z'
loop_
 _atom_site_type_symbol
 _atom_site_label
 _atom_site_symmetry_multiplicity
 _atom_site_fract_x
 _atom_site_fract_y
 _atom_site_fract_z
 _atom_site_occupancy
  Li  Li0  1  0.353238  0.936155  0.939972  1
  Li  Li1  1  0.146762  0.436155  0.560028  1
  Li  Li2  1  0.853238  0.563845  0.439972  1
  Li  Li3  1  0.646762  0.063845  0.060028  1
  P  P4  1  0.190001  0.368051  0.975793  1
  P  P5  1  0.123893  0.568095  0.748444  1
  P  P6  1  0.051457  0.169671  0.339948  1
  P  P7  1  0.376107  0.068095  0.751556  1
  P  P8  1  0.248026  0.022903  0.281492  1
  P  P9  1  0.309999  0.868051  0.524207  1
  P  P10  1  0.251974  0.522903  0.218508  1
  P  P11  1  0.551457  0.330329  0.839948  1
  P  P12  1  0.448543  0.669671  0.160052  1
  P  P13  1  0.748026  0.477097  0.781492  1
  P  P14  1  0.690001  0.131949  0.475793  1
  P  P15  1  0.751974  0.977097  0.718508  1
  P  P16  1  0.623893  0.931905  0.248444  1
  P  P17  1  0.948543  0.830329  0.660052  1
  P  P18  1  0.876107  0.431905  0.251556  1
  P  P19  1  0.809999  0.631949  0.024207  1
  W  W20  1  0.950330  0.232810  0.719198  1
  W  W21  1  0.049670  0.767190  0.280802  1
  W  W22  1  0.549670  0.732810  0.780802  1
  W  W23  1  0.450330  0.267190  0.219198  1
  O  O24  1  0.084201  0.259212  0.906446  1
  O  O25  1  0.037755  0.707183  0.766407  1
  O  O26  1  0.010031  0.992994  0.688743  1
  O  O27  1  0.047573  0.426362  0.671269  1
  O  O28  1  0.193164  0.516991  0.891432  1
  O  O29  1  0.087878  0.246835  0.462582  1
  O  O30  1  0.289226  0.125761  0.802896  1
  O  O31  1  0.184187  0.794970  0.467663  1
  O  O32  1  0.210774  0.625761  0.697104  1
  O  O33  1  0.167632  0.574749  0.275392  1
  O  O34  1  0.155983  0.899022  0.206676  1
  O  O35  1  0.173358  0.168670  0.307689  1
  O  O36  1  0.161676  0.455585  0.082654  1
  O  O37  1  0.306836  0.016991  0.608568  1
  O  O38  1  0.452427  0.926362  0.828731  1
  O  O39  1  0.489969  0.492994  0.811257  1
  O  O40  1  0.338324  0.955585  0.417346  1
  O  O41  1  0.462245  0.207183  0.733593  1
  O  O42  1  0.415799  0.759212  0.593554  1
  O  O43  1  0.326642  0.668670  0.192311  1
  O  O44  1  0.344017  0.399022  0.293324  1
  O  O45  1  0.332368  0.074749  0.224608  1
  O  O46  1  0.587878  0.253165  0.962582  1
  O  O47  1  0.315813  0.294970  0.032337  1
  O  O48  1  0.684187  0.705030  0.967663  1
  O  O49  1  0.412122  0.746835  0.037418  1
  O  O50  1  0.667632  0.925251  0.775392  1
  O  O51  1  0.655983  0.600978  0.706676  1
  O  O52  1  0.673358  0.331330  0.807689  1
  O  O53  1  0.584201  0.240788  0.406446  1
  O  O54  1  0.537755  0.792817  0.266407  1
  O  O55  1  0.661676  0.044415  0.582654  1
  O  O56  1  0.510031  0.507006  0.188743  1
  O  O57  1  0.547573  0.073638  0.171269  1
  O  O58  1  0.693164  0.983009  0.391432  1
  O  O59  1  0.838324  0.544415  0.917346  1
  O  O60  1  0.826642  0.831330  0.692311  1
  O  O61  1  0.844017  0.100978  0.793324  1
  O  O62  1  0.832368  0.425251  0.724608  1
  O  O63  1  0.789226  0.374239  0.302896  1
  O  O64  1  0.815813  0.205030  0.532337  1
  O  O65  1  0.710774  0.874239  0.197104  1
  O  O66  1  0.912122  0.753165  0.537418  1
  O  O67  1  0.806836  0.483009  0.108568  1
  O  O68  1  0.952427  0.573638  0.328731  1
  O  O69  1  0.989969  0.007006  0.311257  1
  O  O70  1  0.962245  0.292817  0.233593  1
  O  O71  1  0.915799  0.740788  0.093554  1
