# generated using pymatgen
data_Li6CrSn3(PO4)6
_symmetry_space_group_name_H-M   'P 1'
_cell_length_a   8.66443544
_cell_length_b   8.51566619
_cell_length_c   8.63150597
_cell_angle_alpha   64.52298123
_cell_angle_beta   63.69448373
_cell_angle_gamma   65.25680341
_symmetry_Int_Tables_number   1
_chemical_formula_structural   Li6CrSn3(PO4)6
_chemical_formula_sum   'Li6 Cr1 Sn3 P6 O24'
_cell_volume   494.53054399
_cell_formula_units_Z   1
loop_
 _symmetry_equiv_pos_site_id
 _symmetry_equiv_pos_as_xyz
  1  'x, y, z'
loop_
 _atom_site_type_symbol
 _atom_site_label
 _atom_site_symmetry_multiplicity
 _atom_site_fract_x
 _atom_site_fract_y
 _atom_site_fract_z
 _atom_site_occupancy
  Li  Li0  1  0.028349  0.989452  0.978015  1
  Li  Li1  1  0.742856  0.159517  0.372622  1
  Li  Li2  1  0.470661  0.535339  0.515872  1
  Li  Li3  1  0.228534  0.860596  0.683492  1
  Li  Li4  1  0.674381  0.213210  0.865755  1
  Li  Li5  1  0.865308  0.681952  0.211281  1
  Cr  Cr6  1  0.846550  0.846336  0.836136  1
  Sn  Sn7  1  0.144630  0.148473  0.146684  1
  Sn  Sn8  1  0.362748  0.359991  0.352964  1
  Sn  Sn9  1  0.667917  0.656676  0.665868  1
  P  P10  1  0.069701  0.741489  0.418712  1
  P  P11  1  0.413655  0.078646  0.745359  1
  P  P12  1  0.752659  0.425855  0.062467  1
  P  P13  1  0.248569  0.555344  0.961392  1
  P  P14  1  0.558283  0.960863  0.242902  1
  P  P15  1  0.953927  0.237454  0.552652  1
  O  O16  1  0.123238  0.296135  0.490834  1
  O  O17  1  0.340039  0.505313  0.102019  1
  O  O18  1  0.090365  0.906266  0.241161  1
  O  O19  1  0.552176  0.108383  0.311558  1
  O  O20  1  0.259789  0.602452  0.413027  1
  O  O21  1  0.002612  0.797695  0.589157  1
  O  O22  1  0.230598  0.107741  0.902753  1
  O  O23  1  0.418765  0.266917  0.591038  1
  O  O24  1  0.606736  0.419782  0.256953  1
  O  O25  1  0.159488  0.405307  0.022379  1
  O  O26  1  0.100836  0.738061  0.959409  1
  O  O27  1  0.381704  0.033029  0.198152  1
  O  O28  1  0.575998  0.026454  0.802184  1
  O  O29  1  0.899056  0.239799  0.103773  1
  O  O30  1  0.810267  0.595254  0.000473  1
  O  O31  1  0.385732  0.573513  0.766793  1
  O  O32  1  0.577487  0.769645  0.381164  1
  O  O33  1  0.727577  0.951549  0.070935  1
  O  O34  1  0.963682  0.181009  0.397633  1
  O  O35  1  0.770920  0.380526  0.594587  1
  O  O36  1  0.403524  0.944495  0.678415  1
  O  O37  1  0.956232  0.071738  0.727536  1
  O  O38  1  0.691088  0.410611  0.929648  1
  O  O39  1  0.943366  0.666131  0.407250  1
