# generated using pymatgen
data_Li4V5Cu3O16
_symmetry_space_group_name_H-M   'P 1'
_cell_length_a   5.89967126
_cell_length_b   5.86293380
_cell_length_c   9.69993953
_cell_angle_alpha   89.98687468
_cell_angle_beta   87.28720560
_cell_angle_gamma   119.83796752
_symmetry_Int_Tables_number   1
_chemical_formula_structural   Li4V5Cu3O16
_chemical_formula_sum   'Li4 V5 Cu3 O16'
_cell_volume   290.60205241
_cell_formula_units_Z   1
loop_
 _symmetry_equiv_pos_site_id
 _symmetry_equiv_pos_as_xyz
  1  'x, y, z'
loop_
 _atom_site_type_symbol
 _atom_site_label
 _atom_site_symmetry_multiplicity
 _atom_site_fract_x
 _atom_site_fract_y
 _atom_site_fract_z
 _atom_site_occupancy
  Li  Li0  1  0.319780  0.660469  0.912099  1
  Li  Li1  1  0.004600  0.002515  0.990567  1
  Li  Li2  1  0.001634  0.000625  0.481875  1
  Li  Li3  1  0.679744  0.340064  0.412684  1
  V  V4  1  0.799226  0.651029  0.724827  1
  V  V5  1  0.281965  0.641047  0.488655  1
  V  V6  1  0.635809  0.817876  0.242254  1
  V  V7  1  0.678133  0.339057  -0.000377  1
  V  V8  1  0.801109  0.149297  0.724150  1
  Cu  Cu9  1  0.164390  0.827054  0.197801  1
  Cu  Cu10  1  0.164089  0.337457  0.197881  1
  Cu  Cu11  1  0.339941  0.168847  0.705249  1
  O  O12  1  0.160751  0.817388  0.585240  1
  O  O13  1  0.054197  0.527170  0.358400  1
  O  O14  1  0.372763  0.686596  0.116361  1
  O  O15  1  0.980803  0.990237  0.284631  1
  O  O16  1  0.000512  -0.000125  0.799579  1
  O  O17  1  0.159169  0.343236  0.585906  1
  O  O18  1  0.517380  0.974634  0.355708  1
  O  O19  1  0.516321  0.542076  0.355691  1
  O  O20  1  0.352215  0.175666  0.073618  1
  O  O21  1  0.678663  0.838976  0.605858  1
  O  O22  1  0.532825  0.502882  0.847992  1
  O  O23  1  0.534378  0.030556  0.847441  1
  O  O24  1  0.685336  0.343014  0.609196  1
  O  O25  1  0.813121  0.644512  0.084027  1
  O  O26  1  0.957533  0.479298  0.836621  1
  O  O27  1  0.813613  0.168851  0.083908  1
