# generated using pymatgen
data_Li5Co5(NiO6)2
_symmetry_space_group_name_H-M   'P 1'
_cell_length_a   5.00431278
_cell_length_b   5.00858265
_cell_length_c   9.61534703
_cell_angle_alpha   94.72580350
_cell_angle_beta   85.13845392
_cell_angle_gamma   60.69365298
_symmetry_Int_Tables_number   1
_chemical_formula_structural   Li5Co5(NiO6)2
_chemical_formula_sum   'Li5 Co5 Ni2 O12'
_cell_volume   207.26415066
_cell_formula_units_Z   1
loop_
 _symmetry_equiv_pos_site_id
 _symmetry_equiv_pos_as_xyz
  1  'x, y, z'
loop_
 _atom_site_type_symbol
 _atom_site_label
 _atom_site_symmetry_multiplicity
 _atom_site_fract_x
 _atom_site_fract_y
 _atom_site_fract_z
 _atom_site_occupancy
  Li  Li0  1  0.827952  0.331525  0.503582  1
  Li  Li1  1  0.676028  0.155705  0.997174  1
  Li  Li2  1  0.331439  0.829169  0.997806  1
  Li  Li3  1  0.155220  0.676849  0.503789  1
  Li  Li4  1  0.087030  0.085269  0.747596  1
  Co  Co5  1  0.912824  0.911248  0.248451  1
  Co  Co6  1  0.578221  0.576660  0.248233  1
  Co  Co7  1  0.483185  0.005679  0.504867  1
  Co  Co8  1  0.002175  0.484172  0.991667  1
  Co  Co9  1  0.421386  0.419444  0.751448  1
  Ni  Ni10  1  0.758677  0.749054  0.748795  1
  Ni  Ni11  1  0.244802  0.245252  0.250732  1
  O  O12  1  0.848259  0.640286  0.362540  1
  O  O13  1  0.706740  0.481278  0.871921  1
  O  O14  1  0.931904  0.217512  0.133225  1
  O  O15  1  0.642724  0.846622  0.132646  1
  O  O16  1  0.483779  0.698832  0.637373  1
  O  O17  1  0.766524  0.055358  0.641552  1
  O  O18  1  0.214456  0.926392  0.360705  1
  O  O19  1  0.563482  0.273574  0.360562  1
  O  O20  1  0.369476  0.162299  0.877934  1
  O  O21  1  0.049928  0.766731  0.864352  1
  O  O22  1  0.267918  0.560465  0.134317  1
  O  O23  1  0.156045  0.380791  0.628731  1
