# generated using pymatgen
data_Li4Co3Sn3(SbO8)2
_symmetry_space_group_name_H-M   'P 1'
_cell_length_a   6.18695173
_cell_length_b   6.17777892
_cell_length_c   9.86566323
_cell_angle_alpha   90.00664962
_cell_angle_beta   90.47887963
_cell_angle_gamma   119.93920138
_symmetry_Int_Tables_number   1
_chemical_formula_structural   Li4Co3Sn3(SbO8)2
_chemical_formula_sum   'Li4 Co3 Sn3 Sb2 O16'
_cell_volume   326.74674240
_cell_formula_units_Z   1
loop_
 _symmetry_equiv_pos_site_id
 _symmetry_equiv_pos_as_xyz
  1  'x, y, z'
loop_
 _atom_site_type_symbol
 _atom_site_label
 _atom_site_symmetry_multiplicity
 _atom_site_fract_x
 _atom_site_fract_y
 _atom_site_fract_z
 _atom_site_occupancy
  Li  Li0  1  0.333471  0.666813  0.897178  1
  Li  Li1  1  0.965406  0.982711  0.978437  1
  Li  Li2  1  0.980550  0.990521  0.498312  1
  Li  Li3  1  0.662755  0.331294  0.411052  1
  Co  Co4  1  0.658921  0.829435  0.213653  1
  Co  Co5  1  0.834675  0.658629  0.712008  1
  Co  Co6  1  0.834646  0.176034  0.712053  1
  Sn  Sn7  1  0.171680  0.832139  0.213407  1
  Sn  Sn8  1  0.171720  0.339569  0.213396  1
  Sn  Sn9  1  0.342893  0.171468  0.712793  1
  Sb  Sb10  1  0.347116  0.673576  0.493099  1
  Sb  Sb11  1  0.684369  0.342204  0.978684  1
  O  O12  1  0.175506  0.833590  0.588102  1
  O  O13  1  0.036970  0.518545  0.346845  1
  O  O14  1  0.327455  0.663711  0.103039  1
  O  O15  1  0.001778  0.000969  0.308016  1
  O  O16  1  0.005517  0.002754  0.796041  1
  O  O17  1  0.175484  0.341939  0.588079  1
  O  O18  1  0.476141  0.959782  0.347378  1
  O  O19  1  0.476180  0.516287  0.347350  1
  O  O20  1  0.335814  0.167874  0.095775  1
  O  O21  1  0.665768  0.832828  0.590631  1
  O  O22  1  0.515917  0.477677  0.856228  1
  O  O23  1  0.516076  0.038298  0.856217  1
  O  O24  1  0.662145  0.331062  0.608158  1
  O  O25  1  0.835973  0.665416  0.094808  1
  O  O26  1  0.969136  0.484563  0.852246  1
  O  O27  1  0.835939  0.170613  0.094856  1
