# generated using pymatgen
data_Na6Sn2O7
_symmetry_space_group_name_H-M   'P 1'
_cell_length_a   6.26980104
_cell_length_b   6.26980104
_cell_length_c   12.86187986
_cell_angle_alpha   73.55238726
_cell_angle_beta   106.44761274
_cell_angle_gamma   89.49978437
_symmetry_Int_Tables_number   1
_chemical_formula_structural   Na6Sn2O7
_chemical_formula_sum   'Na12 Sn4 O14'
_cell_volume   462.89552335
_cell_formula_units_Z   2
loop_
 _symmetry_equiv_pos_site_id
 _symmetry_equiv_pos_as_xyz
  1  'x, y, z'
loop_
 _atom_site_type_symbol
 _atom_site_label
 _atom_site_symmetry_multiplicity
 _atom_site_fract_x
 _atom_site_fract_y
 _atom_site_fract_z
 _atom_site_occupancy
  Na  Na0  1  0.382566  0.831229  0.588382  1
  Na  Na1  1  0.345067  0.614785  0.870911  1
  Na  Na2  1  0.000000  0.500000  0.500000  1
  Na  Na3  1  0.205080  0.205080  0.750000  1
  Na  Na4  1  0.168771  0.617434  0.088382  1
  Na  Na5  1  0.385215  0.654933  0.370911  1
  Na  Na6  1  0.614785  0.345067  0.629089  1
  Na  Na7  1  0.831229  0.382566  0.911618  1
  Na  Na8  1  0.794920  0.794920  0.250000  1
  Na  Na9  1  0.654933  0.385215  0.129089  1
  Na  Na10  1  0.617434  0.168771  0.411618  1
  Na  Na11  1  0.500000  0.000000  0.000000  1
  Sn  Sn12  1  0.808386  0.893014  0.867889  1
  Sn  Sn13  1  0.893014  0.808386  0.632111  1
  Sn  Sn14  1  0.106986  0.191614  0.367889  1
  Sn  Sn15  1  0.191614  0.106986  0.132111  1
  O  O16  1  0.134473  0.905892  0.899782  1
  O  O17  1  0.094108  0.865527  0.399782  1
  O  O18  1  0.167152  0.602653  0.684234  1
  O  O19  1  0.726718  0.666940  0.989017  1
  O  O20  1  0.723115  0.723115  0.750000  1
  O  O21  1  0.666940  0.726718  0.510983  1
  O  O22  1  0.397347  0.832848  0.184234  1
  O  O23  1  0.602653  0.167152  0.815766  1
  O  O24  1  0.333060  0.273282  0.489017  1
  O  O25  1  0.276885  0.276885  0.250000  1
  O  O26  1  0.273282  0.333060  0.010983  1
  O  O27  1  0.832848  0.397347  0.315766  1
  O  O28  1  0.905892  0.134473  0.600218  1
  O  O29  1  0.865527  0.094108  0.100218  1
