# generated using pymatgen
data_Li2VSiO5
_symmetry_space_group_name_H-M   'P 1'
_cell_length_a   9.10647679
_cell_length_b   4.50867153
_cell_length_c   9.24516177
_cell_angle_alpha   90.00000000
_cell_angle_beta   90.00000000
_cell_angle_gamma   90.00000000
_symmetry_Int_Tables_number   1
_chemical_formula_structural   Li2VSiO5
_chemical_formula_sum   'Li8 V4 Si4 O20'
_cell_volume   379.58889334
_cell_formula_units_Z   4
loop_
 _symmetry_equiv_pos_site_id
 _symmetry_equiv_pos_as_xyz
  1  'x, y, z'
loop_
 _atom_site_type_symbol
 _atom_site_label
 _atom_site_symmetry_multiplicity
 _atom_site_fract_x
 _atom_site_fract_y
 _atom_site_fract_z
 _atom_site_occupancy
  Li  Li0  1  0.000000  0.617710  0.004426  1
  Li  Li1  1  0.000000  0.382290  0.504426  1
  Li  Li2  1  0.251169  0.008526  0.002733  1
  Li  Li3  1  0.251169  0.991474  0.502733  1
  Li  Li4  1  0.500000  0.006169  0.255010  1
  Li  Li5  1  0.500000  0.993831  0.755010  1
  Li  Li6  1  0.748831  0.008526  0.002733  1
  Li  Li7  1  0.748831  0.991474  0.502733  1
  V  V8  1  0.000000  0.959269  0.289820  1
  V  V9  1  0.000000  0.040731  0.789820  1
  V  V10  1  0.500000  0.433171  0.997003  1
  V  V11  1  0.500000  0.566829  0.497003  1
  Si  Si12  1  0.249470  0.502194  0.248346  1
  Si  Si13  1  0.249470  0.497806  0.748346  1
  Si  Si14  1  0.750530  0.502194  0.248346  1
  Si  Si15  1  0.750530  0.497806  0.748346  1
  O  O16  1  0.000000  0.803684  0.455082  1
  O  O17  1  0.000000  0.196316  0.955082  1
  O  O18  1  0.144593  0.743867  0.162114  1
  O  O19  1  0.144593  0.256133  0.662114  1
  O  O20  1  0.149264  0.263142  0.338778  1
  O  O21  1  0.149264  0.736858  0.838778  1
  O  O22  1  0.352005  0.302388  0.139588  1
  O  O23  1  0.352005  0.697612  0.639588  1
  O  O24  1  0.353416  0.704516  0.354928  1
  O  O25  1  0.353416  0.295484  0.854928  1
  O  O26  1  0.500000  0.193430  0.494746  1
  O  O27  1  0.500000  0.806570  0.994746  1
  O  O28  1  0.646584  0.704516  0.354928  1
  O  O29  1  0.646584  0.295484  0.854928  1
  O  O30  1  0.647995  0.302388  0.139588  1
  O  O31  1  0.647995  0.697612  0.639588  1
  O  O32  1  0.850736  0.263142  0.338778  1
  O  O33  1  0.850736  0.736858  0.838778  1
  O  O34  1  0.855407  0.256133  0.662114  1
  O  O35  1  0.855407  0.743867  0.162114  1
