# generated using pymatgen
data_Li2V(CO3)2
_symmetry_space_group_name_H-M   'P 1'
_cell_length_a   4.81947515
_cell_length_b   6.12081147
_cell_length_c   4.81947610
_cell_angle_alpha   113.18465768
_cell_angle_beta   59.99999253
_cell_angle_gamma   113.18465727
_symmetry_Int_Tables_number   1
_chemical_formula_structural   Li2V(CO3)2
_chemical_formula_sum   'Li2 V1 C2 O6'
_cell_volume   109.66508064
_cell_formula_units_Z   1
loop_
 _symmetry_equiv_pos_site_id
 _symmetry_equiv_pos_as_xyz
  1  'x, y, z'
loop_
 _atom_site_type_symbol
 _atom_site_label
 _atom_site_symmetry_multiplicity
 _atom_site_fract_x
 _atom_site_fract_y
 _atom_site_fract_z
 _atom_site_occupancy
  Li  Li0  1  0.204173  0.612519  0.204173  1
  Li  Li1  1  0.795827  0.387481  0.795827  1
  V  V2  1  0.000000  0.000000  0.000000  1
  C  C3  1  0.414141  0.242422  0.414141  1
  C  C4  1  0.585859  0.757578  0.585859  1
  O  O5  1  0.306832  0.754919  0.602307  1
  O  O6  1  0.397693  0.245081  0.154219  1
  O  O7  1  0.154219  0.245081  0.693168  1
  O  O8  1  0.845781  0.754919  0.306832  1
  O  O9  1  0.602307  0.754919  0.845781  1
  O  O10  1  0.693168  0.245081  0.397693  1
