# generated using pymatgen
data_HOs6C18S2O19
_symmetry_space_group_name_H-M   'P 1'
_cell_length_a   12.28654960
_cell_length_b   14.20096653
_cell_length_c   9.25673149
_cell_angle_alpha   103.23249827
_cell_angle_beta   98.32533620
_cell_angle_gamma   90.23474461
_symmetry_Int_Tables_number   1
_chemical_formula_structural   HOs6C18S2O19
_chemical_formula_sum   'H2 Os12 C36 S4 O38'
_cell_volume   1554.50818357
_cell_formula_units_Z   2
loop_
 _symmetry_equiv_pos_site_id
 _symmetry_equiv_pos_as_xyz
  1  'x, y, z'
loop_
 _atom_site_type_symbol
 _atom_site_label
 _atom_site_symmetry_multiplicity
 _atom_site_fract_x
 _atom_site_fract_y
 _atom_site_fract_z
 _atom_site_occupancy
  H  H0  1  0.579866  0.078713  0.524694  1
  H  H1  1  0.420134  0.921287  0.475306  1
  Os  Os2  1  0.544552  0.164031  0.805426  1
  Os  Os3  1  0.455448  0.835969  0.194574  1
  Os  Os4  1  0.996675  0.232481  0.061288  1
  Os  Os5  1  0.003325  0.767519  0.938712  1
  Os  Os6  1  0.825370  0.391554  0.056832  1
  Os  Os7  1  0.174630  0.608446  0.943168  1
  Os  Os8  1  0.464809  0.294865  0.611304  1
  Os  Os9  1  0.535191  0.705135  0.388696  1
  Os  Os10  1  0.693583  0.245208  0.589515  1
  Os  Os11  1  0.306417  0.754792  0.410485  1
  Os  Os12  1  0.885973  0.183118  0.760892  1
  Os  Os13  1  0.114027  0.816882  0.239108  1
  C  C14  1  0.411699  0.090244  0.726212  1
  C  C15  1  0.588301  0.909756  0.273788  1
  C  C16  1  0.477047  0.235721  0.965700  1
  C  C17  1  0.522953  0.764279  0.034300  1
  C  C18  1  0.604355  0.072035  0.917134  1
  C  C19  1  0.395645  0.927965  0.082866  1
  C  C20  1  0.946637  0.117311  0.109045  1
  C  C21  1  0.053363  0.882689  0.890955  1
  C  C22  1  0.066871  0.292794  0.259663  1
  C  C23  1  0.933129  0.707206  0.740337  1
  C  C24  1  0.130650  0.180678  0.012945  1
  C  C25  1  0.869350  0.819322  0.987055  1
  C  C26  1  0.787832  0.499361  0.972591  1
  C  C27  1  0.212168  0.500639  0.027409  1
  C  C28  1  0.920661  0.468006  0.223048  1
  C  C29  1  0.079339  0.531994  0.776952  1
  C  C30  1  0.710372  0.406056  0.178193  1
  C  C31  1  0.289628  0.593944  0.821807  1
  C  C32  1  0.323373  0.306282  0.674748  1
  C  C33  1  0.676627  0.693718  0.325252  1
  C  C34  1  0.527408  0.398086  0.780570  1
  C  C35  1  0.472592  0.601914  0.219430  1
  C  C36  1  0.443843  0.374067  0.467154  1
  C  C37  1  0.556157  0.625933  0.532846  1
  C  C38  1  0.428058  0.176811  0.457205  1
  C  C39  1  0.571942  0.823189  0.542795  1
  C  C40  1  0.650073  0.215099  0.380544  1
  C  C41  1  0.349926  0.784901  0.619456  1
  C  C42  1  0.741177  0.369969  0.584491  1
  C  C43  1  0.258823  0.630031  0.415509  1
  C  C44  1  0.843969  0.052192  0.745521  1
  C  C45  1  0.156031  0.947808  0.254479  1
  C  C46  1  0.019978  0.139601  0.695766  1
  C  C47  1  0.980022  0.860399  0.304234  1
  C  C48  1  0.848859  0.190462  0.537786  1
  C  C49  1  0.151141  0.809538  0.462214  1
  S  S50  1  0.724508  0.259623  0.862460  1
  S  S51  1  0.275492  0.740377  0.137540  1
  S  S52  1  0.969190  0.341725  0.902799  1
  S  S53  1  0.030810  0.658275  0.097201  1
  O  O54  1  0.332476  0.041805  0.677003  1
  O  O55  1  0.667524  0.958195  0.322997  1
  O  O56  1  0.434425  0.281266  0.060728  1
  O  O57  1  0.565575  0.718734  0.939272  1
  O  O58  1  0.633359  0.016216  0.986777  1
  O  O59  1  0.366641  0.983784  0.013223  1
  O  O60  1  0.914669  0.044542  0.127579  1
  O  O61  1  0.085331  0.955458  0.872421  1
  O  O62  1  0.118545  0.322939  0.377357  1
  O  O63  1  0.881455  0.677061  0.622643  1
  O  O64  1  0.216504  0.155262  0.983871  1
  O  O65  1  0.783496  0.844738  0.016129  1
  O  O66  1  0.770996  0.566166  0.921433  1
  O  O67  1  0.229004  0.433834  0.078567  1
  O  O68  1  0.974413  0.515899  0.327543  1
  O  O69  1  0.025587  0.484101  0.672457  1
  O  O70  1  0.639756  0.418175  0.250418  1
  O  O71  1  0.360244  0.581825  0.749582  1
  O  O72  1  0.238457  0.316161  0.716070  1
  O  O73  1  0.761543  0.683839  0.283930  1
  O  O74  1  0.559769  0.460877  0.881929  1
  O  O75  1  0.440231  0.539123  0.118071  1
  O  O76  1  0.425274  0.419861  0.378557  1
  O  O77  1  0.574726  0.580139  0.621443  1
  O  O78  1  0.410117  0.105249  0.365624  1
  O  O79  1  0.589883  0.894751  0.634376  1
  O  O80  1  0.626894  0.193351  0.250309  1
  O  O81  1  0.373106  0.806649  0.749691  1
  O  O82  1  0.771014  0.447271  0.580875  1
  O  O83  1  0.228986  0.552729  0.419125  1
  O  O84  1  0.825922  0.971767  0.746033  1
  O  O85  1  0.174078  0.028233  0.253967  1
  O  O86  1  0.098495  0.111600  0.645909  1
  O  O87  1  0.901505  0.888400  0.354091  1
  O  O88  1  0.891754  0.176582  0.428393  1
  O  O89  1  0.108246  0.823418  0.571607  1
  O  O90  1  0.629828  0.107756  0.616376  1
  O  O91  1  0.370172  0.892244  0.383624  1
