# generated using pymatgen
data_Sr21Fe14O47
_symmetry_space_group_name_H-M   'P 1'
_cell_length_a   8.76569202
_cell_length_b   12.39797657
_cell_length_c   11.94254065
_cell_angle_alpha   65.46589782
_cell_angle_beta   68.46445347
_cell_angle_gamma   81.86299314
_symmetry_Int_Tables_number   1
_chemical_formula_structural   Sr21Fe14O47
_chemical_formula_sum   'Sr21 Fe14 O47'
_cell_volume   1098.18248562
_cell_formula_units_Z   1
loop_
 _symmetry_equiv_pos_site_id
 _symmetry_equiv_pos_as_xyz
  1  'x, y, z'
loop_
 _atom_site_type_symbol
 _atom_site_label
 _atom_site_symmetry_multiplicity
 _atom_site_fract_x
 _atom_site_fract_y
 _atom_site_fract_z
 _atom_site_occupancy
  Sr  Sr0  1  0.142857  0.785714  0.000000  1
  Sr  Sr1  1  0.990703  0.496761  0.999972  1
  Sr  Sr2  1  0.131486  0.941393  0.365786  1
  Sr  Sr3  1  0.154229  0.630036  0.634214  1
  Sr  Sr4  1  0.011329  0.344768  0.637453  1
  Sr  Sr5  1  0.300832  0.916588  0.632937  1
  Sr  Sr6  1  0.274385  0.226660  0.362547  1
  Sr  Sr7  1  0.433256  0.350502  0.999664  1
  Sr  Sr8  1  0.558055  0.799098  0.362054  1
  Sr  Sr9  1  0.704455  0.926819  0.999587  1
  Sr  Sr10  1  0.295012  0.074668  0.000028  1
  Sr  Sr11  1  0.581259  0.644610  0.000413  1
  Sr  Sr12  1  0.415955  0.512320  0.365742  1
  Sr  Sr13  1  0.587533  0.486789  0.633778  1
  Sr  Sr14  1  0.443468  0.202565  0.634614  1
  Sr  Sr15  1  0.727659  0.772331  0.637946  1
  Sr  Sr16  1  0.842246  0.368864  0.365386  1
  Sr  Sr17  1  0.984882  0.654840  0.367063  1
  Sr  Sr18  1  0.698181  0.084639  0.366222  1
  Sr  Sr19  1  0.852458  0.220926  0.000336  1
  Sr  Sr20  1  0.869759  0.059109  0.634258  1
  Fe  Fe21  1  0.343957  0.787862  0.192292  1
  Fe  Fe22  1  0.195607  0.496533  0.209952  1
  Fe  Fe23  1  0.060274  0.216983  0.191830  1
  Fe  Fe24  1  0.090107  0.074895  0.790048  1
  Fe  Fe25  1  0.509074  0.925613  0.807787  1
  Fe  Fe26  1  0.375174  0.645963  0.789935  1
  Fe  Fe27  1  0.225440  0.354446  0.808170  1
  Fe  Fe28  1  0.629720  0.359818  0.194253  1
  Fe  Fe29  1  0.490208  0.073137  0.193677  1
  Fe  Fe30  1  0.776640  0.645816  0.192213  1
  Fe  Fe31  1  0.910540  0.925465  0.210065  1
  Fe  Fe32  1  0.655994  0.211611  0.805747  1
  Fe  Fe33  1  0.795506  0.498291  0.806323  1
  Fe  Fe34  1  0.941758  0.783566  0.807708  1
  O  O35  1  0.130223  0.866941  0.179013  1
  O  O36  1  0.008577  0.926183  0.820989  1
  O  O37  1  0.031046  0.853942  0.615174  1
  O  O38  1  0.417785  0.932534  0.191162  1
  O  O39  1  0.254669  0.717487  0.384826  1
  O  O40  1  0.114726  0.431369  0.398081  1
  O  O41  1  0.283595  0.994649  0.820959  1
  O  O42  1  0.012007  0.425020  0.808784  1
  O  O43  1  0.431948  0.857694  0.999782  1
  O  O44  1  0.139656  0.369971  0.180588  1
  O  O45  1  0.142857  0.285714  0.000000  1
  O  O46  1  0.277138  0.645245  0.179011  1
  O  O47  1  0.155491  0.704487  0.820987  1
  O  O48  1  0.170989  0.140060  0.601919  1
  O  O49  1  0.273707  0.146408  0.191216  1
  O  O50  1  0.585514  0.993856  0.615467  1
  O  O51  1  0.430745  0.773225  0.820210  1
  O  O52  1  0.453943  0.712992  0.601732  1
  O  O53  1  0.146058  0.201457  0.819412  1
  O  O54  1  0.560337  0.716672  0.191901  1
  O  O55  1  0.294242  0.498535  0.820059  1
  O  O56  1  0.415321  0.438681  0.179900  1
  O  O57  1  0.309170  0.423873  0.615412  1
  O  O58  1  0.854969  0.798204  0.179790  1
  O  O59  1  0.700201  0.577573  0.384533  1
  O  O60  1  0.561485  0.217483  0.191178  1
  O  O61  1  0.543928  0.292471  0.387679  1
  O  O62  1  0.411567  0.002930  0.386370  1
  O  O63  1  0.568339  0.143689  0.000166  1
  O  O64  1  0.438077  0.283373  0.808582  1
  O  O65  1  0.703679  0.502103  0.191336  1
  O  O66  1  0.717375  0.427740  0.999834  1
  O  O67  1  0.853767  0.713734  0.000218  1
  O  O68  1  0.568691  0.566587  0.820474  1
  O  O69  1  0.725377  0.854757  0.808099  1
  O  O70  1  0.831771  0.858436  0.398268  1
  O  O71  1  0.724229  0.353945  0.808822  1
  O  O72  1  0.874147  0.568499  0.613630  1
  O  O73  1  0.741787  0.278958  0.612321  1
  O  O74  1  0.002119  0.576779  0.179041  1
  O  O75  1  0.717023  0.004842  0.179526  1
  O  O76  1  0.867929  0.638894  0.808838  1
  O  O77  1  0.582035  0.069325  0.808664  1
  O  O78  1  0.847637  0.288056  0.191418  1
  O  O79  1  0.976544  0.147555  0.384588  1
  O  O80  1  0.991472  0.072894  0.179941  1
  O  O81  1  0.870393  0.132747  0.820099  1
