# generated using pymatgen
data_Na4CuO3
_symmetry_space_group_name_H-M   'P 1'
_cell_length_a   8.12208784
_cell_length_b   6.30789688
_cell_length_c   5.72774331
_cell_angle_alpha   116.90105782
_cell_angle_beta   90.04956734
_cell_angle_gamma   111.46670452
_symmetry_Int_Tables_number   1
_chemical_formula_structural   Na4CuO3
_chemical_formula_sum   'Na8 Cu2 O6'
_cell_volume   238.59466446
_cell_formula_units_Z   2
loop_
 _symmetry_equiv_pos_site_id
 _symmetry_equiv_pos_as_xyz
  1  'x, y, z'
loop_
 _atom_site_type_symbol
 _atom_site_label
 _atom_site_symmetry_multiplicity
 _atom_site_fract_x
 _atom_site_fract_y
 _atom_site_fract_z
 _atom_site_occupancy
  Na  Na0  1  0.100882  0.655945  0.195108  1
  Na  Na1  1  0.289519  0.823485  0.736501  1
  Na  Na2  1  0.195180  0.267381  0.630885  1
  Na  Na3  1  0.379817  0.463186  0.230167  1
  Na  Na4  1  0.600966  0.655878  0.767101  1
  Na  Na5  1  0.788798  0.821879  0.393115  1
  Na  Na6  1  0.695222  0.268071  0.944234  1
  Na  Na7  1  0.879986  0.462354  0.540722  1
  Cu  Cu8  1  0.002470  0.002802  0.008241  1
  Cu  Cu9  1  0.502250  0.003029  0.299754  1
  O  O10  1  0.045286  0.901110  0.652422  1
  O  O11  1  0.084977  0.328584  0.309794  1
  O  O12  1  0.360010  0.666010  0.995344  1
  O  O13  1  0.545457  0.902741  0.555722  1
  O  O14  1  0.585568  0.330184  0.326369  1
  O  O15  1  0.859684  0.666288  0.977301  1
