# generated using pymatgen
data_LiFe2F5
_symmetry_space_group_name_H-M   'P 1'
_cell_length_a   5.33300418
_cell_length_b   6.00552036
_cell_length_c   7.87895962
_cell_angle_alpha   82.68381091
_cell_angle_beta   109.57857449
_cell_angle_gamma   63.12925839
_symmetry_Int_Tables_number   1
_chemical_formula_structural   LiFe2F5
_chemical_formula_sum   'Li2 Fe4 F10'
_cell_volume   200.07351315
_cell_formula_units_Z   2
loop_
 _symmetry_equiv_pos_site_id
 _symmetry_equiv_pos_as_xyz
  1  'x, y, z'
loop_
 _atom_site_type_symbol
 _atom_site_label
 _atom_site_symmetry_multiplicity
 _atom_site_fract_x
 _atom_site_fract_y
 _atom_site_fract_z
 _atom_site_occupancy
  Li  Li0  1  0.888440  0.546459  0.958273  1
  Li  Li1  1  0.531085  0.053817  0.464902  1
  Fe  Fe2  1  0.804092  0.006341  0.125529  1
  Fe  Fe3  1  0.306144  0.506551  0.626840  1
  Fe  Fe4  1  0.688461  0.489832  0.379408  1
  Fe  Fe5  1  0.197378  0.987329  0.880181  1
  F  F6  1  0.442428  0.725080  0.768042  1
  F  F7  1  0.824245  0.702450  0.540698  1
  F  F8  1  0.242662  0.738275  0.368288  1
  F  F9  1  0.004812  0.200591  0.038985  1
  F  F10  1  0.372025  0.244403  0.869305  1
  F  F11  1  0.638174  0.737887  0.134952  1
  F  F12  1  0.007000  0.788953  0.971850  1
  F  F13  1  0.752515  0.235501  0.633894  1
  F  F14  1  0.169382  0.288135  0.474349  1
  F  F15  1  0.591433  0.229046  0.266491  1
