# generated using pymatgen
data_Li4Ti3V2(Fe2O9)2
_symmetry_space_group_name_H-M   'P 1'
_cell_length_a   9.17777954
_cell_length_b   25.50941798
_cell_length_c   2.95529824
_cell_angle_alpha   90.00004680
_cell_angle_beta   89.99996824
_cell_angle_gamma   89.97837578
_symmetry_Int_Tables_number   1
_chemical_formula_structural   Li4Ti3V2(Fe2O9)2
_chemical_formula_sum   'Li8 Ti6 V4 Fe8 O36'
_cell_volume   691.89382639
_cell_formula_units_Z   2
loop_
 _symmetry_equiv_pos_site_id
 _symmetry_equiv_pos_as_xyz
  1  'x, y, z'
loop_
 _atom_site_type_symbol
 _atom_site_label
 _atom_site_symmetry_multiplicity
 _atom_site_fract_x
 _atom_site_fract_y
 _atom_site_fract_z
 _atom_site_occupancy
  Li  Li0  1  0.199706  0.989374  0.999999  1
  Li  Li1  1  0.197936  0.183098  1.000000  1
  Li  Li2  1  0.302940  0.683723  0.999999  1
  Li  Li3  1  0.299842  0.488945  1.000000  1
  Li  Li4  1  0.694395  0.509351  0.999999  1
  Li  Li5  1  0.688133  0.311298  1.000000  1
  Li  Li6  1  0.810028  0.812459  0.999999  1
  Li  Li7  1  0.804851  0.009699  0.000001  1
  Ti  Ti8  1  0.000537  0.099156  0.999999  1
  Ti  Ti9  1  0.498862  0.599178  -0.000000  1
  Ti  Ti10  1  0.494111  0.400322  0.000001  1
  Ti  Ti11  1  0.653478  0.690315  0.500002  1
  Ti  Ti12  1  0.846766  0.190471  0.500000  1
  Ti  Ti13  1  0.006759  0.900273  0.000001  1
  V  V14  1  0.997921  0.499922  0.999999  1
  V  V15  1  0.154328  0.809356  0.500002  1
  V  V16  1  0.345562  0.309600  0.500001  1
  V  V17  1  0.501882  0.999817  -0.000000  1
  Fe  Fe18  1  0.003293  0.305990  0.000001  1
  Fe  Fe19  1  0.146347  0.587248  0.500000  1
  Fe  Fe20  1  0.353550  0.087210  0.499998  1
  Fe  Fe21  1  0.496698  0.805857  0.000001  1
  Fe  Fe22  1  0.503591  0.196247  0.999999  1
  Fe  Fe23  1  0.653300  0.913087  0.500001  1
  Fe  Fe24  1  0.847264  0.413056  0.499999  1
  Fe  Fe25  1  0.996641  0.696052  -0.000001  1
  O  O26  1  0.992678  0.425721  0.999998  1
  O  O27  1  0.002698  0.574532  0.000002  1
  O  O28  1  0.062137  0.943575  0.500000  1
  O  O29  1  0.045565  0.155251  0.499999  1
  O  O30  1  0.123390  0.666076  0.499999  1
  O  O31  1  0.095395  0.763291  0.000000  1
  O  O32  1  0.146676  0.503936  0.499999  1
  O  O33  1  0.146759  0.291297  0.500001  1
  O  O34  1  0.187572  0.859311  -0.000002  1
  O  O35  1  0.202572  0.083985  0.999999  1
  O  O36  1  0.296981  0.584001  0.000001  1
  O  O37  1  0.312678  0.359492  1.000000  1
  O  O38  1  0.353348  0.791090  0.500000  1
  O  O39  1  0.353141  0.003980  0.500002  1
  O  O40  1  0.404971  0.263480  0.000002  1
  O  O41  1  0.377159  0.166042  0.499997  1
  O  O42  1  0.454253  0.655364  0.500002  1
  O  O43  1  0.438238  0.443578  0.500000  1
  O  O44  1  0.497121  0.074457  -0.000000  1
  O  O45  1  0.507677  0.925722  0.000002  1
  O  O46  1  0.558426  0.556296  0.500000  1
  O  O47  1  0.541263  0.343107  0.500000  1
  O  O48  1  0.622745  0.834543  0.500001  1
  O  O49  1  0.594759  0.738271  0.000003  1
  O  O50  1  0.650716  0.996186  0.500000  1
  O  O51  1  0.644364  0.211544  0.499999  1
  O  O52  1  0.685579  0.641789  -0.000001  1
  O  O53  1  0.698059  0.415910  1.000000  1
  O  O54  1  0.802246  0.915610  0.000000  1
  O  O55  1  0.814167  0.141934  0.999998  1
  O  O56  1  0.855882  0.711093  0.499999  1
  O  O57  1  0.849308  0.496203  0.500001  1
  O  O58  1  0.905539  0.238304  0.999998  1
  O  O59  1  0.877273  0.334531  0.500000  1
  O  O60  1  0.959126  0.843095  0.500001  1
  O  O61  1  0.940818  0.056297  0.499999  1
