# generated using pymatgen
data_FeOF
_symmetry_space_group_name_H-M   'P 1'
_cell_length_a   14.19786417
_cell_length_b   14.23495637
_cell_length_c   3.10015974
_cell_angle_alpha   90.00000000
_cell_angle_beta   90.00000000
_cell_angle_gamma   90.20909631
_symmetry_Int_Tables_number   1
_chemical_formula_structural   FeOF
_chemical_formula_sum   'Fe18 O18 F18'
_cell_volume   626.55664059
_cell_formula_units_Z   18
loop_
 _symmetry_equiv_pos_site_id
 _symmetry_equiv_pos_as_xyz
  1  'x, y, z'
loop_
 _atom_site_type_symbol
 _atom_site_label
 _atom_site_symmetry_multiplicity
 _atom_site_fract_x
 _atom_site_fract_y
 _atom_site_fract_z
 _atom_site_occupancy
  Fe  Fe0  1  0.013861  0.999456  0.000000  1
  Fe  Fe1  1  0.002788  0.339507  0.000000  1
  Fe  Fe2  1  0.008111  0.659182  0.000000  1
  Fe  Fe3  1  0.145185  0.172819  0.500000  1
  Fe  Fe4  1  0.153465  0.495704  0.500000  1
  Fe  Fe5  1  0.172582  0.850622  0.500000  1
  Fe  Fe6  1  0.333522  0.002499  0.000000  1
  Fe  Fe7  1  0.345109  0.330575  0.000000  1
  Fe  Fe8  1  0.345801  0.663907  0.000000  1
  Fe  Fe9  1  0.487481  0.496884  0.500000  1
  Fe  Fe10  1  0.485973  0.163018  0.500000  1
  Fe  Fe11  1  0.500111  0.816985  0.500000  1
  Fe  Fe12  1  0.680173  0.998128  0.000000  1
  Fe  Fe13  1  0.680216  0.331607  0.000000  1
  Fe  Fe14  1  0.667631  0.676538  0.000000  1
  Fe  Fe15  1  0.820743  0.165334  0.500000  1
  Fe  Fe16  1  0.833055  0.480790  0.500000  1
  Fe  Fe17  1  0.819884  0.831647  0.500000  1
  O  O18  1  0.062110  0.272315  0.500000  1
  O  O19  1  0.065774  0.606000  0.500000  1
  O  O20  1  0.064626  0.932377  0.500000  1
  O  O21  1  0.100588  0.102838  0.000000  1
  O  O22  1  0.104770  0.437635  0.000000  1
  O  O23  1  0.238995  0.903425  0.000000  1
  O  O24  1  0.398052  0.266665  0.500000  1
  O  O25  1  0.399601  0.603302  0.500000  1
  O  O26  1  0.431798  0.096506  0.000000  1
  O  O27  1  0.434471  0.435364  0.000000  1
  O  O28  1  0.431753  0.772268  0.000000  1
  O  O29  1  0.603552  0.730081  0.500000  1
  O  O30  1  0.730242  0.268090  0.500000  1
  O  O31  1  0.729841  0.933748  0.500000  1
  O  O32  1  0.768053  0.101399  0.000000  1
  O  O33  1  0.764942  0.436790  0.000000  1
  O  O34  1  0.773596  0.764572  0.000000  1
  O  O35  1  0.935590  0.398941  0.500000  1
  F  F36  1  0.104936  0.770862  0.000000  1
  F  F37  1  0.231651  0.235084  0.000000  1
  F  F38  1  0.233576  0.566987  0.000000  1
  F  F39  1  0.268645  0.068357  0.500000  1
  F  F40  1  0.263613  0.731049  0.500000  1
  F  F41  1  0.269213  0.398847  0.500000  1
  F  F42  1  0.401348  0.936931  0.500000  1
  F  F43  1  0.563094  0.229271  0.000000  1
  F  F44  1  0.569003  0.562319  0.000000  1
  F  F45  1  0.562759  0.901393  0.000000  1
  F  F46  1  0.599438  0.066066  0.500000  1
  F  F47  1  0.599076  0.397732  0.500000  1
  F  F48  1  0.732561  0.600889  0.500000  1
  F  F49  1  0.897146  0.227703  0.000000  1
  F  F50  1  0.897304  0.570257  0.000000  1
  F  F51  1  0.898698  0.899649  0.000000  1
  F  F52  1  0.934338  0.063995  0.500000  1
  F  F53  1  0.939556  0.735093  0.500000  1
