# generated using pymatgen
data_Li4CoOF5
_symmetry_space_group_name_H-M   'P 1'
_cell_length_a   3.67070420
_cell_length_b   5.42663743
_cell_length_c   6.62492883
_cell_angle_alpha   76.86935728
_cell_angle_beta   106.07109305
_cell_angle_gamma   70.26036718
_symmetry_Int_Tables_number   1
_chemical_formula_structural   Li4CoOF5
_chemical_formula_sum   'Li4 Co1 O1 F5'
_cell_volume   111.60320543
_cell_formula_units_Z   1
loop_
 _symmetry_equiv_pos_site_id
 _symmetry_equiv_pos_as_xyz
  1  'x, y, z'
loop_
 _atom_site_type_symbol
 _atom_site_label
 _atom_site_symmetry_multiplicity
 _atom_site_fract_x
 _atom_site_fract_y
 _atom_site_fract_z
 _atom_site_occupancy
  Li  Li0  1  0.255575  0.106846  0.617193  1
  Li  Li1  1  0.859984  0.474830  0.197506  1
  Li  Li2  1  0.745314  0.893435  0.384461  1
  Li  Li3  1  0.139481  0.524409  0.804190  1
  Co  Co4  1  0.000869  0.998471  0.001279  1
  O  O5  1  0.501468  0.997965  0.001585  1
  F  F6  1  0.267537  0.583100  0.120281  1
  F  F7  1  0.865168  0.950010  0.680415  1
  F  F8  1  0.000062  0.499984  0.500714  1
  F  F9  1  0.733070  0.413577  0.880895  1
  F  F10  1  0.135865  0.049278  0.321537  1
