# generated using pymatgen
data_Li2MnFe(BO3)2
_symmetry_space_group_name_H-M   'P 1'
_cell_length_a   8.26431623
_cell_length_b   14.31362723
_cell_length_c   3.16191536
_cell_angle_alpha   90.00000000
_cell_angle_beta   90.00000000
_cell_angle_gamma   89.98522851
_symmetry_Int_Tables_number   1
_chemical_formula_structural   Li2MnFe(BO3)2
_chemical_formula_sum   'Li6 Mn3 Fe3 B6 O18'
_cell_volume   374.03036003
_cell_formula_units_Z   3
loop_
 _symmetry_equiv_pos_site_id
 _symmetry_equiv_pos_as_xyz
  1  'x, y, z'
loop_
 _atom_site_type_symbol
 _atom_site_label
 _atom_site_symmetry_multiplicity
 _atom_site_fract_x
 _atom_site_fract_y
 _atom_site_fract_z
 _atom_site_occupancy
  Li  Li0  1  0.292561  0.989487  0.500000  1
  Li  Li1  1  0.341984  0.357981  0.500000  1
  Li  Li2  1  0.367311  0.651909  0.500000  1
  Li  Li3  1  0.792953  0.493446  0.500000  1
  Li  Li4  1  0.839869  0.857719  0.500000  1
  Li  Li5  1  0.865466  0.149497  0.500000  1
  Mn  Mn6  1  0.134165  0.506368  0.000000  1
  Mn  Mn7  1  0.191978  0.179840  0.000000  1
  Mn  Mn8  1  0.674337  0.314086  0.000000  1
  Fe  Fe9  1  0.175734  0.816302  0.000000  1
  Fe  Fe10  1  0.636447  0.003399  0.000000  1
  Fe  Fe11  1  0.686921  0.679942  0.000000  1
  B  B12  1  0.999652  0.668605  0.500000  1
  B  B13  1  0.998042  0.999442  0.000000  1
  B  B14  1  0.000198  0.333326  0.500000  1
  B  B15  1  0.500315  0.164612  0.500000  1
  B  B16  1  0.501880  0.500486  0.000000  1
  B  B17  1  0.499965  0.833531  0.500000  1
  O  O18  1  0.008989  0.430309  0.500000  1
  O  O19  1  0.017973  0.765337  0.500000  1
  O  O20  1  0.136856  0.611713  0.500000  1
  O  O21  1  0.141319  0.280519  0.500000  1
  O  O22  1  0.150659  0.957578  0.000000  1
  O  O23  1  0.347212  0.123963  0.500000  1
  O  O24  1  0.347609  0.791702  0.500000  1
  O  O25  1  0.364660  0.443810  0.000000  1
  O  O26  1  0.486074  0.597618  0.000000  1
  O  O27  1  0.512950  0.930441  0.500000  1
  O  O28  1  0.514590  0.261803  0.500000  1
  O  O29  1  0.637727  0.108407  0.500000  1
  O  O30  1  0.638809  0.778337  0.500000  1
  O  O31  1  0.655341  0.460460  0.000000  1
  O  O32  1  0.845727  0.628688  0.500000  1
  O  O33  1  0.850615  0.289104  0.500000  1
  O  O34  1  0.859548  0.943986  0.000000  1
  O  O35  1  0.983562  0.096248  0.000000  1
