# generated using pymatgen
data_Li2CrF4
_symmetry_space_group_name_H-M   'P 1'
_cell_length_a   4.08069541
_cell_length_b   8.94242344
_cell_length_c   8.85254703
_cell_angle_alpha   92.30070815
_cell_angle_beta   90.00028186
_cell_angle_gamma   90.00001265
_symmetry_Int_Tables_number   1
_chemical_formula_structural   Li2CrF4
_chemical_formula_sum   'Li8 Cr4 F16'
_cell_volume   322.78060154
_cell_formula_units_Z   4
loop_
 _symmetry_equiv_pos_site_id
 _symmetry_equiv_pos_as_xyz
  1  'x, y, z'
loop_
 _atom_site_type_symbol
 _atom_site_label
 _atom_site_symmetry_multiplicity
 _atom_site_fract_x
 _atom_site_fract_y
 _atom_site_fract_z
 _atom_site_occupancy
  Li  Li0  1  0.499994  0.627986  0.074596  1
  Li  Li1  1  0.999994  0.421881  0.105092  1
  Li  Li2  1  0.499995  0.867492  0.382945  1
  Li  Li3  1  0.999994  0.115825  0.359722  1
  Li  Li4  1  0.999997  0.903292  0.619434  1
  Li  Li5  1  0.499999  0.124284  0.615378  1
  Li  Li6  1  0.999997  0.366910  0.657414  1
  Li  Li7  1  0.499996  0.382832  0.881944  1
  Cr  Cr8  1  0.999997  0.861626  0.117498  1
  Cr  Cr9  1  0.499986  0.379789  0.371865  1
  Cr  Cr10  1  0.500019  0.635198  0.648878  1
  Cr  Cr11  1  -0.000009  0.120496  0.884250  1
  F  F12  1  0.999993  0.086812  0.136522  1
  F  F13  1  0.999993  0.636191  0.111722  1
  F  F14  1  0.500005  0.841024  0.152410  1
  F  F15  1  0.499988  0.413252  0.110838  1
  F  F16  1  0.999992  0.900043  0.386058  1
  F  F17  1  0.000010  0.360466  0.357471  1
  F  F18  1  0.500001  0.152507  0.386571  1
  F  F19  1  0.500003  0.605456  0.416036  1
  F  F20  1  0.500000  0.359434  0.646656  1
  F  F21  1  0.500000  0.895730  0.599259  1
  F  F22  1  0.000006  0.605655  0.639583  1
  F  F23  1  0.000001  0.138177  0.613430  1
  F  F24  1  0.499996  0.598834  0.867692  1
  F  F25  1  0.500033  0.142880  0.857776  1
  F  F26  1  0.999999  0.349061  0.888490  1
  F  F27  1  0.000004  0.900439  0.851021  1
