# generated using pymatgen
data_Ti3MnCo2(PO4)6
_symmetry_space_group_name_H-M   'P 1'
_cell_length_a   8.56731952
_cell_length_b   8.56731991
_cell_length_c   8.56732000
_cell_angle_alpha   60.83831219
_cell_angle_beta   60.83831413
_cell_angle_gamma   60.83831021
_symmetry_Int_Tables_number   1
_chemical_formula_structural   Ti3MnCo2(PO4)6
_chemical_formula_sum   'Ti3 Mn1 Co2 P6 O24'
_cell_volume   453.05712531
_cell_formula_units_Z   1
loop_
 _symmetry_equiv_pos_site_id
 _symmetry_equiv_pos_as_xyz
  1  'x, y, z'
loop_
 _atom_site_type_symbol
 _atom_site_label
 _atom_site_symmetry_multiplicity
 _atom_site_fract_x
 _atom_site_fract_y
 _atom_site_fract_z
 _atom_site_occupancy
  Ti  Ti0  1  0.143673  0.143673  0.143673  1
  Ti  Ti1  1  0.354068  0.354068  0.354068  1
  Ti  Ti2  1  0.647143  0.647143  0.647143  1
  Mn  Mn3  1  0.855390  0.855390  0.855390  1
  Co  Co4  1  0.996250  0.996250  0.996250  1
  Co  Co5  1  0.499137  0.499137  0.499137  1
  P  P6  1  0.049538  0.752633  0.449913  1
  P  P7  1  0.449913  0.049538  0.752633  1
  P  P8  1  0.255432  0.541739  0.954553  1
  P  P9  1  0.541739  0.954553  0.255432  1
  P  P10  1  0.954553  0.255432  0.541739  1
  P  P11  1  0.752633  0.449913  0.049538  1
  O  O12  1  0.110759  0.335780  0.479291  1
  O  O13  1  0.335780  0.479291  0.110759  1
  O  O14  1  0.059503  0.911040  0.252149  1
  O  O15  1  0.479291  0.110759  0.335780  1
  O  O16  1  0.022507  0.815989  0.598004  1
  O  O17  1  0.243182  0.587846  0.426937  1
  O  O18  1  0.252149  0.059503  0.911040  1
  O  O19  1  0.426937  0.243182  0.587846  1
  O  O20  1  0.186804  0.380353  0.002300  1
  O  O21  1  0.587846  0.426937  0.243182  1
  O  O22  1  0.102616  0.734003  0.951910  1
  O  O23  1  0.380353  0.002300  0.186804  1
  O  O24  1  0.598004  0.022507  0.815989  1
  O  O25  1  0.911040  0.252149  0.059503  1
  O  O26  1  0.416618  0.550726  0.759242  1
  O  O27  1  0.815989  0.598004  0.022507  1
  O  O28  1  0.550726  0.759242  0.416618  1
  O  O29  1  0.734003  0.951910  0.102616  1
  O  O30  1  0.759242  0.416618  0.550726  1
  O  O31  1  0.002300  0.186804  0.380353  1
  O  O32  1  0.503160  0.881025  0.688789  1
  O  O33  1  0.951910  0.102616  0.734003  1
  O  O34  1  0.688789  0.503160  0.881025  1
  O  O35  1  0.881025  0.688789  0.503160  1
