# generated using pymatgen
data_LiFe2(BO3)2
_symmetry_space_group_name_H-M   'P 1'
_cell_length_a   5.26611761
_cell_length_b   5.27101644
_cell_length_c   20.16571443
_cell_angle_alpha   88.98693540
_cell_angle_beta   89.92094231
_cell_angle_gamma   60.47015504
_symmetry_Int_Tables_number   1
_chemical_formula_structural   LiFe2(BO3)2
_chemical_formula_sum   'Li4 Fe8 B8 O24'
_cell_volume   486.94949677
_cell_formula_units_Z   4
loop_
 _symmetry_equiv_pos_site_id
 _symmetry_equiv_pos_as_xyz
  1  'x, y, z'
loop_
 _atom_site_type_symbol
 _atom_site_label
 _atom_site_symmetry_multiplicity
 _atom_site_fract_x
 _atom_site_fract_y
 _atom_site_fract_z
 _atom_site_occupancy
  Li  Li0  1  0.333865  0.642088  0.168119  1
  Li  Li1  1  0.353601  0.667737  0.419990  1
  Li  Li2  1  0.655397  0.346663  0.799273  1
  Li  Li3  1  0.660203  0.339537  0.549248  1
  Fe  Fe4  1  0.005774  0.681895  0.810533  1
  Fe  Fe5  1  0.986998  0.673519  0.309119  1
  Fe  Fe6  1  0.667375  0.994880  0.932668  1
  Fe  Fe7  1  0.684648  0.001770  0.435654  1
  Fe  Fe8  1  0.323172  0.989822  0.561459  1
  Fe  Fe9  1  0.322292  0.019204  0.060058  1
  Fe  Fe10  1  0.009654  0.330895  0.684899  1
  Fe  Fe11  1  0.991787  0.315414  0.186730  1
  B  B12  1  0.996916  0.337678  0.934960  1
  B  B13  1  0.008521  0.331074  0.436143  1
  B  B14  1  0.331970  0.003922  0.810015  1
  B  B15  1  0.328617  0.007621  0.312282  1
  B  B16  1  0.667661  0.999761  0.687568  1
  B  B17  1  0.664056  0.996022  0.185532  1
  B  B18  1  0.995269  0.665578  0.560942  1
  B  B19  1  0.988467  0.675096  0.061700  1
  O  O20  1  0.081149  0.259676  0.788158  1
  O  O21  1  0.106161  0.273322  0.289242  1
  O  O22  1  0.265576  0.116906  0.961119  1
  O  O23  1  0.977749  0.600554  0.915973  1
  O  O24  1  0.262164  0.073943  0.452663  1
  O  O25  1  0.025873  0.575564  0.412941  1
  O  O26  1  0.571493  0.033327  0.832208  1
  O  O27  1  0.263204  0.646552  0.556810  1
  O  O28  1  0.597860  0.979902  0.328718  1
  O  O29  1  0.214204  0.727609  0.072459  1
  O  O30  1  0.348081  0.740541  0.810019  1
  O  O31  1  0.285648  0.772894  0.320448  1
  O  O32  1  0.704177  0.239275  0.691804  1
  O  O33  1  0.647975  0.260156  0.184259  1
  O  O34  1  0.769401  0.288757  0.927505  1
  O  O35  1  0.402587  0.029138  0.666634  1
  O  O36  1  0.738510  0.351264  0.444134  1
  O  O37  1  0.427733  0.964203  0.163492  1
  O  O38  1  0.970418  0.420801  0.581837  1
  O  O39  1  0.016574  0.408574  0.081818  1
  O  O40  1  0.742111  0.922689  0.542380  1
  O  O41  1  0.724707  0.889887  0.034774  1
  O  O42  1  0.892461  0.727428  0.706302  1
  O  O43  1  0.920791  0.744007  0.208166  1
