# generated using pymatgen
data_Li2Cu(Si2O5)2
_symmetry_space_group_name_H-M   'P 1'
_cell_length_a   9.62374750
_cell_length_b   7.37537167
_cell_length_c   6.88746997
_cell_angle_alpha   63.15829083
_cell_angle_beta   76.98756468
_cell_angle_gamma   100.56448419
_symmetry_Int_Tables_number   1
_chemical_formula_structural   Li2Cu(Si2O5)2
_chemical_formula_sum   'Li4 Cu2 Si8 O20'
_cell_volume   401.50303056
_cell_formula_units_Z   2
loop_
 _symmetry_equiv_pos_site_id
 _symmetry_equiv_pos_as_xyz
  1  'x, y, z'
loop_
 _atom_site_type_symbol
 _atom_site_label
 _atom_site_symmetry_multiplicity
 _atom_site_fract_x
 _atom_site_fract_y
 _atom_site_fract_z
 _atom_site_occupancy
  Li  Li0  1  0.024376  0.258739  0.630948  1
  Li  Li1  1  0.565664  0.701297  0.781593  1
  Li  Li2  1  0.434336  0.298703  0.218407  1
  Li  Li3  1  0.975624  0.741261  0.369052  1
  Cu  Cu4  1  0.430081  0.295448  0.760239  1
  Cu  Cu5  1  0.569919  0.704552  0.239761  1
  Si  Si6  1  0.184751  0.964233  0.760776  1
  Si  Si7  1  0.264167  0.666929  0.596184  1
  Si  Si8  1  0.238942  0.612647  0.198349  1
  Si  Si9  1  0.148291  0.278074  0.097950  1
  Si  Si10  1  0.851709  0.721926  0.902050  1
  Si  Si11  1  0.761058  0.387353  0.801651  1
  Si  Si12  1  0.735833  0.333071  0.403816  1
  Si  Si13  1  0.815249  0.035767  0.239224  1
  O  O14  1  0.003139  0.934092  0.789211  1
  O  O15  1  0.148273  0.474557  0.856803  1
  O  O16  1  0.258523  0.898162  0.572788  1
  O  O17  1  0.173738  0.629988  0.430646  1
  O  O18  1  0.187255  0.797161  0.015429  1
  O  O19  1  0.126475  0.370327  0.280763  1
  O  O20  1  0.435847  0.667347  0.532213  1
  O  O21  1  0.258084  0.212689  0.672119  1
  O  O22  1  0.699282  0.780955  0.930295  1
  O  O23  1  0.587299  0.372825  0.884147  1
  O  O24  1  0.412701  0.627175  0.115853  1
  O  O25  1  0.300718  0.219045  0.069705  1
  O  O26  1  0.741916  0.787311  0.327881  1
  O  O27  1  0.564153  0.332653  0.467787  1
  O  O28  1  0.873525  0.629673  0.719237  1
  O  O29  1  0.812745  0.202839  0.984571  1
  O  O30  1  0.826262  0.370012  0.569354  1
  O  O31  1  0.741477  0.101838  0.427212  1
  O  O32  1  0.851727  0.525443  0.143197  1
  O  O33  1  0.996861  0.065908  0.210789  1
