# generated using pymatgen
data_Rb3HoO3
_symmetry_space_group_name_H-M   'P 1'
_cell_length_a   7.33963253
_cell_length_b   7.33963253
_cell_length_c   7.29234526
_cell_angle_alpha   85.18682706
_cell_angle_beta   94.81317294
_cell_angle_gamma   63.56519258
_symmetry_Int_Tables_number   1
_chemical_formula_structural   Rb3HoO3
_chemical_formula_sum   'Rb6 Ho2 O6'
_cell_volume   347.27295611
_cell_formula_units_Z   2
loop_
 _symmetry_equiv_pos_site_id
 _symmetry_equiv_pos_as_xyz
  1  'x, y, z'
loop_
 _atom_site_type_symbol
 _atom_site_label
 _atom_site_symmetry_multiplicity
 _atom_site_fract_x
 _atom_site_fract_y
 _atom_site_fract_z
 _atom_site_occupancy
  Rb  Rb0  1  0.362940  0.637060  0.643031  1
  Rb  Rb1  1  0.793945  0.793945  0.500000  1
  Rb  Rb2  1  0.206055  0.206055  0.500000  1
  Rb  Rb3  1  0.260539  0.260539  0.000000  1
  Rb  Rb4  1  0.739461  0.739461  0.000000  1
  Rb  Rb5  1  0.637060  0.362940  0.356969  1
  Ho  Ho6  1  0.176931  0.823069  0.148847  1
  Ho  Ho7  1  0.823069  0.176931  0.851153  1
  O  O8  1  0.102213  0.897787  0.845723  1
  O  O9  1  0.168647  0.555200  0.267523  1
  O  O10  1  0.444800  0.831353  0.267523  1
  O  O11  1  0.555200  0.168647  0.732477  1
  O  O12  1  0.831353  0.444800  0.732477  1
  O  O13  1  0.897787  0.102213  0.154277  1
