# generated using pymatgen
data_AgB10H26C6N
_symmetry_space_group_name_H-M   'P 1'
_cell_length_a   9.61145205
_cell_length_b   7.43340421
_cell_length_c   22.95809650
_cell_angle_alpha   90.00000000
_cell_angle_beta   99.41237835
_cell_angle_gamma   90.00000000
_symmetry_Int_Tables_number   1
_chemical_formula_structural   AgB10H26C6N
_chemical_formula_sum   'Ag4 B40 H104 C24 N4'
_cell_volume   1618.17670016
_cell_formula_units_Z   4
loop_
 _symmetry_equiv_pos_site_id
 _symmetry_equiv_pos_as_xyz
  1  'x, y, z'
loop_
 _atom_site_type_symbol
 _atom_site_label
 _atom_site_symmetry_multiplicity
 _atom_site_fract_x
 _atom_site_fract_y
 _atom_site_fract_z
 _atom_site_occupancy
  Ag  Ag0  1  0.401356  0.038525  0.698360  1
  Ag  Ag1  1  0.598644  0.538525  0.801640  1
  Ag  Ag2  1  0.598644  0.961475  0.301640  1
  Ag  Ag3  1  0.401356  0.461475  0.198360  1
  B  B4  1  0.237494  0.751983  0.677491  1
  B  B5  1  0.762506  0.251983  0.822509  1
  B  B6  1  0.762506  0.248017  0.322509  1
  B  B7  1  0.237494  0.748017  0.177491  1
  B  B8  1  0.393305  0.715538  0.653218  1
  B  B9  1  0.606695  0.215538  0.846782  1
  B  B10  1  0.606695  0.284462  0.346782  1
  B  B11  1  0.393305  0.784462  0.153218  1
  B  B12  1  0.343691  0.593031  0.716355  1
  B  B13  1  0.656309  0.093031  0.783645  1
  B  B14  1  0.656309  0.406969  0.283645  1
  B  B15  1  0.343691  0.906969  0.216355  1
  B  B16  1  0.173132  0.536868  0.671717  1
  B  B17  1  0.826868  0.036868  0.828283  1
  B  B18  1  0.826868  0.463132  0.328283  1
  B  B19  1  0.173132  0.963132  0.171717  1
  B  B20  1  0.223529  0.657663  0.608627  1
  B  B21  1  0.776471  0.157663  0.891373  1
  B  B22  1  0.776471  0.342337  0.391373  1
  B  B23  1  0.223529  0.842337  0.108627  1
  B  B24  1  0.466692  0.496883  0.674381  1
  B  B25  1  0.533308  0.996883  0.825619  1
  B  B26  1  0.533308  0.503117  0.325619  1
  B  B27  1  0.466692  0.003117  0.174381  1
  B  B28  1  0.311321  0.369561  0.687117  1
  B  B29  1  0.688679  0.869561  0.812883  1
  B  B30  1  0.688679  0.630439  0.312883  1
  B  B31  1  0.311321  0.130439  0.187117  1
  B  B32  1  0.225836  0.415359  0.611212  1
  B  B33  1  0.774164  0.915359  0.888788  1
  B  B34  1  0.774164  0.584641  0.388788  1
  B  B35  1  0.225836  0.084641  0.111212  1
  B  B36  1  0.382053  0.540780  0.598204  1
  B  B37  1  0.617947  0.040780  0.901796  1
  B  B38  1  0.617947  0.459220  0.401796  1
  B  B39  1  0.382053  0.959220  0.098204  1
  B  B40  1  0.392876  0.330313  0.627956  1
  B  B41  1  0.607124  0.830313  0.872044  1
  B  B42  1  0.607124  0.669687  0.372044  1
  B  B43  1  0.392876  0.169687  0.127956  1
  H  H44  1  0.025216  0.288868  0.883728  1
  H  H45  1  0.974784  0.788868  0.616272  1
  H  H46  1  0.974784  0.711132  0.116272  1
  H  H47  1  0.025216  0.211132  0.383728  1
  H  H48  1  0.085477  0.985349  0.936284  1
  H  H49  1  0.914523  0.485349  0.563716  1
  H  H50  1  0.914523  0.014651  0.063716  1
  H  H51  1  0.085477  0.514651  0.436284  1
  H  H52  1  0.970845  0.615083  0.835553  1
  H  H53  1  0.029155  0.115083  0.664447  1
  H  H54  1  0.029155  0.384917  0.164447  1
  H  H55  1  0.970845  0.884917  0.335553  1
  H  H56  1  0.348526  0.572083  0.937075  1
  H  H57  1  0.651474  0.072082  0.562925  1
  H  H58  1  0.651474  0.427918  0.062925  1
  H  H59  1  0.348526  0.927917  0.437075  1
  H  H60  1  0.181869  0.882396  0.694761  1
  H  H61  1  0.818131  0.382396  0.805239  1
  H  H62  1  0.818131  0.117604  0.305239  1
  H  H63  1  0.181869  0.617604  0.194761  1
  H  H64  1  0.481624  0.830655  0.648212  1
  H  H65  1  0.518376  0.330655  0.851788  1
  H  H66  1  0.518376  0.169345  0.351788  1
  H  H67  1  0.481624  0.669345  0.148212  1
  H  H68  1  0.373938  0.617340  0.769156  1
  H  H69  1  0.626062  0.117340  0.730844  1
  H  H70  1  0.626062  0.382660  0.230844  1
  H  H71  1  0.373938  0.882660  0.269156  1
  H  H72  1  0.060537  0.507259  0.686139  1
  H  H73  1  0.939463  0.007259  0.813861  1
  H  H74  1  0.939463  0.492741  0.313861  1
  H  H75  1  0.060537  0.992741  0.186139  1
  H  H76  1  0.154871  0.728415  0.566030  1
  H  H77  1  0.845129  0.228415  0.933970  1
  H  H78  1  0.845129  0.271585  0.433970  1
  H  H79  1  0.154871  0.771585  0.066030  1
  H  H80  1  0.590351  0.486474  0.694856  1
  H  H81  1  0.409649  0.986474  0.805144  1
  H  H82  1  0.409649  0.513526  0.305144  1
  H  H83  1  0.590351  0.013526  0.194856  1
  H  H84  1  0.290432  0.258831  0.724255  1
  H  H85  1  0.709568  0.758831  0.775745  1
  H  H86  1  0.709568  0.741169  0.275745  1
  H  H87  1  0.290432  0.241169  0.224255  1
  H  H88  1  0.138404  0.332599  0.578302  1
  H  H89  1  0.861596  0.832599  0.921698  1
  H  H90  1  0.861596  0.667401  0.421698  1
  H  H91  1  0.138404  0.167401  0.078302  1
  H  H92  1  0.435166  0.563294  0.554990  1
  H  H93  1  0.564834  0.063294  0.945010  1
  H  H94  1  0.564834  0.436706  0.445010  1
  H  H95  1  0.435166  0.936706  0.054990  1
  H  H96  1  0.443202  0.201607  0.607598  1
  H  H97  1  0.556798  0.701607  0.892402  1
  H  H98  1  0.556798  0.798393  0.392402  1
  H  H99  1  0.443202  0.298393  0.107598  1
  H  H100  1  0.328443  0.201078  0.896174  1
  H  H101  1  0.671557  0.701078  0.603826  1
  H  H102  1  0.671557  0.798922  0.103826  1
  H  H103  1  0.328443  0.298922  0.396174  1
  H  H104  1  0.188038  0.099025  0.848005  1
  H  H105  1  0.811962  0.599025  0.651995  1
  H  H106  1  0.811962  0.900975  0.151995  1
  H  H107  1  0.188038  0.400975  0.348005  1
  H  H108  1  0.231291  0.080011  0.985153  1
  H  H109  1  0.768709  0.580011  0.514847  1
  H  H110  1  0.768709  0.919989  0.014847  1
  H  H111  1  0.231291  0.419989  0.485153  1
  H  H112  1  0.260908  0.909205  0.935718  1
  H  H113  1  0.739092  0.409205  0.564282  1
  H  H114  1  0.739092  0.090795  0.064282  1
  H  H115  1  0.260908  0.590795  0.435718  1
  H  H116  1  0.268748  0.452671  0.840078  1
  H  H117  1  0.731252  0.952671  0.659922  1
  H  H118  1  0.731252  0.547329  0.159922  1
  H  H119  1  0.268748  0.047329  0.340078  1
  H  H120  1  0.115712  0.355972  0.798528  1
  H  H121  1  0.884288  0.855972  0.701472  1
  H  H122  1  0.884288  0.644028  0.201472  1
  H  H123  1  0.115712  0.144028  0.298528  1
  H  H124  1  0.096813  0.685598  0.791931  1
  H  H125  1  0.903187  0.185598  0.708069  1
  H  H126  1  0.903187  0.314402  0.208069  1
  H  H127  1  0.096813  0.814402  0.291931  1
  H  H128  1  0.135127  0.710900  0.869249  1
  H  H129  1  0.864873  0.210900  0.630751  1
  H  H130  1  0.864873  0.289100  0.130751  1
  H  H131  1  0.135127  0.789100  0.369249  1
  H  H132  1  0.117687  0.339821  0.980268  1
  H  H133  1  0.882313  0.839821  0.519732  1
  H  H134  1  0.882313  0.660179  0.019732  1
  H  H135  1  0.117687  0.160179  0.480268  1
  H  H136  1  0.083451  0.546089  0.942105  1
  H  H137  1  0.916549  0.046089  0.557895  1
  H  H138  1  0.916549  0.453911  0.057895  1
  H  H139  1  0.083451  0.953911  0.442105  1
  H  H140  1  0.375725  0.368914  0.978715  1
  H  H141  1  0.624275  0.868914  0.521285  1
  H  H142  1  0.624275  0.631086  0.021285  1
  H  H143  1  0.375725  0.131086  0.478715  1
  H  H144  1  0.309933  0.562440  0.010220  1
  H  H145  1  0.690067  0.062440  0.489780  1
  H  H146  1  0.690067  0.437560  0.989780  1
  H  H147  1  0.309933  0.937560  0.510220  1
  C  C148  1  0.218034  0.158689  0.891983  1
  C  C149  1  0.781966  0.658689  0.608017  1
  C  C150  1  0.781966  0.841311  0.108017  1
  C  C151  1  0.218034  0.341311  0.391983  1
  C  C152  1  0.195980  0.028283  0.940404  1
  C  C153  1  0.804020  0.528283  0.559596  1
  C  C154  1  0.804020  0.971717  0.059596  1
  C  C155  1  0.195980  0.471717  0.440404  1
  C  C156  1  0.154324  0.439300  0.837351  1
  C  C157  1  0.845676  0.939300  0.662649  1
  C  C158  1  0.845676  0.560700  0.162649  1
  C  C159  1  0.154324  0.060700  0.337351  1
  C  C160  1  0.084102  0.622233  0.833951  1
  C  C161  1  0.915898  0.122233  0.666049  1
  C  C162  1  0.915898  0.377767  0.166049  1
  C  C163  1  0.084102  0.877767  0.333951  1
  C  C164  1  0.154581  0.429903  0.948168  1
  C  C165  1  0.845419  0.929903  0.551832  1
  C  C166  1  0.845419  0.570097  0.051832  1
  C  C167  1  0.154581  0.070097  0.448168  1
  C  C168  1  0.306205  0.486013  0.969006  1
  C  C169  1  0.693795  0.986013  0.530994  1
  C  C170  1  0.693795  0.513987  0.030994  1
  C  C171  1  0.306205  0.013987  0.469006  1
  N  N172  1  0.130168  0.328138  0.890331  1
  N  N173  1  0.869832  0.828138  0.609669  1
  N  N174  1  0.869832  0.671862  0.109669  1
  N  N175  1  0.130168  0.171862  0.390331  1
