# generated using pymatgen
data_Li4Ti2Mn3Cu3O16
_symmetry_space_group_name_H-M   'P 1'
_cell_length_a   5.84941381
_cell_length_b   5.82456801
_cell_length_c   9.49503293
_cell_angle_alpha   89.57240989
_cell_angle_beta   89.41045757
_cell_angle_gamma   119.46126023
_symmetry_Int_Tables_number   1
_chemical_formula_structural   Li4Ti2Mn3Cu3O16
_chemical_formula_sum   'Li4 Ti2 Mn3 Cu3 O16'
_cell_volume   281.62253159
_cell_formula_units_Z   1
loop_
 _symmetry_equiv_pos_site_id
 _symmetry_equiv_pos_as_xyz
  1  'x, y, z'
loop_
 _atom_site_type_symbol
 _atom_site_label
 _atom_site_symmetry_multiplicity
 _atom_site_fract_x
 _atom_site_fract_y
 _atom_site_fract_z
 _atom_site_occupancy
  Li  Li0  1  0.338843  0.672973  0.896836  1
  Li  Li1  1  0.998982  0.000066  0.996892  1
  Li  Li2  1  0.000565  0.000203  0.493095  1
  Li  Li3  1  0.670467  0.333450  0.394317  1
  Ti  Ti4  1  0.319114  0.659568  0.490862  1
  Ti  Ti5  1  0.659187  0.333549  0.000352  1
  Mn  Mn6  1  0.655611  0.827360  0.216046  1
  Mn  Mn7  1  0.829783  0.660273  0.714875  1
  Mn  Mn8  1  0.828467  0.167677  0.714897  1
  Cu  Cu9  1  0.167682  0.828551  0.214564  1
  Cu  Cu10  1  0.168246  0.338817  0.213956  1
  Cu  Cu11  1  0.339833  0.174207  0.715216  1
  O  O12  1  0.146719  0.811554  0.590258  1
  O  O13  1  0.042331  0.517240  0.350190  1
  O  O14  1  0.340332  0.671431  0.108550  1
  O  O15  1  0.989457  0.993860  0.305073  1
  O  O16  1  0.993514  0.993942  0.807003  1
  O  O17  1  0.156869  0.327438  0.594390  1
  O  O18  1  0.495048  0.962728  0.343800  1
  O  O19  1  0.494776  0.528607  0.342372  1
  O  O20  1  0.334857  0.168976  0.085111  1
  O  O21  1  0.670575  0.836641  0.604195  1
  O  O22  1  0.544934  0.506678  0.844775  1
  O  O23  1  0.532450  0.044914  0.839313  1
  O  O24  1  0.674919  0.339994  0.609411  1
  O  O25  1  0.819292  0.663761  0.096787  1
  O  O26  1  0.969364  0.481199  0.829931  1
  O  O27  1  0.817782  0.154640  0.094770  1
