# generated using pymatgen
data_Li32Mn5Cr11O48
_symmetry_space_group_name_H-M   'P 1'
_cell_length_a   5.01600937
_cell_length_b   5.01600867
_cell_length_c   38.43013120
_cell_angle_alpha   89.01250002
_cell_angle_beta   90.98750021
_cell_angle_gamma   60.33680045
_symmetry_Int_Tables_number   1
_chemical_formula_structural   Li32Mn5Cr11O48
_chemical_formula_sum   'Li32 Mn5 Cr11 O48'
_cell_volume   839.70651039
_cell_formula_units_Z   1
loop_
 _symmetry_equiv_pos_site_id
 _symmetry_equiv_pos_as_xyz
  1  'x, y, z'
loop_
 _atom_site_type_symbol
 _atom_site_label
 _atom_site_symmetry_multiplicity
 _atom_site_fract_x
 _atom_site_fract_y
 _atom_site_fract_z
 _atom_site_occupancy
  Li  Li0  1  0.087035  0.093313  0.249924  1
  Li  Li1  1  0.000875  0.499404  0.000081  1
  Li  Li2  1  0.062125  0.437125  0.187500  1
  Li  Li3  1  0.124404  0.375875  0.374919  1
  Li  Li4  1  0.191330  0.313081  0.562560  1
  Li  Li5  1  0.250987  0.249429  0.749970  1
  Li  Li6  1  0.311683  0.188707  0.937525  1
  Li  Li7  1  0.034357  0.788160  0.124920  1
  Li  Li8  1  0.371720  0.122953  0.125023  1
  Li  Li9  1  0.165969  0.654906  0.500174  1
  Li  Li10  1  0.279906  0.540969  0.874826  1
  Li  Li11  1  0.438738  0.065219  0.312506  1
  Li  Li12  1  0.499496  0.000545  0.500134  1
  Li  Li13  1  0.413160  0.409357  0.250080  1
  Li  Li14  1  0.530128  0.287521  0.624883  1
  Li  Li15  1  0.219681  0.960525  0.625128  1
  Li  Li16  1  0.335771  0.841569  0.999863  1
  Li  Li17  1  0.663934  0.158166  0.000160  1
  Li  Li18  1  0.783166  0.038934  0.374840  1
  Li  Li19  1  0.466569  0.710771  0.375137  1
  Li  Li20  1  0.585525  0.594681  0.749872  1
  Li  Li21  1  0.562486  0.937486  0.687500  1
  Li  Li22  1  0.718313  0.462035  0.125076  1
  Li  Li23  1  0.833227  0.344258  0.499978  1
  Li  Li24  1  0.625545  0.874496  0.874866  1
  Li  Li25  1  0.969258  0.208227  0.875022  1
  Li  Li26  1  0.690219  0.813738  0.062494  1
  Li  Li27  1  0.747953  0.746720  0.249977  1
  Li  Li28  1  0.813707  0.686683  0.437475  1
  Li  Li29  1  0.874429  0.625987  0.625030  1
  Li  Li30  1  0.938081  0.566330  0.812440  1
  Li  Li31  1  0.912521  0.905128  0.750117  1
  Mn  Mn32  1  0.019547  0.144431  0.062409  1
  Mn  Mn33  1  0.269453  0.895774  0.812360  1
  Mn  Mn34  1  0.395562  0.770562  0.187500  1
  Mn  Mn35  1  0.520774  0.644453  0.562640  1
  Mn  Mn36  1  0.769431  0.394547  0.312591  1
  Cr  Cr37  1  0.141643  0.027541  0.437437  1
  Cr  Cr38  1  0.107425  0.732662  0.312548  1
  Cr  Cr39  1  0.232982  0.607982  0.687500  1
  Cr  Cr40  1  0.357662  0.482425  0.062452  1
  Cr  Cr41  1  0.484218  0.347742  0.437747  1
  Cr  Cr42  1  0.605778  0.234745  0.812475  1
  Cr  Cr43  1  0.729452  0.104452  0.187500  1
  Cr  Cr44  1  0.652541  0.516643  0.937563  1
  Cr  Cr45  1  0.891403  0.266403  0.687500  1
  Cr  Cr46  1  0.859745  0.980778  0.562525  1
  Cr  Cr47  1  0.972742  0.859218  0.937253  1
  O  O48  1  0.088530  0.051117  0.340480  1
  O  O49  1  0.057106  0.087882  0.159427  1
  O  O50  1  0.070405  0.429299  0.284250  1
  O  O51  1  0.194900  0.304566  0.659042  1
  O  O52  1  0.054299  0.445405  0.090750  1
  O  O53  1  0.173001  0.316456  0.466507  1
  O  O54  1  0.307862  0.192908  0.840818  1
  O  O55  1  0.321148  0.178906  0.034123  1
  O  O56  1  0.450736  0.060381  0.408730  1
  O  O57  1  0.070243  0.786371  0.215567  1
  O  O58  1  0.427356  0.071594  0.216207  1
  O  O59  1  0.200810  0.657619  0.590837  1
  O  O60  1  0.319936  0.535967  0.965241  1
  O  O61  1  0.031289  0.828448  0.033942  1
  O  O62  1  0.160967  0.694936  0.409759  1
  O  O63  1  0.282619  0.575810  0.784163  1
  O  O64  1  0.217874  0.918332  0.715791  1
  O  O65  1  0.179523  0.961160  0.534688  1
  O  O66  1  0.305291  0.836615  0.909653  1
  O  O67  1  0.453448  0.406289  0.341058  1
  O  O68  1  0.581396  0.281738  0.715868  1
  O  O69  1  0.411371  0.445243  0.159433  1
  O  O70  1  0.531717  0.326992  0.534164  1
  O  O71  1  0.668191  0.183420  0.909168  1
  O  O72  1  0.338357  0.801133  0.090303  1
  O  O73  1  0.461615  0.680291  0.465347  1
  O  O74  1  0.586160  0.554523  0.840312  1
  O  O75  1  0.426133  0.713357  0.284697  1
  O  O76  1  0.543332  0.592874  0.659209  1
  O  O77  1  0.703614  0.155954  0.090946  1
  O  O78  1  0.808420  0.043191  0.465832  1
  O  O79  1  0.780954  0.078614  0.284054  1
  O  O80  1  0.712882  0.432106  0.215573  1
  O  O81  1  0.833844  0.301514  0.590490  1
  O  O82  1  0.956119  0.192382  0.965808  1
  O  O83  1  0.676117  0.463530  0.034520  1
  O  O84  1  0.817382  0.331119  0.409192  1
  O  O85  1  0.569816  0.927532  0.783844  1
  O  O86  1  0.926514  0.208844  0.784510  1
  O  O87  1  0.552532  0.944816  0.591156  1
  O  O88  1  0.685381  0.825735  0.966270  1
  O  O89  1  0.696594  0.802356  0.158793  1
  O  O90  1  0.817908  0.682862  0.534182  1
  O  O91  1  0.941456  0.548001  0.908493  1
  O  O92  1  0.803906  0.696148  0.340877  1
  O  O93  1  0.929566  0.569900  0.715958  1
  O  O94  1  0.951992  0.906717  0.840836  1
  O  O95  1  0.906738  0.956396  0.659132  1
