# generated using pymatgen
data_Li2FeH4(SO5)2
_symmetry_space_group_name_H-M   'P 1'
_cell_length_a   7.42495449
_cell_length_b   11.15015808
_cell_length_c   5.58415197
_cell_angle_alpha   69.01569187
_cell_angle_beta   110.07116839
_cell_angle_gamma   111.57222289
_symmetry_Int_Tables_number   1
_chemical_formula_structural   Li2FeH4(SO5)2
_chemical_formula_sum   'Li4 Fe2 H8 S4 O20'
_cell_volume   389.31993488
_cell_formula_units_Z   2
loop_
 _symmetry_equiv_pos_site_id
 _symmetry_equiv_pos_as_xyz
  1  'x, y, z'
loop_
 _atom_site_type_symbol
 _atom_site_label
 _atom_site_symmetry_multiplicity
 _atom_site_fract_x
 _atom_site_fract_y
 _atom_site_fract_z
 _atom_site_occupancy
  Li  Li0  1  0.226651  0.580247  0.211726  1
  Li  Li1  1  0.293919  0.133057  0.736796  1
  Li  Li2  1  0.706081  0.866943  0.263204  1
  Li  Li3  1  0.773349  0.419753  0.788273  1
  Fe  Fe4  1  0.484883  0.750894  0.744962  1
  Fe  Fe5  1  0.515116  0.249102  0.255042  1
  H  H6  1  0.198852  0.794325  0.870350  1
  H  H7  1  0.093235  0.678820  0.720308  1
  H  H8  1  0.188948  0.284755  0.224436  1
  H  H9  1  0.116363  0.130063  0.260793  1
  H  H10  1  0.883637  0.869937  0.739206  1
  H  H11  1  0.811052  0.715245  0.775564  1
  H  H12  1  0.906765  0.321180  0.279692  1
  H  H13  1  0.801148  0.205675  0.129649  1
  S  S14  1  0.270211  0.934972  0.197622  1
  S  S15  1  0.262140  0.429798  0.723749  1
  S  S16  1  0.737861  0.570203  0.276250  1
  S  S17  1  0.729789  0.065028  0.802377  1
  O  O18  1  0.140788  0.922081  0.355350  1
  O  O19  1  0.210621  0.709068  0.859752  1
  O  O20  1  0.158633  0.416892  0.919141  1
  O  O21  1  0.159844  0.919554  0.924334  1
  O  O22  1  0.121906  0.412638  0.465999  1
  O  O23  1  0.584694  0.926863  0.852149  1
  O  O24  1  0.389867  0.834416  0.328706  1
  O  O25  1  0.402796  0.568111  0.658736  1
  O  O26  1  0.380324  0.329244  0.829495  1
  O  O27  1  0.222513  0.200388  0.338960  1
  O  O28  1  0.777486  0.799612  0.661040  1
  O  O29  1  0.619676  0.670757  0.170505  1
  O  O30  1  0.597203  0.431889  0.341264  1
  O  O31  1  0.610133  0.165585  0.671295  1
  O  O32  1  0.415306  0.073136  0.147852  1
  O  O33  1  0.878095  0.587363  0.534001  1
  O  O34  1  0.840156  0.080446  0.075666  1
  O  O35  1  0.841367  0.583109  0.080858  1
  O  O36  1  0.789378  0.290932  0.140248  1
  O  O37  1  0.859212  0.077919  0.644650  1
