# generated using pymatgen
data_BaSr2I6
_symmetry_space_group_name_H-M   'P 1'
_cell_length_a   7.62737900
_cell_length_b   28.29832800
_cell_length_c   8.56908400
_cell_angle_alpha   90.00000000
_cell_angle_beta   90.00000000
_cell_angle_gamma   90.00000000
_symmetry_Int_Tables_number   1
_chemical_formula_structural   BaSr2I6
_chemical_formula_sum   'Ba4 Sr8 I24'
_cell_volume   1849.56885189
_cell_formula_units_Z   4
loop_
 _symmetry_equiv_pos_site_id
 _symmetry_equiv_pos_as_xyz
  1  'x, y, z'
loop_
 _atom_site_type_symbol
 _atom_site_label
 _atom_site_symmetry_multiplicity
 _atom_site_fract_x
 _atom_site_fract_y
 _atom_site_fract_z
 _atom_site_occupancy
  Ba  Ba0  1  0.000000  0.381009  0.250000  1
  Ba  Ba1  1  0.000000  0.618991  0.750000  1
  Ba  Ba2  1  0.500000  0.881009  0.250000  1
  Ba  Ba3  1  0.500000  0.118991  0.750000  1
  Sr  Sr4  1  0.000000  0.047318  0.250000  1
  Sr  Sr5  1  0.000000  0.285303  0.750000  1
  Sr  Sr6  1  0.000000  0.714697  0.250000  1
  Sr  Sr7  1  0.000000  0.952682  0.750000  1
  Sr  Sr8  1  0.500000  0.214697  0.250000  1
  Sr  Sr9  1  0.500000  0.547318  0.250000  1
  Sr  Sr10  1  0.500000  0.785303  0.750000  1
  Sr  Sr11  1  0.500000  0.452682  0.750000  1
  I  I12  1  0.235159  0.034945  0.570519  1
  I  I13  1  0.235159  0.965055  0.070519  1
  I  I14  1  0.249768  0.206448  0.566143  1
  I  I15  1  0.249768  0.793552  0.066143  1
  I  I16  1  0.241194  0.371053  0.591717  1
  I  I17  1  0.241194  0.628947  0.091717  1
  I  I18  1  0.258806  0.871053  0.591717  1
  I  I19  1  0.258806  0.128947  0.091717  1
  I  I20  1  0.250232  0.293552  0.066143  1
  I  I21  1  0.250232  0.706448  0.566143  1
  I  I22  1  0.264841  0.465055  0.070519  1
  I  I23  1  0.264841  0.534945  0.570519  1
  I  I24  1  0.735159  0.465055  0.429481  1
  I  I25  1  0.735159  0.534945  0.929481  1
  I  I26  1  0.749768  0.293552  0.433857  1
  I  I27  1  0.749768  0.706448  0.933857  1
  I  I28  1  0.741194  0.128947  0.408283  1
  I  I29  1  0.741194  0.871053  0.908283  1
  I  I30  1  0.758806  0.371053  0.908283  1
  I  I31  1  0.758806  0.628947  0.408283  1
  I  I32  1  0.750232  0.793552  0.433857  1
  I  I33  1  0.750232  0.206448  0.933857  1
  I  I34  1  0.764841  0.034945  0.929481  1
  I  I35  1  0.764841  0.965055  0.429481  1
