# generated using pymatgen
data_NbV3(PO4)6
_symmetry_space_group_name_H-M   'P 1'
_cell_length_a   8.80344774
_cell_length_b   8.80344783
_cell_length_c   8.80344789
_cell_angle_alpha   58.63746456
_cell_angle_beta   58.63746706
_cell_angle_gamma   58.63747001
_symmetry_Int_Tables_number   1
_chemical_formula_structural   NbV3(PO4)6
_chemical_formula_sum   'Nb1 V3 P6 O24'
_cell_volume   467.41451875
_cell_formula_units_Z   1
loop_
 _symmetry_equiv_pos_site_id
 _symmetry_equiv_pos_as_xyz
  1  'x, y, z'
loop_
 _atom_site_type_symbol
 _atom_site_label
 _atom_site_symmetry_multiplicity
 _atom_site_fract_x
 _atom_site_fract_y
 _atom_site_fract_z
 _atom_site_occupancy
  Nb  Nb0  1  0.860638  0.860638  0.860638  1
  V  V1  1  0.142207  0.142207  0.142207  1
  V  V2  1  0.359414  0.359414  0.359414  1
  V  V3  1  0.642583  0.642583  0.642583  1
  P  P4  1  0.035593  0.749981  0.459756  1
  P  P5  1  0.459756  0.035593  0.749981  1
  P  P6  1  0.749981  0.459756  0.035593  1
  P  P7  1  0.258995  0.526381  0.967432  1
  P  P8  1  0.526381  0.967432  0.258995  1
  P  P9  1  0.967432  0.258995  0.526381  1
  O  O10  1  0.142169  0.284466  0.498102  1
  O  O11  1  0.284466  0.498102  0.142169  1
  O  O12  1  0.065833  0.922234  0.282077  1
  O  O13  1  0.498102  0.142169  0.284466  1
  O  O14  1  0.216931  0.573141  0.432999  1
  O  O15  1  0.008968  0.774571  0.635251  1
  O  O16  1  0.282077  0.065833  0.922234  1
  O  O17  1  0.432999  0.216931  0.573141  1
  O  O18  1  0.573141  0.432999  0.216931  1
  O  O19  1  0.221687  0.361119  0.994355  1
  O  O20  1  0.082403  0.708894  0.943210  1
  O  O21  1  0.361119  0.994355  0.221687  1
  O  O22  1  0.635251  0.008968  0.774571  1
  O  O23  1  0.922234  0.282077  0.065833  1
  O  O24  1  0.774571  0.635251  0.008968  1
  O  O25  1  0.427964  0.558599  0.786804  1
  O  O26  1  0.558599  0.786804  0.427964  1
  O  O27  1  0.708894  0.943210  0.082403  1
  O  O28  1  0.994355  0.221687  0.361119  1
  O  O29  1  0.786804  0.427964  0.558599  1
  O  O30  1  0.491794  0.864357  0.719093  1
  O  O31  1  0.943210  0.082403  0.708894  1
  O  O32  1  0.719093  0.491794  0.864357  1
  O  O33  1  0.864357  0.719093  0.491794  1
