# generated using pymatgen
data_LiMn(PO3)3
_symmetry_space_group_name_H-M   'P 1'
_cell_length_a   8.69315869
_cell_length_b   8.57620743
_cell_length_c   9.00241126
_cell_angle_alpha   90.00000000
_cell_angle_beta   90.00000000
_cell_angle_gamma   90.00000000
_symmetry_Int_Tables_number   1
_chemical_formula_structural   LiMn(PO3)3
_chemical_formula_sum   'Li4 Mn4 P12 O36'
_cell_volume   671.16875921
_cell_formula_units_Z   4
loop_
 _symmetry_equiv_pos_site_id
 _symmetry_equiv_pos_as_xyz
  1  'x, y, z'
loop_
 _atom_site_type_symbol
 _atom_site_label
 _atom_site_symmetry_multiplicity
 _atom_site_fract_x
 _atom_site_fract_y
 _atom_site_fract_z
 _atom_site_occupancy
  Li  Li0  1  0.105627  0.877550  0.416231  1
  Li  Li1  1  0.394373  0.122450  0.916231  1
  Li  Li2  1  0.605627  0.622450  0.583769  1
  Li  Li3  1  0.894373  0.377550  0.083769  1
  Mn  Mn4  1  0.119549  0.096832  0.142265  1
  Mn  Mn5  1  0.380451  0.903168  0.642265  1
  Mn  Mn6  1  0.619549  0.403168  0.857735  1
  Mn  Mn7  1  0.880451  0.596832  0.357735  1
  P  P8  1  0.055466  0.950016  0.817843  1
  P  P9  1  0.067263  0.720376  0.068873  1
  P  P10  1  0.229904  0.559732  0.558303  1
  P  P11  1  0.270096  0.440268  0.058303  1
  P  P12  1  0.432737  0.279624  0.568873  1
  P  P13  1  0.444534  0.049984  0.317843  1
  P  P14  1  0.555466  0.549984  0.182157  1
  P  P15  1  0.567263  0.779624  0.931127  1
  P  P16  1  0.729904  0.940268  0.441697  1
  P  P17  1  0.770096  0.059732  0.941697  1
  P  P18  1  0.932737  0.220376  0.431127  1
  P  P19  1  0.944534  0.450016  0.682157  1
  O  O20  1  0.018871  0.790755  0.910112  1
  O  O21  1  0.060317  0.117657  0.373998  1
  O  O22  1  0.112132  0.908052  0.665348  1
  O  O23  1  0.116019  0.520812  0.696869  1
  O  O24  1  0.121073  0.848668  0.170488  1
  O  O25  1  0.138563  0.343976  0.116066  1
  O  O26  1  0.136538  0.622261  0.430491  1
  O  O27  1  0.154682  0.057052  0.909930  1
  O  O28  1  0.208804  0.611934  0.016607  1
  O  O29  1  0.291196  0.388066  0.516607  1
  O  O30  1  0.345318  0.942948  0.409930  1
  O  O31  1  0.363462  0.377739  0.930491  1
  O  O32  1  0.361437  0.656024  0.616066  1
  O  O33  1  0.378927  0.151332  0.670488  1
  O  O34  1  0.383981  0.479188  0.196869  1
  O  O35  1  0.387868  0.091948  0.165348  1
  O  O36  1  0.439683  0.882343  0.873998  1
  O  O37  1  0.481129  0.209245  0.410112  1
  O  O38  1  0.518871  0.709245  0.089888  1
  O  O39  1  0.560317  0.382343  0.626002  1
  O  O40  1  0.612132  0.591948  0.334652  1
  O  O41  1  0.616019  0.979188  0.303131  1
  O  O42  1  0.621073  0.651332  0.829512  1
  O  O43  1  0.638563  0.156024  0.883934  1
  O  O44  1  0.636538  0.877739  0.569509  1
  O  O45  1  0.654682  0.442948  0.090070  1
  O  O46  1  0.708804  0.888066  0.983393  1
  O  O47  1  0.791196  0.111934  0.483393  1
  O  O48  1  0.845318  0.557052  0.590070  1
  O  O49  1  0.863462  0.122261  0.069509  1
  O  O50  1  0.861437  0.843976  0.383934  1
  O  O51  1  0.878927  0.348668  0.329512  1
  O  O52  1  0.883981  0.020812  0.803131  1
  O  O53  1  0.887868  0.408052  0.834652  1
  O  O54  1  0.939683  0.617657  0.126002  1
  O  O55  1  0.981129  0.290755  0.589888  1
