# generated using pymatgen
data_LiVCr(P2O7)2
_symmetry_space_group_name_H-M   'P 1'
_cell_length_a   9.72687543
_cell_length_b   8.07027657
_cell_length_c   7.16559750
_cell_angle_alpha   90.06330638
_cell_angle_beta   68.06439741
_cell_angle_gamma   90.01725212
_symmetry_Int_Tables_number   1
_chemical_formula_structural   LiVCr(P2O7)2
_chemical_formula_sum   'Li2 V2 Cr2 P8 O28'
_cell_volume   521.76707483
_cell_formula_units_Z   2
loop_
 _symmetry_equiv_pos_site_id
 _symmetry_equiv_pos_as_xyz
  1  'x, y, z'
loop_
 _atom_site_type_symbol
 _atom_site_label
 _atom_site_symmetry_multiplicity
 _atom_site_fract_x
 _atom_site_fract_y
 _atom_site_fract_z
 _atom_site_occupancy
  Li  Li0  1  0.250402  0.864186  0.674881  1
  Li  Li1  1  0.749576  0.362039  0.328122  1
  V  V2  1  0.243564  0.495731  0.722799  1
  V  V3  1  0.743563  0.507045  0.728114  1
  Cr  Cr4  1  0.256335  0.006166  0.271641  1
  Cr  Cr5  1  0.756493  0.997319  0.275896  1
  P  P6  1  0.064677  0.781928  0.088975  1
  P  P7  1  0.063196  0.677845  0.478259  1
  P  P8  1  0.440310  0.180441  0.523009  1
  P  P9  1  0.564529  0.783688  0.085351  1
  P  P10  1  0.434521  0.282787  0.915293  1
  P  P11  1  0.561412  0.682612  0.475022  1
  P  P12  1  0.939695  0.176515  0.518717  1
  P  P13  1  0.932892  0.281551  0.911332  1
  O  O14  1  0.080224  0.647415  0.249685  1
  O  O15  1  0.159373  0.934680  0.081246  1
  O  O16  1  0.103669  0.180129  0.392972  1
  O  O17  1  0.128548  0.847859  0.491224  1
  O  O18  1  0.148740  0.538470  0.530870  1
  O  O19  1  0.097069  0.330735  0.851153  1
  O  O20  1  0.128634  0.687948  0.886352  1
  O  O21  1  0.383528  0.190938  0.111061  1
  O  O22  1  0.401736  0.824597  0.142815  1
  O  O23  1  0.349081  0.041026  0.483361  1
  O  O24  1  0.373130  0.352405  0.518728  1
  O  O25  1  0.394023  0.674994  0.608207  1
  O  O26  1  0.340898  0.434882  0.904973  1
  O  O27  1  0.425271  0.147945  0.752372  1
  O  O28  1  0.578229  0.645891  0.247825  1
  O  O29  1  0.659454  0.932892  0.086411  1
  O  O30  1  0.604172  0.182303  0.389444  1
  O  O31  1  0.621722  0.852532  0.488491  1
  O  O32  1  0.649718  0.540231  0.521087  1
  O  O33  1  0.597769  0.338234  0.849726  1
  O  O34  1  0.621853  0.682849  0.888959  1
  O  O35  1  0.876054  0.197186  0.115411  1
  O  O36  1  0.901942  0.818737  0.142830  1
  O  O37  1  0.850628  0.039054  0.475506  1
  O  O38  1  0.866245  0.348119  0.517439  1
  O  O39  1  0.896182  0.667420  0.607599  1
  O  O40  1  0.839460  0.436824  0.913317  1
  O  O41  1  0.921609  0.148508  0.753152  1
