# generated using pymatgen
data_Li4V2Ni3Sb3O16
_symmetry_space_group_name_H-M   'P 1'
_cell_length_a   6.09500301
_cell_length_b   6.10273205
_cell_length_c   9.73503578
_cell_angle_alpha   89.73869051
_cell_angle_beta   91.43115587
_cell_angle_gamma   120.21121487
_symmetry_Int_Tables_number   1
_chemical_formula_structural   Li4V2Ni3Sb3O16
_chemical_formula_sum   'Li4 V2 Ni3 Sb3 O16'
_cell_volume   312.81242373
_cell_formula_units_Z   1
loop_
 _symmetry_equiv_pos_site_id
 _symmetry_equiv_pos_as_xyz
  1  'x, y, z'
loop_
 _atom_site_type_symbol
 _atom_site_label
 _atom_site_symmetry_multiplicity
 _atom_site_fract_x
 _atom_site_fract_y
 _atom_site_fract_z
 _atom_site_occupancy
  Li  Li0  1  0.353037  0.676642  0.887288  1
  Li  Li1  1  0.951660  0.975857  0.985130  1
  Li  Li2  1  0.979410  0.988963  0.504373  1
  Li  Li3  1  0.650809  0.325736  0.404484  1
  V  V4  1  0.349928  0.671878  0.498281  1
  V  V5  1  0.718095  0.359204  0.964872  1
  Ni  Ni6  1  0.656028  0.827622  0.215724  1
  Ni  Ni7  1  0.835715  0.670973  0.706638  1
  Ni  Ni8  1  0.834516  0.164262  0.706859  1
  Sb  Sb9  1  0.164800  0.829844  0.213778  1
  Sb  Sb10  1  0.165708  0.335519  0.213946  1
  Sb  Sb11  1  0.343762  0.170915  0.713220  1
  O  O12  1  0.177554  0.850081  0.599541  1
  O  O13  1  0.025830  0.513346  0.334972  1
  O  O14  1  0.320191  0.660742  0.101476  1
  O  O15  1  0.000694  0.000079  0.315380  1
  O  O16  1  0.014940  0.008329  0.806934  1
  O  O17  1  0.177403  0.332330  0.597219  1
  O  O18  1  0.465099  0.957976  0.337699  1
  O  O19  1  0.468844  0.504906  0.336270  1
  O  O20  1  0.307482  0.153726  0.101327  1
  O  O21  1  0.666361  0.835155  0.594223  1
  O  O22  1  0.521556  0.472703  0.851835  1
  O  O23  1  0.522326  0.048831  0.852661  1
  O  O24  1  0.662127  0.331584  0.608283  1
  O  O25  1  0.845402  0.672431  0.098123  1
  O  O26  1  0.975054  0.487825  0.858991  1
  O  O27  1  0.845668  0.172841  0.098318  1
