# generated using pymatgen
data_Rb3InO3
_symmetry_space_group_name_H-M   'P 1'
_cell_length_a   14.84019036
_cell_length_b   7.10680428
_cell_length_c   7.16082669
_cell_angle_alpha   90.00000000
_cell_angle_beta   118.29934837
_cell_angle_gamma   90.00000000
_symmetry_Int_Tables_number   1
_chemical_formula_structural   Rb3InO3
_chemical_formula_sum   'Rb12 In4 O12'
_cell_volume   664.96354944
_cell_formula_units_Z   4
loop_
 _symmetry_equiv_pos_site_id
 _symmetry_equiv_pos_as_xyz
  1  'x, y, z'
loop_
 _atom_site_type_symbol
 _atom_site_label
 _atom_site_symmetry_multiplicity
 _atom_site_fract_x
 _atom_site_fract_y
 _atom_site_fract_z
 _atom_site_occupancy
  Rb  Rb0  1  0.893457  0.556356  0.214861  1
  Rb  Rb1  1  0.115697  0.951873  0.731719  1
  Rb  Rb2  1  0.182588  0.582246  0.381586  1
  Rb  Rb3  1  0.317412  0.082246  0.618414  1
  Rb  Rb4  1  0.384303  0.451873  0.268281  1
  Rb  Rb5  1  0.606543  0.056356  0.785139  1
  Rb  Rb6  1  0.393457  0.943644  0.214861  1
  Rb  Rb7  1  0.615697  0.548127  0.731719  1
  Rb  Rb8  1  0.682588  0.917754  0.381586  1
  Rb  Rb9  1  0.817412  0.417754  0.618414  1
  Rb  Rb10  1  0.884303  0.048127  0.268281  1
  Rb  Rb11  1  0.106543  0.443644  0.785139  1
  In  In12  1  0.085917  0.128835  0.165071  1
  In  In13  1  0.414083  0.628835  0.834929  1
  In  In14  1  0.585917  0.371165  0.165071  1
  In  In15  1  0.914083  0.871165  0.834929  1
  O  O16  1  0.073259  0.257940  0.412218  1
  O  O17  1  0.037879  0.839785  0.151469  1
  O  O18  1  0.277835  0.695295  0.836270  1
  O  O19  1  0.222165  0.195295  0.163730  1
  O  O20  1  0.462121  0.339785  0.848531  1
  O  O21  1  0.426741  0.757940  0.587782  1
  O  O22  1  0.573259  0.242060  0.412218  1
  O  O23  1  0.537879  0.660215  0.151469  1
  O  O24  1  0.777835  0.804705  0.836270  1
  O  O25  1  0.722165  0.304705  0.163730  1
  O  O26  1  0.962121  0.160215  0.848531  1
  O  O27  1  0.926741  0.742060  0.587782  1
