# generated using pymatgen
data_Ti3P6WO24
_symmetry_space_group_name_H-M   'P 1'
_cell_length_a   8.85457064
_cell_length_b   8.85457098
_cell_length_c   8.85457092
_cell_angle_alpha   58.49690136
_cell_angle_beta   58.49690360
_cell_angle_gamma   58.49690309
_symmetry_Int_Tables_number   1
_chemical_formula_structural   Ti3P6WO24
_chemical_formula_sum   'Ti3 P6 W1 O24'
_cell_volume   474.01430636
_cell_formula_units_Z   1
loop_
 _symmetry_equiv_pos_site_id
 _symmetry_equiv_pos_as_xyz
  1  'x, y, z'
loop_
 _atom_site_type_symbol
 _atom_site_label
 _atom_site_symmetry_multiplicity
 _atom_site_fract_x
 _atom_site_fract_y
 _atom_site_fract_z
 _atom_site_occupancy
  Ti  Ti0  1  0.140692  0.140692  0.140692  1
  Ti  Ti1  1  0.360138  0.360138  0.360138  1
  Ti  Ti2  1  0.640945  0.640945  0.640945  1
  P  P3  1  0.034800  0.748884  0.461640  1
  P  P4  1  0.461640  0.034800  0.748884  1
  P  P5  1  0.748884  0.461640  0.034800  1
  P  P6  1  0.255590  0.528555  0.967358  1
  P  P7  1  0.528555  0.967358  0.255590  1
  P  P8  1  0.967358  0.255590  0.528555  1
  W  W9  1  0.858718  0.858718  0.858718  1
  O  O10  1  0.138478  0.276004  0.507751  1
  O  O11  1  0.276004  0.507751  0.138478  1
  O  O12  1  0.062073  0.923821  0.288125  1
  O  O13  1  0.507751  0.138478  0.276004  1
  O  O14  1  0.213748  0.576166  0.441786  1
  O  O15  1  0.000023  0.781941  0.638592  1
  O  O16  1  0.288125  0.062073  0.923821  1
  O  O17  1  0.441786  0.213748  0.576166  1
  O  O18  1  0.576166  0.441786  0.213748  1
  O  O19  1  0.217555  0.364649  0.995995  1
  O  O20  1  0.075781  0.713174  0.935458  1
  O  O21  1  0.364649  0.995995  0.217555  1
  O  O22  1  0.638592  0.000023  0.781941  1
  O  O23  1  0.923821  0.288125  0.062073  1
  O  O24  1  0.781941  0.638592  0.000023  1
  O  O25  1  0.420889  0.565665  0.785255  1
  O  O26  1  0.565665  0.785255  0.420889  1
  O  O27  1  0.713174  0.935458  0.075781  1
  O  O28  1  0.995995  0.217555  0.364649  1
  O  O29  1  0.785255  0.420889  0.565665  1
  O  O30  1  0.497247  0.862425  0.720078  1
  O  O31  1  0.935458  0.075781  0.713174  1
  O  O32  1  0.720078  0.497247  0.862425  1
  O  O33  1  0.862425  0.720078  0.497247  1
