# generated using pymatgen
data_LiCu4(PO4)3
_symmetry_space_group_name_H-M   'P 1'
_cell_length_a   6.20955244
_cell_length_b   15.96557293
_cell_length_c   9.64043566
_cell_angle_alpha   90.00000000
_cell_angle_beta   90.00000000
_cell_angle_gamma   90.00000000
_symmetry_Int_Tables_number   1
_chemical_formula_structural   LiCu4(PO4)3
_chemical_formula_sum   'Li4 Cu16 P12 O48'
_cell_volume   955.74375192
_cell_formula_units_Z   4
loop_
 _symmetry_equiv_pos_site_id
 _symmetry_equiv_pos_as_xyz
  1  'x, y, z'
loop_
 _atom_site_type_symbol
 _atom_site_label
 _atom_site_symmetry_multiplicity
 _atom_site_fract_x
 _atom_site_fract_y
 _atom_site_fract_z
 _atom_site_occupancy
  Li  Li0  1  0.000000  0.469688  0.277201  1
  Li  Li1  1  0.000000  0.530312  0.722799  1
  Li  Li2  1  0.500000  0.030312  0.777201  1
  Li  Li3  1  0.500000  0.969688  0.222799  1
  Cu  Cu4  1  0.000000  0.095543  0.539972  1
  Cu  Cu5  1  0.000000  0.151132  0.972356  1
  Cu  Cu6  1  0.000000  0.848868  0.027644  1
  Cu  Cu7  1  0.000000  0.904457  0.460028  1
  Cu  Cu8  1  0.249067  0.303898  0.749081  1
  Cu  Cu9  1  0.249067  0.696102  0.250919  1
  Cu  Cu10  1  0.250933  0.196102  0.249081  1
  Cu  Cu11  1  0.250933  0.803898  0.750919  1
  Cu  Cu12  1  0.500000  0.595543  0.960028  1
  Cu  Cu13  1  0.500000  0.404457  0.039972  1
  Cu  Cu14  1  0.500000  0.651132  0.527644  1
  Cu  Cu15  1  0.500000  0.348868  0.472356  1
  Cu  Cu16  1  0.749067  0.803898  0.750919  1
  Cu  Cu17  1  0.749067  0.196102  0.249081  1
  Cu  Cu18  1  0.750933  0.303898  0.749081  1
  Cu  Cu19  1  0.750933  0.696102  0.250919  1
  P  P20  1  0.000000  0.028727  0.209324  1
  P  P21  1  0.000000  0.339901  0.045571  1
  P  P22  1  0.000000  0.284295  0.459821  1
  P  P23  1  0.000000  0.715705  0.540179  1
  P  P24  1  0.000000  0.660099  0.954429  1
  P  P25  1  0.000000  0.971273  0.790676  1
  P  P26  1  0.500000  0.215705  0.959821  1
  P  P27  1  0.500000  0.528727  0.290676  1
  P  P28  1  0.500000  0.160099  0.545571  1
  P  P29  1  0.500000  0.471273  0.709324  1
  P  P30  1  0.500000  0.784295  0.040179  1
  P  P31  1  0.500000  0.839901  0.454429  1
  O  O32  1  0.000000  0.013668  0.369182  1
  O  O33  1  0.000000  0.245532  0.108786  1
  O  O34  1  0.000000  0.190782  0.394312  1
  O  O35  1  0.000000  0.055027  0.862066  1
  O  O36  1  0.000000  0.274554  0.620667  1
  O  O37  1  0.000000  0.670579  0.115307  1
  O  O38  1  0.000000  0.329421  0.884693  1
  O  O39  1  0.000000  0.725446  0.379333  1
  O  O40  1  0.000000  0.944973  0.137934  1
  O  O41  1  0.000000  0.809218  0.605688  1
  O  O42  1  0.000000  0.754468  0.891214  1
  O  O43  1  0.000000  0.986332  0.630818  1
  O  O44  1  0.207399  0.078609  0.170283  1
  O  O45  1  0.207399  0.921391  0.829717  1
  O  O46  1  0.198535  0.386411  0.098992  1
  O  O47  1  0.198535  0.613589  0.901008  1
  O  O48  1  0.202630  0.325447  0.401301  1
  O  O49  1  0.202630  0.674553  0.598699  1
  O  O50  1  0.297370  0.174553  0.901301  1
  O  O51  1  0.297370  0.825447  0.098699  1
  O  O52  1  0.301465  0.886411  0.401008  1
  O  O53  1  0.301465  0.113589  0.598992  1
  O  O54  1  0.292601  0.578609  0.329717  1
  O  O55  1  0.292601  0.421391  0.670283  1
  O  O56  1  0.500000  0.170579  0.384693  1
  O  O57  1  0.500000  0.444973  0.362066  1
  O  O58  1  0.500000  0.513668  0.130818  1
  O  O59  1  0.500000  0.225446  0.120666  1
  O  O60  1  0.500000  0.555027  0.637934  1
  O  O61  1  0.500000  0.486332  0.869182  1
  O  O62  1  0.500000  0.690782  0.105688  1
  O  O63  1  0.500000  0.254468  0.608786  1
  O  O64  1  0.500000  0.309218  0.894312  1
  O  O65  1  0.500000  0.774554  0.879333  1
  O  O66  1  0.500000  0.829421  0.615307  1
  O  O67  1  0.500000  0.745532  0.391214  1
  O  O68  1  0.707399  0.421391  0.670283  1
  O  O69  1  0.707399  0.578609  0.329717  1
  O  O70  1  0.698535  0.113589  0.598992  1
  O  O71  1  0.698535  0.886411  0.401008  1
  O  O72  1  0.702630  0.174553  0.901301  1
  O  O73  1  0.702630  0.825447  0.098699  1
  O  O74  1  0.797370  0.325447  0.401301  1
  O  O75  1  0.797370  0.674553  0.598699  1
  O  O76  1  0.801465  0.386411  0.098992  1
  O  O77  1  0.801465  0.613589  0.901008  1
  O  O78  1  0.792601  0.078609  0.170283  1
  O  O79  1  0.792601  0.921391  0.829717  1
