# generated using pymatgen
data_Li2MnFe(BO3)2
_symmetry_space_group_name_H-M   'P 1'
_cell_length_a   8.26731838
_cell_length_b   14.27712586
_cell_length_c   3.16491290
_cell_angle_alpha   90.00000000
_cell_angle_beta   90.00000000
_cell_angle_gamma   89.96777690
_symmetry_Int_Tables_number   1
_chemical_formula_structural   Li2MnFe(BO3)2
_chemical_formula_sum   'Li6 Mn3 Fe3 B6 O18'
_cell_volume   373.56583009
_cell_formula_units_Z   3
loop_
 _symmetry_equiv_pos_site_id
 _symmetry_equiv_pos_as_xyz
  1  'x, y, z'
loop_
 _atom_site_type_symbol
 _atom_site_label
 _atom_site_symmetry_multiplicity
 _atom_site_fract_x
 _atom_site_fract_y
 _atom_site_fract_z
 _atom_site_occupancy
  Li  Li0  1  0.291985  0.989965  0.500000  1
  Li  Li1  1  0.339996  0.358450  0.500000  1
  Li  Li2  1  0.364984  0.650816  0.500000  1
  Li  Li3  1  0.792932  0.491875  0.500000  1
  Li  Li4  1  0.840971  0.857609  0.500000  1
  Li  Li5  1  0.865948  0.149970  0.500000  1
  Mn  Mn6  1  0.192241  0.180077  0.000000  1
  Mn  Mn7  1  0.674167  0.314117  0.000000  1
  Mn  Mn8  1  0.692277  0.679987  0.000000  1
  Fe  Fe9  1  0.137543  0.504284  0.000000  1
  Fe  Fe10  1  0.176073  0.816172  0.000000  1
  Fe  Fe11  1  0.635544  0.003861  0.000000  1
  B  B12  1  0.002821  0.666383  0.500000  1
  B  B13  1  0.997539  0.999759  0.000000  1
  B  B14  1  0.001189  0.334453  0.500000  1
  B  B15  1  0.500531  0.165061  0.500000  1
  B  B16  1  0.498705  0.500928  0.000000  1
  B  B17  1  0.499323  0.834314  0.500000  1
  O  O18  1  0.011837  0.431686  0.500000  1
  O  O19  1  0.019465  0.763569  0.500000  1
  O  O20  1  0.138590  0.608847  0.500000  1
  O  O21  1  0.140820  0.280527  0.500000  1
  O  O22  1  0.150290  0.957917  0.000000  1
  O  O23  1  0.347494  0.124124  0.500000  1
  O  O24  1  0.347839  0.791726  0.500000  1
  O  O25  1  0.361054  0.444075  0.000000  1
  O  O26  1  0.481327  0.597770  0.000000  1
  O  O27  1  0.511152  0.931501  0.500000  1
  O  O28  1  0.514368  0.262468  0.500000  1
  O  O29  1  0.638055  0.109018  0.500000  1
  O  O30  1  0.638643  0.780231  0.500000  1
  O  O31  1  0.652260  0.460748  0.000000  1
  O  O32  1  0.848992  0.626149  0.500000  1
  O  O33  1  0.850932  0.290939  0.500000  1
  O  O34  1  0.859143  0.943999  0.000000  1
  O  O35  1  0.982974  0.096628  0.000000  1
