# generated using pymatgen
data_Ta2O5
_symmetry_space_group_name_H-M   'P 1'
_cell_length_a   7.07392245
_cell_length_b   7.54345077
_cell_length_c   7.29847363
_cell_angle_alpha   85.92537849
_cell_angle_beta   118.99084861
_cell_angle_gamma   62.03792670
_symmetry_Int_Tables_number   1
_chemical_formula_structural   Ta2O5
_chemical_formula_sum   'Ta6 O15'
_cell_volume   277.55536234
_cell_formula_units_Z   3
loop_
 _symmetry_equiv_pos_site_id
 _symmetry_equiv_pos_as_xyz
  1  'x, y, z'
loop_
 _atom_site_type_symbol
 _atom_site_label
 _atom_site_symmetry_multiplicity
 _atom_site_fract_x
 _atom_site_fract_y
 _atom_site_fract_z
 _atom_site_occupancy
  Ta  Ta0  1  0.228274  0.004780  0.989380  1
  Ta  Ta1  1  0.280319  0.417879  0.978531  1
  Ta  Ta2  1  0.756338  0.004700  0.989357  1
  Ta  Ta3  1  0.753449  0.012069  0.518941  1
  Ta  Ta4  1  0.251449  0.976212  0.479152  1
  Ta  Ta5  1  0.745208  0.521257  0.011779  1
  O  O6  1  0.033497  0.342687  0.948463  1
  O  O7  1  0.104867  0.032578  0.662970  1
  O  O8  1  0.408675  0.127475  0.944814  1
  O  O9  1  0.005181  0.291332  0.301651  1
  O  O10  1  0.022533  0.703756  0.748662  1
  O  O11  1  0.525536  0.032555  0.662971  1
  O  O12  1  0.572325  0.342653  0.948501  1
  O  O13  1  0.481876  0.331813  0.295603  1
  O  O14  1  0.846843  0.101860  0.795539  1
  O  O15  1  0.501881  0.677063  0.680941  1
  O  O16  1  0.136427  0.915917  0.188768  1
  O  O17  1  0.484097  0.962055  0.328438  1
  O  O18  1  0.485246  0.705295  0.063774  1
  O  O19  1  0.873311  0.705226  0.063749  1
  O  O20  1  0.882249  0.962078  0.328411  1
