# generated using pymatgen
data_LiCu3P3O11
_symmetry_space_group_name_H-M   'P 1'
_cell_length_a   8.48516939
_cell_length_b   9.09082015
_cell_length_c   10.80852207
_cell_angle_alpha   90.00000000
_cell_angle_beta   95.78295262
_cell_angle_gamma   90.00000000
_symmetry_Int_Tables_number   1
_chemical_formula_structural   LiCu3P3O11
_chemical_formula_sum   'Li4 Cu12 P12 O44'
_cell_volume   829.49545708
_cell_formula_units_Z   4
loop_
 _symmetry_equiv_pos_site_id
 _symmetry_equiv_pos_as_xyz
  1  'x, y, z'
loop_
 _atom_site_type_symbol
 _atom_site_label
 _atom_site_symmetry_multiplicity
 _atom_site_fract_x
 _atom_site_fract_y
 _atom_site_fract_z
 _atom_site_occupancy
  Li  Li0  1  0.063241  0.236429  0.478945  1
  Li  Li1  1  0.063241  0.263571  0.978945  1
  Li  Li2  1  0.936759  0.736429  0.021055  1
  Li  Li3  1  0.936759  0.763571  0.521055  1
  Cu  Cu4  1  0.037541  0.660706  0.755827  1
  Cu  Cu5  1  0.037541  0.839294  0.255827  1
  Cu  Cu6  1  0.451399  0.633866  0.928764  1
  Cu  Cu7  1  0.436119  0.618876  0.647212  1
  Cu  Cu8  1  0.451399  0.866134  0.428764  1
  Cu  Cu9  1  0.563881  0.118876  0.852788  1
  Cu  Cu10  1  0.436119  0.881124  0.147212  1
  Cu  Cu11  1  0.548601  0.133866  0.571236  1
  Cu  Cu12  1  0.563881  0.381124  0.352788  1
  Cu  Cu13  1  0.548601  0.366134  0.071236  1
  Cu  Cu14  1  0.962459  0.160706  0.744173  1
  Cu  Cu15  1  0.962459  0.339294  0.244173  1
  P  P16  1  0.199771  0.933398  0.894360  1
  P  P17  1  0.201227  0.946774  0.633045  1
  P  P18  1  0.199771  0.566602  0.394360  1
  P  P19  1  0.349563  0.330308  0.802117  1
  P  P20  1  0.201227  0.553226  0.133045  1
  P  P21  1  0.349563  0.169692  0.302117  1
  P  P22  1  0.650437  0.830308  0.697883  1
  P  P23  1  0.798773  0.446774  0.866955  1
  P  P24  1  0.650437  0.669692  0.197883  1
  P  P25  1  0.800229  0.433398  0.605640  1
  P  P26  1  0.798773  0.053226  0.366955  1
  P  P27  1  0.800229  0.066602  0.105640  1
  O  O28  1  0.052226  0.031975  0.883340  1
  O  O29  1  0.073903  0.067279  0.612221  1
  O  O30  1  0.052226  0.468025  0.383340  1
  O  O31  1  0.175791  0.298919  0.797608  1
  O  O32  1  0.164815  0.767158  0.887168  1
  O  O33  1  0.073903  0.432721  0.112221  1
  O  O34  1  0.175791  0.201081  0.297608  1
  O  O35  1  0.137499  0.788648  0.630668  1
  O  O36  1  0.164815  0.732842  0.387168  1
  O  O37  1  0.374251  0.500425  0.787489  1
  O  O38  1  0.291730  0.970039  0.771475  1
  O  O39  1  0.137499  0.711352  0.130668  1
  O  O40  1  0.319042  0.528002  0.504481  1
  O  O41  1  0.435401  0.266715  0.931070  1
  O  O42  1  0.326475  0.973587  0.542958  1
  O  O43  1  0.374251  -0.000425  0.287489  1
  O  O44  1  0.291730  0.529961  0.271475  1
  O  O45  1  0.449605  0.243569  0.711709  1
  O  O46  1  0.319042  0.971998  0.004481  1
  O  O47  1  0.435401  0.233285  0.431070  1
  O  O48  1  0.326475  0.526413  0.042958  1
  O  O49  1  0.449605  0.256431  0.211709  1
  O  O50  1  0.550395  0.743569  0.788291  1
  O  O51  1  0.673525  0.473587  0.957042  1
  O  O52  1  0.564599  0.766715  0.568930  1
  O  O53  1  0.680958  0.028002  0.995519  1
  O  O54  1  0.550395  0.756431  0.288291  1
  O  O55  1  0.708270  0.470039  0.728525  1
  O  O56  1  0.625749  0.000425  0.712511  1
  O  O57  1  0.673525  0.026413  0.457042  1
  O  O58  1  0.564599  0.733285  0.068930  1
  O  O59  1  0.680958  0.471998  0.495519  1
  O  O60  1  0.862501  0.288648  0.869332  1
  O  O61  1  0.708270  0.029961  0.228525  1
  O  O62  1  0.625749  0.499575  0.212511  1
  O  O63  1  0.835185  0.267158  0.612832  1
  O  O64  1  0.862501  0.211352  0.369332  1
  O  O65  1  0.824209  0.798919  0.702392  1
  O  O66  1  0.926097  0.567279  0.887779  1
  O  O67  1  0.835185  0.232842  0.112832  1
  O  O68  1  0.824209  0.701081  0.202393  1
  O  O69  1  0.947774  0.531975  0.616660  1
  O  O70  1  0.926097  0.932721  0.387779  1
  O  O71  1  0.947774  0.968025  0.116660  1
