# generated using pymatgen
data_La4TiMn5(PbO9)2
_symmetry_space_group_name_H-M   'P 1'
_cell_length_a   5.54625082
_cell_length_b   16.68368592
_cell_length_c   14.66265579
_cell_angle_alpha   19.30897125
_cell_angle_beta   56.08383581
_cell_angle_gamma   60.62418439
_symmetry_Int_Tables_number   1
_chemical_formula_structural   La4TiMn5(PbO9)2
_chemical_formula_sum   'La4 Ti1 Mn5 Pb2 O18'
_cell_volume   369.07004451
_cell_formula_units_Z   1
loop_
 _symmetry_equiv_pos_site_id
 _symmetry_equiv_pos_as_xyz
  1  'x, y, z'
loop_
 _atom_site_type_symbol
 _atom_site_label
 _atom_site_symmetry_multiplicity
 _atom_site_fract_x
 _atom_site_fract_y
 _atom_site_fract_z
 _atom_site_occupancy
  La  La0  1  0.250391  0.253564  0.246451  1
  La  La1  1  0.752222  0.083532  0.746836  1
  La  La2  1  0.747293  0.414160  0.754813  1
  La  La3  1  0.749585  0.750807  0.749211  1
  Ti  Ti4  1  0.998672  0.999537  0.000296  1
  Mn  Mn5  1  0.999701  0.332661  0.000771  1
  Mn  Mn6  1  0.000474  0.666703  0.000057  1
  Mn  Mn7  1  0.502133  0.168331  0.496972  1
  Mn  Mn8  1  0.499554  0.499903  0.500135  1
  Mn  Mn9  1  0.497929  0.831372  0.503014  1
  Pb  Pb10  1  0.255380  0.584401  0.245985  1
  Pb  Pb11  1  0.244475  0.916632  0.253084  1
  O  O12  1  0.186079  0.045817  0.314331  1
  O  O13  1  0.191768  0.369579  0.311831  1
  O  O14  1  0.688038  0.100828  0.253930  1
  O  O15  1  0.248139  0.039249  0.795475  1
  O  O16  1  0.745802  0.309858  0.192457  1
  O  O17  1  0.187409  0.713135  0.307470  1
  O  O18  1  0.710905  0.428076  0.250860  1
  O  O19  1  0.308638  0.228128  0.751496  1
  O  O20  1  0.253610  0.372272  0.792315  1
  O  O21  1  0.745526  0.646206  0.188747  1
  O  O22  1  0.709139  0.766128  0.248945  1
  O  O23  1  0.309461  0.552880  0.765827  1
  O  O24  1  0.797094  0.275907  0.708553  1
  O  O25  1  0.250942  0.694304  0.805160  1
  O  O26  1  0.756901  0.980274  0.183823  1
  O  O27  1  0.315964  0.908687  0.730820  1
  O  O28  1  0.786124  0.608489  0.713442  1
  O  O29  1  0.810652  0.958584  0.686891  1
