# generated using pymatgen
data_LiTi2(PO4)3
_symmetry_space_group_name_H-M   'P 1'
_cell_length_a   8.64471818
_cell_length_b   12.03365641
_cell_length_c   8.70349188
_cell_angle_alpha   90.00000000
_cell_angle_beta   90.00000000
_cell_angle_gamma   90.00000000
_symmetry_Int_Tables_number   1
_chemical_formula_structural   LiTi2(PO4)3
_chemical_formula_sum   'Li4 Ti8 P12 O48'
_cell_volume   905.40309634
_cell_formula_units_Z   4
loop_
 _symmetry_equiv_pos_site_id
 _symmetry_equiv_pos_as_xyz
  1  'x, y, z'
loop_
 _atom_site_type_symbol
 _atom_site_label
 _atom_site_symmetry_multiplicity
 _atom_site_fract_x
 _atom_site_fract_y
 _atom_site_fract_z
 _atom_site_occupancy
  Li  Li0  1  0.711562  0.320365  0.778519  1
  Li  Li1  1  0.711562  0.679635  0.721481  1
  Li  Li2  1  0.788438  0.179635  0.278519  1
  Li  Li3  1  0.788438  0.820365  0.221481  1
  Ti  Ti4  1  0.250341  0.879813  0.034943  1
  Ti  Ti5  1  0.250341  0.120186  0.465057  1
  Ti  Ti6  1  0.249659  0.379813  0.965057  1
  Ti  Ti7  1  0.249659  0.620187  0.534943  1
  Ti  Ti8  1  0.752839  0.388403  0.461133  1
  Ti  Ti9  1  0.752839  0.611597  0.038867  1
  Ti  Ti10  1  0.747161  0.111597  0.961133  1
  Ti  Ti11  1  0.747161  0.888403  0.538867  1
  P  P12  1  0.041519  0.500000  0.250000  1
  P  P13  1  0.458481  0.000000  0.750000  1
  P  P14  1  0.535591  0.000000  0.250000  1
  P  P15  1  0.964409  0.500000  0.750000  1
  P  P16  1  0.106753  0.145205  0.108217  1
  P  P17  1  0.106753  0.854795  0.391783  1
  P  P18  1  0.393247  0.354795  0.608217  1
  P  P19  1  0.393247  0.645205  0.891783  1
  P  P20  1  0.603299  0.351983  0.107888  1
  P  P21  1  0.603299  0.648017  0.392112  1
  P  P22  1  0.896701  0.148017  0.607888  1
  P  P23  1  0.896701  0.851983  0.892112  1
  O  O24  1  0.059846  0.426259  0.855727  1
  O  O25  1  0.059846  0.573741  0.644273  1
  O  O26  1  0.072002  0.154793  0.597975  1
  O  O27  1  0.072002  0.845207  0.902025  1
  O  O28  1  0.141079  0.424283  0.151026  1
  O  O29  1  0.141079  0.575717  0.348974  1
  O  O30  1  0.152125  0.171371  0.276355  1
  O  O31  1  0.152125  0.828629  0.223645  1
  O  O32  1  0.161460  0.028258  0.063810  1
  O  O33  1  0.161460  0.971742  0.436190  1
  O  O34  1  0.175400  0.230659  0.995332  1
  O  O35  1  0.175400  0.769341  0.504668  1
  O  O36  1  0.324600  0.269341  0.495332  1
  O  O37  1  0.324600  0.730659  0.004668  1
  O  O38  1  0.338540  0.471742  0.563810  1
  O  O39  1  0.338540  0.528258  0.936190  1
  O  O40  1  0.347875  0.671371  0.723645  1
  O  O41  1  0.347875  0.328629  0.776355  1
  O  O42  1  0.358921  0.075717  0.651026  1
  O  O43  1  0.358921  0.924283  0.848974  1
  O  O44  1  0.427998  0.345207  0.097975  1
  O  O45  1  0.427998  0.654793  0.402025  1
  O  O46  1  0.440154  0.073741  0.355727  1
  O  O47  1  0.440154  0.926259  0.144273  1
  O  O48  1  0.565832  0.927024  0.646976  1
  O  O49  1  0.565832  0.072976  0.853024  1
  O  O50  1  0.573739  0.346556  0.599214  1
  O  O51  1  0.573739  0.653444  0.900786  1
  O  O52  1  0.648392  0.077789  0.158692  1
  O  O53  1  0.648392  0.922211  0.341308  1
  O  O54  1  0.660674  0.320306  0.271028  1
  O  O55  1  0.660674  0.679694  0.228972  1
  O  O56  1  0.661558  0.470859  0.067893  1
  O  O57  1  0.661558  0.529141  0.432107  1
  O  O58  1  0.677848  0.272428  0.988463  1
  O  O59  1  0.677848  0.727572  0.511537  1
  O  O60  1  0.822152  0.227572  0.488463  1
  O  O61  1  0.822152  0.772428  0.011537  1
  O  O62  1  0.838442  0.029141  0.567893  1
  O  O63  1  0.838442  0.970859  0.932107  1
  O  O64  1  0.839326  0.179694  0.771028  1
  O  O65  1  0.839326  0.820306  0.728972  1
  O  O66  1  0.851608  0.422211  0.658692  1
  O  O67  1  0.851608  0.577789  0.841308  1
  O  O68  1  0.926261  0.153444  0.099214  1
  O  O69  1  0.926261  0.846556  0.400786  1
  O  O70  1  0.934168  0.427024  0.353024  1
  O  O71  1  0.934168  0.572976  0.146976  1
