# generated using pymatgen
data_Li7Cr3(SiO6)2
_symmetry_space_group_name_H-M   'P 1'
_cell_length_a   4.96225375
_cell_length_b   4.96225346
_cell_length_c   9.77025377
_cell_angle_alpha   94.85198583
_cell_angle_beta   94.85198848
_cell_angle_gamma   119.99802196
_symmetry_Int_Tables_number   1
_chemical_formula_structural   Li7Cr3(SiO6)2
_chemical_formula_sum   'Li7 Cr3 Si2 O12'
_cell_volume   205.35193561
_cell_formula_units_Z   1
loop_
 _symmetry_equiv_pos_site_id
 _symmetry_equiv_pos_as_xyz
  1  'x, y, z'
loop_
 _atom_site_type_symbol
 _atom_site_label
 _atom_site_symmetry_multiplicity
 _atom_site_fract_x
 _atom_site_fract_y
 _atom_site_fract_z
 _atom_site_occupancy
  Li  Li0  1  0.334838  0.673118  0.004524  1
  Li  Li1  1  0.170075  0.836742  0.495437  1
  Li  Li2  1  0.498495  0.493549  0.495476  1
  Li  Li3  1  0.663258  0.329925  0.004563  1
  Li  Li4  1  0.826882  0.165162  0.495476  1
  Li  Li5  1  0.006451  0.001505  0.004524  1
  Li  Li6  1  0.416667  0.083333  0.250000  1
  Cr  Cr7  1  0.583482  0.916518  0.750000  1
  Cr  Cr8  1  0.916667  0.583333  0.750000  1
  Cr  Cr9  1  0.249851  0.250149  0.750000  1
  Si  Si10  1  0.749994  0.750006  0.250000  1
  Si  Si11  1  0.083339  0.416661  0.250000  1
  O  O12  1  0.451103  0.743811  0.353472  1
  O  O13  1  0.877809  0.877838  0.633400  1
  O  O14  1  0.289514  0.956181  0.868789  1
  O  O15  1  0.008271  0.674937  0.146535  1
  O  O16  1  0.382231  0.422855  0.146527  1
  O  O17  1  0.622162  0.622191  0.866600  1
  O  O18  1  0.211172  0.544476  0.633400  1
  O  O19  1  0.825063  0.491729  0.353465  1
  O  O20  1  0.756189  0.048897  0.146527  1
  O  O21  1  0.955524  0.288828  0.866600  1
  O  O22  1  0.077145  0.117769  0.353472  1
  O  O23  1  0.543819  0.210486  0.631211  1
