# generated using pymatgen
data_Hf2N2O
_symmetry_space_group_name_H-M   'P 1'
_cell_length_a   8.48221171
_cell_length_b   3.09556401
_cell_length_c   8.41953781
_cell_angle_alpha   90.00000000
_cell_angle_beta   90.00000000
_cell_angle_gamma   90.00000000
_symmetry_Int_Tables_number   1
_chemical_formula_structural   Hf2N2O
_chemical_formula_sum   'Hf8 N8 O4'
_cell_volume   221.07373483
_cell_formula_units_Z   4
loop_
 _symmetry_equiv_pos_site_id
 _symmetry_equiv_pos_as_xyz
  1  'x, y, z'
loop_
 _atom_site_type_symbol
 _atom_site_label
 _atom_site_symmetry_multiplicity
 _atom_site_fract_x
 _atom_site_fract_y
 _atom_site_fract_z
 _atom_site_occupancy
  Hf  Hf0  1  0.003909  0.250000  0.178674  1
  Hf  Hf1  1  0.181508  0.250000  0.501435  1
  Hf  Hf2  1  0.318492  0.750000  0.001435  1
  Hf  Hf3  1  0.496091  0.750000  0.678674  1
  Hf  Hf4  1  0.503909  0.250000  0.321326  1
  Hf  Hf5  1  0.681508  0.250000  0.998565  1
  Hf  Hf6  1  0.818492  0.750000  0.498565  1
  Hf  Hf7  1  0.996091  0.750000  0.821326  1
  N  N8  1  0.047242  0.750000  0.366515  1
  N  N9  1  0.124787  0.250000  0.944958  1
  N  N10  1  0.375213  0.750000  0.444958  1
  N  N11  1  0.452758  0.250000  0.866515  1
  N  N12  1  0.547242  0.750000  0.133485  1
  N  N13  1  0.624787  0.250000  0.555042  1
  N  N14  1  0.875213  0.750000  0.055042  1
  N  N15  1  0.952758  0.250000  0.633485  1
  O  O16  1  0.225228  0.750000  0.690044  1
  O  O17  1  0.274772  0.250000  0.190044  1
  O  O18  1  0.725228  0.750000  0.809956  1
  O  O19  1  0.774772  0.250000  0.309956  1
