# generated using pymatgen
data_LiVP3(H7O8)2
_symmetry_space_group_name_H-M   'P 1'
_cell_length_a   7.54974116
_cell_length_b   10.92285387
_cell_length_c   9.06699463
_cell_angle_alpha   108.01637025
_cell_angle_beta   108.82076043
_cell_angle_gamma   80.05239060
_symmetry_Int_Tables_number   1
_chemical_formula_structural   LiVP3(H7O8)2
_chemical_formula_sum   'Li2 V2 P6 H28 O32'
_cell_volume   670.81278604
_cell_formula_units_Z   2
loop_
 _symmetry_equiv_pos_site_id
 _symmetry_equiv_pos_as_xyz
  1  'x, y, z'
loop_
 _atom_site_type_symbol
 _atom_site_label
 _atom_site_symmetry_multiplicity
 _atom_site_fract_x
 _atom_site_fract_y
 _atom_site_fract_z
 _atom_site_occupancy
  Li  Li0  1  0.008803  0.492798  0.511754  1
  Li  Li1  1  0.593197  0.389994  0.639382  1
  V  V2  1  0.000549  0.999765  0.000931  1
  V  V3  1  0.415568  0.596113  0.371372  1
  P  P4  1  0.151588  0.200377  0.864924  1
  P  P5  1  0.044423  0.788305  0.467055  1
  P  P6  1  0.293788  0.928780  0.771057  1
  P  P7  1  0.705519  0.073296  0.230416  1
  P  P8  1  0.959337  0.212082  0.529692  1
  P  P9  1  0.846315  0.801258  0.135500  1
  H  H10  1  0.088004  0.277412  0.336664  1
  H  H11  1  0.044376  0.315467  0.174363  1
  H  H12  1  0.281423  0.389820  0.725149  1
  H  H13  1  0.198573  0.069698  0.326828  1
  H  H14  1  0.300353  0.749334  0.922263  1
  H  H15  1  0.320760  0.532961  0.766928  1
  H  H16  1  0.492061  0.678352  0.002812  1
  H  H17  1  0.340328  0.058000  0.226449  1
  H  H18  1  0.414745  0.182512  0.598854  1
  H  H19  1  0.294442  0.375466  0.344657  1
  H  H20  1  0.222908  0.472371  0.050503  1
  H  H21  1  0.621676  0.139124  0.687724  1
  H  H22  1  0.259974  0.612553  0.062059  1
  H  H23  1  0.486104  0.313487  0.311908  1
  H  H24  1  0.518261  0.701389  0.689988  1
  H  H25  1  0.743139  0.387176  0.932603  1
  H  H26  1  0.374562  0.858343  0.312387  1
  H  H27  1  0.779225  0.526627  0.950710  1
  H  H28  1  0.701227  0.622770  0.653980  1
  H  H29  1  0.584509  0.816694  0.401644  1
  H  H30  1  0.660408  0.941616  0.774517  1
  H  H31  1  0.508377  0.322225  0.997979  1
  H  H32  1  0.675355  0.463906  0.226242  1
  H  H33  1  0.699737  0.251779  0.080016  1
  H  H34  1  0.802443  0.930277  0.674305  1
  H  H35  1  0.714822  0.609643  0.270921  1
  H  H36  1  0.954743  0.682806  0.825324  1
  H  H37  1  0.911181  0.722517  0.664287  1
  O  O38  1  0.071040  0.178798  0.985751  1
  O  O39  1  0.246405  0.320993  0.903618  1
  O  O40  1  0.143991  0.188502  0.488229  1
  O  O41  1  0.307574  0.081883  0.821443  1
  O  O42  1  0.074142  0.352323  0.292837  1
  O  O43  1  0.187464  0.891362  0.864174  1
  O  O44  1  0.016011  0.825443  0.301854  1
  O  O45  1  0.159825  0.660235  0.462042  1
  O  O46  1  0.293603  0.454166  0.674494  1
  O  O47  1  0.235241  0.014444  0.229084  1
  O  O48  1  0.357480  0.666741  0.947558  1
  O  O49  1  0.166833  0.907685  0.584996  1
  O  O50  1  0.233868  0.560757  0.124807  1
  O  O51  1  0.545360  0.204814  0.635551  1
  O  O52  1  0.429088  0.394043  0.371819  1
  O  O53  1  0.487617  0.865052  0.779971  1
  O  O54  1  0.511950  0.137380  0.221582  1
  O  O55  1  0.561851  0.618228  0.623163  1
  O  O56  1  0.454020  0.793900  0.365958  1
  O  O57  1  0.769403  0.440384  0.872776  1
  O  O58  1  0.833251  0.092545  0.415286  1
  O  O59  1  0.641194  0.335686  0.059433  1
  O  O60  1  0.767212  0.983741  0.772622  1
  O  O61  1  0.685920  0.546588  0.315709  1
  O  O62  1  0.851150  0.340269  0.528848  1
  O  O63  1  0.985699  0.177724  0.697327  1
  O  O64  1  0.811977  0.108637  0.135598  1
  O  O65  1  0.924658  0.647017  0.706841  1
  O  O66  1  0.691301  0.919291  0.179132  1
  O  O67  1  0.861684  0.803511  0.507637  1
  O  O68  1  0.753731  0.680730  0.102654  1
  O  O69  1  0.926651  0.820037  0.013056  1
