# generated using pymatgen
data_LiMnPCO7
_symmetry_space_group_name_H-M   'P 1'
_cell_length_a   8.42103575
_cell_length_b   10.25736961
_cell_length_c   6.24013448
_cell_angle_alpha   90.00000000
_cell_angle_beta   90.00000000
_cell_angle_gamma   85.84492735
_symmetry_Int_Tables_number   1
_chemical_formula_structural   LiMnPCO7
_chemical_formula_sum   'Li4 Mn4 P4 C4 O28'
_cell_volume   537.59158600
_cell_formula_units_Z   4
loop_
 _symmetry_equiv_pos_site_id
 _symmetry_equiv_pos_as_xyz
  1  'x, y, z'
loop_
 _atom_site_type_symbol
 _atom_site_label
 _atom_site_symmetry_multiplicity
 _atom_site_fract_x
 _atom_site_fract_y
 _atom_site_fract_z
 _atom_site_occupancy
  Li  Li0  1  0.257535  0.124108  0.028837  1
  Li  Li1  1  0.257535  0.624108  0.471163  1
  Li  Li2  1  0.742465  0.375892  0.971163  1
  Li  Li3  1  0.742465  0.875892  0.528837  1
  Mn  Mn4  1  0.330337  0.395669  0.749867  1
  Mn  Mn5  1  0.330337  0.895669  0.750133  1
  Mn  Mn6  1  0.669663  0.104331  0.250133  1
  Mn  Mn7  1  0.669663  0.604331  0.249867  1
  P  P8  1  0.425912  0.362351  0.243316  1
  P  P9  1  0.425912  0.862351  0.256684  1
  P  P10  1  0.574088  0.137649  0.756684  1
  P  P11  1  0.574088  0.637649  0.743316  1
  C  C12  1  0.050926  0.354722  0.754857  1
  C  C13  1  0.050926  0.854722  0.745143  1
  C  C14  1  0.949074  0.145278  0.245143  1
  C  C15  1  0.949074  0.645278  0.254857  1
  O  O16  1  0.106011  0.471468  0.737775  1
  O  O17  1  0.090143  0.168314  0.232220  1
  O  O18  1  0.106011  0.971468  0.762225  1
  O  O19  1  0.171959  0.263193  0.758785  1
  O  O20  1  0.090143  0.668314  0.267780  1
  O  O21  1  0.171959  0.763193  0.741215  1
  O  O22  1  0.313794  0.401632  0.053782  1
  O  O23  1  0.324768  0.407754  0.440529  1
  O  O24  1  0.324768  0.907754  0.059471  1
  O  O25  1  0.313794  0.901632  0.446218  1
  O  O26  1  0.415640  0.071176  0.768539  1
  O  O27  1  0.464941  0.211268  0.239066  1
  O  O28  1  0.415640  0.571176  0.731461  1
  O  O29  1  0.464941  0.711268  0.260934  1
  O  O30  1  0.535059  0.288732  0.760934  1
  O  O31  1  0.584360  0.428824  0.231461  1
  O  O32  1  0.535059  0.788732  0.739066  1
  O  O33  1  0.584360  0.928824  0.268539  1
  O  O34  1  0.686206  0.098368  0.946218  1
  O  O35  1  0.675232  0.092246  0.559471  1
  O  O36  1  0.686206  0.598368  0.553782  1
  O  O37  1  0.675232  0.592246  0.940529  1
  O  O38  1  0.828041  0.236807  0.241215  1
  O  O39  1  0.909857  0.331686  0.767780  1
  O  O40  1  0.828041  0.736807  0.258785  1
  O  O41  1  0.893989  0.028532  0.262225  1
  O  O42  1  0.909857  0.831686  0.732220  1
  O  O43  1  0.893989  0.528532  0.237775  1
