# generated using pymatgen
data_Li9P8W3O29
_symmetry_space_group_name_H-M   'P 1'
_cell_length_a   10.05595928
_cell_length_b   10.05603616
_cell_length_c   14.03603339
_cell_angle_alpha   90.00115044
_cell_angle_beta   90.00076063
_cell_angle_gamma   60.00034782
_symmetry_Int_Tables_number   1
_chemical_formula_structural   Li9P8W3O29
_chemical_formula_sum   'Li18 P16 W6 O58'
_cell_volume   1229.21224797
_cell_formula_units_Z   2
loop_
 _symmetry_equiv_pos_site_id
 _symmetry_equiv_pos_as_xyz
  1  'x, y, z'
loop_
 _atom_site_type_symbol
 _atom_site_label
 _atom_site_symmetry_multiplicity
 _atom_site_fract_x
 _atom_site_fract_y
 _atom_site_fract_z
 _atom_site_occupancy
  Li  Li0  1  0.999999  1.000000  0.500000  1
  Li  Li1  1  0.000000  0.000000  1.000000  1
  Li  Li2  1  0.100446  0.232148  0.563222  1
  Li  Li3  1  0.232154  0.100448  0.063221  1
  Li  Li4  1  0.100444  0.667400  0.063221  1
  Li  Li5  1  0.333324  0.333316  0.381073  1
  Li  Li6  1  0.333360  0.333318  0.881073  1
  Li  Li7  1  0.232157  0.667397  0.563222  1
  Li  Li8  1  0.667396  0.100449  0.563220  1
  Li  Li9  1  0.332597  0.767854  0.936779  1
  Li  Li10  1  0.667402  0.232148  0.063223  1
  Li  Li11  1  0.332598  0.899555  0.436779  1
  Li  Li12  1  0.767846  0.332599  0.436780  1
  Li  Li13  1  0.666684  0.666684  0.618927  1
  Li  Li14  1  0.666684  0.666683  0.118927  1
  Li  Li15  1  0.899559  0.332602  0.936777  1
  Li  Li16  1  0.767848  0.899552  0.936779  1
  Li  Li17  1  0.899548  0.767850  0.436778  1
  P  P18  1  0.086747  0.226041  0.345755  1
  P  P19  1  0.226039  0.086751  0.845753  1
  P  P20  1  0.086750  0.687213  0.845753  1
  P  P21  1  0.333330  0.333322  0.118421  1
  P  P22  1  0.333351  0.333326  0.618421  1
  P  P23  1  0.226041  0.687211  0.345754  1
  P  P24  1  0.312790  0.773957  0.154245  1
  P  P25  1  0.687213  0.086751  0.345753  1
  P  P26  1  0.312787  0.913251  0.654246  1
  P  P27  1  0.687215  0.226043  0.845755  1
  P  P28  1  0.773961  0.312789  0.654247  1
  P  P29  1  0.666680  0.666674  0.881580  1
  P  P30  1  0.666673  0.666673  0.381580  1
  P  P31  1  0.913250  0.312787  0.154246  1
  P  P32  1  0.773960  0.913251  0.154246  1
  P  P33  1  0.913254  0.773960  0.654245  1
  W  W34  1  0.000009  0.432799  0.749997  1
  W  W35  1  0.000006  0.567195  0.249997  1
  W  W36  1  0.432801  0.999995  0.250002  1
  W  W37  1  0.567203  0.000000  0.750000  1
  W  W38  1  0.432807  0.567203  0.750003  1
  W  W39  1  0.567198  0.432803  0.249999  1
  O  O40  1  0.999997  0.218258  0.250001  1
  O  O41  1  0.006336  0.221739  0.067784  1
  O  O42  1  0.077126  0.243122  0.847551  1
  O  O43  1  0.218255  -0.000000  0.749999  1
  O  O44  1  0.221742  0.006332  0.567783  1
  O  O45  1  0.243118  0.077127  0.347556  1
  O  O46  1  0.112358  0.364254  0.338339  1
  O  O47  1  0.195188  0.318057  0.656259  1
  O  O48  1  0.112365  0.523390  0.838334  1
  O  O49  1  0.006339  0.771917  0.567782  1
  O  O50  1  0.000004  0.781745  0.749999  1
  O  O51  1  0.077128  0.679754  0.347555  1
  O  O52  1  0.318046  0.195182  0.156288  1
  O  O53  1  0.364254  0.112360  0.838334  1
  O  O54  1  0.195183  0.486759  0.156268  1
  O  O55  1  0.333319  0.333291  0.010738  1
  O  O56  1  0.333389  0.333304  0.510738  1
  O  O57  1  0.318065  0.486759  0.656274  1
  O  O58  1  0.523390  0.112359  0.338333  1
  O  O59  1  0.486772  0.195183  0.656285  1
  O  O60  1  0.243124  0.679757  0.847556  1
  O  O61  1  0.218256  0.781742  0.250000  1
  O  O62  1  0.221745  0.771915  0.067782  1
  O  O63  1  0.228082  0.778257  0.432218  1
  O  O64  1  0.364254  0.523390  0.338336  1
  O  O65  1  0.486760  0.318056  0.156264  1
  O  O66  1  0.320248  0.756878  0.652446  1
  O  O67  1  0.523393  0.364257  0.838339  1
  O  O68  1  0.679755  0.077131  0.847556  1
  O  O69  1  0.228077  0.993670  0.932215  1
  O  O70  1  0.771922  0.006332  0.067783  1
  O  O71  1  0.781747  0.000001  0.249999  1
  O  O72  1  0.320244  0.922872  0.152446  1
  O  O73  1  0.476614  0.635747  0.161663  1
  O  O74  1  0.679755  0.243122  0.347552  1
  O  O75  1  0.513246  0.681946  0.843740  1
  O  O76  1  0.635751  0.476612  0.661665  1
  O  O77  1  0.771920  0.221743  0.567784  1
  O  O78  1  0.778259  0.228083  0.932219  1
  O  O79  1  0.781748  0.218258  0.750002  1
  O  O80  1  0.756879  0.320244  0.152446  1
  O  O81  1  0.513238  0.804817  0.343730  1
  O  O82  1  0.476611  0.887642  0.661663  1
  O  O83  1  0.681940  0.513242  0.343739  1
  O  O84  1  0.666699  0.666692  0.989262  1
  O  O85  1  0.666697  0.666692  0.489263  1
  O  O86  1  0.804826  0.513240  0.843726  1
  O  O87  1  0.635746  0.887643  0.161664  1
  O  O88  1  0.681959  0.804817  0.843717  1
  O  O89  1  0.922878  0.320244  0.652445  1
  O  O90  1  0.993663  0.228082  0.432218  1
  O  O91  1  0.887641  0.476609  0.161664  1
  O  O92  1  0.804816  0.681952  0.343714  1
  O  O93  1  0.887646  0.635745  0.661664  1
  O  O94  1  0.756882  0.922871  0.652444  1
  O  O95  1  0.778257  0.993668  0.432215  1
  O  O96  1  0.922873  0.756878  0.152445  1
  O  O97  1  0.993666  0.778257  0.932216  1
