# generated using pymatgen
data_CrFe5(PO4)6
_symmetry_space_group_name_H-M   'P 1'
_cell_length_a   8.43030178
_cell_length_b   8.63395217
_cell_length_c   8.63395198
_cell_angle_alpha   60.00000195
_cell_angle_beta   59.19762060
_cell_angle_gamma   59.19761834
_symmetry_Int_Tables_number   1
_chemical_formula_structural   CrFe5(PO4)6
_chemical_formula_sum   'Cr1 Fe5 P6 O24'
_cell_volume   438.90690301
_cell_formula_units_Z   1
loop_
 _symmetry_equiv_pos_site_id
 _symmetry_equiv_pos_as_xyz
  1  'x, y, z'
loop_
 _atom_site_type_symbol
 _atom_site_label
 _atom_site_symmetry_multiplicity
 _atom_site_fract_x
 _atom_site_fract_y
 _atom_site_fract_z
 _atom_site_occupancy
  Cr  Cr0  1  0.573295  0.142235  0.142235  1
  Fe  Fe1  1  0.005538  0.998154  0.998154  1
  Fe  Fe2  1  0.060780  0.646407  0.646407  1
  Fe  Fe3  1  0.498486  0.500505  0.500505  1
  Fe  Fe4  1  0.438879  0.853707  0.853707  1
  Fe  Fe5  1  0.938057  0.353981  0.353981  1
  P  P6  1  0.251253  0.250690  0.544274  1
  P  P7  1  0.251253  0.953784  0.250690  1
  P  P8  1  0.251253  0.544274  0.953784  1
  P  P9  1  0.748120  0.452590  0.048328  1
  P  P10  1  0.748120  0.048328  0.750963  1
  P  P11  1  0.748120  0.750963  0.452590  1
  O  O12  1  0.064164  0.107006  0.324625  1
  O  O13  1  0.064164  0.504205  0.107006  1
  O  O14  1  0.064164  0.324625  0.504205  1
  O  O15  1  0.217231  0.094226  0.748094  1
  O  O16  1  0.435698  0.179454  0.390465  1
  O  O17  1  0.283642  0.405590  0.561049  1
  O  O18  1  0.217231  0.940450  0.094226  1
  O  O19  1  0.283642  0.749718  0.405590  1
  O  O20  1  0.563390  0.606780  0.005467  1
  O  O21  1  0.283642  0.561049  0.749718  1
  O  O22  1  0.782336  0.248926  0.062389  1
  O  O23  1  0.563390  0.005467  0.824362  1
  O  O24  1  0.435698  0.994383  0.179454  1
  O  O25  1  0.217231  0.748094  0.940450  1
  O  O26  1  0.714945  0.438089  0.251129  1
  O  O27  1  0.435698  0.390465  0.994383  1
  O  O28  1  0.714945  0.251129  0.595836  1
  O  O29  1  0.782336  0.062389  0.906350  1
  O  O30  1  0.714945  0.595836  0.438089  1
  O  O31  1  0.563390  0.824362  0.606780  1
  O  O32  1  0.782336  0.906350  0.248926  1
  O  O33  1  0.934209  0.680242  0.492792  1
  O  O34  1  0.934209  0.492792  0.892758  1
  O  O35  1  0.934209  0.892758  0.680242  1
