# generated using pymatgen
data_SiO2
_symmetry_space_group_name_H-M   'P 1'
_cell_length_a   5.08223447
_cell_length_b   5.08223447
_cell_length_c   7.09450004
_cell_angle_alpha   90.00000000
_cell_angle_beta   90.00000000
_cell_angle_gamma   90.00000000
_symmetry_Int_Tables_number   1
_chemical_formula_structural   SiO2
_chemical_formula_sum   'Si4 O8'
_cell_volume   183.24460212
_cell_formula_units_Z   4
loop_
 _symmetry_equiv_pos_site_id
 _symmetry_equiv_pos_as_xyz
  1  'x, y, z'
loop_
 _atom_site_type_symbol
 _atom_site_label
 _atom_site_symmetry_multiplicity
 _atom_site_fract_x
 _atom_site_fract_y
 _atom_site_fract_z
 _atom_site_occupancy
  O  O0  1  0.594235  0.741001  0.674421  1
  O  O1  1  0.405765  0.258999  0.174421  1
  O  O2  1  0.741001  0.594235  0.325579  1
  O  O3  1  0.241001  0.905765  0.924421  1
  O  O4  1  0.258999  0.405765  0.825579  1
  O  O5  1  0.094235  0.758999  0.575579  1
  O  O6  1  0.905765  0.241001  0.075579  1
  O  O7  1  0.758999  0.094235  0.424421  1
  Si  Si8  1  0.205487  0.205487  0.000000  1
  Si  Si9  1  0.294513  0.705487  0.750000  1
  Si  Si10  1  0.705487  0.294513  0.250000  1
  Si  Si11  1  0.794513  0.794513  0.500000  1
