# generated using pymatgen
data_Li2Mn3F8
_symmetry_space_group_name_H-M   'P 1'
_cell_length_a   8.92802979
_cell_length_b   11.83055424
_cell_length_c   6.70596072
_cell_angle_alpha   90.00000000
_cell_angle_beta   96.87314418
_cell_angle_gamma   90.00000000
_symmetry_Int_Tables_number   1
_chemical_formula_structural   Li2Mn3F8
_chemical_formula_sum   'Li8 Mn12 F32'
_cell_volume   703.21709538
_cell_formula_units_Z   4
loop_
 _symmetry_equiv_pos_site_id
 _symmetry_equiv_pos_as_xyz
  1  'x, y, z'
loop_
 _atom_site_type_symbol
 _atom_site_label
 _atom_site_symmetry_multiplicity
 _atom_site_fract_x
 _atom_site_fract_y
 _atom_site_fract_z
 _atom_site_occupancy
  Li  Li0  1  0.069772  0.386422  0.893427  1
  Li  Li1  1  0.069772  0.113578  0.393427  1
  Li  Li2  1  0.403856  0.577197  0.694927  1
  Li  Li3  1  0.403856  0.922803  0.194927  1
  Li  Li4  1  0.596144  0.077197  0.805073  1
  Li  Li5  1  0.596144  0.422803  0.305073  1
  Li  Li6  1  0.930228  0.886422  0.606573  1
  Li  Li7  1  0.930228  0.613578  0.106573  1
  Mn  Mn8  1  0.062679  0.608166  0.643281  1
  Mn  Mn9  1  0.062679  0.891834  0.143281  1
  Mn  Mn10  1  0.265866  0.909397  0.680079  1
  Mn  Mn11  1  0.265866  0.590603  0.180079  1
  Mn  Mn12  1  0.342779  0.303137  0.645181  1
  Mn  Mn13  1  0.342779  0.196863  0.145181  1
  Mn  Mn14  1  0.657221  0.803137  0.854819  1
  Mn  Mn15  1  0.657221  0.696863  0.354819  1
  Mn  Mn16  1  0.734134  0.409397  0.819921  1
  Mn  Mn17  1  0.734134  0.090603  0.319921  1
  Mn  Mn18  1  0.937321  0.108166  0.856719  1
  Mn  Mn19  1  0.937321  0.391834  0.356719  1
  F  F20  1  0.100455  0.417206  0.613119  1
  F  F21  1  0.095795  0.784167  0.636298  1
  F  F22  1  0.093651  0.043866  0.659523  1
  F  F23  1  0.100455  0.082794  0.113119  1
  F  F24  1  0.095795  0.715833  0.136298  1
  F  F25  1  0.093651  0.456134  0.159523  1
  F  F26  1  0.223928  0.281956  0.910299  1
  F  F27  1  0.253277  0.904817  0.978952  1
  F  F28  1  0.223928  0.218044  0.410299  1
  F  F29  1  0.256460  0.584609  0.874699  1
  F  F30  1  0.253277  0.595183  0.478952  1
  F  F31  1  0.256460  0.915391  0.374699  1
  F  F32  1  0.469780  0.193415  0.846082  1
  F  F33  1  0.495550  0.433460  0.743274  1
  F  F34  1  0.469780  0.306585  0.346082  1
  F  F35  1  0.495550  0.066540  0.243274  1
  F  F36  1  0.504450  0.933460  0.756726  1
  F  F37  1  0.530220  0.693415  0.653918  1
  F  F38  1  0.504450  0.566540  0.256726  1
  F  F39  1  0.530220  0.806585  0.153918  1
  F  F40  1  0.743540  0.084609  0.625301  1
  F  F41  1  0.746723  0.404817  0.521048  1
  F  F42  1  0.743540  0.415391  0.125301  1
  F  F43  1  0.776072  0.781956  0.589701  1
  F  F44  1  0.746723  0.095183  0.021048  1
  F  F45  1  0.776072  0.718044  0.089701  1
  F  F46  1  0.906349  0.543866  0.840477  1
  F  F47  1  0.904205  0.284167  0.863702  1
  F  F48  1  0.899545  0.917206  0.886881  1
  F  F49  1  0.906349  0.956134  0.340477  1
  F  F50  1  0.904205  0.215833  0.363702  1
  F  F51  1  0.899545  0.582794  0.386882  1
