# generated using pymatgen
data_Li7Mn(OF)3
_symmetry_space_group_name_H-M   'P 1'
_cell_length_a   5.62023877
_cell_length_b   6.10600345
_cell_length_c   5.78071665
_cell_angle_alpha   115.56293562
_cell_angle_beta   123.35183461
_cell_angle_gamma   60.21913442
_symmetry_Int_Tables_number   1
_chemical_formula_structural   Li7Mn(OF)3
_chemical_formula_sum   'Li7 Mn1 O3 F3'
_cell_volume   140.34616051
_cell_formula_units_Z   1
loop_
 _symmetry_equiv_pos_site_id
 _symmetry_equiv_pos_as_xyz
  1  'x, y, z'
loop_
 _atom_site_type_symbol
 _atom_site_label
 _atom_site_symmetry_multiplicity
 _atom_site_fract_x
 _atom_site_fract_y
 _atom_site_fract_z
 _atom_site_occupancy
  Li  Li0  1  0.229162  0.366662  0.457301  1
  Li  Li1  1  0.464932  0.646678  0.890107  1
  Li  Li2  1  0.676594  0.013797  0.387778  1
  Li  Li3  1  0.346085  0.984441  0.588996  1
  Li  Li4  1  0.501606  0.393068  0.119459  1
  Li  Li5  1  0.903097  0.338080  0.781937  1
  Li  Li6  1  0.781050  0.619314  0.511443  1
  Mn  Mn7  1  0.976311  0.003441  0.046798  1
  O  O8  1  0.609017  0.243449  0.770620  1
  O  O9  1  0.419011  0.772143  0.230848  1
  O  O10  1  0.926178  0.243236  0.424157  1
  F  F11  1  0.073741  0.734972  0.575369  1
  F  F12  1  0.268863  0.250524  0.110499  1
  F  F13  1  0.713321  0.728961  0.839956  1
