# generated using pymatgen
data_Li5Cr2Cu5O12
_symmetry_space_group_name_H-M   'P 1'
_cell_length_a   5.05698281
_cell_length_b   5.05698249
_cell_length_c   9.65998008
_cell_angle_alpha   88.77644556
_cell_angle_beta   91.22354990
_cell_angle_gamma   65.69831595
_symmetry_Int_Tables_number   1
_chemical_formula_structural   Li5Cr2Cu5O12
_chemical_formula_sum   'Li5 Cr2 Cu5 O12'
_cell_volume   224.97134583
_cell_formula_units_Z   1
loop_
 _symmetry_equiv_pos_site_id
 _symmetry_equiv_pos_as_xyz
  1  'x, y, z'
loop_
 _atom_site_type_symbol
 _atom_site_label
 _atom_site_symmetry_multiplicity
 _atom_site_fract_x
 _atom_site_fract_y
 _atom_site_fract_z
 _atom_site_occupancy
  Li  Li0  1  0.159939  0.673606  0.503695  1
  Li  Li1  1  0.323547  0.845989  0.993508  1
  Li  Li2  1  0.673606  0.159939  0.996305  1
  Li  Li3  1  0.845989  0.323547  0.506492  1
  Li  Li4  1  0.915596  0.915596  0.750000  1
  Cr  Cr5  1  0.247114  0.247114  0.750000  1
  Cr  Cr6  1  0.747451  0.747451  0.250000  1
  Cu  Cu7  1  0.078652  0.078652  0.250000  1
  Cu  Cu8  1  0.999452  0.506752  0.998957  1
  Cu  Cu9  1  0.506752  0.999452  0.501043  1
  Cu  Cu10  1  0.416637  0.416637  0.250000  1
  Cu  Cu11  1  0.584984  0.584984  0.750000  1
  O  O12  1  0.989058  0.209489  0.884328  1
  O  O13  1  0.209489  0.989058  0.615672  1
  O  O14  1  0.081569  0.415954  0.346736  1
  O  O15  1  0.415954  0.081569  0.153264  1
  O  O16  1  0.305017  0.524487  0.873382  1
  O  O17  1  0.524487  0.305017  0.626618  1
  O  O18  1  0.473072  0.694322  0.378624  1
  O  O19  1  0.694322  0.473072  0.121376  1
  O  O20  1  0.568955  0.921243  0.846687  1
  O  O21  1  0.921243  0.568955  0.653313  1
  O  O22  1  0.806250  0.010864  0.383934  1
  O  O23  1  0.010864  0.806250  0.116066  1
