# generated using pymatgen
data_Li3Bi3P8O29
_symmetry_space_group_name_H-M   'P 1'
_cell_length_a   10.09730555
_cell_length_b   10.11372640
_cell_length_c   14.39504352
_cell_angle_alpha   90.00108852
_cell_angle_beta   89.81033081
_cell_angle_gamma   59.95011525
_symmetry_Int_Tables_number   1
_chemical_formula_structural   Li3Bi3P8O29
_chemical_formula_sum   'Li6 Bi6 P16 O58'
_cell_volume   1272.44374656
_cell_formula_units_Z   2
loop_
 _symmetry_equiv_pos_site_id
 _symmetry_equiv_pos_as_xyz
  1  'x, y, z'
loop_
 _atom_site_type_symbol
 _atom_site_label
 _atom_site_symmetry_multiplicity
 _atom_site_fract_x
 _atom_site_fract_y
 _atom_site_fract_z
 _atom_site_occupancy
  Li  Li0  1  0.019672  0.036463  0.499204  1
  Li  Li1  1  0.019647  0.943911  0.999188  1
  Li  Li2  1  0.230895  0.087633  0.051653  1
  Li  Li3  1  0.231016  0.681395  0.551653  1
  Li  Li4  1  0.682128  0.090517  0.553880  1
  Li  Li5  1  0.682127  0.227303  0.053864  1
  Bi  Bi6  1  0.998538  0.437204  0.748207  1
  Bi  Bi7  1  0.998577  0.564237  0.248134  1
  Bi  Bi8  1  0.434299  0.998840  0.254554  1
  Bi  Bi9  1  0.565818  0.995962  0.749920  1
  Bi  Bi10  1  0.434317  0.566907  0.754606  1
  Bi  Bi11  1  0.565706  0.438269  0.249861  1
  P  P12  1  0.075108  0.223005  0.346830  1
  P  P13  1  0.221606  0.083350  0.844463  1
  P  P14  1  0.075101  0.701962  0.846850  1
  P  P15  1  0.336010  0.331171  0.120140  1
  P  P16  1  0.336029  0.332783  0.620131  1
  P  P17  1  0.221619  0.694979  0.344440  1
  P  P18  1  0.296967  0.782124  0.155009  1
  P  P19  1  0.692904  0.084338  0.347278  1
  P  P20  1  0.296960  0.920890  0.655042  1
  P  P21  1  0.692954  0.222780  0.847292  1
  P  P22  1  0.780029  0.301471  0.659454  1
  P  P23  1  0.668777  0.665300  0.877470  1
  P  P24  1  0.668768  0.665941  0.376984  1
  P  P25  1  0.922365  0.299224  0.154374  1
  P  P26  1  0.780013  0.918528  0.159431  1
  P  P27  1  0.922406  0.778399  0.654397  1
  O  O28  1  0.992684  0.218074  0.252049  1
  O  O29  1  0.018103  0.197222  0.077414  1
  O  O30  1  0.075801  0.243838  0.840182  1
  O  O31  1  0.221411  0.987425  0.755732  1
  O  O32  1  0.189081  0.009846  0.579276  1
  O  O33  1  0.238442  0.078420  0.346233  1
  O  O34  1  0.088701  0.369411  0.344050  1
  O  O35  1  0.209318  0.307562  0.666017  1
  O  O36  1  0.088713  0.541961  0.844055  1
  O  O37  1  0.018201  0.784609  0.577418  1
  O  O38  1  0.992711  0.789274  0.752062  1
  O  O39  1  0.075800  0.680302  0.340161  1
  O  O40  1  0.315810  0.193925  0.156382  1
  O  O41  1  0.365142  0.102367  0.839329  1
  O  O42  1  0.209419  0.483049  0.166001  1
  O  O43  1  0.333943  0.328807  0.015896  1
  O  O44  1  0.333979  0.337214  0.515945  1
  O  O45  1  0.315877  0.490252  0.656402  1
  O  O46  1  0.528062  0.108701  0.340043  1
  O  O47  1  0.496005  0.195214  0.653312  1
  O  O48  1  0.238418  0.683196  0.846259  1
  O  O49  1  0.221426  0.791059  0.255688  1
  O  O50  1  0.189090  0.801080  0.079213  1
  O  O51  1  0.213010  0.780646  0.431347  1
  O  O52  1  0.365171  0.532406  0.339358  1
  O  O53  1  0.495974  0.308750  0.153282  1
  O  O54  1  0.320948  0.754956  0.653252  1
  O  O55  1  0.528149  0.363217  0.840043  1
  O  O56  1  0.680967  0.075516  0.842392  1
  O  O57  1  0.212992  0.006350  0.931350  1
  O  O58  1  0.789832  0.014779  0.084060  1
  O  O59  1  0.791138  0.986503  0.259447  1
  O  O60  1  0.320991  0.924089  0.153230  1
  O  O61  1  0.455949  0.633962  0.152977  1
  O  O62  1  0.680926  0.243621  0.342326  1
  O  O63  1  0.509534  0.695765  0.838741  1
  O  O64  1  0.632375  0.461005  0.660478  1
  O  O65  1  0.789853  0.195389  0.584064  1
  O  O66  1  0.774568  0.217326  0.934861  1
  O  O67  1  0.791160  0.222359  0.759452  1
  O  O68  1  0.759186  0.317671  0.150230  1
  O  O69  1  0.509545  0.794536  0.338413  1
  O  O70  1  0.455948  0.909965  0.653057  1
  O  O71  1  0.694975  0.508522  0.338166  1
  O  O72  1  0.670186  0.664287  0.981379  1
  O  O73  1  0.670189  0.665517  0.481168  1
  O  O74  1  0.796214  0.509093  0.835300  1
  O  O75  1  0.632275  0.906717  0.160448  1
  O  O76  1  0.694856  0.796632  0.838482  1
  O  O77  1  0.922718  0.321499  0.653525  1
  O  O78  1  0.989664  0.207775  0.426590  1
  O  O79  1  0.902071  0.462122  0.156209  1
  O  O80  1  0.796073  0.694819  0.335010  1
  O  O81  1  0.902063  0.635843  0.656254  1
  O  O82  1  0.759304  0.923083  0.650242  1
  O  O83  1  0.774520  0.008217  0.434849  1
  O  O84  1  0.922689  0.755793  0.153489  1
  O  O85  1  0.989636  0.802601  0.926573  1
