# generated using pymatgen
data_Zn2As2O7
_symmetry_space_group_name_H-M   'P 1'
_cell_length_a   5.27782030
_cell_length_b   14.14268587
_cell_length_c   16.96831646
_cell_angle_alpha   90.00000000
_cell_angle_beta   90.00000000
_cell_angle_gamma   90.00000000
_symmetry_Int_Tables_number   1
_chemical_formula_structural   Zn2As2O7
_chemical_formula_sum   'Zn16 As16 O56'
_cell_volume   1266.55848752
_cell_formula_units_Z   8
loop_
 _symmetry_equiv_pos_site_id
 _symmetry_equiv_pos_as_xyz
  1  'x, y, z'
loop_
 _atom_site_type_symbol
 _atom_site_label
 _atom_site_symmetry_multiplicity
 _atom_site_fract_x
 _atom_site_fract_y
 _atom_site_fract_z
 _atom_site_occupancy
  Zn  Zn0  1  0.089371  0.450711  0.085947  1
  Zn  Zn1  1  0.089371  0.049289  0.585947  1
  Zn  Zn2  1  0.089371  0.450711  0.414053  1
  Zn  Zn3  1  0.089371  0.049289  0.914053  1
  Zn  Zn4  1  0.313352  0.246143  0.156174  1
  Zn  Zn5  1  0.313352  0.246143  0.343826  1
  Zn  Zn6  1  0.313352  0.253857  0.656174  1
  Zn  Zn7  1  0.313352  0.253857  0.843826  1
  Zn  Zn8  1  0.686648  0.746143  0.156174  1
  Zn  Zn9  1  0.686648  0.746143  0.343826  1
  Zn  Zn10  1  0.686648  0.753857  0.656174  1
  Zn  Zn11  1  0.686648  0.753857  0.843826  1
  Zn  Zn12  1  0.910629  0.950711  0.085947  1
  Zn  Zn13  1  0.910629  0.950711  0.414053  1
  Zn  Zn14  1  0.910629  0.549289  0.585947  1
  Zn  Zn15  1  0.910629  0.549289  0.914053  1
  As  As16  1  0.033008  0.058553  0.250000  1
  As  As17  1  0.033008  0.441447  0.750000  1
  As  As18  1  0.177660  0.848244  0.250000  1
  As  As19  1  0.177660  0.651756  0.750000  1
  As  As20  1  0.421479  0.641395  0.004147  1
  As  As21  1  0.421479  0.641395  0.495853  1
  As  As22  1  0.421479  0.858605  0.504147  1
  As  As23  1  0.421479  0.858605  0.995853  1
  As  As24  1  0.578521  0.141395  0.004147  1
  As  As25  1  0.578521  0.141395  0.495853  1
  As  As26  1  0.578521  0.358605  0.504147  1
  As  As27  1  0.578521  0.358605  0.995853  1
  As  As28  1  0.822340  0.348244  0.250000  1
  As  As29  1  0.822340  0.151756  0.750000  1
  As  As30  1  0.966992  0.558553  0.250000  1
  As  As31  1  0.966992  0.941447  0.750000  1
  O  O32  1  0.008118  0.831565  0.164854  1
  O  O33  1  0.008118  0.831565  0.335146  1
  O  O34  1  0.008118  0.668435  0.664854  1
  O  O35  1  0.008118  0.668435  0.835146  1
  O  O36  1  0.134941  0.547422  0.165918  1
  O  O37  1  0.134941  0.547422  0.334082  1
  O  O38  1  0.134941  0.952578  0.665918  1
  O  O39  1  0.134941  0.952578  0.834082  1
  O  O40  1  0.195447  0.944819  0.004612  1
  O  O41  1  0.195447  0.555181  0.504612  1
  O  O42  1  0.195447  0.944819  0.495388  1
  O  O43  1  0.195447  0.555181  0.995388  1
  O  O44  1  0.191292  0.164230  0.250000  1
  O  O45  1  0.191292  0.335770  0.750000  1
  O  O46  1  0.278182  0.531897  0.750000  1
  O  O47  1  0.278182  0.968103  0.250000  1
  O  O48  1  0.244016  0.750000  0.000000  1
  O  O49  1  0.244016  0.750000  0.500000  1
  O  O50  1  0.400031  0.139619  0.086360  1
  O  O51  1  0.400031  0.139619  0.413640  1
  O  O52  1  0.400031  0.360381  0.586360  1
  O  O53  1  0.400031  0.360381  0.913640  1
  O  O54  1  0.391218  0.139102  0.579170  1
  O  O55  1  0.391218  0.360898  0.079170  1
  O  O56  1  0.391218  0.139102  0.920830  1
  O  O57  1  0.391218  0.360898  0.420830  1
  O  O58  1  0.455894  0.786743  0.250000  1
  O  O59  1  0.455894  0.713257  0.750000  1
  O  O60  1  0.544106  0.213257  0.750000  1
  O  O61  1  0.544106  0.286743  0.250000  1
  O  O62  1  0.608782  0.639102  0.579170  1
  O  O63  1  0.608782  0.860898  0.079170  1
  O  O64  1  0.608782  0.639102  0.920830  1
  O  O65  1  0.608782  0.860898  0.420830  1
  O  O66  1  0.599970  0.639619  0.086360  1
  O  O67  1  0.599970  0.639619  0.413640  1
  O  O68  1  0.599970  0.860381  0.586360  1
  O  O69  1  0.599970  0.860381  0.913640  1
  O  O70  1  0.755984  0.250000  0.000000  1
  O  O71  1  0.755984  0.250000  0.500000  1
  O  O72  1  0.721818  0.031897  0.750000  1
  O  O73  1  0.721818  0.468103  0.250000  1
  O  O74  1  0.808708  0.664230  0.250000  1
  O  O75  1  0.808708  0.835770  0.750000  1
  O  O76  1  0.804553  0.444819  0.004612  1
  O  O77  1  0.804553  0.055181  0.504612  1
  O  O78  1  0.804553  0.055181  0.995388  1
  O  O79  1  0.804553  0.444819  0.495388  1
  O  O80  1  0.865058  0.047422  0.165918  1
  O  O81  1  0.865058  0.047422  0.334082  1
  O  O82  1  0.865058  0.452578  0.665918  1
  O  O83  1  0.865058  0.452578  0.834082  1
  O  O84  1  0.991882  0.331565  0.164854  1
  O  O85  1  0.991882  0.331565  0.335146  1
  O  O86  1  0.991882  0.168435  0.664854  1
  O  O87  1  0.991882  0.168435  0.835146  1
