# generated using pymatgen
data_SiH12N2(O2F3)2
_symmetry_space_group_name_H-M   'P 1'
_cell_length_a   10.45616856
_cell_length_b   9.56584066
_cell_length_c   10.45616856
_cell_angle_alpha   106.05928395
_cell_angle_beta   136.78272198
_cell_angle_gamma   91.13745966
_symmetry_Int_Tables_number   1
_chemical_formula_structural   SiH12N2(O2F3)2
_chemical_formula_sum   'Si2 H24 N4 O8 F12'
_cell_volume   648.07316744
_cell_formula_units_Z   2
loop_
 _symmetry_equiv_pos_site_id
 _symmetry_equiv_pos_as_xyz
  1  'x, y, z'
loop_
 _atom_site_type_symbol
 _atom_site_label
 _atom_site_symmetry_multiplicity
 _atom_site_fract_x
 _atom_site_fract_y
 _atom_site_fract_z
 _atom_site_occupancy
  Si  Si0  1  0.377168  0.750000  0.127168  1
  Si  Si1  1  0.622832  0.250000  0.872832  1
  H  H2  1  0.949956  0.676710  0.379984  1
  H  H3  1  0.703273  0.823290  0.773246  1
  H  H4  1  0.050044  0.323290  0.620016  1
  H  H5  1  0.296727  0.176710  0.226754  1
  H  H6  1  0.023302  0.510465  0.052057  1
  H  H7  1  0.541592  0.989535  0.012837  1
  H  H8  1  0.976698  0.489535  0.947943  1
  H  H9  1  0.458408  0.010465  0.987163  1
  H  H10  1  0.369993  0.950339  0.528773  1
  H  H11  1  0.578434  0.549661  0.919654  1
  H  H12  1  0.630007  0.049661  0.471227  1
  H  H13  1  0.421566  0.450339  0.080346  1
  H  H14  1  0.133334  0.070230  0.166433  1
  H  H15  1  0.096203  0.429770  0.563104  1
  H  H16  1  0.866666  0.929770  0.833567  1
  H  H17  1  0.903797  0.570230  0.436896  1
  H  H18  1  0.064428  0.799143  0.662487  1
  H  H19  1  0.863343  0.700857  0.765285  1
  H  H20  1  0.935572  0.200857  0.337513  1
  H  H21  1  0.136657  0.299143  0.234715  1
  H  H22  1  0.889964  0.973685  0.590084  1
  H  H23  1  0.616399  0.526315  0.416279  1
  H  H24  1  0.110036  0.026315  0.409916  1
  H  H25  1  0.383601  0.473685  0.583721  1
  N  N26  1  0.153551  0.931395  0.389375  1
  N  N27  1  0.457980  0.568605  0.722156  1
  N  N28  1  0.846449  0.068605  0.610625  1
  N  N29  1  0.542020  0.431395  0.277844  1
  O  O30  1  0.017217  0.810675  0.271200  1
  O  O31  1  0.460524  0.689325  0.706541  1
  O  O32  1  0.982783  0.189325  0.728800  1
  O  O33  1  0.539476  0.310675  0.293459  1
  O  O34  1  0.007404  0.658643  0.498241  1
  O  O35  1  0.839598  0.841357  0.848761  1
  O  O36  1  0.992596  0.341357  0.501759  1
  O  O37  1  0.160402  0.158643  0.151239  1
  F  F38  1  0.604595  0.804687  0.243669  1
  F  F39  1  0.438981  0.695313  0.299908  1
  F  F40  1  0.395405  0.195313  0.756331  1
  F  F41  1  0.561019  0.304687  0.700092  1
  F  F42  1  0.330789  0.480118  0.958649  1
  F  F43  1  0.478531  0.019882  0.350671  1
  F  F44  1  0.669211  0.519882  0.041351  1
  F  F45  1  0.521469  0.980118  0.649329  1
  F  F46  1  0.093190  0.896626  0.757329  1
  F  F47  1  0.860703  0.603374  0.696564  1
  F  F48  1  0.906810  0.103374  0.242671  1
  F  F49  1  0.139297  0.396626  0.303436  1
