# generated using pymatgen
data_K2SmPCO7
_symmetry_space_group_name_H-M   'P 1'
_cell_length_a   10.03556563
_cell_length_b   7.27377864
_cell_length_c   5.82937260
_cell_angle_alpha   90.00000000
_cell_angle_beta   92.55092487
_cell_angle_gamma   90.00000000
_symmetry_Int_Tables_number   1
_chemical_formula_structural   K2SmPCO7
_chemical_formula_sum   'K4 Sm2 P2 C2 O14'
_cell_volume   425.10202808
_cell_formula_units_Z   2
loop_
 _symmetry_equiv_pos_site_id
 _symmetry_equiv_pos_as_xyz
  1  'x, y, z'
loop_
 _atom_site_type_symbol
 _atom_site_label
 _atom_site_symmetry_multiplicity
 _atom_site_fract_x
 _atom_site_fract_y
 _atom_site_fract_z
 _atom_site_occupancy
  K  K0  1  0.216477  0.489441  0.245573  1
  K  K1  1  0.216477  0.010559  0.245573  1
  K  K2  1  0.783523  0.510559  0.754427  1
  K  K3  1  0.783523  0.989441  0.754427  1
  Sm  Sm4  1  0.372609  0.750000  0.781053  1
  Sm  Sm5  1  0.627391  0.250000  0.218947  1
  P  P6  1  0.428212  0.250000  0.709152  1
  P  P7  1  0.571788  0.750000  0.290848  1
  C  C8  1  0.091492  0.750000  0.730490  1
  C  C9  1  0.908508  0.250000  0.269510  1
  O  O10  1  0.033666  0.250000  0.303269  1
  O  O11  1  0.151078  0.750000  0.936037  1
  O  O12  1  0.173573  0.750000  0.557354  1
  O  O13  1  0.353568  0.073167  0.778521  1
  O  O14  1  0.353568  0.426833  0.778521  1
  O  O15  1  0.428680  0.750000  0.169210  1
  O  O16  1  0.443479  0.250000  0.442839  1
  O  O17  1  0.556521  0.750000  0.557161  1
  O  O18  1  0.571320  0.250000  0.830790  1
  O  O19  1  0.646432  0.573167  0.221479  1
  O  O20  1  0.646432  0.926833  0.221479  1
  O  O21  1  0.826427  0.250000  0.442646  1
  O  O22  1  0.848922  0.250000  0.063963  1
  O  O23  1  0.966334  0.750000  0.696731  1
