# generated using pymatgen
data_Li(H3N)4
_symmetry_space_group_name_H-M   'P 1'
_cell_length_a   13.03784301
_cell_length_b   13.03784301
_cell_length_c   13.03784301
_cell_angle_alpha   109.47122063
_cell_angle_beta   109.47122063
_cell_angle_gamma   109.47122063
_symmetry_Int_Tables_number   1
_chemical_formula_structural   Li(H3N)4
_chemical_formula_sum   'Li8 H96 N32'
_cell_volume   1706.06412616
_cell_formula_units_Z   8
loop_
 _symmetry_equiv_pos_site_id
 _symmetry_equiv_pos_as_xyz
  1  'x, y, z'
loop_
 _atom_site_type_symbol
 _atom_site_label
 _atom_site_symmetry_multiplicity
 _atom_site_fract_x
 _atom_site_fract_y
 _atom_site_fract_z
 _atom_site_occupancy
  Li  Li0  1  0.500000  0.000000  0.756033  1
  Li  Li1  1  0.756033  0.500000  0.000000  1
  Li  Li2  1  0.000000  0.756033  0.500000  1
  Li  Li3  1  0.743967  0.743967  0.743967  1
  Li  Li4  1  0.256033  0.500000  0.000000  1
  Li  Li5  1  0.500000  0.000000  0.256033  1
  Li  Li6  1  0.000000  0.256033  0.500000  1
  Li  Li7  1  0.243967  0.243967  0.243967  1
  H  H8  1  0.460483  0.048888  0.563970  1
  H  H9  1  0.515082  0.451112  0.911595  1
  H  H10  1  0.039517  0.603487  0.588405  1
  H  H11  1  0.984918  0.896513  0.936030  1
  H  H12  1  0.063970  0.548888  0.960483  1
  H  H13  1  0.411595  0.951112  0.015082  1
  H  H14  1  0.088405  0.103487  0.539517  1
  H  H15  1  0.436030  0.396513  0.484918  1
  H  H16  1  0.563970  0.460483  0.048888  1
  H  H17  1  0.911595  0.515082  0.451112  1
  H  H18  1  0.588405  0.039517  0.603487  1
  H  H19  1  0.936030  0.984918  0.896513  1
  H  H20  1  0.960483  0.063970  0.548888  1
  H  H21  1  0.015082  0.411595  0.951112  1
  H  H22  1  0.539517  0.088405  0.103487  1
  H  H23  1  0.484918  0.436030  0.396513  1
  H  H24  1  0.048888  0.563970  0.460483  1
  H  H25  1  0.451112  0.911595  0.515082  1
  H  H26  1  0.603487  0.588405  0.039517  1
  H  H27  1  0.896513  0.936030  0.984918  1
  H  H28  1  0.548888  0.960483  0.063970  1
  H  H29  1  0.951112  0.015082  0.411595  1
  H  H30  1  0.103487  0.539517  0.088405  1
  H  H31  1  0.396513  0.484918  0.436030  1
  H  H32  1  0.424793  0.168743  0.777656  1
  H  H33  1  0.608913  0.331257  0.756050  1
  H  H34  1  0.075207  0.852863  0.743950  1
  H  H35  1  0.891087  0.647137  0.722344  1
  H  H36  1  0.277656  0.668743  0.924793  1
  H  H37  1  0.256050  0.831257  0.108913  1
  H  H38  1  0.243950  0.352863  0.575207  1
  H  H39  1  0.222344  0.147137  0.391087  1
  H  H40  1  0.777656  0.424793  0.168743  1
  H  H41  1  0.756050  0.608913  0.331257  1
  H  H42  1  0.743950  0.075207  0.852863  1
  H  H43  1  0.722344  0.891087  0.647137  1
  H  H44  1  0.924793  0.277656  0.668743  1
  H  H45  1  0.108913  0.256050  0.831257  1
  H  H46  1  0.575207  0.243950  0.352863  1
  H  H47  1  0.391087  0.222344  0.147137  1
  H  H48  1  0.168743  0.777656  0.424793  1
  H  H49  1  0.331257  0.756050  0.608913  1
  H  H50  1  0.852863  0.743950  0.075207  1
  H  H51  1  0.647137  0.722344  0.891087  1
  H  H52  1  0.668743  0.924793  0.277656  1
  H  H53  1  0.831257  0.108913  0.256050  1
  H  H54  1  0.352863  0.575207  0.243950  1
  H  H55  1  0.147137  0.391087  0.222344  1
  H  H56  1  0.535404  0.219165  0.918460  1
  H  H57  1  0.699295  0.280835  0.816238  1
  H  H58  1  0.964596  0.883057  0.683762  1
  H  H59  1  0.800705  0.616943  0.581540  1
  H  H60  1  0.418460  0.719165  0.035404  1
  H  H61  1  0.316238  0.780835  0.199295  1
  H  H62  1  0.183762  0.383057  0.464596  1
  H  H63  1  0.081540  0.116943  0.300705  1
  H  H64  1  0.918460  0.535404  0.219165  1
  H  H65  1  0.816238  0.699295  0.280835  1
  H  H66  1  0.683762  0.964596  0.883057  1
  H  H67  1  0.581540  0.800705  0.616943  1
  H  H68  1  0.035404  0.418460  0.719165  1
  H  H69  1  0.199295  0.316238  0.780835  1
  H  H70  1  0.464596  0.183762  0.383057  1
  H  H71  1  0.300705  0.081540  0.116943  1
  H  H72  1  0.219165  0.918460  0.535404  1
  H  H73  1  0.280835  0.816238  0.699295  1
  H  H74  1  0.883057  0.683762  0.964596  1
  H  H75  1  0.616943  0.581540  0.800705  1
  H  H76  1  0.719165  0.035404  0.418460  1
  H  H77  1  0.780835  0.199295  0.316238  1
  H  H78  1  0.383057  0.464596  0.183762  1
  H  H79  1  0.116943  0.300705  0.081540  1
  H  H80  1  0.393088  0.112606  0.865696  1
  H  H81  1  0.753090  0.387394  0.780482  1
  H  H82  1  0.106912  0.972608  0.719518  1
  H  H83  1  0.746910  0.527392  0.634304  1
  H  H84  1  0.365696  0.612606  0.893088  1
  H  H85  1  0.280482  0.887394  0.253090  1
  H  H86  1  0.219518  0.472608  0.606912  1
  H  H87  1  0.134304  0.027392  0.246910  1
  H  H88  1  0.865696  0.393088  0.112606  1
  H  H89  1  0.780482  0.753090  0.387394  1
  H  H90  1  0.719518  0.106912  0.972608  1
  H  H91  1  0.634304  0.746910  0.527392  1
  H  H92  1  0.893088  0.365696  0.612606  1
  H  H93  1  0.253090  0.280482  0.887394  1
  H  H94  1  0.606912  0.219518  0.472608  1
  H  H95  1  0.246910  0.134304  0.027392  1
  H  H96  1  0.112606  0.865696  0.393088  1
  H  H97  1  0.387394  0.780482  0.753090  1
  H  H98  1  0.972608  0.719518  0.106912  1
  H  H99  1  0.527392  0.634304  0.746910  1
  H  H100  1  0.612606  0.893088  0.365696  1
  H  H101  1  0.887394  0.253090  0.280482  1
  H  H102  1  0.472608  0.606912  0.219518  1
  H  H103  1  0.027392  0.246910  0.134304  1
  N  N104  1  0.500000  0.000000  0.592522  1
  N  N105  1  0.592522  0.500000  0.000000  1
  N  N106  1  0.000000  0.592522  0.500000  1
  N  N107  1  0.907478  0.907478  0.907478  1
  N  N108  1  0.092522  0.500000  0.000000  1
  N  N109  1  0.500000  0.000000  0.092522  1
  N  N110  1  0.000000  0.092522  0.500000  1
  N  N111  1  0.407478  0.407478  0.407478  1
  N  N112  1  0.458787  0.139278  0.838719  1
  N  N113  1  0.699441  0.360722  0.819509  1
  N  N114  1  0.041213  0.879932  0.680491  1
  N  N115  1  0.800559  0.620068  0.661281  1
  N  N116  1  0.338719  0.639278  0.958787  1
  N  N117  1  0.319509  0.860722  0.199441  1
  N  N118  1  0.180491  0.379932  0.541213  1
  N  N119  1  0.161281  0.120068  0.300559  1
  N  N120  1  0.838719  0.458787  0.139278  1
  N  N121  1  0.819509  0.699441  0.360722  1
  N  N122  1  0.680491  0.041213  0.879932  1
  N  N123  1  0.661281  0.800559  0.620068  1
  N  N124  1  0.958787  0.338719  0.639278  1
  N  N125  1  0.199441  0.319509  0.860722  1
  N  N126  1  0.541213  0.180491  0.379932  1
  N  N127  1  0.300559  0.161281  0.120068  1
  N  N128  1  0.139278  0.838719  0.458787  1
  N  N129  1  0.360722  0.819509  0.699441  1
  N  N130  1  0.879932  0.680491  0.041213  1
  N  N131  1  0.620068  0.661281  0.800559  1
  N  N132  1  0.639278  0.958787  0.338719  1
  N  N133  1  0.860722  0.199441  0.319509  1
  N  N134  1  0.379932  0.541213  0.180491  1
  N  N135  1  0.120068  0.300559  0.161281  1
