# generated using pymatgen
data_Na3CoO3
_symmetry_space_group_name_H-M   'P 1'
_cell_length_a   6.09590087
_cell_length_b   7.67933302
_cell_length_c   8.99784409
_cell_angle_alpha   90.00000000
_cell_angle_beta   90.49100899
_cell_angle_gamma   90.00000000
_symmetry_Int_Tables_number   1
_chemical_formula_structural   Na3CoO3
_chemical_formula_sum   'Na12 Co4 O12'
_cell_volume   421.19568512
_cell_formula_units_Z   4
loop_
 _symmetry_equiv_pos_site_id
 _symmetry_equiv_pos_as_xyz
  1  'x, y, z'
loop_
 _atom_site_type_symbol
 _atom_site_label
 _atom_site_symmetry_multiplicity
 _atom_site_fract_x
 _atom_site_fract_y
 _atom_site_fract_z
 _atom_site_occupancy
  Na  Na0  1  0.116437  0.731651  0.726186  1
  Na  Na1  1  0.107539  0.842516  0.067324  1
  Na  Na2  1  0.254283  0.968266  0.460520  1
  Na  Na3  1  0.245717  0.468266  0.039480  1
  Na  Na4  1  0.383563  0.231651  0.773814  1
  Na  Na5  1  0.392461  0.342516  0.432676  1
  Na  Na6  1  0.607539  0.657484  0.567324  1
  Na  Na7  1  0.616437  0.768349  0.226186  1
  Na  Na8  1  0.754283  0.531734  0.960520  1
  Na  Na9  1  0.745717  0.031734  0.539480  1
  Na  Na10  1  0.892461  0.157484  0.932676  1
  Na  Na11  1  0.883563  0.268349  0.273814  1
  Co  Co12  1  0.071433  0.649939  0.353911  1
  Co  Co13  1  0.428567  0.149939  0.146089  1
  Co  Co14  1  0.571433  0.850061  0.853911  1
  Co  Co15  1  0.928567  0.350061  0.646089  1
  O  O16  1  0.059063  0.418974  0.813984  1
  O  O17  1  0.066746  0.223393  0.511488  1
  O  O18  1  0.140315  0.135487  0.124878  1
  O  O19  1  0.359685  0.635487  0.375122  1
  O  O20  1  0.433254  0.723393  0.988512  1
  O  O21  1  0.440937  0.918974  0.686016  1
  O  O22  1  0.559063  0.081026  0.313984  1
  O  O23  1  0.566746  0.276607  0.011488  1
  O  O24  1  0.640315  0.364513  0.624878  1
  O  O25  1  0.859685  0.864513  0.875122  1
  O  O26  1  0.933254  0.776607  0.488512  1
  O  O27  1  0.940937  0.581026  0.186016  1
