# generated using pymatgen
data_LiFePO4
_symmetry_space_group_name_H-M   'P 1'
_cell_length_a   8.48817367
_cell_length_b   7.54977952
_cell_length_c   15.00624923
_cell_angle_alpha   90.00000000
_cell_angle_beta   89.60176454
_cell_angle_gamma   90.00000000
_symmetry_Int_Tables_number   1
_chemical_formula_structural   LiFePO4
_chemical_formula_sum   'Li12 Fe12 P12 O48'
_cell_volume   961.63484200
_cell_formula_units_Z   12
loop_
 _symmetry_equiv_pos_site_id
 _symmetry_equiv_pos_as_xyz
  1  'x, y, z'
loop_
 _atom_site_type_symbol
 _atom_site_label
 _atom_site_symmetry_multiplicity
 _atom_site_fract_x
 _atom_site_fract_y
 _atom_site_fract_z
 _atom_site_occupancy
  Li  Li0  1  0.050198  0.738970  0.092890  1
  Li  Li1  1  0.089173  0.771910  0.731106  1
  Li  Li2  1  0.110430  0.731216  0.423282  1
  Li  Li3  1  0.389570  0.231216  0.076718  1
  Li  Li4  1  0.410827  0.271910  0.768894  1
  Li  Li5  1  0.449802  0.238970  0.407110  1
  Li  Li6  1  0.550198  0.761030  0.592890  1
  Li  Li7  1  0.589173  0.728090  0.231106  1
  Li  Li8  1  0.610430  0.768784  0.923282  1
  Li  Li9  1  0.889570  0.268784  0.576718  1
  Li  Li10  1  0.910827  0.228090  0.268894  1
  Li  Li11  1  0.949802  0.261030  0.907110  1
  Fe  Fe12  1  0.228349  0.016363  0.565582  1
  Fe  Fe13  1  0.243083  0.973762  0.909091  1
  Fe  Fe14  1  0.240102  0.077339  0.252810  1
  Fe  Fe15  1  0.259898  0.577339  0.247190  1
  Fe  Fe16  1  0.256917  0.473762  0.590909  1
  Fe  Fe17  1  0.271651  0.516363  0.934418  1
  Fe  Fe18  1  0.728349  0.483637  0.065582  1
  Fe  Fe19  1  0.743083  0.526238  0.409091  1
  Fe  Fe20  1  0.740102  0.422661  0.752810  1
  Fe  Fe21  1  0.759898  0.922661  0.747190  1
  Fe  Fe22  1  0.756917  0.026238  0.090909  1
  Fe  Fe23  1  0.771651  0.983637  0.434418  1
  P  P24  1  0.051778  0.319963  0.090765  1
  P  P25  1  0.084587  0.181145  0.729498  1
  P  P26  1  0.103906  0.323521  0.425331  1
  P  P27  1  0.396094  0.823521  0.074669  1
  P  P28  1  0.415413  0.681145  0.770502  1
  P  P29  1  0.448222  0.819963  0.409235  1
  P  P30  1  0.551778  0.180037  0.590765  1
  P  P31  1  0.584587  0.318855  0.229498  1
  P  P32  1  0.603906  0.176479  0.925331  1
  P  P33  1  0.896094  0.676479  0.574669  1
  P  P34  1  0.915413  0.818855  0.270502  1
  P  P35  1  0.948222  0.680037  0.909235  1
  O  O36  1  0.041303  0.505702  0.890235  1
  O  O37  1  0.051404  0.638445  0.623461  1
  O  O38  1  0.050529  0.806710  0.965546  1
  O  O39  1  0.073062  0.723320  0.291531  1
  O  O40  1  0.077374  0.196680  0.506266  1
  O  O41  1  0.080244  0.004077  0.675433  1
  O  O42  1  0.100358  0.140280  0.830025  1
  O  O43  1  0.091438  0.237231  0.183500  1
  O  O44  1  0.179021  0.497217  0.461223  1
  O  O45  1  0.209116  0.366241  0.042243  1
  O  O46  1  0.228205  0.242500  0.359164  1
  O  O47  1  0.226088  0.291370  0.694397  1
  O  O48  1  0.271795  0.742500  0.140836  1
  O  O49  1  0.273912  0.791370  0.805603  1
  O  O50  1  0.290884  0.866241  0.457757  1
  O  O51  1  0.320979  0.997217  0.038777  1
  O  O52  1  0.408562  0.737231  0.316500  1
  O  O53  1  0.399642  0.640280  0.669975  1
  O  O54  1  0.419756  0.504077  0.824567  1
  O  O55  1  0.426938  0.223320  0.208469  1
  O  O56  1  0.422626  0.696680  0.993734  1
  O  O57  1  0.449471  0.306710  0.534454  1
  O  O58  1  0.448596  0.138445  0.876539  1
  O  O59  1  0.458697  0.005702  0.609765  1
  O  O60  1  0.541303  0.994298  0.390235  1
  O  O61  1  0.551404  0.861555  0.123461  1
  O  O62  1  0.550529  0.693290  0.465546  1
  O  O63  1  0.577374  0.303320  0.006266  1
  O  O64  1  0.573062  0.776680  0.791531  1
  O  O65  1  0.580244  0.495923  0.175433  1
  O  O66  1  0.600358  0.359720  0.330025  1
  O  O67  1  0.591438  0.262769  0.683500  1
  O  O68  1  0.679021  0.002783  0.961223  1
  O  O69  1  0.709116  0.133759  0.542243  1
  O  O70  1  0.726088  0.208630  0.194397  1
  O  O71  1  0.728205  0.257500  0.859164  1
  O  O72  1  0.773912  0.708630  0.305603  1
  O  O73  1  0.771795  0.757500  0.640836  1
  O  O74  1  0.790884  0.633759  0.957757  1
  O  O75  1  0.820979  0.502783  0.538777  1
  O  O76  1  0.908562  0.762769  0.816500  1
  O  O77  1  0.899642  0.859720  0.169975  1
  O  O78  1  0.919756  0.995923  0.324567  1
  O  O79  1  0.922626  0.803320  0.493734  1
  O  O80  1  0.926938  0.276680  0.708469  1
  O  O81  1  0.949471  0.193290  0.034454  1
  O  O82  1  0.948596  0.361555  0.376539  1
  O  O83  1  0.958697  0.494298  0.109765  1
