# generated using pymatgen
data_Li2V2OF6
_symmetry_space_group_name_H-M   'P 1'
_cell_length_a   8.76471066
_cell_length_b   6.60969934
_cell_length_c   5.47911483
_cell_angle_alpha   94.20089568
_cell_angle_beta   75.46960916
_cell_angle_gamma   107.99687089
_symmetry_Int_Tables_number   1
_chemical_formula_structural   Li2V2OF6
_chemical_formula_sum   'Li4 V4 O2 F12'
_cell_volume   292.22745573
_cell_formula_units_Z   2
loop_
 _symmetry_equiv_pos_site_id
 _symmetry_equiv_pos_as_xyz
  1  'x, y, z'
loop_
 _atom_site_type_symbol
 _atom_site_label
 _atom_site_symmetry_multiplicity
 _atom_site_fract_x
 _atom_site_fract_y
 _atom_site_fract_z
 _atom_site_occupancy
  Li  Li0  1  0.263408  0.575450  0.114305  1
  Li  Li1  1  0.372052  0.765621  0.556156  1
  Li  Li2  1  0.627948  0.234379  0.443844  1
  Li  Li3  1  0.736592  0.424550  0.885695  1
  V  V4  1  0.183954  0.998653  0.325344  1
  V  V5  1  0.303708  0.214290  0.774049  1
  V  V6  1  0.696292  0.785710  0.225951  1
  V  V7  1  0.816046  0.001347  0.674656  1
  O  O8  1  0.375172  0.108939  0.449389  1
  O  O9  1  0.624828  0.891061  0.550611  1
  F  F10  1  0.153839  0.709455  0.403357  1
  F  F11  1  0.268554  0.935721  0.949500  1
  F  F12  1  0.068842  0.081314  0.689576  1
  F  F13  1  0.199821  0.265760  0.156588  1
  F  F14  1  0.294787  0.503211  0.753314  1
  F  F15  1  0.462814  0.683287  0.205142  1
  F  F16  1  0.537186  0.316713  0.794858  1
  F  F17  1  0.705213  0.496789  0.246686  1
  F  F18  1  0.800179  0.734240  0.843412  1
  F  F19  1  0.931158  0.918686  0.310424  1
  F  F20  1  0.731446  0.064279  0.050500  1
  F  F21  1  0.846161  0.290545  0.596643  1
