# generated using pymatgen
data_Li2CoP2O7
_symmetry_space_group_name_H-M   'P 1'
_cell_length_a   5.60409366
_cell_length_b   7.77322141
_cell_length_c   7.90444528
_cell_angle_alpha   64.34380344
_cell_angle_beta   90.00000000
_cell_angle_gamma   68.87066655
_symmetry_Int_Tables_number   1
_chemical_formula_structural   Li2CoP2O7
_chemical_formula_sum   'Li4 Co2 P4 O14'
_cell_volume   284.48502527
_cell_formula_units_Z   2
loop_
 _symmetry_equiv_pos_site_id
 _symmetry_equiv_pos_as_xyz
  1  'x, y, z'
loop_
 _atom_site_type_symbol
 _atom_site_label
 _atom_site_symmetry_multiplicity
 _atom_site_fract_x
 _atom_site_fract_y
 _atom_site_fract_z
 _atom_site_occupancy
  Li  Li0  1  0.063995  0.557743  0.807254  1
  Li  Li1  1  0.621739  0.442257  0.692746  1
  Li  Li2  1  0.378261  0.557743  0.307254  1
  Li  Li3  1  0.936005  0.442257  0.192746  1
  Co  Co4  1  0.000000  0.000000  0.500000  1
  Co  Co5  1  0.000000  0.000000  0.000000  1
  P  P6  1  0.468114  0.775866  0.857870  1
  P  P7  1  0.756020  0.775866  0.357870  1
  P  P8  1  0.243980  0.224134  0.642130  1
  P  P9  1  0.531886  0.224134  0.142130  1
  O  O10  1  0.295679  0.763470  0.713351  1
  O  O11  1  0.741757  0.610953  0.920443  1
  O  O12  1  0.886902  0.779005  0.528162  1
  O  O13  1  0.940852  0.763470  0.213351  1
  O  O14  1  0.647289  0.610953  0.420444  1
  O  O15  1  0.334091  0.779005  0.028162  1
  O  O16  1  0.665909  0.220995  0.971838  1
  O  O17  1  0.352711  0.389047  0.579557  1
  O  O18  1  0.059148  0.236530  0.786649  1
  O  O19  1  0.113098  0.220995  0.471838  1
  O  O20  1  0.258243  0.389047  0.079557  1
  O  O21  1  0.704321  0.236530  0.286649  1
  O  O22  1  0.492575  0.000000  0.750000  1
  O  O23  1  0.507425  1.000000  0.250000  1
