# generated using pymatgen
data_SrLa2O4
_symmetry_space_group_name_H-M   'P 1'
_cell_length_a   7.29561302
_cell_length_b   7.33129111
_cell_length_c   7.29561302
_cell_angle_alpha   60.16085402
_cell_angle_beta   90.00000000
_cell_angle_gamma   119.83914598
_symmetry_Int_Tables_number   1
_chemical_formula_structural   SrLa2O4
_chemical_formula_sum   'Sr2 La4 O8'
_cell_volume   277.26001962
_cell_formula_units_Z   2
loop_
 _symmetry_equiv_pos_site_id
 _symmetry_equiv_pos_as_xyz
  1  'x, y, z'
loop_
 _atom_site_type_symbol
 _atom_site_label
 _atom_site_symmetry_multiplicity
 _atom_site_fract_x
 _atom_site_fract_y
 _atom_site_fract_z
 _atom_site_occupancy
  Sr  Sr0  1  0.625000  0.750000  0.125000  1
  Sr  Sr1  1  0.375000  0.250000  0.875000  1
  La  La2  1  0.000000  0.500000  0.000000  1
  La  La3  1  0.500000  0.000000  0.500000  1
  La  La4  1  0.000000  0.000000  0.500000  1
  La  La5  1  0.000000  0.500000  0.500000  1
  O  O6  1  0.766476  0.032838  0.260618  1
  O  O7  1  0.760618  0.467162  0.266363  1
  O  O8  1  0.206544  0.467162  0.266476  1
  O  O9  1  0.233637  0.967162  0.293456  1
  O  O10  1  0.766363  0.032838  0.706544  1
  O  O11  1  0.793456  0.532838  0.733524  1
  O  O12  1  0.239382  0.532838  0.733637  1
  O  O13  1  0.233524  0.967162  0.739382  1
