# generated using pymatgen
data_NaV2(PO4)3
_symmetry_space_group_name_H-M   'P 1'
_cell_length_a   8.51647055
_cell_length_b   8.86015618
_cell_length_c   11.96343494
_cell_angle_alpha   90.00000000
_cell_angle_beta   88.06231517
_cell_angle_gamma   90.00000000
_symmetry_Int_Tables_number   1
_chemical_formula_structural   NaV2(PO4)3
_chemical_formula_sum   'Na4 V8 P12 O48'
_cell_volume   902.21182474
_cell_formula_units_Z   4
loop_
 _symmetry_equiv_pos_site_id
 _symmetry_equiv_pos_as_xyz
  1  'x, y, z'
loop_
 _atom_site_type_symbol
 _atom_site_label
 _atom_site_symmetry_multiplicity
 _atom_site_fract_x
 _atom_site_fract_y
 _atom_site_fract_z
 _atom_site_occupancy
  Na  Na0  1  0.177477  0.694173  0.845344  1
  Na  Na1  1  0.322523  0.194173  0.654656  1
  Na  Na2  1  0.677477  0.805827  0.345344  1
  Na  Na3  1  0.822523  0.305827  0.154656  1
  V  V4  1  0.247794  0.965865  0.386216  1
  V  V5  1  0.245824  0.532693  0.609111  1
  V  V6  1  0.252206  0.465865  0.113784  1
  V  V7  1  0.254176  0.032693  0.890889  1
  V  V8  1  0.745824  0.967307  0.109111  1
  V  V9  1  0.747794  0.534135  0.886216  1
  V  V10  1  0.754176  0.467307  0.390889  1
  V  V11  1  0.752206  0.034135  0.613784  1
  P  P12  1  0.028892  0.249499  0.500749  1
  P  P13  1  0.109494  0.113206  0.151031  1
  P  P14  1  0.106192  0.378479  0.854530  1
  P  P15  1  0.393808  0.878479  0.645470  1
  P  P16  1  0.390506  0.613206  0.348969  1
  P  P17  1  0.471109  0.749499  0.999251  1
  P  P18  1  0.528891  0.250501  0.000749  1
  P  P19  1  0.609494  0.386794  0.651031  1
  P  P20  1  0.606192  0.121521  0.354530  1
  P  P21  1  0.893808  0.621521  0.145470  1
  P  P22  1  0.890506  0.886794  0.848969  1
  P  P23  1  0.971109  0.750501  0.499251  1
  O  O24  1  0.060021  0.643227  0.574499  1
  O  O25  1  0.073242  0.606066  0.121530  1
  O  O26  1  0.066584  0.922690  0.838623  1
  O  O27  1  0.083278  0.821161  0.406902  1
  O  O28  1  0.103955  0.124552  0.427927  1
  O  O29  1  0.121997  0.286410  0.163371  1
  O  O30  1  0.163633  0.067740  0.028875  1
  O  O31  1  0.149511  0.482599  0.752625  1
  O  O32  1  0.160916  0.333919  0.559417  1
  O  O33  1  0.155498  0.216670  0.824009  1
  O  O34  1  0.197597  0.441854  0.953164  1
  O  O35  1  0.208490  0.019233  0.229704  1
  O  O36  1  0.291510  0.519233  0.270296  1
  O  O37  1  0.302403  0.941854  0.546836  1
  O  O38  1  0.344502  0.716670  0.675991  1
  O  O39  1  0.339084  0.833919  0.940583  1
  O  O40  1  0.336367  0.567740  0.471125  1
  O  O41  1  0.350489  0.982599  0.747375  1
  O  O42  1  0.378003  0.786410  0.336629  1
  O  O43  1  0.396045  0.624552  0.072073  1
  O  O44  1  0.416722  0.321161  0.093098  1
  O  O45  1  0.426758  0.106066  0.378470  1
  O  O46  1  0.433416  0.422690  0.661377  1
  O  O47  1  0.439979  0.143227  0.925501  1
  O  O48  1  0.560021  0.856773  0.074499  1
  O  O49  1  0.566584  0.577310  0.338623  1
  O  O50  1  0.573242  0.893934  0.621530  1
  O  O51  1  0.583278  0.678839  0.906902  1
  O  O52  1  0.603955  0.375448  0.927927  1
  O  O53  1  0.621997  0.213590  0.663371  1
  O  O54  1  0.649511  0.017401  0.252625  1
  O  O55  1  0.663633  0.432260  0.528875  1
  O  O56  1  0.660916  0.166081  0.059417  1
  O  O57  1  0.655498  0.283330  0.324009  1
  O  O58  1  0.697597  0.058146  0.453164  1
  O  O59  1  0.708490  0.480767  0.729704  1
  O  O60  1  0.791510  0.980767  0.770296  1
  O  O61  1  0.802403  0.558146  0.046836  1
  O  O62  1  0.844502  0.783330  0.175991  1
  O  O63  1  0.839084  0.666081  0.440583  1
  O  O64  1  0.850489  0.517401  0.247375  1
  O  O65  1  0.836367  0.932260  0.971125  1
  O  O66  1  0.878003  0.713590  0.836629  1
  O  O67  1  0.896045  0.875448  0.572073  1
  O  O68  1  0.916722  0.178839  0.593098  1
  O  O69  1  0.933416  0.077310  0.161377  1
  O  O70  1  0.926758  0.393934  0.878470  1
  O  O71  1  0.939979  0.356773  0.425501  1
