# generated using pymatgen
data_Li4Fe3P4O15
_symmetry_space_group_name_H-M   'P 1'
_cell_length_a   17.60136663
_cell_length_b   6.50377193
_cell_length_c   10.57120292
_cell_angle_alpha   90.00000000
_cell_angle_beta   90.00000000
_cell_angle_gamma   90.00000000
_symmetry_Int_Tables_number   1
_chemical_formula_structural   Li4Fe3P4O15
_chemical_formula_sum   'Li16 Fe12 P16 O60'
_cell_volume   1210.14135308
_cell_formula_units_Z   4
loop_
 _symmetry_equiv_pos_site_id
 _symmetry_equiv_pos_as_xyz
  1  'x, y, z'
loop_
 _atom_site_type_symbol
 _atom_site_label
 _atom_site_symmetry_multiplicity
 _atom_site_fract_x
 _atom_site_fract_y
 _atom_site_fract_z
 _atom_site_occupancy
  Li  Li0  1  0.995481  0.824108  0.519059  1
  Li  Li1  1  0.495481  0.824108  0.980941  1
  Li  Li2  1  0.504519  0.324108  0.019059  1
  Li  Li3  1  0.594338  0.936589  0.680905  1
  Li  Li4  1  0.205402  0.359012  0.240224  1
  Li  Li5  1  0.534323  0.203088  0.448086  1
  Li  Li6  1  0.905662  0.436589  0.180905  1
  Li  Li7  1  0.965677  0.703088  0.948086  1
  Li  Li8  1  0.465677  0.703088  0.551914  1
  Li  Li9  1  0.004519  0.324108  0.480941  1
  Li  Li10  1  0.034323  0.203088  0.051914  1
  Li  Li11  1  0.705402  0.359012  0.259776  1
  Li  Li12  1  0.794598  0.859012  0.759776  1
  Li  Li13  1  0.094338  0.936589  0.819095  1
  Li  Li14  1  0.405662  0.436589  0.319095  1
  Li  Li15  1  0.294598  0.859012  0.740224  1
  Fe  Fe16  1  0.335599  0.104558  0.500896  1
  Fe  Fe17  1  0.864251  0.091929  0.506810  1
  Fe  Fe18  1  0.664401  0.604558  0.499104  1
  Fe  Fe19  1  0.260307  0.826454  0.242431  1
  Fe  Fe20  1  0.364251  0.091929  0.993190  1
  Fe  Fe21  1  0.239693  0.326454  0.742431  1
  Fe  Fe22  1  0.739693  0.326454  0.757569  1
  Fe  Fe23  1  0.635749  0.591929  0.006810  1
  Fe  Fe24  1  0.760307  0.826454  0.257569  1
  Fe  Fe25  1  0.164401  0.604558  0.000896  1
  Fe  Fe26  1  0.835599  0.104558  0.999104  1
  Fe  Fe27  1  0.135749  0.591929  0.493190  1
  P  P28  1  0.440226  0.961147  0.255126  1
  P  P29  1  0.449779  0.135749  0.725711  1
  P  P30  1  0.059774  0.461147  0.755126  1
  P  P31  1  0.050221  0.635749  0.225711  1
  P  P32  1  0.702582  0.098700  0.495041  1
  P  P33  1  0.949779  0.135749  0.774289  1
  P  P34  1  0.202582  0.098700  0.004959  1
  P  P35  1  0.940226  0.961147  0.244874  1
  P  P36  1  0.297418  0.598700  0.504959  1
  P  P37  1  0.797418  0.598700  0.995041  1
  P  P38  1  0.328091  0.586068  0.983140  1
  P  P39  1  0.828091  0.586068  0.516860  1
  P  P40  1  0.559774  0.461147  0.744874  1
  P  P41  1  0.671909  0.086068  0.016860  1
  P  P42  1  0.550221  0.635749  0.274289  1
  P  P43  1  0.171909  0.086068  0.483140  1
  O  O44  1  0.543973  0.553477  0.875190  1
  O  O45  1  0.381108  0.400645  -0.002432  1
  O  O46  1  0.956027  0.053477  0.375190  1
  O  O47  1  0.118892  0.900645  0.497568  1
  O  O48  1  0.848279  0.786728  0.964865  1
  O  O49  1  0.507782  0.499627  0.370388  1
  O  O50  1  0.992218  0.999627  0.870388  1
  O  O51  1  0.274803  0.600402  0.102495  1
  O  O52  1  0.456027  0.053477  0.124810  1
  O  O53  1  0.616907  0.284716  0.741810  1
  O  O54  1  0.492218  0.999627  0.629612  1
  O  O55  1  0.651721  0.286728  0.464865  1
  O  O56  1  0.423117  0.129275  0.354475  1
  O  O57  1  0.978224  0.371241  0.805280  1
  O  O58  1  0.635859  0.639354  0.302438  1
  O  O59  1  0.739085  0.573232  0.884724  1
  O  O60  1  0.851435  0.416120  0.014930  1
  O  O61  1  0.531716  0.591187  0.136229  1
  O  O62  1  0.754871  0.114434  0.614589  1
  O  O63  1  0.364141  0.139354  0.697562  1
  O  O64  1  0.478224  0.371241  0.694720  1
  O  O65  1  0.230604  0.066554  0.370001  1
  O  O66  1  0.881108  0.400645  0.502432  1
  O  O67  1  0.760915  0.073232  0.384724  1
  O  O68  1  0.769396  0.566554  0.629999  1
  O  O69  1  0.624802  0.281289  0.041989  1
  O  O70  1  0.468284  0.091187  0.863771  1
  O  O71  1  0.875198  0.781289  0.541989  1
  O  O72  1  0.521776  0.871241  0.305280  1
  O  O73  1  0.648565  0.916120  0.514930  1
  O  O74  1  0.021776  0.871241  0.194720  1
  O  O75  1  0.923117  0.129275  0.145525  1
  O  O76  1  0.135859  0.639354  0.197562  1
  O  O77  1  0.348279  0.786728  0.535135  1
  O  O78  1  0.576883  0.629275  0.645525  1
  O  O79  1  0.745129  0.614434  0.114589  1
  O  O80  1  0.883093  0.784716  0.241810  1
  O  O81  1  0.968284  0.091187  0.636229  1
  O  O82  1  0.383093  0.784716  0.258190  1
  O  O83  1  0.148565  0.916120  0.985070  1
  O  O84  1  0.864141  0.139354  0.802438  1
  O  O85  1  0.730604  0.066554  0.129999  1
  O  O86  1  0.225197  0.100402  0.602495  1
  O  O87  1  0.375198  0.781289  0.958011  1
  O  O88  1  0.007782  0.499627  0.129612  1
  O  O89  1  0.245129  0.614434  0.385411  1
  O  O90  1  0.124802  0.281289  0.458011  1
  O  O91  1  0.618892  0.900645  0.002432  1
  O  O92  1  0.031716  0.591187  0.363771  1
  O  O93  1  0.239086  0.573232  0.615276  1
  O  O94  1  0.260914  0.073232  0.115276  1
  O  O95  1  0.151721  0.286728  0.035135  1
  O  O96  1  0.254871  0.114434  0.885411  1
  O  O97  1  0.351435  0.416120  0.485070  1
  O  O98  1  0.269396  0.566554  0.870001  1
  O  O99  1  0.725197  0.100402  0.897505  1
  O  O100  1  0.774803  0.600402  0.397505  1
  O  O101  1  0.076883  0.629275  0.854475  1
  O  O102  1  0.043973  0.553477  0.624810  1
  O  O103  1  0.116907  0.284716  0.758190  1
