# generated using pymatgen
data_Li3V3(PO4)4
_symmetry_space_group_name_H-M   'P 1'
_cell_length_a   13.52300752
_cell_length_b   8.40382672
_cell_length_c   8.84446958
_cell_angle_alpha   90.12925439
_cell_angle_beta   84.51035367
_cell_angle_gamma   90.06334538
_symmetry_Int_Tables_number   1
_chemical_formula_structural   Li3V3(PO4)4
_chemical_formula_sum   'Li9 V9 P12 O48'
_cell_volume   1000.51687839
_cell_formula_units_Z   3
loop_
 _symmetry_equiv_pos_site_id
 _symmetry_equiv_pos_as_xyz
  1  'x, y, z'
loop_
 _atom_site_type_symbol
 _atom_site_label
 _atom_site_symmetry_multiplicity
 _atom_site_fract_x
 _atom_site_fract_y
 _atom_site_fract_z
 _atom_site_occupancy
  Li  Li0  1  0.170917  0.479191  0.339088  1
  Li  Li1  1  0.497129  0.523819  0.998078  1
  Li  Li2  1  0.175734  0.145820  0.438092  1
  Li  Li3  1  0.821686  0.646551  0.060367  1
  Li  Li4  1  0.157297  0.004048  0.818628  1
  Li  Li5  1  0.503022  0.989596  0.514279  1
  Li  Li6  1  0.827455  0.974157  0.160444  1
  Li  Li7  1  0.492464  0.852032  0.897552  1
  Li  Li8  1  0.838701  0.508227  0.683510  1
  V  V9  1  0.160760  0.854815  0.231684  1
  V  V10  1  0.504821  0.142254  0.102027  1
  V  V11  1  0.160040  0.650343  0.732114  1
  V  V12  1  0.498736  0.654385  0.395584  1
  V  V13  1  0.167709  0.348966  0.934932  1
  V  V14  1  0.504234  0.353219  0.601568  1
  V  V15  1  0.839558  0.357690  0.264841  1
  V  V16  1  0.829573  0.844700  0.566032  1
  V  V17  1  0.840541  0.148011  0.770560  1
  P  P18  1  0.056207  0.192781  0.145987  1
  P  P19  1  0.279856  0.697366  0.025744  1
  P  P20  1  0.056340  0.297893  0.639350  1
  P  P21  1  0.386279  0.302703  0.307615  1
  P  P22  1  0.275928  0.800827  0.520627  1
  P  P23  1  0.614340  0.810799  0.188472  1
  P  P24  1  0.389500  0.199140  0.812652  1
  P  P25  1  0.724238  0.200045  0.475956  1
  P  P26  1  0.609753  0.702243  0.692603  1
  P  P27  1  0.943227  0.693540  0.354493  1
  P  P28  1  0.722868  0.299685  0.978766  1
  P  P29  1  0.943316  0.798504  0.861065  1
  O  O30  1  0.223120  0.862378  0.022045  1
  O  O31  1  0.112257  0.359405  0.146248  1
  O  O32  1  0.100213  0.075186  0.254094  1
  O  O33  1  0.054948  0.712465  0.307687  1
  O  O34  1  0.248551  0.643601  0.190351  1
  O  O35  1  0.071474  0.369658  0.482890  1
  O  O36  1  0.418025  0.355954  0.142972  1
  O  O37  1  0.277191  0.296372  0.356754  1
  O  O38  1  0.230657  0.915388  0.407771  1
  O  O39  1  0.611221  0.285419  0.024455  1
  O  O40  1  0.563649  0.924963  0.080955  1
  O  O41  1  0.221556  0.633632  0.522631  1
  O  O42  1  0.107875  0.138836  0.651607  1
  O  O43  1  0.557177  0.642720  0.188087  1
  O  O44  1  0.443186  0.138080  0.312619  1
  O  O45  1  0.102532  0.421668  0.759226  1
  O  O46  1  0.056721  0.796239  0.800029  1
  O  O47  1  0.439609  0.420140  0.421396  1
  O  O48  1  0.388198  0.787823  0.473979  1
  O  O49  1  0.768136  0.416324  0.091211  1
  O  O50  1  0.251786  0.854984  0.686755  1
  O  O51  1  0.724510  0.796346  0.145495  1
  O  O52  1  0.585083  0.857152  0.358254  1
  O  O53  1  0.929103  0.871238  0.016792  1
  O  O54  1  0.078476  0.147345  0.976152  1
  O  O55  1  0.414557  0.146591  0.645920  1
  O  O56  1  0.277149  0.212700  0.859390  1
  O  O57  1  0.747155  0.144792  0.311122  1
  O  O58  1  0.225776  0.581093  0.911851  1
  O  O59  1  0.612721  0.211469  0.528817  1
  O  O60  1  0.563458  0.579166  0.571471  1
  O  O61  1  0.944022  0.212168  0.193140  1
  O  O62  1  0.899286  0.575821  0.244726  1
  O  O63  1  0.558895  0.862250  0.681542  1
  O  O64  1  0.443369  0.367136  0.810147  1
  O  O65  1  0.886428  0.859163  0.355040  1
  O  O66  1  0.779024  0.364741  0.478082  1
  O  O67  1  0.434736  0.084602  0.924735  1
  O  O68  1  0.388991  0.703024  0.976261  1
  O  O69  1  0.771736  0.082060  0.589251  1
  O  O70  1  0.723218  0.704353  0.633083  1
  O  O71  1  0.593085  0.628296  0.847826  1
  O  O72  1  0.921099  0.646208  0.523725  1
  O  O73  1  0.748205  0.350856  0.811978  1
  O  O74  1  0.942667  0.294298  0.698642  1
  O  O75  1  0.895586  0.920223  0.741414  1
  O  O76  1  0.892317  0.638160  0.849299  1
  O  O77  1  0.779034  0.134160  0.979371  1
