# generated using pymatgen
data_Li4Nb2Cr3Cu3O16
_symmetry_space_group_name_H-M   'P 1'
_cell_length_a   5.99678981
_cell_length_b   5.84637114
_cell_length_c   9.77252486
_cell_angle_alpha   89.98179951
_cell_angle_beta   86.59969630
_cell_angle_gamma   119.16020437
_symmetry_Int_Tables_number   1
_chemical_formula_structural   Li4Nb2Cr3Cu3O16
_chemical_formula_sum   'Li4 Nb2 Cr3 Cu3 O16'
_cell_volume   298.50155479
_cell_formula_units_Z   1
loop_
 _symmetry_equiv_pos_site_id
 _symmetry_equiv_pos_as_xyz
  1  'x, y, z'
loop_
 _atom_site_type_symbol
 _atom_site_label
 _atom_site_symmetry_multiplicity
 _atom_site_fract_x
 _atom_site_fract_y
 _atom_site_fract_z
 _atom_site_occupancy
  Li  Li0  1  0.322918  0.661691  0.898843  1
  Li  Li1  1  0.998433  0.999094  0.993181  1
  Li  Li2  1  0.008713  0.004940  0.488426  1
  Li  Li3  1  0.680140  0.340092  0.403714  1
  Nb  Nb4  1  0.369222  0.685260  0.496036  1
  Nb  Nb5  1  0.668259  0.333068  0.989200  1
  Cr  Cr6  1  0.659791  0.829051  0.218026  1
  Cr  Cr7  1  0.827209  0.660225  0.715616  1
  Cr  Cr8  1  0.827876  0.167823  0.715161  1
  Cu  Cu9  1  0.175175  0.836394  0.212966  1
  Cu  Cu10  1  0.175451  0.339012  0.213608  1
  Cu  Cu11  1  0.336027  0.168559  0.714084  1
  O  O12  1  0.157999  0.826105  0.588493  1
  O  O13  1  0.056638  0.529613  0.332102  1
  O  O14  1  0.336587  0.668603  0.119933  1
  O  O15  1  -0.000118  0.999123  0.298638  1
  O  O16  1  0.992386  0.996362  0.806742  1
  O  O17  1  0.158019  0.332071  0.588127  1
  O  O18  1  0.518344  0.977796  0.355887  1
  O  O19  1  0.514148  0.537513  0.355495  1
  O  O20  1  0.307631  0.153332  0.095339  1
  O  O21  1  0.672375  0.836444  0.603812  1
  O  O22  1  0.511322  0.478176  0.841328  1
  O  O23  1  0.511906  0.033525  0.841122  1
  O  O24  1  0.673122  0.337062  0.611702  1
  O  O25  1  0.790059  0.649550  0.085181  1
  O  O26  1  0.958017  0.478874  0.839251  1
  O  O27  1  0.792348  0.140942  0.085831  1
