# generated using pymatgen
data_Ag7Sb9O25
_symmetry_space_group_name_H-M   'P 1'
_cell_length_a   7.33838134
_cell_length_b   7.33838134
_cell_length_c   12.78486175
_cell_angle_alpha   90.00000000
_cell_angle_beta   73.32186710
_cell_angle_gamma   120.00000000
_symmetry_Int_Tables_number   1
_chemical_formula_structural   Ag7Sb9O25
_chemical_formula_sum   'Ag7 Sb9 O25'
_cell_volume   562.55602424
_cell_formula_units_Z   1
loop_
 _symmetry_equiv_pos_site_id
 _symmetry_equiv_pos_as_xyz
  1  'x, y, z'
loop_
 _atom_site_type_symbol
 _atom_site_label
 _atom_site_symmetry_multiplicity
 _atom_site_fract_x
 _atom_site_fract_y
 _atom_site_fract_z
 _atom_site_occupancy
  Ag  Ag0  1  0.497323  0.244030  0.249383  1
  Ag  Ag1  1  0.497323  0.753293  0.249383  1
  Ag  Ag2  1  0.500292  0.500145  0.499563  1
  Ag  Ag3  1  0.500994  0.251650  0.747357  1
  Ag  Ag4  1  0.003301  0.251650  0.747357  1
  Ag  Ag5  1  0.500994  0.749343  0.747357  1
  Ag  Ag6  1  0.006586  0.753293  0.249383  1
  Sb  Sb7  1  0.527652  0.013826  0.958522  1
  Sb  Sb8  1  0.500621  0.000310  0.498710  1
  Sb  Sb9  1  0.506661  0.503331  0.000915  1
  Sb  Sb10  1  0.995754  0.992424  0.000915  1
  Sb  Sb11  1  0.995754  0.503331  0.000915  1
  Sb  Sb12  1  0.000936  0.250468  0.248595  1
  Sb  Sb13  1  0.000980  0.000310  0.498710  1
  Sb  Sb14  1  0.000980  0.500670  0.498710  1
  Sb  Sb15  1  0.000344  0.750172  0.749486  1
  O  O16  1  0.921544  0.415861  0.162594  1
  O  O17  1  0.622203  0.280552  0.036147  1
  O  O18  1  0.676079  0.088040  0.336075  1
  O  O19  1  0.675066  0.288884  0.536050  1
  O  O20  1  0.622203  0.841651  0.036147  1
  O  O21  1  0.925858  0.512772  0.661055  1
  O  O22  1  0.331723  0.415861  0.162594  1
  O  O23  1  0.925996  0.712997  0.460198  1
  O  O24  1  0.943925  0.221962  0.955425  1
  O  O25  1  0.921544  0.005682  0.162594  1
  O  O26  1  0.326804  0.113806  0.460198  1
  O  O27  1  0.075886  0.088040  0.336075  1
  O  O28  1  0.925858  0.913087  0.661055  1
  O  O29  1  0.077769  0.288884  0.536050  1
  O  O30  1  0.675066  0.886182  0.536050  1
  O  O31  1  0.677036  0.588518  0.838540  1
  O  O32  1  0.810674  0.655337  0.033989  1
  O  O33  1  0.072943  0.984425  0.838540  1
  O  O34  1  0.183302  0.841651  0.036147  1
  O  O35  1  0.075886  0.487847  0.336075  1
  O  O36  1  0.326804  0.712997  0.460198  1
  O  O37  1  0.322611  0.221962  0.955425  1
  O  O38  1  0.322611  0.600649  0.955425  1
  O  O39  1  0.326173  0.913087  0.661055  1
  O  O40  1  0.072943  0.588518  0.838540  1
