# generated using pymatgen
data_Fe3CoCu2(PO4)6
_symmetry_space_group_name_H-M   'P 1'
_cell_length_a   8.47841185
_cell_length_b   8.52240933
_cell_length_c   8.52240880
_cell_angle_alpha   59.99999920
_cell_angle_beta   59.82818554
_cell_angle_gamma   59.82818499
_symmetry_Int_Tables_number   1
_chemical_formula_structural   Fe3CoCu2(PO4)6
_chemical_formula_sum   'Fe3 Co1 Cu2 P6 O24'
_cell_volume   434.30168251
_cell_formula_units_Z   1
loop_
 _symmetry_equiv_pos_site_id
 _symmetry_equiv_pos_as_xyz
  1  'x, y, z'
loop_
 _atom_site_type_symbol
 _atom_site_label
 _atom_site_symmetry_multiplicity
 _atom_site_fract_x
 _atom_site_fract_y
 _atom_site_fract_z
 _atom_site_occupancy
  Fe  Fe0  1  0.066192  0.644603  0.644603  1
  Fe  Fe1  1  0.430474  0.856508  0.856508  1
  Fe  Fe2  1  0.931465  0.356179  0.356179  1
  Co  Co3  1  0.577515  0.140828  0.140828  1
  Cu  Cu4  1  0.998330  0.000557  0.000557  1
  Cu  Cu5  1  0.499406  0.500198  0.500198  1
  P  P6  1  0.254319  0.249199  0.536912  1
  P  P7  1  0.254319  0.959571  0.249199  1
  P  P8  1  0.254319  0.536912  0.959571  1
  P  P9  1  0.745541  0.454778  0.045640  1
  P  P10  1  0.745541  0.045640  0.754042  1
  P  P11  1  0.745541  0.754042  0.454778  1
  O  O12  1  0.067737  0.115078  0.311829  1
  O  O13  1  0.067737  0.505357  0.115078  1
  O  O14  1  0.067737  0.311829  0.505357  1
  O  O15  1  0.233162  0.085159  0.736056  1
  O  O16  1  0.439249  0.191966  0.375259  1
  O  O17  1  0.273046  0.413086  0.553765  1
  O  O18  1  0.233162  0.945624  0.085159  1
  O  O19  1  0.273046  0.760104  0.413086  1
  O  O20  1  0.563449  0.614594  0.009255  1
  O  O21  1  0.273046  0.553765  0.760104  1
  O  O22  1  0.763153  0.256439  0.058086  1
  O  O23  1  0.563449  0.009255  0.812703  1
  O  O24  1  0.439249  0.993527  0.191966  1
  O  O25  1  0.233162  0.736056  0.945624  1
  O  O26  1  0.728042  0.438425  0.243660  1
  O  O27  1  0.439249  0.375259  0.993527  1
  O  O28  1  0.728042  0.243660  0.589874  1
  O  O29  1  0.763153  0.058086  0.922323  1
  O  O30  1  0.728042  0.589874  0.438425  1
  O  O31  1  0.563449  0.812703  0.614594  1
  O  O32  1  0.763153  0.922323  0.256439  1
  O  O33  1  0.931176  0.694550  0.487529  1
  O  O34  1  0.931176  0.487529  0.886746  1
  O  O35  1  0.931176  0.886746  0.694550  1
