# generated using pymatgen
data_LiFe2OF5
_symmetry_space_group_name_H-M   'P 1'
_cell_length_a   4.68554531
_cell_length_b   17.13120383
_cell_length_c   5.11225744
_cell_angle_alpha   90.00000000
_cell_angle_beta   90.00000000
_cell_angle_gamma   89.26407916
_symmetry_Int_Tables_number   1
_chemical_formula_structural   LiFe2OF5
_chemical_formula_sum   'Li4 Fe8 O4 F20'
_cell_volume   410.32210581
_cell_formula_units_Z   4
loop_
 _symmetry_equiv_pos_site_id
 _symmetry_equiv_pos_as_xyz
  1  'x, y, z'
loop_
 _atom_site_type_symbol
 _atom_site_label
 _atom_site_symmetry_multiplicity
 _atom_site_fract_x
 _atom_site_fract_y
 _atom_site_fract_z
 _atom_site_occupancy
  Li  Li0  1  0.007276  0.383178  0.254220  1
  Li  Li1  1  0.005004  0.613715  0.764453  1
  Li  Li2  1  0.507276  0.883178  0.245780  1
  Li  Li3  1  0.505004  0.113715  0.735547  1
  Fe  Fe4  1  0.023851  0.281092  0.776494  1
  Fe  Fe5  1  0.975527  0.060935  0.256701  1
  Fe  Fe6  1  0.004900  0.718026  0.251601  1
  Fe  Fe7  1  0.003124  0.948584  0.750645  1
  Fe  Fe8  1  0.475527  0.560935  0.243299  1
  Fe  Fe9  1  0.523851  0.781092  0.723506  1
  Fe  Fe10  1  0.504900  0.218026  0.248399  1
  Fe  Fe11  1  0.503124  0.448584  0.749355  1
  O  O12  1  0.241092  0.288315  0.077110  1
  O  O13  1  0.223739  0.631241  0.105442  1
  O  O14  1  0.741092  0.788315  0.422890  1
  O  O15  1  0.723739  0.131241  0.394558  1
  F  F16  1  0.235051  0.707335  0.589501  1
  F  F17  1  0.236804  0.373851  0.597054  1
  F  F18  1  0.218553  0.035131  0.577699  1
  F  F19  1  0.217166  0.962399  0.072630  1
  F  F20  1  0.278991  0.462621  0.072206  1
  F  F21  1  0.272711  0.534442  0.583289  1
  F  F22  1  0.267393  0.873869  0.592034  1
  F  F23  1  0.263076  0.124777  0.079074  1
  F  F24  1  0.259476  0.206522  0.576492  1
  F  F25  1  0.266266  0.793964  0.060979  1
  F  F26  1  0.735051  0.207335  0.910499  1
  F  F27  1  0.736804  0.873851  0.902946  1
  F  F28  1  0.717166  0.462399  0.427370  1
  F  F29  1  0.718553  0.535131  0.922301  1
  F  F30  1  0.772711  0.034442  0.916711  1
  F  F31  1  0.778991  0.962621  0.427794  1
  F  F32  1  0.763077  0.624777  0.420926  1
  F  F33  1  0.767393  0.373869  0.907966  1
  F  F34  1  0.766266  0.293964  0.439021  1
  F  F35  1  0.759476  0.706522  0.923508  1
