# generated using pymatgen
data_Fe5O3F7
_symmetry_space_group_name_H-M   'P 1'
_cell_length_a   4.79612617
_cell_length_b   4.79232525
_cell_length_c   15.63097536
_cell_angle_alpha   90.02067502
_cell_angle_beta   90.49647502
_cell_angle_gamma   88.54820685
_symmetry_Int_Tables_number   1
_chemical_formula_structural   Fe5O3F7
_chemical_formula_sum   'Fe10 O6 F14'
_cell_volume   359.14284767
_cell_formula_units_Z   2
loop_
 _symmetry_equiv_pos_site_id
 _symmetry_equiv_pos_as_xyz
  1  'x, y, z'
loop_
 _atom_site_type_symbol
 _atom_site_label
 _atom_site_symmetry_multiplicity
 _atom_site_fract_x
 _atom_site_fract_y
 _atom_site_fract_z
 _atom_site_occupancy
  Fe  Fe0  1  0.002831  0.998938  0.001219  1
  Fe  Fe1  1  0.003746  0.001657  0.197619  1
  Fe  Fe2  1  0.966590  0.950433  0.394462  1
  Fe  Fe3  1  0.038377  0.031246  0.605107  1
  Fe  Fe4  1  0.020841  0.974705  0.800818  1
  Fe  Fe5  1  0.530444  0.467399  0.099874  1
  Fe  Fe6  1  0.503149  0.493702  0.500238  1
  Fe  Fe7  1  0.474931  0.539284  0.305703  1
  Fe  Fe8  1  0.468114  0.519580  0.694159  1
  Fe  Fe9  1  0.482504  0.520289  0.899740  1
  O  O10  1  0.181253  0.805666  0.304018  1
  O  O11  1  0.204280  0.809089  0.704872  1
  O  O12  1  0.177660  0.819233  0.900359  1
  O  O13  1  0.326614  0.322409  0.595537  1
  O  O14  1  0.679013  0.687000  0.404875  1
  O  O15  1  0.824777  0.175646  0.094821  1
  F  F16  1  0.221126  0.777881  0.093557  1
  F  F17  1  0.194595  0.798944  0.494107  1
  F  F18  1  0.308067  0.284734  0.999612  1
  F  F19  1  0.321407  0.308447  0.210309  1
  F  F20  1  0.291013  0.300486  0.404377  1
  F  F21  1  0.297369  0.308220  0.794860  1
  F  F22  1  0.710679  0.692431  0.997128  1
  F  F23  1  0.691049  0.682766  0.207776  1
  F  F24  1  0.704696  0.708264  0.595681  1
  F  F25  1  0.697142  0.705982  0.790317  1
  F  F26  1  0.806145  0.190206  0.494787  1
  F  F27  1  0.779083  0.206022  0.311056  1
  F  F28  1  0.799108  0.199974  0.895296  1
  F  F29  1  0.793398  0.219362  0.707718  1
