# generated using pymatgen
data_Ti3Fe2Ni(PO4)6
_symmetry_space_group_name_H-M   'P 1'
_cell_length_a   8.52006695
_cell_length_b   8.52006666
_cell_length_c   8.52006645
_cell_angle_alpha   61.11508081
_cell_angle_beta   61.11508521
_cell_angle_gamma   61.11508231
_symmetry_Int_Tables_number   1
_chemical_formula_structural   Ti3Fe2Ni(PO4)6
_chemical_formula_sum   'Ti3 Fe2 Ni1 P6 O24'
_cell_volume   448.31074044
_cell_formula_units_Z   1
loop_
 _symmetry_equiv_pos_site_id
 _symmetry_equiv_pos_as_xyz
  1  'x, y, z'
loop_
 _atom_site_type_symbol
 _atom_site_label
 _atom_site_symmetry_multiplicity
 _atom_site_fract_x
 _atom_site_fract_y
 _atom_site_fract_z
 _atom_site_occupancy
  Ti  Ti0  1  0.141769  0.141769  0.141769  1
  Ti  Ti1  1  0.355735  0.355735  0.355735  1
  Ti  Ti2  1  0.644858  0.644858  0.644858  1
  Fe  Fe3  1  0.997259  0.997259  0.997259  1
  Fe  Fe4  1  0.498708  0.498708  0.498708  1
  Ni  Ni5  1  0.857934  0.857934  0.857934  1
  P  P6  1  0.044860  0.752297  0.458506  1
  P  P7  1  0.458506  0.044860  0.752297  1
  P  P8  1  0.250284  0.543327  0.955466  1
  P  P9  1  0.543327  0.955466  0.250284  1
  P  P10  1  0.955466  0.250284  0.543327  1
  P  P11  1  0.752297  0.458506  0.044860  1
  O  O12  1  0.114016  0.326425  0.487791  1
  O  O13  1  0.326425  0.487791  0.114016  1
  O  O14  1  0.057776  0.909280  0.258401  1
  O  O15  1  0.487791  0.114016  0.326425  1
  O  O16  1  0.014155  0.814162  0.610569  1
  O  O17  1  0.240748  0.589132  0.432959  1
  O  O18  1  0.258401  0.057776  0.909280  1
  O  O19  1  0.432959  0.240748  0.589132  1
  O  O20  1  0.184074  0.380228  0.002379  1
  O  O21  1  0.589132  0.432959  0.240748  1
  O  O22  1  0.096075  0.736791  0.947256  1
  O  O23  1  0.380228  0.002379  0.184074  1
  O  O24  1  0.610569  0.014155  0.814162  1
  O  O25  1  0.909280  0.258401  0.057776  1
  O  O26  1  0.413417  0.552041  0.760872  1
  O  O27  1  0.814162  0.610569  0.014155  1
  O  O28  1  0.552041  0.760872  0.413417  1
  O  O29  1  0.736791  0.947256  0.096075  1
  O  O30  1  0.760872  0.413417  0.552041  1
  O  O31  1  0.002379  0.184074  0.380228  1
  O  O32  1  0.503774  0.880371  0.686306  1
  O  O33  1  0.947256  0.096075  0.736791  1
  O  O34  1  0.686306  0.503774  0.880371  1
  O  O35  1  0.880371  0.686306  0.503774  1
