# generated using pymatgen
data_Na3SiSbCO7
_symmetry_space_group_name_H-M   'P 1'
_cell_length_a   9.48864777
_cell_length_b   7.07227964
_cell_length_c   5.12207125
_cell_angle_alpha   90.00000000
_cell_angle_beta   91.04451389
_cell_angle_gamma   90.00000000
_symmetry_Int_Tables_number   1
_chemical_formula_structural   Na3SiSbCO7
_chemical_formula_sum   'Na6 Si2 Sb2 C2 O14'
_cell_volume   343.66649591
_cell_formula_units_Z   2
loop_
 _symmetry_equiv_pos_site_id
 _symmetry_equiv_pos_as_xyz
  1  'x, y, z'
loop_
 _atom_site_type_symbol
 _atom_site_label
 _atom_site_symmetry_multiplicity
 _atom_site_fract_x
 _atom_site_fract_y
 _atom_site_fract_z
 _atom_site_occupancy
  Na  Na0  1  0.088936  0.250000  0.779115  1
  Na  Na1  1  0.249914  0.006920  0.251935  1
  Na  Na2  1  0.249914  0.493080  0.251935  1
  Na  Na3  1  0.750086  0.506920  0.748065  1
  Na  Na4  1  0.750086  0.993080  0.748065  1
  Na  Na5  1  0.911064  0.750000  0.220885  1
  Si  Si6  1  0.406745  0.250000  0.716565  1
  Si  Si7  1  0.593255  0.750000  0.283435  1
  Sb  Sb8  1  0.366207  0.750000  0.766196  1
  Sb  Sb9  1  0.633793  0.250000  0.233804  1
  C  C10  1  0.049611  0.750000  0.725245  1
  C  C11  1  0.950389  0.250000  0.274755  1
  O  O12  1  0.087183  0.250000  0.258821  1
  O  O13  1  0.125758  0.750000  0.942691  1
  O  O14  1  0.108914  0.750000  0.499767  1
  O  O15  1  0.317159  0.063553  0.809157  1
  O  O16  1  0.317159  0.436447  0.809157  1
  O  O17  1  0.418332  0.250000  0.392722  1
  O  O18  1  0.427726  0.750000  0.157938  1
  O  O19  1  0.572274  0.250000  0.842062  1
  O  O20  1  0.581668  0.750000  0.607278  1
  O  O21  1  0.682841  0.563553  0.190843  1
  O  O22  1  0.682841  0.936447  0.190843  1
  O  O23  1  0.891086  0.250000  0.500233  1
  O  O24  1  0.874242  0.250000  0.057309  1
  O  O25  1  0.912817  0.750000  0.741179  1
