# generated using pymatgen
data_NaBeO2
_symmetry_space_group_name_H-M   'P 1'
_cell_length_a   7.98108466
_cell_length_b   7.98108466
_cell_length_c   5.29988356
_cell_angle_alpha   66.13059203
_cell_angle_beta   113.86940797
_cell_angle_gamma   57.89414363
_symmetry_Int_Tables_number   1
_chemical_formula_structural   NaBeO2
_chemical_formula_sum   'Na4 Be4 O8'
_cell_volume   156.89038913
_cell_formula_units_Z   4
loop_
 _symmetry_equiv_pos_site_id
 _symmetry_equiv_pos_as_xyz
  1  'x, y, z'
loop_
 _atom_site_type_symbol
 _atom_site_label
 _atom_site_symmetry_multiplicity
 _atom_site_fract_x
 _atom_site_fract_y
 _atom_site_fract_z
 _atom_site_occupancy
  Na  Na0  1  0.180812  0.180812  0.750000  1
  Na  Na1  1  0.441269  0.441269  0.750000  1
  Na  Na2  1  0.558731  0.558731  0.250000  1
  Na  Na3  1  0.819188  0.819188  0.250000  1
  Be  Be4  1  0.735781  0.735781  0.750000  1
  Be  Be5  1  0.895376  0.895376  0.750000  1
  Be  Be6  1  0.104624  0.104624  0.250000  1
  Be  Be7  1  0.264219  0.264219  0.250000  1
  O  O8  1  0.075803  0.842044  0.654429  1
  O  O9  1  0.461332  0.906540  0.689135  1
  O  O10  1  0.157956  0.924197  0.154429  1
  O  O11  1  0.093460  0.538668  0.189135  1
  O  O12  1  0.906540  0.461332  0.810865  1
  O  O13  1  0.842044  0.075803  0.845571  1
  O  O14  1  0.538668  0.093460  0.310865  1
  O  O15  1  0.924197  0.157956  0.345571  1
