# generated using pymatgen
data_TbCeO4
_symmetry_space_group_name_H-M   'P 1'
_cell_length_a   5.59773807
_cell_length_b   6.55899808
_cell_length_c   6.55899808
_cell_angle_alpha   105.67298050
_cell_angle_beta   64.67881826
_cell_angle_gamma   64.67881826
_symmetry_Int_Tables_number   1
_chemical_formula_structural   TbCeO4
_chemical_formula_sum   'Tb2 Ce2 O8'
_cell_volume   163.74674027
_cell_formula_units_Z   2
loop_
 _symmetry_equiv_pos_site_id
 _symmetry_equiv_pos_as_xyz
  1  'x, y, z'
loop_
 _atom_site_type_symbol
 _atom_site_label
 _atom_site_symmetry_multiplicity
 _atom_site_fract_x
 _atom_site_fract_y
 _atom_site_fract_z
 _atom_site_occupancy
  Tb  Tb0  1  0.250000  0.374972  0.125028  1
  Tb  Tb1  1  0.750000  0.625028  0.874972  1
  Ce  Ce2  1  0.750000  0.125032  0.374968  1
  Ce  Ce3  1  0.250000  0.874968  0.625032  1
  O  O4  1  0.247522  0.998724  0.998966  1
  O  O5  1  0.252478  0.501034  0.501276  1
  O  O6  1  0.743615  0.753891  0.253058  1
  O  O7  1  0.756385  0.246942  0.746109  1
  O  O8  1  0.243615  0.753058  0.253891  1
  O  O9  1  0.256385  0.246109  0.746942  1
  O  O10  1  0.747522  0.498966  0.498724  1
  O  O11  1  0.752478  0.001276  0.001034  1
