# generated using pymatgen
data_H9CSO7F3
_symmetry_space_group_name_H-M   'P 1'
_cell_length_a   7.71113993
_cell_length_b   8.78862167
_cell_length_c   13.00710692
_cell_angle_alpha   90.00000000
_cell_angle_beta   91.73580293
_cell_angle_gamma   90.00000000
_symmetry_Int_Tables_number   1
_chemical_formula_structural   H9CSO7F3
_chemical_formula_sum   'H36 C4 S4 O28 F12'
_cell_volume   881.09093348
_cell_formula_units_Z   4
loop_
 _symmetry_equiv_pos_site_id
 _symmetry_equiv_pos_as_xyz
  1  'x, y, z'
loop_
 _atom_site_type_symbol
 _atom_site_label
 _atom_site_symmetry_multiplicity
 _atom_site_fract_x
 _atom_site_fract_y
 _atom_site_fract_z
 _atom_site_occupancy
  H  H0  1  0.141983  0.134114  0.951193  1
  H  H1  1  0.858017  0.634114  0.548807  1
  H  H2  1  0.858017  0.865886  0.048807  1
  H  H3  1  0.141983  0.365886  0.451193  1
  H  H4  1  0.946906  0.134131  0.883362  1
  H  H5  1  0.053094  0.634131  0.616638  1
  H  H6  1  0.053094  0.865869  0.116638  1
  H  H7  1  0.946906  0.365869  0.383362  1
  H  H8  1  0.957018  0.200025  0.008465  1
  H  H9  1  0.042982  0.700025  0.491535  1
  H  H10  1  0.042982  0.799975  0.991535  1
  H  H11  1  0.957018  0.299975  0.508465  1
  H  H12  1  0.375200  0.077000  0.906118  1
  H  H13  1  0.624800  0.577000  0.593882  1
  H  H14  1  0.624800  0.923000  0.093882  1
  H  H15  1  0.375200  0.423000  0.406118  1
  H  H16  1  0.378665  0.129682  0.022825  1
  H  H17  1  0.621335  0.629682  0.477175  1
  H  H18  1  0.621335  0.870318  0.977175  1
  H  H19  1  0.378665  0.370318  0.522825  1
  H  H20  1  0.728608  0.084396  0.788134  1
  H  H21  1  0.271392  0.584396  0.711866  1
  H  H22  1  0.271392  0.915604  0.211866  1
  H  H23  1  0.728608  0.415604  0.288134  1
  H  H24  1  0.865850  0.953378  0.781984  1
  H  H25  1  0.134150  0.453378  0.718016  1
  H  H26  1  0.134150  0.046622  0.218016  1
  H  H27  1  0.865850  0.546622  0.281984  1
  H  H28  1  0.740029  0.283056  0.611046  1
  H  H29  1  0.259971  0.783056  0.888954  1
  H  H30  1  0.259971  0.716944  0.388954  1
  H  H31  1  0.740029  0.216944  0.111046  1
  H  H32  1  0.909982  0.210014  0.659050  1
  H  H33  1  0.090018  0.710014  0.840950  1
  H  H34  1  0.090018  0.789986  0.340950  1
  H  H35  1  0.909982  0.289986  0.159050  1
  C  C36  1  0.318870  0.992800  0.621043  1
  C  C37  1  0.681130  0.492800  0.878957  1
  C  C38  1  0.681130  0.007200  0.378957  1
  C  C39  1  0.318870  0.507200  0.121043  1
  S  S40  1  0.386567  0.165586  0.695706  1
  S  S41  1  0.613433  0.665586  0.804294  1
  S  S42  1  0.613433  0.834414  0.304294  1
  S  S43  1  0.386567  0.334414  0.195706  1
  O  O44  1  0.492877  0.251588  0.623713  1
  O  O45  1  0.507123  0.751588  0.876287  1
  O  O46  1  0.507123  0.748412  0.376287  1
  O  O47  1  0.492877  0.248412  0.123713  1
  O  O48  1  0.487006  0.102668  0.783931  1
  O  O49  1  0.512994  0.602668  0.716069  1
  O  O50  1  0.512994  0.897332  0.216069  1
  O  O51  1  0.487006  0.397332  0.283931  1
  O  O52  1  0.223461  0.236833  0.721088  1
  O  O53  1  0.776539  0.736833  0.778912  1
  O  O54  1  0.776539  0.763167  0.278912  1
  O  O55  1  0.223461  0.263167  0.221088  1
  O  O56  1  0.020455  0.188172  0.939737  1
  O  O57  1  0.979545  0.688172  0.560263  1
  O  O58  1  0.979545  0.811828  0.060263  1
  O  O59  1  0.020455  0.311828  0.439737  1
  O  O60  1  0.313295  0.067852  0.971192  1
  O  O61  1  0.686705  0.567852  0.528808  1
  O  O62  1  0.686705  0.932148  0.028808  1
  O  O63  1  0.313295  0.432148  0.471192  1
  O  O64  1  0.854925  0.065233  0.786643  1
  O  O65  1  0.145075  0.565233  0.713357  1
  O  O66  1  0.145075  0.934767  0.213357  1
  O  O67  1  0.854925  0.434767  0.286643  1
  O  O68  1  0.867526  0.287017  0.609931  1
  O  O69  1  0.132474  0.787017  0.890069  1
  O  O70  1  0.132474  0.712983  0.390069  1
  O  O71  1  0.867526  0.212983  0.109931  1
  F  F72  1  0.458763  0.910978  0.593616  1
  F  F73  1  0.541237  0.410978  0.906384  1
  F  F74  1  0.541237  0.089022  0.406384  1
  F  F75  1  0.458763  0.589022  0.093616  1
  F  F76  1  0.217270  0.902705  0.678731  1
  F  F77  1  0.782730  0.402705  0.821269  1
  F  F78  1  0.782730  0.097295  0.321269  1
  F  F79  1  0.217270  0.597295  0.178731  1
  F  F80  1  0.227072  0.033543  0.534911  1
  F  F81  1  0.772928  0.533543  0.965089  1
  F  F82  1  0.772928  0.966457  0.465089  1
  F  F83  1  0.227072  0.466457  0.034911  1
