# generated using pymatgen
data_Li2Ti3CrO8
_symmetry_space_group_name_H-M   'P 1'
_cell_length_a   5.97251533
_cell_length_b   5.97251533
_cell_length_c   5.97251533
_cell_angle_alpha   59.88869183
_cell_angle_beta   59.88869183
_cell_angle_gamma   59.88869183
_symmetry_Int_Tables_number   1
_chemical_formula_structural   Li2Ti3CrO8
_chemical_formula_sum   'Li2 Ti3 Cr1 O8'
_cell_volume   150.26528796
_cell_formula_units_Z   1
loop_
 _symmetry_equiv_pos_site_id
 _symmetry_equiv_pos_as_xyz
  1  'x, y, z'
loop_
 _atom_site_type_symbol
 _atom_site_label
 _atom_site_symmetry_multiplicity
 _atom_site_fract_x
 _atom_site_fract_y
 _atom_site_fract_z
 _atom_site_occupancy
  Li  Li0  1  0.000149  0.000149  0.000149  1
  Li  Li1  1  0.249851  0.249851  0.249851  1
  Ti  Ti2  1  0.625000  0.625000  0.125000  1
  Ti  Ti3  1  0.625000  0.125000  0.625000  1
  Ti  Ti4  1  0.125000  0.625000  0.625000  1
  Cr  Cr5  1  0.625000  0.625000  0.625000  1
  O  O6  1  0.837247  0.385689  0.385689  1
  O  O7  1  0.386846  0.386846  0.386846  1
  O  O8  1  0.385689  0.837247  0.385689  1
  O  O9  1  0.385689  0.385689  0.837247  1
  O  O10  1  0.864311  0.864311  0.412753  1
  O  O11  1  0.864311  0.412753  0.864311  1
  O  O12  1  0.863154  0.863154  0.863154  1
  O  O13  1  0.412753  0.864311  0.864311  1
