# generated using pymatgen
data_NaFeCSO7
_symmetry_space_group_name_H-M   'P 1'
_cell_length_a   9.12618693
_cell_length_b   6.59241428
_cell_length_c   5.30385046
_cell_angle_alpha   90.00000000
_cell_angle_beta   88.10213396
_cell_angle_gamma   90.00000000
_symmetry_Int_Tables_number   1
_chemical_formula_structural   NaFeCSO7
_chemical_formula_sum   'Na2 Fe2 C2 S2 O14'
_cell_volume   318.92372251
_cell_formula_units_Z   2
loop_
 _symmetry_equiv_pos_site_id
 _symmetry_equiv_pos_as_xyz
  1  'x, y, z'
loop_
 _atom_site_type_symbol
 _atom_site_label
 _atom_site_symmetry_multiplicity
 _atom_site_fract_x
 _atom_site_fract_y
 _atom_site_fract_z
 _atom_site_occupancy
  Na  Na0  1  0.215763  0.488953  0.234023  1
  Na  Na1  1  0.784237  0.988953  0.765977  1
  Fe  Fe2  1  0.340719  0.769157  0.779151  1
  Fe  Fe3  1  0.659281  0.269157  0.220849  1
  C  C4  1  0.077869  0.739448  0.724810  1
  C  C5  1  0.922131  0.239448  0.275190  1
  S  S6  1  0.432416  0.255803  0.725693  1
  S  S7  1  0.567584  0.755803  0.274307  1
  O  O8  1  0.055436  0.245465  0.308145  1
  O  O9  1  0.141037  0.741678  0.947657  1
  O  O10  1  0.180799  0.735032  0.537965  1
  O  O11  1  0.339743  0.075819  0.782232  1
  O  O12  1  0.347481  0.437210  0.806084  1
  O  O13  1  0.427377  0.741910  0.138122  1
  O  O14  1  0.468240  0.267376  0.447390  1
  O  O15  1  0.531761  0.767376  0.552610  1
  O  O16  1  0.572623  0.241910  0.861878  1
  O  O17  1  0.652519  0.937210  0.193916  1
  O  O18  1  0.660257  0.575819  0.217768  1
  O  O19  1  0.819201  0.235032  0.462035  1
  O  O20  1  0.858962  0.241678  0.052343  1
  O  O21  1  0.944564  0.745465  0.691855  1
