# generated using pymatgen
data_Li8Mn7Fe(BO3)8
_symmetry_space_group_name_H-M   'P 1'
_cell_length_a   5.25753702
_cell_length_b   9.11255484
_cell_length_c   10.52238954
_cell_angle_alpha   91.60945385
_cell_angle_beta   91.00942466
_cell_angle_gamma   89.74952149
_symmetry_Int_Tables_number   1
_chemical_formula_structural   Li8Mn7Fe(BO3)8
_chemical_formula_sum   'Li8 Mn7 Fe1 B8 O24'
_cell_volume   503.84254127
_cell_formula_units_Z   1
loop_
 _symmetry_equiv_pos_site_id
 _symmetry_equiv_pos_as_xyz
  1  'x, y, z'
loop_
 _atom_site_type_symbol
 _atom_site_label
 _atom_site_symmetry_multiplicity
 _atom_site_fract_x
 _atom_site_fract_y
 _atom_site_fract_z
 _atom_site_occupancy
  Li  Li0  1  0.853568  0.825456  0.668693  1
  Li  Li1  1  0.812236  0.839381  0.168267  1
  Li  Li2  1  0.677510  0.669509  0.416825  1
  Li  Li3  1  0.663494  0.674299  0.917233  1
  Li  Li4  1  0.352322  0.325976  0.667469  1
  Li  Li5  1  0.311507  0.339522  0.167965  1
  Li  Li6  1  0.179388  0.168561  0.417803  1
  Li  Li7  1  0.163869  0.174438  0.917892  1
  Mn  Mn8  1  0.822555  0.501294  0.132727  1
  Mn  Mn9  1  0.840629  0.160953  0.633225  1
  Mn  Mn10  1  0.668699  0.335363  0.382809  1
  Mn  Mn11  1  0.668857  0.001894  0.883395  1
  Mn  Mn12  1  0.321793  0.000908  0.133330  1
  Mn  Mn13  1  0.170023  0.834967  0.385722  1
  Mn  Mn14  1  0.170354  0.503774  0.881776  1
  Fe  Fe15  1  0.345080  0.659541  0.632463  1
  B  B16  1  0.826638  0.170744  0.125787  1
  B  B17  1  0.839829  0.500243  0.625236  1
  B  B18  1  0.663471  0.002103  0.375924  1
  B  B19  1  0.672221  0.332963  0.875246  1
  B  B20  1  0.326543  0.670759  0.125913  1
  B  B21  1  0.342952  0.996885  0.626749  1
  B  B22  1  0.163301  0.501813  0.376784  1
  B  B23  1  0.172422  0.832907  0.874676  1
  O  O24  1  0.903692  0.518623  0.346353  1
  O  O25  1  0.910953  0.820657  0.860869  1
  O  O26  1  0.826112  0.211006  0.845000  1
  O  O27  1  0.805660  0.123611  0.417938  1
  O  O28  1  0.777064  0.865597  0.361504  1
  O  O29  1  0.783908  0.464638  0.917181  1
  O  O30  1  0.724977  0.636937  0.612535  1
  O  O31  1  0.711330  0.035355  0.095837  1
  O  O32  1  0.698199  0.373557  0.596532  1
  O  O33  1  0.677854  0.289656  0.166975  1
  O  O34  1  0.586612  0.685297  0.111149  1
  O  O35  1  0.596220  0.983474  0.666912  1
  O  O36  1  0.403847  0.018123  0.345524  1
  O  O37  1  0.410676  0.321265  0.860404  1
  O  O38  1  0.326638  0.711501  0.843670  1
  O  O39  1  0.305932  0.622720  0.419139  1
  O  O40  1  0.275776  0.364988  0.361372  1
  O  O41  1  0.282484  0.964782  0.917548  1
  O  O42  1  0.211667  0.535226  0.095754  1
  O  O43  1  0.233831  0.134356  0.611112  1
  O  O44  1  0.199228  0.870480  0.598287  1
  O  O45  1  0.177851  0.789403  0.167239  1
  O  O46  1  0.086536  0.185335  0.111151  1
  O  O47  1  0.094292  0.489767  0.663709  1
