# generated using pymatgen
data_Co3OF5
_symmetry_space_group_name_H-M   'P 1'
_cell_length_a   4.70046289
_cell_length_b   7.84635593
_cell_length_c   5.66941496
_cell_angle_alpha   92.92543436
_cell_angle_beta   91.73387937
_cell_angle_gamma   88.36269839
_symmetry_Int_Tables_number   1
_chemical_formula_structural   Co3OF5
_chemical_formula_sum   'Co6 O2 F10'
_cell_volume   208.65192559
_cell_formula_units_Z   2
loop_
 _symmetry_equiv_pos_site_id
 _symmetry_equiv_pos_as_xyz
  1  'x, y, z'
loop_
 _atom_site_type_symbol
 _atom_site_label
 _atom_site_symmetry_multiplicity
 _atom_site_fract_x
 _atom_site_fract_y
 _atom_site_fract_z
 _atom_site_occupancy
  Co  Co0  1  0.466214  0.024846  0.491031  1
  Co  Co1  1  0.500000  0.333333  0.833333  1
  Co  Co2  1  0.533786  0.641821  0.175635  1
  Co  Co3  1  0.999983  0.670043  0.663837  1
  Co  Co4  1  0.000000  0.333333  0.333333  1
  Co  Co5  1  0.000017  0.996624  0.002830  1
  O  O6  1  0.715420  0.428637  0.142709  1
  O  O7  1  0.284580  0.238029  0.523958  1
  F  F8  1  0.801858  0.437304  0.626995  1
  F  F9  1  0.804540  0.765734  0.964427  1
  F  F10  1  0.806791  0.101985  0.299574  1
  F  F11  1  0.688343  0.776399  0.463854  1
  F  F12  1  0.691386  0.096888  0.791179  1
  F  F13  1  0.308614  0.569778  0.875488  1
  F  F14  1  0.311657  0.890268  0.202813  1
  F  F15  1  0.198142  0.229363  0.039672  1
  F  F16  1  0.195460  0.900932  0.702240  1
  F  F17  1  0.193209  0.564682  0.367093  1
