# generated using pymatgen
data_Li5Fe2P2(CO7)2
_symmetry_space_group_name_H-M   'P 1'
_cell_length_a   8.40991185
_cell_length_b   5.07278264
_cell_length_c   6.49593077
_cell_angle_alpha   89.48752882
_cell_angle_beta   89.43161925
_cell_angle_gamma   84.76441533
_symmetry_Int_Tables_number   1
_chemical_formula_structural   Li5Fe2P2(CO7)2
_chemical_formula_sum   'Li5 Fe2 P2 C2 O14'
_cell_volume   275.94838726
_cell_formula_units_Z   1
loop_
 _symmetry_equiv_pos_site_id
 _symmetry_equiv_pos_as_xyz
  1  'x, y, z'
loop_
 _atom_site_type_symbol
 _atom_site_label
 _atom_site_symmetry_multiplicity
 _atom_site_fract_x
 _atom_site_fract_y
 _atom_site_fract_z
 _atom_site_occupancy
  Li  Li0  1  0.100057  0.772929  0.241887  1
  Li  Li1  1  0.281258  0.241452  0.452023  1
  Li  Li2  1  0.735441  0.745465  0.498380  1
  Li  Li3  1  0.734231  0.740972  0.997285  1
  Li  Li4  1  0.902050  0.238084  0.753633  1
  Fe  Fe5  1  0.329856  0.796473  0.759519  1
  Fe  Fe6  1  0.666051  0.212077  0.248095  1
  P  P7  1  0.414350  0.715115  0.258141  1
  P  P8  1  0.582280  0.267686  0.744875  1
  C  C9  1  0.037833  0.706360  0.742786  1
  C  C10  1  0.961970  0.311129  0.257789  1
  O  O11  1  0.073266  0.950267  0.755040  1
  O  O12  1  0.101026  0.380091  0.287286  1
  O  O13  1  0.158023  0.527859  0.731913  1
  O  O14  1  0.312222  0.784398  0.062631  1
  O  O15  1  0.307460  0.836488  0.439107  1
  O  O16  1  0.422136  0.143940  0.731191  1
  O  O17  1  0.441383  0.413811  0.291278  1
  O  O18  1  0.546340  0.577940  0.747416  1
  O  O19  1  0.577347  0.832818  0.247116  1
  O  O20  1  0.698840  0.182909  0.565105  1
  O  O21  1  0.683573  0.173407  0.934311  1
  O  O22  1  0.840717  0.496212  0.238630  1
  O  O23  1  0.891803  0.641991  0.744860  1
  O  O24  1  0.929374  0.064895  0.247715  1
