# generated using pymatgen
data_BaV10O17
_symmetry_space_group_name_H-M   'P 1'
_cell_length_a   11.45378403
_cell_length_b   10.11731305
_cell_length_c   6.03675282
_cell_angle_alpha   107.43485425
_cell_angle_beta   105.31540718
_cell_angle_gamma   87.60297264
_symmetry_Int_Tables_number   1
_chemical_formula_structural   BaV10O17
_chemical_formula_sum   'Ba2 V20 O34'
_cell_volume   643.17799349
_cell_formula_units_Z   2
loop_
 _symmetry_equiv_pos_site_id
 _symmetry_equiv_pos_as_xyz
  1  'x, y, z'
loop_
 _atom_site_type_symbol
 _atom_site_label
 _atom_site_symmetry_multiplicity
 _atom_site_fract_x
 _atom_site_fract_y
 _atom_site_fract_z
 _atom_site_occupancy
  Ba  Ba0  1  0.498770  0.499395  0.244274  1
  Ba  Ba1  1  0.999638  0.999006  0.504899  1
  V  V2  1  0.858325  0.322294  0.588825  1
  V  V3  1  0.868232  0.327439  0.100983  1
  V  V4  1  0.834449  0.016247  0.921050  1
  V  V5  1  0.852734  0.675980  0.017984  1
  V  V6  1  0.842870  0.656549  0.497150  1
  V  V7  1  0.665673  0.482632  0.828968  1
  V  V8  1  0.631618  0.172159  0.650254  1
  V  V9  1  0.640842  0.175901  0.159520  1
  V  V10  1  0.646085  0.822616  0.731953  1
  V  V11  1  0.657687  0.843245  0.254539  1
  V  V12  1  0.353535  0.175900  0.263258  1
  V  V13  1  0.342565  0.156403  0.753425  1
  V  V14  1  0.368555  0.827066  0.846726  1
  V  V15  1  0.358366  0.822132  0.343201  1
  V  V16  1  0.334599  0.516165  0.681260  1
  V  V17  1  0.157350  0.342113  0.997315  1
  V  V18  1  0.146188  0.322527  0.488026  1
  V  V19  1  0.165796  0.982230  0.069404  1
  V  V20  1  0.131581  0.671105  0.904492  1
  V  V21  1  0.141116  0.675682  0.407191  1
  O  O22  1  0.963629  0.706885  0.341081  1
  O  O23  1  0.970784  0.684857  0.823241  1
  O  O24  1  0.851213  0.462421  0.912832  1
  O  O25  1  0.859224  0.453527  0.406181  1
  O  O26  1  0.828989  0.177333  0.770087  1
  O  O27  1  0.829712  0.181034  0.237645  1
  O  O28  1  0.785860  0.868411  0.064893  1
  O  O29  1  0.786672  0.856072  0.584140  1
  O  O30  1  0.713638  0.642867  0.166320  1
  O  O31  1  0.713013  0.631448  0.685338  1
  O  O32  1  0.670111  0.322417  0.980510  1
  O  O33  1  0.669467  0.317943  0.510050  1
  O  O34  1  0.648129  0.035835  0.836998  1
  O  O35  1  0.641486  0.045900  0.347546  1
  O  O36  1  0.528883  0.814618  0.930276  1
  O  O37  1  0.536458  0.791774  0.409573  1
  O  O38  1  0.500146  0.500141  0.753161  1
  O  O39  1  0.463525  0.206406  0.081284  1
  O  O40  1  0.470763  0.186767  0.587917  1
  O  O41  1  0.351494  0.962698  0.153016  1
  O  O42  1  0.359080  0.953014  0.658118  1
  O  O43  1  0.329159  0.677281  0.988784  1
  O  O44  1  0.329989  0.680114  0.524255  1
  O  O45  1  0.285756  0.367593  0.340439  1
  O  O46  1  0.286184  0.356449  0.810109  1
  O  O47  1  0.213786  0.142384  0.940461  1
  O  O48  1  0.213105  0.131028  0.409945  1
  O  O49  1  0.169764  0.818076  0.227067  1
  O  O50  1  0.170797  0.821283  0.762824  1
  O  O51  1  0.148486  0.535991  0.597631  1
  O  O52  1  0.140378  0.544896  0.091214  1
  O  O53  1  0.036404  0.291474  0.669360  1
  O  O54  1  0.028911  0.314095  0.165251  1
  O  O55  1  0.000285  0.999642  0.997818  1
