# generated using pymatgen
data_SbOF
_symmetry_space_group_name_H-M   'P 1'
_cell_length_a   9.37508870
_cell_length_b   10.77646564
_cell_length_c   7.06003323
_cell_angle_alpha   90.00000000
_cell_angle_beta   105.19285377
_cell_angle_gamma   90.00000000
_symmetry_Int_Tables_number   1
_chemical_formula_structural   SbOF
_chemical_formula_sum   'Sb12 O12 F12'
_cell_volume   688.34779997
_cell_formula_units_Z   12
loop_
 _symmetry_equiv_pos_site_id
 _symmetry_equiv_pos_as_xyz
  1  'x, y, z'
loop_
 _atom_site_type_symbol
 _atom_site_label
 _atom_site_symmetry_multiplicity
 _atom_site_fract_x
 _atom_site_fract_y
 _atom_site_fract_z
 _atom_site_occupancy
  Sb  Sb0  1  0.097878  0.527829  0.746669  1
  Sb  Sb1  1  0.044771  0.219376  0.026337  1
  Sb  Sb2  1  0.220112  0.167305  0.545349  1
  Sb  Sb3  1  0.279888  0.667305  0.454651  1
  Sb  Sb4  1  0.455229  0.719376  0.973663  1
  Sb  Sb5  1  0.402122  0.027829  0.253331  1
  Sb  Sb6  1  0.597878  0.972171  0.746669  1
  Sb  Sb7  1  0.544771  0.280624  0.026337  1
  Sb  Sb8  1  0.720112  0.332695  0.545349  1
  Sb  Sb9  1  0.779888  0.832695  0.454651  1
  Sb  Sb10  1  0.955229  0.780624  0.973663  1
  Sb  Sb11  1  0.902122  0.472171  0.253331  1
  O  O12  1  0.101984  0.560424  0.460575  1
  O  O13  1  0.032711  0.327957  0.249653  1
  O  O14  1  0.288940  0.640835  0.753611  1
  O  O15  1  0.211060  0.140835  0.246389  1
  O  O16  1  0.467289  0.827957  0.750347  1
  O  O17  1  0.398016  0.060424  0.539425  1
  O  O18  1  0.601984  0.939576  0.460575  1
  O  O19  1  0.532711  0.172043  0.249653  1
  O  O20  1  0.788940  0.859165  0.753611  1
  O  O21  1  0.711060  0.359165  0.246389  1
  O  O22  1  0.967289  0.672043  0.750347  1
  O  O23  1  0.898016  0.439576  0.539425  1
  F  F24  1  0.100777  0.900347  0.926618  1
  F  F25  1  0.163849  0.821351  0.428732  1
  F  F26  1  0.163243  0.655463  0.125529  1
  F  F27  1  0.336757  0.155463  0.874471  1
  F  F28  1  0.336151  0.321351  0.571268  1
  F  F29  1  0.399223  0.400347  0.073382  1
  F  F30  1  0.600777  0.599653  0.926618  1
  F  F31  1  0.663849  0.678649  0.428732  1
  F  F32  1  0.663243  0.844537  0.125529  1
  F  F33  1  0.836757  0.344537  0.874471  1
  F  F34  1  0.836151  0.178649  0.571268  1
  F  F35  1  0.899223  0.099653  0.073382  1
