# generated using pymatgen
data_KCr2H(CO)10
_symmetry_space_group_name_H-M   'P 1'
_cell_length_a   6.97914534
_cell_length_b   8.58647290
_cell_length_c   28.71189837
_cell_angle_alpha   91.27521306
_cell_angle_beta   94.20408759
_cell_angle_gamma   100.54692711
_symmetry_Int_Tables_number   1
_chemical_formula_structural   KCr2H(CO)10
_chemical_formula_sum   'K4 Cr8 H4 C40 O40'
_cell_volume   1685.85878420
_cell_formula_units_Z   4
loop_
 _symmetry_equiv_pos_site_id
 _symmetry_equiv_pos_as_xyz
  1  'x, y, z'
loop_
 _atom_site_type_symbol
 _atom_site_label
 _atom_site_symmetry_multiplicity
 _atom_site_fract_x
 _atom_site_fract_y
 _atom_site_fract_z
 _atom_site_occupancy
  K  K0  1  0.592455  0.757305  0.871465  1
  K  K1  1  0.407545  0.242695  0.128535  1
  K  K2  1  0.324683  0.710743  0.364736  1
  K  K3  1  0.675317  0.289257  0.635264  1
  Cr  Cr4  1  0.808746  0.795407  0.208555  1
  Cr  Cr5  1  0.191254  0.204593  0.791445  1
  Cr  Cr6  1  0.985178  0.106636  0.280047  1
  Cr  Cr7  1  0.014822  0.893364  0.719953  1
  Cr  Cr8  1  0.866481  0.311674  0.984384  1
  Cr  Cr9  1  0.133519  0.688326  0.015616  1
  Cr  Cr10  1  0.122507  0.189926  0.485727  1
  Cr  Cr11  1  0.877493  0.810074  0.514273  1
  H  H12  1  0.017465  0.042652  0.919666  1
  H  H13  1  0.982535  0.957348  0.080334  1
  H  H14  1  0.000000  0.500000  0.000000  1
  H  H15  1  0.000000  0.000000  0.500000  1
  C  C16  1  0.764110  0.611741  0.170995  1
  C  C17  1  0.235890  0.388259  0.829005  1
  C  C18  1  0.048531  0.871058  0.181419  1
  C  C19  1  0.951469  0.128942  0.818581  1
  C  C20  1  0.319538  0.082428  0.833786  1
  C  C21  1  0.680462  0.917572  0.166214  1
  C  C22  1  0.430363  0.278314  0.764149  1
  C  C23  1  0.569637  0.721686  0.235851  1
  C  C24  1  0.064700  0.300815  0.741927  1
  C  C25  1  0.935300  0.699185  0.258073  1
  C  C26  1  0.037080  0.281615  0.321808  1
  C  C27  1  0.962920  0.718385  0.678192  1
  C  C28  1  0.090262  0.229260  0.229034  1
  C  C29  1  0.909738  0.770740  0.770966  1
  C  C30  1  0.164079  0.044553  0.939063  1
  C  C31  1  0.835921  0.955447  0.060937  1
  C  C32  1  0.817284  0.983739  0.322113  1
  C  C33  1  0.182716  0.016261  0.677887  1
  C  C34  1  0.255438  0.816065  0.743080  1
  C  C35  1  0.744562  0.183935  0.256920  1
  C  C36  1  0.730911  0.106267  0.967573  1
  C  C37  1  0.269089  0.893733  0.032427  1
  C  C38  1  0.088961  0.269729  0.958103  1
  C  C39  1  0.911039  0.730271  0.041897  1
  C  C40  1  0.774591  0.391163  0.927169  1
  C  C41  1  0.225409  0.608837  0.072831  1
  C  C42  1  0.651722  0.355980  0.016938  1
  C  C43  1  0.348278  0.644020  0.983062  1
  C  C44  1  0.027895  0.735982  0.955621  1
  C  C45  1  0.972105  0.264018  0.044379  1
  C  C46  1  0.255744  0.382498  0.466111  1
  C  C47  1  0.744256  0.617502  0.533889  1
  C  C48  1  0.189794  0.084893  0.431937  1
  C  C49  1  0.810206  0.915107  0.568063  1
  C  C50  1  0.883857  0.225280  0.453531  1
  C  C51  1  0.116143  0.774720  0.546469  1
  C  C52  1  0.948095  0.723173  0.458188  1
  C  C53  1  0.051905  0.276827  0.541812  1
  C  C54  1  0.349796  0.152860  0.520833  1
  C  C55  1  0.650204  0.847140  0.479167  1
  O  O56  1  0.734872  0.492262  0.148633  1
  O  O57  1  0.265128  0.507738  0.851367  1
  O  O58  1  0.190005  0.917273  0.162802  1
  O  O59  1  0.809995  0.082727  0.837198  1
  O  O60  1  0.396571  0.003498  0.858729  1
  O  O61  1  0.603429  0.996502  0.141271  1
  O  O62  1  0.573681  0.332254  0.747206  1
  O  O63  1  0.426319  0.667746  0.252794  1
  O  O64  1  0.997762  0.363346  0.710741  1
  O  O65  1  0.002238  0.636654  0.289259  1
  O  O66  1  0.087422  0.385421  0.349335  1
  O  O67  1  0.912578  0.614579  0.650665  1
  O  O68  1  0.142530  0.307589  0.198211  1
  O  O69  1  0.857470  0.692411  0.801789  1
  O  O70  1  0.820762  0.987884  0.710302  1
  O  O71  1  0.179238  0.012116  0.289698  1
  O  O72  1  0.709354  0.919209  0.347520  1
  O  O73  1  0.290646  0.080791  0.652480  1
  O  O74  1  0.384199  0.752773  0.754710  1
  O  O75  1  0.615801  0.247227  0.245290  1
  O  O76  1  0.651947  0.980079  0.954269  1
  O  O77  1  0.348053  0.019921  0.045731  1
  O  O78  1  0.237470  0.245608  0.941714  1
  O  O79  1  0.762530  0.754392  0.058286  1
  O  O80  1  0.721139  0.439420  0.891834  1
  O  O81  1  0.278861  0.560580  0.108166  1
  O  O82  1  0.526994  0.378097  0.039656  1
  O  O83  1  0.473006  0.621903  0.960344  1
  O  O84  1  0.957321  0.747616  0.917988  1
  O  O85  1  0.042679  0.252384  0.082012  1
  O  O86  1  0.339878  0.500667  0.451871  1
  O  O87  1  0.660122  0.499333  0.548129  1
  O  O88  1  0.231222  0.021010  0.398946  1
  O  O89  1  0.768778  0.978990  0.601054  1
  O  O90  1  0.741548  0.250468  0.433837  1
  O  O91  1  0.258452  0.749532  0.566163  1
  O  O92  1  0.986258  0.671245  0.422733  1
  O  O93  1  0.013742  0.328755  0.577267  1
  O  O94  1  0.488749  0.136518  0.544151  1
  O  O95  1  0.511251  0.863482  0.455849  1
