# generated using pymatgen
data_Al2P3H17C4(NO6)2
_symmetry_space_group_name_H-M   'P 1'
_cell_length_a   9.70055281
_cell_length_b   9.70055281
_cell_length_c   35.94680854
_cell_angle_alpha   82.05844471
_cell_angle_beta   97.94155529
_cell_angle_gamma   149.65599068
_symmetry_Int_Tables_number   1
_chemical_formula_structural   Al2P3H17C4(NO6)2
_chemical_formula_sum   'Al8 P12 H68 C16 N8 O48'
_cell_volume   1691.26812820
_cell_formula_units_Z   4
loop_
 _symmetry_equiv_pos_site_id
 _symmetry_equiv_pos_as_xyz
  1  'x, y, z'
loop_
 _atom_site_type_symbol
 _atom_site_label
 _atom_site_symmetry_multiplicity
 _atom_site_fract_x
 _atom_site_fract_y
 _atom_site_fract_z
 _atom_site_occupancy
  Al  Al0  1  0.490764  0.069203  0.876233  1
  Al  Al1  1  0.069203  0.490764  0.623767  1
  Al  Al2  1  0.509236  0.930797  0.123767  1
  Al  Al3  1  0.930797  0.509236  0.376233  1
  Al  Al4  1  0.119496  0.318855  0.895668  1
  Al  Al5  1  0.318855  0.119496  0.604332  1
  Al  Al6  1  0.880504  0.681145  0.104332  1
  Al  Al7  1  0.681145  0.880504  0.395668  1
  P  P8  1  0.243044  0.154423  0.862259  1
  P  P9  1  0.154423  0.243044  0.637741  1
  P  P10  1  0.756956  0.845577  0.137741  1
  P  P11  1  0.845577  0.756956  0.362259  1
  P  P12  1  0.562670  0.866716  0.936005  1
  P  P13  1  0.866716  0.562670  0.563995  1
  P  P14  1  0.437329  0.133284  0.063995  1
  P  P15  1  0.133284  0.437329  0.436005  1
  P  P16  1  0.045457  0.520722  0.836982  1
  P  P17  1  0.520722  0.045457  0.663018  1
  P  P18  1  0.954543  0.479278  0.163018  1
  P  P19  1  0.479278  0.954543  0.336982  1
  H  H20  1  0.661325  0.034863  0.737210  1
  H  H21  1  0.034863  0.661325  0.762790  1
  H  H22  1  0.338675  0.965137  0.262790  1
  H  H23  1  0.965137  0.338675  0.237210  1
  H  H24  1  0.879376  0.249717  0.772870  1
  H  H25  1  0.249717  0.879376  0.727130  1
  H  H26  1  0.120624  0.750283  0.227130  1
  H  H27  1  0.750283  0.120624  0.272870  1
  H  H28  1  0.313525  0.569525  0.999643  1
  H  H29  1  0.569525  0.313525  0.500357  1
  H  H30  1  0.686475  0.430475  0.000357  1
  H  H31  1  0.430475  0.686475  0.499643  1
  H  H32  1  0.970442  0.237646  0.997511  1
  H  H33  1  0.237646  0.970442  0.502489  1
  H  H34  1  0.029558  0.762354  0.002489  1
  H  H35  1  0.762354  0.029558  0.497511  1
  H  H36  1  0.641517  0.567874  0.839332  1
  H  H37  1  0.567874  0.641517  0.660668  1
  H  H38  1  0.358483  0.432127  0.160668  1
  H  H39  1  0.432127  0.358483  0.339332  1
  H  H40  1  0.115601  0.395829  0.719353  1
  H  H41  1  0.395829  0.115601  0.780647  1
  H  H42  1  0.884399  0.604171  0.280647  1
  H  H43  1  0.604171  0.884399  0.219353  1
  H  H44  1  0.171622  0.312813  0.759267  1
  H  H45  1  0.312813  0.171622  0.740733  1
  H  H46  1  0.828378  0.687187  0.240733  1
  H  H47  1  0.687187  0.828378  0.259267  1
  H  H48  1  0.935602  0.080134  0.721763  1
  H  H49  1  0.080134  0.935602  0.778237  1
  H  H50  1  0.064398  0.919866  0.278237  1
  H  H51  1  0.919866  0.064398  0.221763  1
  H  H52  1  0.492015  0.790824  0.796932  1
  H  H53  1  0.790824  0.492015  0.703068  1
  H  H54  1  0.507985  0.209176  0.203068  1
  H  H55  1  0.209176  0.507985  0.296932  1
  H  H56  1  0.559602  0.714949  0.769003  1
  H  H57  1  0.714949  0.559602  0.730997  1
  H  H58  1  0.440398  0.285051  0.230997  1
  H  H59  1  0.285051  0.440398  0.269003  1
  H  H60  1  0.793165  0.945002  0.806424  1
  H  H61  1  0.945002  0.793165  0.693576  1
  H  H62  1  0.206835  0.054998  0.193576  1
  H  H63  1  0.054998  0.206835  0.306424  1
  H  H64  1  0.063611  0.522430  0.027239  1
  H  H65  1  0.522430  0.063611  0.472761  1
  H  H66  1  0.936389  0.477570  0.972761  1
  H  H67  1  0.477570  0.936389  0.527239  1
  H  H68  1  0.919740  0.261835  0.059039  1
  H  H69  1  0.261835  0.919740  0.440961  1
  H  H70  1  0.080260  0.738165  0.940961  1
  H  H71  1  0.738165  0.080260  0.559039  1
  H  H72  1  0.279452  0.606513  0.061360  1
  H  H73  1  0.606513  0.279452  0.438640  1
  H  H74  1  0.720548  0.393487  0.938640  1
  H  H75  1  0.393487  0.720548  0.561360  1
  H  H76  1  0.229966  0.251942  0.012585  1
  H  H77  1  0.251942  0.229966  0.487415  1
  H  H78  1  0.770034  0.748058  0.987415  1
  H  H79  1  0.748058  0.770034  0.512585  1
  H  H80  1  0.379475  0.446501  0.052987  1
  H  H81  1  0.446501  0.379475  0.447013  1
  H  H82  1  0.620525  0.553499  0.947013  1
  H  H83  1  0.553499  0.620525  0.552987  1
  H  H84  1  0.022133  0.103299  0.050604  1
  H  H85  1  0.103299  0.022133  0.449396  1
  H  H86  1  0.977867  0.896701  0.949396  1
  H  H87  1  0.896701  0.977867  0.550604  1
  C  C88  1  0.020723  0.231356  0.738315  1
  C  C89  1  0.231356  0.020723  0.761685  1
  C  C90  1  0.979277  0.768644  0.261685  1
  C  C91  1  0.768644  0.979277  0.238315  1
  C  C92  1  0.651737  0.873588  0.784379  1
  C  C93  1  0.873588  0.651737  0.715621  1
  C  C94  1  0.348263  0.126412  0.215621  1
  C  C95  1  0.126412  0.348263  0.284379  1
  C  C96  1  0.098196  0.448400  0.042789  1
  C  C97  1  0.448400  0.098196  0.457211  1
  C  C98  1  0.901804  0.551600  0.957211  1
  C  C99  1  0.551600  0.901804  0.542789  1
  C  C100  1  0.198188  0.291516  0.034185  1
  C  C101  1  0.291516  0.198188  0.465815  1
  C  C102  1  0.801812  0.708484  0.965815  1
  C  C103  1  0.708484  0.801812  0.534185  1
  N  N104  1  0.799750  0.102799  0.757815  1
  N  N105  1  0.102799  0.799750  0.742185  1
  N  N106  1  0.200250  0.897201  0.242185  1
  N  N107  1  0.897201  0.200250  0.257815  1
  N  N108  1  0.145148  0.390198  0.015508  1
  N  N109  1  0.390198  0.145148  0.484492  1
  N  N110  1  0.854852  0.609802  0.984492  1
  N  N111  1  0.609802  0.854852  0.515508  1
  O  O112  1  0.965414  0.901665  0.844452  1
  O  O113  1  0.901665  0.965414  0.655548  1
  O  O114  1  0.034586  0.098335  0.155548  1
  O  O115  1  0.098335  0.034586  0.344452  1
  O  O116  1  0.639887  0.921072  0.977724  1
  O  O117  1  0.921072  0.639887  0.522276  1
  O  O118  1  0.360113  0.078928  0.022276  1
  O  O119  1  0.078928  0.360113  0.477724  1
  O  O120  1  0.305176  0.553051  0.930934  1
  O  O121  1  0.553051  0.305176  0.569066  1
  O  O122  1  0.694824  0.446949  0.069066  1
  O  O123  1  0.446949  0.694824  0.430934  1
  O  O124  1  0.827820  0.384993  0.862352  1
  O  O125  1  0.384993  0.827820  0.637648  1
  O  O126  1  0.172180  0.615007  0.137648  1
  O  O127  1  0.615007  0.172180  0.362352  1
  O  O128  1  0.954811  0.454851  0.795902  1
  O  O129  1  0.454851  0.954811  0.704098  1
  O  O130  1  0.045189  0.545149  0.204098  1
  O  O131  1  0.545149  0.045189  0.295902  1
  O  O132  1  0.115675  0.426285  0.852548  1
  O  O133  1  0.426285  0.115675  0.647452  1
  O  O134  1  0.884325  0.573715  0.147452  1
  O  O135  1  0.573715  0.884325  0.352548  1
  O  O136  1  0.788415  0.008175  0.912268  1
  O  O137  1  0.008175  0.788415  0.587732  1
  O  O138  1  0.211585  0.991825  0.087732  1
  O  O139  1  0.991825  0.211585  0.412268  1
  O  O140  1  0.359054  0.116041  0.884970  1
  O  O141  1  0.116041  0.359054  0.615030  1
  O  O142  1  0.640946  0.883959  0.115030  1
  O  O143  1  0.883959  0.640946  0.384970  1
  O  O144  1  0.490271  0.957611  0.919456  1
  O  O145  1  0.957611  0.490271  0.580544  1
  O  O146  1  0.509729  0.042389  0.080544  1
  O  O147  1  0.042389  0.509729  0.419456  1
  O  O148  1  0.305803  0.834543  0.841517  1
  O  O149  1  0.834543  0.305803  0.658483  1
  O  O150  1  0.694197  0.165457  0.158483  1
  O  O151  1  0.165457  0.694197  0.341517  1
  O  O152  1  0.260230  0.277537  0.890816  1
  O  O153  1  0.277537  0.260230  0.609184  1
  O  O154  1  0.739770  0.722463  0.109184  1
  O  O155  1  0.722463  0.739770  0.390816  1
  O  O156  1  0.451494  0.383228  0.830202  1
  O  O157  1  0.383228  0.451494  0.669798  1
  O  O158  1  0.548506  0.616772  0.169798  1
  O  O159  1  0.616772  0.548506  0.330202  1
