# generated using pymatgen
data_Li2TiP3O10
_symmetry_space_group_name_H-M   'P 1'
_cell_length_a   12.26151788
_cell_length_b   8.05610113
_cell_length_c   9.98282324
_cell_angle_alpha   90.00000000
_cell_angle_beta   98.04297117
_cell_angle_gamma   90.00000000
_symmetry_Int_Tables_number   1
_chemical_formula_structural   Li2TiP3O10
_chemical_formula_sum   'Li8 Ti4 P12 O40'
_cell_volume   976.40366502
_cell_formula_units_Z   4
loop_
 _symmetry_equiv_pos_site_id
 _symmetry_equiv_pos_as_xyz
  1  'x, y, z'
loop_
 _atom_site_type_symbol
 _atom_site_label
 _atom_site_symmetry_multiplicity
 _atom_site_fract_x
 _atom_site_fract_y
 _atom_site_fract_z
 _atom_site_occupancy
  Li  Li0  1  0.149607  0.452070  0.381161  1
  Li  Li1  1  0.149607  0.047930  0.881161  1
  Li  Li2  1  0.438902  0.112304  0.911601  1
  Li  Li3  1  0.438902  0.387696  0.411601  1
  Li  Li4  1  0.561098  0.612304  0.588399  1
  Li  Li5  1  0.561098  0.887696  0.088399  1
  Li  Li6  1  0.850393  0.952070  0.118839  1
  Li  Li7  1  0.850393  0.547930  0.618839  1
  Ti  Ti8  1  0.169448  0.857553  0.631479  1
  Ti  Ti9  1  0.169448  0.642447  0.131479  1
  Ti  Ti10  1  0.830552  0.357553  0.868521  1
  Ti  Ti11  1  0.830552  0.142447  0.368521  1
  P  P12  1  0.060798  0.574711  0.806289  1
  P  P13  1  0.060798  0.925289  0.306289  1
  P  P14  1  0.269716  0.427609  0.913422  1
  P  P15  1  0.269716  0.072391  0.413422  1
  P  P16  1  0.331281  0.786435  0.932768  1
  P  P17  1  0.331281  0.713565  0.432768  1
  P  P18  1  0.668719  0.286435  0.567232  1
  P  P19  1  0.668719  0.213565  0.067232  1
  P  P20  1  0.730284  0.927609  0.586578  1
  P  P21  1  0.730284  0.572391  0.086578  1
  P  P22  1  0.939202  0.074711  0.693711  1
  P  P23  1  0.939202  0.425289  0.193711  1
  O  O24  1  0.084032  0.670252  0.937979  1
  O  O25  1  0.055219  0.001166  0.718206  1
  O  O26  1  0.077857  0.666922  0.676823  1
  O  O27  1  0.084032  0.829748  0.437979  1
  O  O28  1  0.055219  0.498834  0.218206  1
  O  O29  1  0.077857  0.833078  0.176823  1
  O  O30  1  0.151281  0.423284  0.815304  1
  O  O31  1  0.151281  0.076716  0.315304  1
  O  O32  1  0.249745  0.885364  0.829869  1
  O  O33  1  0.245757  0.057702  0.558739  1
  O  O34  1  0.291693  0.721813  0.571889  1
  O  O35  1  0.249745  0.614636  0.329869  1
  O  O36  1  0.245757  0.442298  0.058739  1
  O  O37  1  0.291693  0.778187  0.071889  1
  O  O38  1  0.330946  0.594693  0.873990  1
  O  O39  1  0.329796  0.277664  0.876563  1
  O  O40  1  0.330946  0.905307  0.373990  1
  O  O41  1  0.329796  0.222336  0.376563  1
  O  O42  1  0.445706  0.857252  0.939138  1
  O  O43  1  0.445706  0.642748  0.439138  1
  O  O44  1  0.554294  0.357252  0.560862  1
  O  O45  1  0.554294  0.142748  0.060862  1
  O  O46  1  0.670204  0.777664  0.623437  1
  O  O47  1  0.669054  0.094693  0.626010  1
  O  O48  1  0.670204  0.722336  0.123437  1
  O  O49  1  0.669054  0.405307  0.126010  1
  O  O50  1  0.708307  0.221813  0.928111  1
  O  O51  1  0.754243  0.557702  0.941261  1
  O  O52  1  0.750255  0.385364  0.670131  1
  O  O53  1  0.708307  0.278187  0.428111  1
  O  O54  1  0.754243  0.942298  0.441261  1
  O  O55  1  0.750255  0.114636  0.170131  1
  O  O56  1  0.848719  0.923284  0.684696  1
  O  O57  1  0.848719  0.576716  0.184696  1
  O  O58  1  0.922143  0.166922  0.823177  1
  O  O59  1  0.944781  0.501166  0.781794  1
  O  O60  1  0.915968  0.170252  0.562021  1
  O  O61  1  0.922143  0.333079  0.323177  1
  O  O62  1  0.944781  0.998834  0.281794  1
  O  O63  1  0.915968  0.329748  0.062021  1
