# generated using pymatgen
data_Nb2P4H3O16
_symmetry_space_group_name_H-M   'P 1'
_cell_length_a   5.12162713
_cell_length_b   8.22377617
_cell_length_c   7.53909685
_cell_angle_alpha   89.03852497
_cell_angle_beta   103.52842811
_cell_angle_gamma   88.16546710
_symmetry_Int_Tables_number   1
_chemical_formula_structural   Nb2P4H3O16
_chemical_formula_sum   'Nb2 P4 H3 O16'
_cell_volume   308.47512712
_cell_formula_units_Z   1
loop_
 _symmetry_equiv_pos_site_id
 _symmetry_equiv_pos_as_xyz
  1  'x, y, z'
loop_
 _atom_site_type_symbol
 _atom_site_label
 _atom_site_symmetry_multiplicity
 _atom_site_fract_x
 _atom_site_fract_y
 _atom_site_fract_z
 _atom_site_occupancy
  Nb  Nb0  1  0.998257  0.996902  0.497152  1
  Nb  Nb1  1  0.499589  0.501431  0.001767  1
  P  P2  1  0.108206  0.337205  0.257214  1
  P  P3  1  0.383390  0.854785  0.228743  1
  P  P4  1  0.610587  0.149167  0.762566  1
  P  P5  1  0.891411  0.662588  0.744056  1
  H  H6  1  0.396728  0.448392  0.447370  1
  H  H7  1  0.600668  0.556311  0.549888  1
  H  H8  1  0.947072  0.013418  0.978600  1
  O  O9  1  0.138386  0.562990  0.851298  1
  O  O10  1  0.019957  0.170511  0.309444  1
  O  O11  1  0.202770  0.845406  0.373709  1
  O  O12  1  0.212260  0.426417  0.445276  1
  O  O13  1  0.351052  0.066729  0.659247  1
  O  O14  1  0.540707  0.324247  0.810834  1
  O  O15  1  0.241501  0.952045  0.064122  1
  O  O16  1  0.332586  0.331154  0.155330  1
  O  O17  1  0.667125  0.669531  0.846046  1
  O  O18  1  0.745811  0.049389  0.937248  1
  O  O19  1  0.457693  0.675119  0.191434  1
  O  O20  1  0.651393  0.931312  0.342190  1
  O  O21  1  0.788267  0.572342  0.556523  1
  O  O22  1  0.803927  0.155763  0.630739  1
  O  O23  1  0.977887  0.829788  0.691924  1
  O  O24  1  0.861653  0.436957  0.149180  1
