# generated using pymatgen
data_Li3Y14Ti14(S2O5)7
_symmetry_space_group_name_H-M   'P 1'
_cell_length_a   11.65726906
_cell_length_b   12.17272601
_cell_length_c   8.63834159
_cell_angle_alpha   82.06657423
_cell_angle_beta   77.17766672
_cell_angle_gamma   84.04174291
_symmetry_Int_Tables_number   1
_chemical_formula_structural   Li3Y14Ti14(S2O5)7
_chemical_formula_sum   'Li3 Y14 Ti14 S14 O35'
_cell_volume   1180.37729583
_cell_formula_units_Z   1
loop_
 _symmetry_equiv_pos_site_id
 _symmetry_equiv_pos_as_xyz
  1  'x, y, z'
loop_
 _atom_site_type_symbol
 _atom_site_label
 _atom_site_symmetry_multiplicity
 _atom_site_fract_x
 _atom_site_fract_y
 _atom_site_fract_z
 _atom_site_occupancy
  Li  Li0  1  0.000000  0.857143  0.928571  1
  Li  Li1  1  0.000028  0.210007  0.356487  1
  Li  Li2  1  0.999972  0.504279  0.500655  1
  Y  Y3  1  0.665250  0.237900  0.953640  1
  Y  Y4  1  0.334826  0.190214  0.761519  1
  Y  Y5  1  0.334750  0.476386  0.903503  1
  Y  Y6  1  0.668468  0.094475  0.382352  1
  Y  Y7  1  0.671107  0.380712  0.522088  1
  Y  Y8  1  0.668538  0.667488  0.663875  1
  Y  Y9  1  0.668983  0.950925  0.808502  1
  Y  Y10  1  0.331462  0.046798  0.193268  1
  Y  Y11  1  0.328893  0.333574  0.335055  1
  Y  Y12  1  0.331532  0.619810  0.474791  1
  Y  Y13  1  0.331879  0.903799  0.619013  1
  Y  Y14  1  0.665174  0.524071  0.095624  1
  Y  Y15  1  0.668121  0.810487  0.238130  1
  Y  Y16  1  0.331017  0.763361  0.048641  1
  Ti  Ti17  1  0.835967  0.151933  0.625704  1
  Ti  Ti18  1  0.836204  0.437276  0.765130  1
  Ti  Ti19  1  0.835689  0.722021  0.900002  1
  Ti  Ti20  1  0.164572  0.128287  0.531715  1
  Ti  Ti21  1  0.164288  0.413831  0.671436  1
  Ti  Ti22  1  0.164258  0.698716  0.806058  1
  Ti  Ti23  1  0.164311  0.992264  0.957141  1
  Ti  Ti24  1  0.835742  0.015570  0.051085  1
  Ti  Ti25  1  0.835712  0.300455  0.185707  1
  Ti  Ti26  1  0.835428  0.585999  0.325428  1
  Ti  Ti27  1  0.839299  0.868691  0.474344  1
  Ti  Ti28  1  0.163796  0.277010  0.092013  1
  Ti  Ti29  1  0.164033  0.562353  0.231439  1
  Ti  Ti30  1  0.160701  0.845595  0.382799  1
  S  S31  1  0.590964  0.172663  0.686050  1
  S  S32  1  0.591629  0.744822  0.973614  1
  S  S33  1  0.590367  0.459051  0.827495  1
  S  S34  1  0.408484  0.114454  0.451871  1
  S  S35  1  0.409276  0.400537  0.593605  1
  S  S36  1  0.408273  0.686674  0.741222  1
  S  S37  1  0.408371  0.969464  0.883528  1
  S  S38  1  0.590724  0.313749  0.263538  1
  S  S39  1  0.591727  0.027612  0.115921  1
  S  S40  1  0.591516  0.599831  0.405272  1
  S  S41  1  0.587523  0.887037  0.546832  1
  S  S42  1  0.409633  0.255235  0.029648  1
  S  S43  1  0.409036  0.541623  0.171093  1
  S  S44  1  0.412477  0.827249  0.310311  1
  O  O45  1  0.798136  0.085535  0.846686  1
  O  O46  1  0.795742  0.371788  0.986879  1
  O  O47  1  0.204258  0.342498  0.870264  1
  O  O48  1  0.202002  0.056678  0.731388  1
  O  O49  1  0.798498  0.013643  0.559912  1
  O  O50  1  0.798432  0.583982  0.842134  1
  O  O51  1  0.813626  0.870465  0.981569  1
  O  O52  1  0.797111  0.299190  0.702929  1
  O  O53  1  0.000067  0.143992  0.568326  1
  O  O54  1  0.202596  0.270158  0.587075  1
  O  O55  1  0.813916  0.512821  0.552031  1
  O  O56  1  0.201454  0.555343  0.726981  1
  O  O57  1  0.000050  0.429332  0.708138  1
  O  O58  1  0.813859  0.228109  0.411728  1
  O  O59  1  -0.000009  0.717132  0.856625  1
  O  O60  1  0.186374  0.843820  0.875573  1
  O  O61  1  0.798549  0.798853  0.698764  1
  O  O62  1  0.798546  0.158943  0.130162  1
  O  O63  1  0.186084  0.201465  0.305112  1
  O  O64  1  0.797404  0.444127  0.270068  1
  O  O65  1  0.798436  0.729692  0.412475  1
  O  O66  1  0.186141  0.486177  0.445415  1
  O  O67  1  0.201655  0.769986  0.583735  1
  O  O68  1  0.201568  0.130303  0.015009  1
  O  O69  1  0.201502  0.700643  0.297231  1
  O  O70  1  0.999950  0.284954  0.149005  1
  O  O71  1  0.202889  0.415095  0.154214  1
  O  O72  1  0.797998  0.657607  0.125755  1
  O  O73  1  0.999933  0.570294  0.288817  1
  O  O74  1  0.000000  0.857143  0.428571  1
  O  O75  1  0.201564  0.984594  0.444667  1
  O  O76  1  0.000009  0.997153  0.000518  1
  O  O77  1  0.798345  0.944300  0.273408  1
  O  O78  1  0.201864  0.628751  0.010457  1
  O  O79  1  0.201451  0.915433  0.158378  1
