# generated using pymatgen
data_LiTi2VO6
_symmetry_space_group_name_H-M   'P 1'
_cell_length_a   9.94534206
_cell_length_b   8.97046878
_cell_length_c   5.63305132
_cell_angle_alpha   90.00000000
_cell_angle_beta   103.71587460
_cell_angle_gamma   90.00000000
_symmetry_Int_Tables_number   1
_chemical_formula_structural   LiTi2VO6
_chemical_formula_sum   'Li4 Ti8 V4 O24'
_cell_volume   488.21822146
_cell_formula_units_Z   4
loop_
 _symmetry_equiv_pos_site_id
 _symmetry_equiv_pos_as_xyz
  1  'x, y, z'
loop_
 _atom_site_type_symbol
 _atom_site_label
 _atom_site_symmetry_multiplicity
 _atom_site_fract_x
 _atom_site_fract_y
 _atom_site_fract_z
 _atom_site_occupancy
  Li  Li0  1  0.240388  0.008808  0.963059  1
  Li  Li1  1  0.240388  0.491192  0.463059  1
  Li  Li2  1  0.759612  0.508808  0.536941  1
  Li  Li3  1  0.759612  0.991192  0.036941  1
  Ti  Ti4  1  0.054446  0.342371  0.828302  1
  Ti  Ti5  1  0.054446  0.157629  0.328302  1
  Ti  Ti6  1  0.451929  0.155504  0.735731  1
  Ti  Ti7  1  0.451929  0.344496  0.235731  1
  Ti  Ti8  1  0.548071  0.655504  0.764269  1
  Ti  Ti9  1  0.548071  0.844496  0.264269  1
  Ti  Ti10  1  0.945554  0.842371  0.671698  1
  Ti  Ti11  1  0.945554  0.657629  0.171698  1
  V  V12  1  0.248569  0.664714  0.952803  1
  V  V13  1  0.248569  0.835286  0.452803  1
  V  V14  1  0.751431  0.164714  0.547197  1
  V  V15  1  0.751431  0.335286  0.047197  1
  O  O16  1  0.112685  0.187175  0.659920  1
  O  O17  1  0.130513  0.509498  0.748511  1
  O  O18  1  0.137819  0.835059  0.740455  1
  O  O19  1  0.112685  0.312825  0.159920  1
  O  O20  1  0.130513  0.990502  0.248511  1
  O  O21  1  0.137819  0.664941  0.240455  1
  O  O22  1  0.384350  0.198145  0.004988  1
  O  O23  1  0.355755  0.666783  0.670484  1
  O  O24  1  0.380514  0.977937  0.643163  1
  O  O25  1  0.384350  0.301855  0.504988  1
  O  O26  1  0.355755  0.833217  0.170484  1
  O  O27  1  0.380514  0.522063  0.143163  1
  O  O28  1  0.619486  0.477937  0.856837  1
  O  O29  1  0.644245  0.166783  0.829516  1
  O  O30  1  0.615650  0.698145  0.495012  1
  O  O31  1  0.619486  0.022063  0.356837  1
  O  O32  1  0.644245  0.333217  0.329516  1
  O  O33  1  0.615650  0.801855  0.995012  1
  O  O34  1  0.862181  0.335059  0.759545  1
  O  O35  1  0.869487  0.009498  0.751489  1
  O  O36  1  0.887315  0.687175  0.840080  1
  O  O37  1  0.862181  0.164941  0.259545  1
  O  O38  1  0.869487  0.490502  0.251489  1
  O  O39  1  0.887315  0.812825  0.340080  1
