# generated using pymatgen
data_GdAsO4
_symmetry_space_group_name_H-M   'P 1'
_cell_length_a   6.89461826
_cell_length_b   7.07727573
_cell_length_c   6.70887161
_cell_angle_alpha   90.00000000
_cell_angle_beta   105.43776572
_cell_angle_gamma   90.00000000
_symmetry_Int_Tables_number   1
_chemical_formula_structural   GdAsO4
_chemical_formula_sum   'Gd4 As4 O16'
_cell_volume   315.54905522
_cell_formula_units_Z   4
loop_
 _symmetry_equiv_pos_site_id
 _symmetry_equiv_pos_as_xyz
  1  'x, y, z'
loop_
 _atom_site_type_symbol
 _atom_site_label
 _atom_site_symmetry_multiplicity
 _atom_site_fract_x
 _atom_site_fract_y
 _atom_site_fract_z
 _atom_site_occupancy
  Gd  Gd0  1  0.218285  0.147170  0.408402  1
  Gd  Gd1  1  0.281715  0.647170  0.091598  1
  Gd  Gd2  1  0.718285  0.352830  0.908402  1
  Gd  Gd3  1  0.781715  0.852830  0.591598  1
  As  As4  1  0.198852  0.161296  0.887857  1
  As  As5  1  0.301148  0.661296  0.612143  1
  As  As6  1  0.698852  0.338704  0.387857  1
  As  As7  1  0.801148  0.838704  0.112143  1
  O  O8  1  0.018222  0.105283  0.662708  1
  O  O9  1  0.104637  0.347501  0.997230  1
  O  O10  1  0.112239  0.712545  0.727253  1
  O  O11  1  0.254060  0.493663  0.420140  1
  O  O12  1  0.387761  0.212545  0.772747  1
  O  O13  1  0.245940  0.993663  0.079860  1
  O  O14  1  0.395363  0.847501  0.502770  1
  O  O15  1  0.481778  0.605283  0.837292  1
  O  O16  1  0.518222  0.394717  0.162708  1
  O  O17  1  0.604637  0.152499  0.497230  1
  O  O18  1  0.754060  0.006338  0.920140  1
  O  O19  1  0.612239  0.787455  0.227253  1
  O  O20  1  0.745940  0.506337  0.579860  1
  O  O21  1  0.887761  0.287455  0.272747  1
  O  O22  1  0.895363  0.652499  0.002770  1
  O  O23  1  0.981778  0.894717  0.337292  1
