# generated using pymatgen
data_Li4CrCo3O8
_symmetry_space_group_name_H-M   'P 1'
_cell_length_a   5.88242250
_cell_length_b   5.87710280
_cell_length_c   5.89039656
_cell_angle_alpha   90.05920432
_cell_angle_beta   119.87470306
_cell_angle_gamma   119.92533013
_symmetry_Int_Tables_number   1
_chemical_formula_structural   Li4CrCo3O8
_chemical_formula_sum   'Li4 Cr1 Co3 O8'
_cell_volume   144.35574644
_cell_formula_units_Z   1
loop_
 _symmetry_equiv_pos_site_id
 _symmetry_equiv_pos_as_xyz
  1  'x, y, z'
loop_
 _atom_site_type_symbol
 _atom_site_label
 _atom_site_symmetry_multiplicity
 _atom_site_fract_x
 _atom_site_fract_y
 _atom_site_fract_z
 _atom_site_occupancy
  Li  Li0  1  0.000035  0.500028  0.500012  1
  Li  Li1  1  0.500035  0.500014  0.499999  1
  Li  Li2  1  0.000059  0.000048  0.500023  1
  Li  Li3  1  0.500053  0.000048  0.500003  1
  Cr  Cr4  1  -0.000308  -0.000239  0.999888  1
  Co  Co5  1  0.000060  0.500003  -0.000008  1
  Co  Co6  1  0.499958  0.499925  0.000037  1
  Co  Co7  1  0.500022  0.000088  0.000056  1
  O  O8  1  0.014714  0.758095  0.773187  1
  O  O9  1  0.487123  0.743432  0.230480  1
  O  O10  1  0.516553  0.758456  0.774545  1
  O  O11  1  0.014615  0.257111  0.773703  1
  O  O12  1  0.985438  0.742912  0.226355  1
  O  O13  1  0.483344  0.241500  0.225357  1
  O  O14  1  0.512990  0.256654  0.769551  1
  O  O15  1  0.985322  0.241923  0.226815  1
