# generated using pymatgen
data_Li2MnV(PO4)3
_symmetry_space_group_name_H-M   'P 1'
_cell_length_a   8.97359856
_cell_length_b   8.53523985
_cell_length_c   8.22387557
_cell_angle_alpha   60.25520996
_cell_angle_beta   63.27808409
_cell_angle_gamma   92.26671657
_symmetry_Int_Tables_number   1
_chemical_formula_structural   Li2MnV(PO4)3
_chemical_formula_sum   'Li4 Mn2 V2 P6 O24'
_cell_volume   459.61555444
_cell_formula_units_Z   2
loop_
 _symmetry_equiv_pos_site_id
 _symmetry_equiv_pos_as_xyz
  1  'x, y, z'
loop_
 _atom_site_type_symbol
 _atom_site_label
 _atom_site_symmetry_multiplicity
 _atom_site_fract_x
 _atom_site_fract_y
 _atom_site_fract_z
 _atom_site_occupancy
  Li  Li0  1  0.141193  0.732314  0.182981  1
  Li  Li1  1  0.132182  0.067714  0.604049  1
  Li  Li2  1  0.867818  0.932286  0.395951  1
  Li  Li3  1  0.858807  0.267686  0.817019  1
  Mn  Mn4  1  0.051252  0.354331  0.295002  1
  Mn  Mn5  1  0.948748  0.645669  0.704998  1
  V  V6  1  0.563555  0.847114  0.297290  1
  V  V7  1  0.436445  0.152886  0.702710  1
  P  P8  1  0.254819  0.030970  0.215788  1
  P  P9  1  0.246072  0.454622  0.506888  1
  P  P10  1  0.248619  0.748907  0.785931  1
  P  P11  1  0.751381  0.251093  0.214069  1
  P  P12  1  0.753928  0.545378  0.493111  1
  P  P13  1  0.745181  0.969030  0.784212  1
  O  O14  1  0.091390  0.839042  0.366220  1
  O  O15  1  0.288127  0.117751  0.979700  1
  O  O16  1  0.205215  0.159096  0.295155  1
  O  O17  1  0.208862  0.495276  0.323174  1
  O  O18  1  0.087524  0.445342  0.696973  1
  O  O19  1  0.108066  0.791000  0.721820  1
  O  O20  1  0.421269  0.988166  0.206489  1
  O  O21  1  0.274680  0.256315  0.603089  1
  O  O22  1  0.416099  0.612320  0.396108  1
  O  O23  1  0.197707  0.541236  0.971313  1
  O  O24  1  0.269665  0.887914  0.849779  1
  O  O25  1  0.427613  0.804990  0.576468  1
  O  O26  1  0.572387  0.195010  0.423532  1
  O  O27  1  0.730335  0.112086  0.150221  1
  O  O28  1  0.802293  0.458763  0.028687  1
  O  O29  1  0.583901  0.387680  0.603892  1
  O  O30  1  0.725320  0.743685  0.396911  1
  O  O31  1  0.578731  0.011834  0.793511  1
  O  O32  1  0.891934  0.209000  0.278180  1
  O  O33  1  0.912476  0.554658  0.303027  1
  O  O34  1  0.791138  0.504724  0.676826  1
  O  O35  1  0.794785  0.840904  0.704845  1
  O  O36  1  0.711873  0.882249  0.020300  1
  O  O37  1  0.908610  0.160958  0.633780  1
