# generated using pymatgen
data_LiNiPO4
_symmetry_space_group_name_H-M   'P 1'
_cell_length_a   9.88725775
_cell_length_b   9.88725709
_cell_length_c   23.36069811
_cell_angle_alpha   90.00000000
_cell_angle_beta   90.00000000
_cell_angle_gamma   120.00000047
_symmetry_Int_Tables_number   1
_chemical_formula_structural   LiNiPO4
_chemical_formula_sum   'Li24 Ni24 P24 O96'
_cell_volume   1977.73513667
_cell_formula_units_Z   24
loop_
 _symmetry_equiv_pos_site_id
 _symmetry_equiv_pos_as_xyz
  1  'x, y, z'
loop_
 _atom_site_type_symbol
 _atom_site_label
 _atom_site_symmetry_multiplicity
 _atom_site_fract_x
 _atom_site_fract_y
 _atom_site_fract_z
 _atom_site_occupancy
  Li  Li0  1  0.021648  0.980271  0.696101  1
  Li  Li1  1  0.028229  0.573987  0.036936  1
  Li  Li2  1  0.053842  0.461330  0.195037  1
  Li  Li3  1  0.043650  0.481139  0.849261  1
  Li  Li4  1  0.407488  0.946158  0.861704  1
  Li  Li5  1  0.437488  0.956350  0.515928  1
  Li  Li6  1  0.019729  0.041378  0.029435  1
  Li  Li7  1  0.041378  0.021648  0.862768  1
  Li  Li8  1  0.545759  0.971771  0.703602  1
  Li  Li9  1  0.426013  0.454241  0.370269  1
  Li  Li10  1  0.518861  0.562512  0.182595  1
  Li  Li11  1  0.538670  0.592512  0.528370  1
  Li  Li12  1  0.461330  0.407488  0.028370  1
  Li  Li13  1  0.481139  0.437488  0.682595  1
  Li  Li14  1  0.573987  0.545759  0.870269  1
  Li  Li15  1  0.454241  0.028229  0.203602  1
  Li  Li16  1  0.958622  0.978352  0.362768  1
  Li  Li17  1  0.980271  0.958622  0.529435  1
  Li  Li18  1  0.562512  0.043650  0.015928  1
  Li  Li19  1  0.592512  0.053842  0.361704  1
  Li  Li20  1  0.956350  0.518861  0.349261  1
  Li  Li21  1  0.946158  0.538670  0.695037  1
  Li  Li22  1  0.971771  0.426013  0.536936  1
  Li  Li23  1  0.978352  0.019729  0.196101  1
  Ni  Ni24  1  0.110067  0.825646  0.271648  1
  Ni  Ni25  1  0.087709  0.761987  0.923108  1
  Ni  Ni26  1  0.127286  0.759474  0.596486  1
  Ni  Ni27  1  0.314726  0.664895  0.755540  1
  Ni  Ni28  1  0.335105  0.649831  0.088874  1
  Ni  Ni29  1  0.350169  0.685274  0.422207  1
  Ni  Ni30  1  0.174354  0.284421  0.604981  1
  Ni  Ni31  1  0.240526  0.367813  0.929819  1
  Ni  Ni32  1  0.238013  0.325722  0.256441  1
  Ni  Ni33  1  0.632187  0.872714  0.263152  1
  Ni  Ni34  1  0.674278  0.912291  0.589775  1
  Ni  Ni35  1  0.284421  0.110067  0.438315  1
  Ni  Ni36  1  0.715579  0.889933  0.938315  1
  Ni  Ni37  1  0.325722  0.087709  0.089775  1
  Ni  Ni38  1  0.367813  0.127286  0.763152  1
  Ni  Ni39  1  0.761987  0.674278  0.756441  1
  Ni  Ni40  1  0.759474  0.632187  0.429819  1
  Ni  Ni41  1  0.825646  0.715579  0.104981  1
  Ni  Ni42  1  0.649831  0.314726  0.922207  1
  Ni  Ni43  1  0.664895  0.350169  0.588874  1
  Ni  Ni44  1  0.685274  0.335105  0.255540  1
  Ni  Ni45  1  0.872714  0.240526  0.096486  1
  Ni  Ni46  1  0.912291  0.238013  0.423108  1
  Ni  Ni47  1  0.889933  0.174354  0.771648  1
  P  P48  1  0.095018  0.787312  0.790921  1
  P  P49  1  0.085165  0.758299  0.466539  1
  P  P50  1  0.132668  0.770288  0.138994  1
  P  P51  1  0.284023  0.645239  0.293838  1
  P  P52  1  0.361216  0.715977  0.960504  1
  P  P53  1  0.354761  0.638784  0.627171  1
  P  P54  1  0.229712  0.362379  0.472328  1
  P  P55  1  0.212688  0.307706  0.124254  1
  P  P56  1  0.241701  0.326865  0.799873  1
  P  P57  1  0.637621  0.867332  0.805661  1
  P  P58  1  0.673135  0.914835  0.133206  1
  P  P59  1  0.692294  0.904981  0.457588  1
  P  P60  1  0.307706  0.095018  0.957588  1
  P  P61  1  0.326865  0.085165  0.633206  1
  P  P62  1  0.362379  0.132668  0.305661  1
  P  P63  1  0.758299  0.673135  0.299873  1
  P  P64  1  0.787312  0.692294  0.624254  1
  P  P65  1  0.770288  0.637621  0.972328  1
  P  P66  1  0.645239  0.361216  0.127171  1
  P  P67  1  0.638784  0.284023  0.460504  1
  P  P68  1  0.715977  0.354761  0.793838  1
  P  P69  1  0.867332  0.229712  0.638994  1
  P  P70  1  0.914835  0.241701  0.966539  1
  P  P71  1  0.904981  0.212688  0.290921  1
  O  O72  1  0.042337  0.775650  0.085238  1
  O  O73  1  0.093367  0.920857  0.468598  1
  O  O74  1  0.016678  0.687944  0.844982  1
  O  O75  1  0.146010  0.984001  0.928965  1
  O  O76  1  0.035108  0.759670  0.192150  1
  O  O77  1  0.016972  0.672734  0.523882  1
  O  O78  1  0.243553  0.939645  0.809901  1
  O  O79  1  0.136348  0.657803  0.306118  1
  O  O80  1  0.126900  0.686787  0.748384  1
  O  O81  1  0.315974  0.972037  0.584485  1
  O  O82  1  0.298923  0.917454  0.140474  1
  O  O83  1  0.152662  0.624532  0.133797  1
  O  O84  1  0.254385  0.791758  0.458613  1
  O  O85  1  0.189913  0.604663  0.609391  1
  O  O86  1  0.082546  0.381469  0.473807  1
  O  O87  1  0.278380  0.751643  0.911119  1
  O  O88  1  0.027963  0.343937  0.917818  1
  O  O89  1  0.060355  0.303908  0.143234  1
  O  O90  1  0.015999  0.162009  0.262299  1
  O  O91  1  0.079143  0.172510  0.801931  1
  O  O92  1  0.255362  0.670226  0.014440  1
  O  O93  1  0.248357  0.526737  0.244453  1
  O  O94  1  0.329774  0.585137  0.347773  1
  O  O95  1  0.208242  0.462627  0.791946  1
  O  O96  1  0.414863  0.744638  0.681107  1
  O  O97  1  0.414751  0.810087  0.276058  1
  O  O98  1  0.471870  0.847338  0.800464  1
  O  O99  1  0.313213  0.440113  0.081717  1
  O  O100  1  0.342197  0.478545  0.639452  1
  O  O101  1  0.375468  0.528130  0.467130  1
  O  O102  1  0.240330  0.275438  0.525483  1
  O  O103  1  0.395337  0.585249  0.942724  1
  O  O104  1  0.473263  0.721620  0.577786  1
  O  O105  1  0.521455  0.863652  0.972785  1
  O  O106  1  0.559887  0.873100  0.415050  1
  O  O107  1  0.162009  0.146010  0.095632  1
  O  O108  1  0.224350  0.266687  0.418571  1
  O  O109  1  0.312056  0.328733  0.178316  1
  O  O110  1  0.172510  0.093367  0.635265  1
  O  O111  1  0.327266  0.344239  0.857215  1
  O  O112  1  0.537373  0.745615  0.125279  1
  O  O113  1  0.303908  0.243553  0.976568  1
  O  O114  1  0.655761  0.983028  0.190549  1
  O  O115  1  0.343937  0.315974  0.751151  1
  O  O116  1  0.381469  0.298923  0.307141  1
  O  O117  1  0.671267  0.983322  0.511649  1
  O  O118  1  0.724562  0.964892  0.858817  1
  O  O119  1  0.266687  0.042337  0.251904  1
  O  O120  1  0.733313  0.957663  0.751904  1
  O  O121  1  0.275438  0.035108  0.358816  1
  O  O122  1  0.328733  0.016678  0.011649  1
  O  O123  1  0.618531  0.701077  0.807141  1
  O  O124  1  0.656063  0.684026  0.251151  1
  O  O125  1  0.344239  0.016972  0.690549  1
  O  O126  1  0.696092  0.756447  0.476568  1
  O  O127  1  0.462627  0.254385  0.625279  1
  O  O128  1  0.672734  0.655761  0.357215  1
  O  O129  1  0.827490  0.906633  0.135265  1
  O  O130  1  0.687944  0.671267  0.678316  1
  O  O131  1  0.775650  0.733313  0.918571  1
  O  O132  1  0.837991  0.853990  0.595632  1
  O  O133  1  0.440113  0.126900  0.915050  1
  O  O134  1  0.478545  0.136348  0.472785  1
  O  O135  1  0.526737  0.278380  0.077786  1
  O  O136  1  0.604663  0.414751  0.442724  1
  O  O137  1  0.759670  0.724562  0.025483  1
  O  O138  1  0.624532  0.471870  0.967130  1
  O  O139  1  0.657803  0.521455  0.139452  1
  O  O140  1  0.686787  0.559887  0.581717  1
  O  O141  1  0.528130  0.152662  0.300464  1
  O  O142  1  0.585249  0.189913  0.776058  1
  O  O143  1  0.585137  0.255362  0.181107  1
  O  O144  1  0.791758  0.537373  0.291946  1
  O  O145  1  0.670226  0.414863  0.847773  1
  O  O146  1  0.751643  0.473263  0.744453  1
  O  O147  1  0.744638  0.329774  0.514440  1
  O  O148  1  0.920857  0.827490  0.301932  1
  O  O149  1  0.984001  0.837991  0.762299  1
  O  O150  1  0.939645  0.696092  0.643234  1
  O  O151  1  0.972037  0.656063  0.417818  1
  O  O152  1  0.721620  0.248357  0.411119  1
  O  O153  1  0.917454  0.618531  0.973807  1
  O  O154  1  0.810087  0.395337  0.109391  1
  O  O155  1  0.745615  0.208242  0.958613  1
  O  O156  1  0.847338  0.375468  0.633797  1
  O  O157  1  0.701077  0.082546  0.640474  1
  O  O158  1  0.684026  0.027963  0.084485  1
  O  O159  1  0.873100  0.313213  0.248384  1
  O  O160  1  0.863652  0.342197  0.806118  1
  O  O161  1  0.756447  0.060355  0.309901  1
  O  O162  1  0.983028  0.327266  0.023882  1
  O  O163  1  0.964892  0.240330  0.692150  1
  O  O164  1  0.853990  0.015999  0.428965  1
  O  O165  1  0.983322  0.312056  0.344982  1
  O  O166  1  0.906633  0.079143  0.968598  1
  O  O167  1  0.957663  0.224350  0.585238  1
