# generated using pymatgen
data_Li6CoOF6
_symmetry_space_group_name_H-M   'P 1'
_cell_length_a   2.91319161
_cell_length_b   2.91319161
_cell_length_c   14.72198609
_cell_angle_alpha   95.67814402
_cell_angle_beta   84.32185598
_cell_angle_gamma   90.00000000
_symmetry_Int_Tables_number   1
_chemical_formula_structural   Li6CoOF6
_chemical_formula_sum   'Li6 Co1 O1 F6'
_cell_volume   123.71175204
_cell_formula_units_Z   1
loop_
 _symmetry_equiv_pos_site_id
 _symmetry_equiv_pos_as_xyz
  1  'x, y, z'
loop_
 _atom_site_type_symbol
 _atom_site_label
 _atom_site_symmetry_multiplicity
 _atom_site_fract_x
 _atom_site_fract_y
 _atom_site_fract_z
 _atom_site_occupancy
  Li  Li0  1  0.003032  0.996968  0.993935  1
  Li  Li1  1  0.854111  0.145889  0.291779  1
  Li  Li2  1  0.282770  0.717230  0.434459  1
  Li  Li3  1  0.713462  0.286538  0.573075  1
  Li  Li4  1  0.143681  0.856319  0.712639  1
  Li  Li5  1  0.574373  0.425627  0.851256  1
  Co  Co6  1  0.428571  0.571429  0.142857  1
  O  O7  1  0.928571  0.071429  0.142857  1
  F  F8  1  0.505133  0.494867  0.989736  1
  F  F9  1  0.352010  0.647990  0.295979  1
  F  F10  1  0.783111  0.216889  0.433779  1
  F  F11  1  0.213402  0.786598  0.573196  1
  F  F12  1  0.643741  0.356259  0.712518  1
  F  F13  1  0.074032  0.925968  0.851935  1
