# generated using pymatgen
data_LiSiNiO4
_symmetry_space_group_name_H-M   'P 1'
_cell_length_a   5.72631553
_cell_length_b   5.72631553
_cell_length_c   5.72631553
_cell_angle_alpha   56.27692699
_cell_angle_beta   93.61798763
_cell_angle_gamma   120.52567570
_symmetry_Int_Tables_number   1
_chemical_formula_structural   LiSiNiO4
_chemical_formula_sum   'Li2 Si2 Ni2 O8'
_cell_volume   128.09642478
_cell_formula_units_Z   2
loop_
 _symmetry_equiv_pos_site_id
 _symmetry_equiv_pos_as_xyz
  1  'x, y, z'
loop_
 _atom_site_type_symbol
 _atom_site_label
 _atom_site_symmetry_multiplicity
 _atom_site_fract_x
 _atom_site_fract_y
 _atom_site_fract_z
 _atom_site_occupancy
  Li  Li0  1  0.998244  0.000000  0.001756  1
  Li  Li1  1  0.251756  0.500000  0.248244  1
  Si  Si2  1  0.625000  0.250000  0.125000  1
  Si  Si3  1  0.625000  0.750000  0.625000  1
  Ni  Ni4  1  0.625000  0.250000  0.625000  1
  Ni  Ni5  1  0.125000  0.750000  0.625000  1
  O  O6  1  0.836929  0.210672  0.373742  1
  O  O7  1  0.406902  0.231742  0.361356  1
  O  O8  1  0.843098  0.731742  0.425159  1
  O  O9  1  0.843098  0.268258  0.888644  1
  O  O10  1  0.413071  0.289328  0.876258  1
  O  O11  1  0.834413  0.710672  0.876258  1
  O  O12  1  0.415587  0.789328  0.373742  1
  O  O13  1  0.406902  0.768258  0.824841  1
