# generated using pymatgen
data_TiMn2Fe3(PO4)6
_symmetry_space_group_name_H-M   'P 1'
_cell_length_a   8.61820111
_cell_length_b   8.61820066
_cell_length_c   8.61820094
_cell_angle_alpha   60.29159117
_cell_angle_beta   60.29159014
_cell_angle_gamma   60.29158850
_symmetry_Int_Tables_number   1
_chemical_formula_structural   TiMn2Fe3(PO4)6
_chemical_formula_sum   'Ti1 Mn2 Fe3 P6 O24'
_cell_volume   455.60791144
_cell_formula_units_Z   1
loop_
 _symmetry_equiv_pos_site_id
 _symmetry_equiv_pos_as_xyz
  1  'x, y, z'
loop_
 _atom_site_type_symbol
 _atom_site_label
 _atom_site_symmetry_multiplicity
 _atom_site_fract_x
 _atom_site_fract_y
 _atom_site_fract_z
 _atom_site_occupancy
  Ti  Ti0  1  0.854822  0.854822  0.854822  1
  Mn  Mn1  1  0.001096  0.001096  0.001096  1
  Mn  Mn2  1  0.500648  0.500648  0.500648  1
  Fe  Fe3  1  0.145500  0.145500  0.145500  1
  Fe  Fe4  1  0.354694  0.354694  0.354694  1
  Fe  Fe5  1  0.645255  0.645255  0.645255  1
  P  P6  1  0.249937  0.543771  0.955537  1
  P  P7  1  0.543771  0.955537  0.249937  1
  P  P8  1  0.955537  0.249937  0.543771  1
  P  P9  1  0.043893  0.749452  0.455677  1
  P  P10  1  0.455677  0.043893  0.749452  1
  P  P11  1  0.749452  0.455677  0.043893  1
  O  O12  1  0.112288  0.311372  0.508084  1
  O  O13  1  0.311372  0.508084  0.112288  1
  O  O14  1  0.059871  0.911961  0.262557  1
  O  O15  1  0.508084  0.112288  0.311372  1
  O  O16  1  0.993789  0.815280  0.618611  1
  O  O17  1  0.238946  0.588127  0.447550  1
  O  O18  1  0.262557  0.059871  0.911961  1
  O  O19  1  0.447550  0.238946  0.588127  1
  O  O20  1  0.187175  0.387402  0.993943  1
  O  O21  1  0.588127  0.447550  0.238946  1
  O  O22  1  0.086368  0.740131  0.936805  1
  O  O23  1  0.387402  0.993943  0.187175  1
  O  O24  1  0.618611  0.993789  0.815280  1
  O  O25  1  0.911961  0.262557  0.059871  1
  O  O26  1  0.411425  0.560865  0.758833  1
  O  O27  1  0.815280  0.618611  0.993789  1
  O  O28  1  0.560865  0.758833  0.411425  1
  O  O29  1  0.740131  0.936805  0.086368  1
  O  O30  1  0.758833  0.411425  0.560865  1
  O  O31  1  0.993943  0.187175  0.387402  1
  O  O32  1  0.495653  0.889454  0.683223  1
  O  O33  1  0.936805  0.086368  0.740131  1
  O  O34  1  0.683223  0.495653  0.889454  1
  O  O35  1  0.889454  0.683223  0.495653  1
