# generated using pymatgen
data_LiTiCoO4
_symmetry_space_group_name_H-M   'P 1'
_cell_length_a   5.96638688
_cell_length_b   5.96638880
_cell_length_c   8.17972067
_cell_angle_alpha   89.99989646
_cell_angle_beta   89.99935714
_cell_angle_gamma   90.00171386
_symmetry_Int_Tables_number   1
_chemical_formula_structural   LiTiCoO4
_chemical_formula_sum   'Li4 Ti4 Co4 O16'
_cell_volume   291.17992835
_cell_formula_units_Z   4
loop_
 _symmetry_equiv_pos_site_id
 _symmetry_equiv_pos_as_xyz
  1  'x, y, z'
loop_
 _atom_site_type_symbol
 _atom_site_label
 _atom_site_symmetry_multiplicity
 _atom_site_fract_x
 _atom_site_fract_y
 _atom_site_fract_z
 _atom_site_occupancy
  Li  Li0  1  0.000016  0.227328  -0.000001  1
  Li  Li1  1  0.000001  0.772666  0.500020  1
  Li  Li2  1  0.227335  0.999987  0.249973  1
  Li  Li3  1  0.772676  0.999972  0.750008  1
  Ti  Ti4  1  0.221451  0.500014  0.250005  1
  Ti  Ti5  1  0.499989  0.221430  -0.000015  1
  Ti  Ti6  1  0.499984  0.778551  0.500006  1
  Ti  Ti7  1  0.778573  0.500009  0.750004  1
  Co  Co8  1  0.257470  0.257474  0.625002  1
  Co  Co9  1  0.257502  0.742495  0.874995  1
  Co  Co10  1  0.742515  0.257480  0.375005  1
  Co  Co11  1  0.742522  0.742527  0.124998  1
  O  O12  1  0.011665  0.267567  0.259428  1
  O  O13  1  0.011687  0.732440  0.240579  1
  O  O14  1  0.267534  0.011698  0.990578  1
  O  O15  1  0.267584  0.988331  0.509431  1
  O  O16  1  0.264324  0.483461  0.010615  1
  O  O17  1  0.264287  0.516528  0.489380  1
  O  O18  1  0.483482  0.264302  0.239384  1
  O  O19  1  0.483465  0.735700  0.260625  1
  O  O20  1  0.516516  0.264292  0.760623  1
  O  O21  1  0.516533  0.735675  0.739379  1
  O  O22  1  0.735698  0.516513  0.510621  1
  O  O23  1  0.735695  0.483479  0.989372  1
  O  O24  1  0.732431  0.011686  0.009413  1
  O  O25  1  0.732430  0.988338  0.490586  1
  O  O26  1  0.988331  0.267593  0.740575  1
  O  O27  1  0.988304  0.732465  0.759411  1
