# generated using pymatgen
data_LiMn(PO3)4
_symmetry_space_group_name_H-M   'P 1'
_cell_length_a   6.98936412
_cell_length_b   13.15669422
_cell_length_c   6.98936412
_cell_angle_alpha   67.39626233
_cell_angle_beta   72.51364191
_cell_angle_gamma   112.60373767
_symmetry_Int_Tables_number   1
_chemical_formula_structural   LiMn(PO3)4
_chemical_formula_sum   'Li2 Mn2 P8 O24'
_cell_volume   465.90592386
_cell_formula_units_Z   2
loop_
 _symmetry_equiv_pos_site_id
 _symmetry_equiv_pos_as_xyz
  1  'x, y, z'
loop_
 _atom_site_type_symbol
 _atom_site_label
 _atom_site_symmetry_multiplicity
 _atom_site_fract_x
 _atom_site_fract_y
 _atom_site_fract_z
 _atom_site_occupancy
  Li  Li0  1  0.897864  0.750000  0.897864  1
  Li  Li1  1  0.102136  0.250000  0.102136  1
  Mn  Mn2  1  0.632531  0.750000  0.632531  1
  Mn  Mn3  1  0.367469  0.250000  0.367469  1
  P  P4  1  0.307020  0.022465  0.811964  1
  P  P5  1  0.188036  0.522465  0.692980  1
  P  P6  1  0.230080  0.959722  0.324756  1
  P  P7  1  0.324756  0.540278  0.230080  1
  P  P8  1  0.675244  0.459722  0.769920  1
  P  P9  1  0.769920  0.040278  0.675244  1
  P  P10  1  0.811964  0.477535  0.307020  1
  P  P11  1  0.692980  0.977535  0.188036  1
  O  O12  1  0.166682  0.899429  0.826781  1
  O  O13  1  0.299469  0.637463  0.720791  1
  O  O14  1  0.979955  0.832959  0.533988  1
  O  O15  1  0.173219  0.399429  0.833318  1
  O  O16  1  0.686563  0.916872  0.679804  1
  O  O17  1  0.279209  0.137463  0.700531  1
  O  O18  1  0.075659  0.512320  0.247400  1
  O  O19  1  0.403956  0.908649  0.336032  1
  O  O20  1  0.336032  0.591351  0.403956  1
  O  O21  1  0.247400  0.987680  0.075659  1
  O  O22  1  0.466012  0.332959  0.020045  1
  O  O23  1  0.679804  0.583128  0.686563  1
  O  O24  1  0.320196  0.416872  0.313437  1
  O  O25  1  0.533988  0.667041  0.979955  1
  O  O26  1  0.752600  0.012320  0.924341  1
  O  O27  1  0.663968  0.408649  0.596044  1
  O  O28  1  0.596044  0.091351  0.663968  1
  O  O29  1  0.924341  0.487680  0.752600  1
  O  O30  1  0.720791  0.862537  0.299469  1
  O  O31  1  0.313437  0.083128  0.320196  1
  O  O32  1  0.826781  0.600571  0.166682  1
  O  O33  1  0.020045  0.167041  0.466012  1
  O  O34  1  0.700531  0.362537  0.279209  1
  O  O35  1  0.833318  0.100571  0.173219  1
