# generated using pymatgen
data_LiMn2OF5
_symmetry_space_group_name_H-M   'P 1'
_cell_length_a   4.67435343
_cell_length_b   17.46189716
_cell_length_c   5.02323210
_cell_angle_alpha   90.00000000
_cell_angle_beta   90.00000000
_cell_angle_gamma   90.00000000
_symmetry_Int_Tables_number   1
_chemical_formula_structural   LiMn2OF5
_chemical_formula_sum   'Li4 Mn8 O4 F20'
_cell_volume   410.01166995
_cell_formula_units_Z   4
loop_
 _symmetry_equiv_pos_site_id
 _symmetry_equiv_pos_as_xyz
  1  'x, y, z'
loop_
 _atom_site_type_symbol
 _atom_site_label
 _atom_site_symmetry_multiplicity
 _atom_site_fract_x
 _atom_site_fract_y
 _atom_site_fract_z
 _atom_site_occupancy
  Li  Li0  1  0.003995  0.384449  0.245565  1
  Li  Li1  1  0.003995  0.615551  0.745565  1
  Li  Li2  1  0.496005  0.884449  0.245565  1
  Li  Li3  1  0.496005  0.115551  0.745565  1
  Mn  Mn4  1  0.027561  0.278234  0.755545  1
  Mn  Mn5  1  0.994178  0.055520  0.251743  1
  Mn  Mn6  1  0.027561  0.721766  0.255545  1
  Mn  Mn7  1  0.994178  0.944480  0.751743  1
  Mn  Mn8  1  0.505822  0.555520  0.251743  1
  Mn  Mn9  1  0.472439  0.778234  0.755545  1
  Mn  Mn10  1  0.505822  0.444480  0.751743  1
  Mn  Mn11  1  0.472439  0.221766  0.255545  1
  O  O12  1  0.245010  0.289634  0.065890  1
  O  O13  1  0.245010  0.710366  0.565890  1
  O  O14  1  0.254990  0.210366  0.565890  1
  O  O15  1  0.254990  0.789634  0.065890  1
  F  F16  1  0.233243  0.628954  0.082966  1
  F  F17  1  0.233243  0.371046  0.582966  1
  F  F18  1  0.223623  0.040153  0.572628  1
  F  F19  1  0.223623  0.959847  0.072628  1
  F  F20  1  0.276377  0.459847  0.072628  1
  F  F21  1  0.276377  0.540153  0.572628  1
  F  F22  1  0.266757  0.871046  0.582966  1
  F  F23  1  0.266757  0.128954  0.082966  1
  F  F24  1  0.735734  0.791359  0.440169  1
  F  F25  1  0.735734  0.208641  0.940169  1
  F  F26  1  0.712341  0.866068  0.912422  1
  F  F27  1  0.712341  0.133932  0.412422  1
  F  F28  1  0.726594  0.462513  0.423070  1
  F  F29  1  0.726594  0.537487  0.923070  1
  F  F30  1  0.773406  0.037487  0.923070  1
  F  F31  1  0.773406  0.962513  0.423070  1
  F  F32  1  0.787659  0.366068  0.912422  1
  F  F33  1  0.787659  0.633932  0.412422  1
  F  F34  1  0.764266  0.291359  0.440169  1
  F  F35  1  0.764266  0.708641  0.940169  1
