# generated using pymatgen
data_MnH12C2NCl3O2
_symmetry_space_group_name_H-M   'P 1'
_cell_length_a   10.64589870
_cell_length_b   10.64589870
_cell_length_c   9.24874162
_cell_angle_alpha   90.70336693
_cell_angle_beta   89.29663307
_cell_angle_gamma   109.83221073
_symmetry_Int_Tables_number   1
_chemical_formula_structural   MnH12C2NCl3O2
_chemical_formula_sum   'Mn4 H48 C8 N4 Cl12 O8'
_cell_volume   985.92765136
_cell_formula_units_Z   4
loop_
 _symmetry_equiv_pos_site_id
 _symmetry_equiv_pos_as_xyz
  1  'x, y, z'
loop_
 _atom_site_type_symbol
 _atom_site_label
 _atom_site_symmetry_multiplicity
 _atom_site_fract_x
 _atom_site_fract_y
 _atom_site_fract_z
 _atom_site_occupancy
  Mn  Mn0  1  0.734459  0.238295  0.785777  1
  Mn  Mn1  1  0.238295  0.734459  0.714223  1
  Mn  Mn2  1  0.265541  0.761705  0.214223  1
  Mn  Mn3  1  0.761705  0.265541  0.285777  1
  H  H4  1  0.142075  0.388375  0.583588  1
  H  H5  1  0.388375  0.142075  0.916412  1
  H  H6  1  0.857925  0.611625  0.416412  1
  H  H7  1  0.611625  0.857925  0.083588  1
  H  H8  1  0.094988  0.335162  0.414273  1
  H  H9  1  0.335162  0.094988  0.085727  1
  H  H10  1  0.905012  0.664838  0.585727  1
  H  H11  1  0.664838  0.905012  0.914273  1
  H  H12  1  0.942830  0.255779  0.968651  1
  H  H13  1  0.255779  0.942830  0.531349  1
  H  H14  1  0.057170  0.744221  0.031349  1
  H  H15  1  0.744221  0.057170  0.468651  1
  H  H16  1  0.008766  0.354163  0.843203  1
  H  H17  1  0.354163  0.008766  0.656797  1
  H  H18  1  0.991234  0.645837  0.156797  1
  H  H19  1  0.645837  0.991234  0.343203  1
  H  H20  1  0.774992  0.454072  0.971882  1
  H  H21  1  0.454072  0.774992  0.528118  1
  H  H22  1  0.225008  0.545928  0.028118  1
  H  H23  1  0.545928  0.225008  0.471882  1
  H  H24  1  0.846728  0.518735  0.828258  1
  H  H25  1  0.518735  0.846728  0.671742  1
  H  H26  1  0.153272  0.481265  0.171742  1
  H  H27  1  0.481265  0.153272  0.328258  1
  H  H28  1  0.179861  0.170034  0.621619  1
  H  H29  1  0.170034  0.179861  0.878381  1
  H  H30  1  0.820139  0.829966  0.378381  1
  H  H31  1  0.829966  0.820139  0.121619  1
  H  H32  1  0.101231  0.122071  0.450640  1
  H  H33  1  0.122071  0.101231  0.049360  1
  H  H34  1  0.898769  0.877929  0.549360  1
  H  H35  1  0.877929  0.898769  0.950640  1
  H  H36  1  0.009452  0.161516  0.599434  1
  H  H37  1  0.161516  0.009452  0.900566  1
  H  H38  1  0.990548  0.838484  0.400566  1
  H  H39  1  0.838484  0.990548  0.099434  1
  H  H40  1  0.316674  0.303942  0.380436  1
  H  H41  1  0.303942  0.316674  0.119564  1
  H  H42  1  0.683326  0.696058  0.619564  1
  H  H43  1  0.696058  0.683326  0.880436  1
  H  H44  1  0.358544  0.384741  0.552447  1
  H  H45  1  0.384741  0.358544  0.947553  1
  H  H46  1  0.641456  0.615259  0.447553  1
  H  H47  1  0.615259  0.641456  0.052447  1
  H  H48  1  0.321676  0.473876  0.404034  1
  H  H49  1  0.473876  0.321676  0.095966  1
  H  H50  1  0.678324  0.526124  0.595966  1
  H  H51  1  0.526124  0.678324  0.904034  1
  C  C52  1  0.107446  0.185057  0.546808  1
  C  C53  1  0.185057  0.107446  0.953192  1
  C  C54  1  0.892554  0.814943  0.453192  1
  C  C55  1  0.814943  0.892554  0.046808  1
  C  C56  1  0.298137  0.376344  0.455433  1
  C  C57  1  0.376344  0.298137  0.044567  1
  C  C58  1  0.701862  0.623656  0.544567  1
  C  C59  1  0.623656  0.701862  0.955433  1
  N  N60  1  0.154653  0.327064  0.499860  1
  N  N61  1  0.327064  0.154653  0.000140  1
  N  N62  1  0.845347  0.672936  0.500140  1
  N  N63  1  0.672936  0.845347  -0.000140  1
  Cl  Cl64  1  0.841535  0.343118  0.545953  1
  Cl  Cl65  1  0.343118  0.841535  0.954047  1
  Cl  Cl66  1  0.158465  0.656882  0.454047  1
  Cl  Cl67  1  0.656882  0.158465  0.045953  1
  Cl  Cl68  1  0.716412  0.002218  0.702561  1
  Cl  Cl69  1  0.002218  0.716412  0.797439  1
  Cl  Cl70  1  0.283588  0.997782  0.297439  1
  Cl  Cl71  1  0.997782  0.283588  0.202561  1
  Cl  Cl72  1  0.500315  0.210403  0.703504  1
  Cl  Cl73  1  0.210403  0.500315  0.796496  1
  Cl  Cl74  1  0.499685  0.789597  0.296496  1
  Cl  Cl75  1  0.789597  0.499685  0.203504  1
  O  O76  1  0.940330  0.266288  0.862422  1
  O  O77  1  0.266288  0.940330  0.637578  1
  O  O78  1  0.059670  0.733712  0.137578  1
  O  O79  1  0.733712  0.059670  0.362422  1
  O  O80  1  0.768051  0.445496  0.864830  1
  O  O81  1  0.445496  0.768051  0.635170  1
  O  O82  1  0.231949  0.554504  0.135170  1
  O  O83  1  0.554504  0.231949  0.364830  1
