# generated using pymatgen
data_Li3Co2(PO4)3
_symmetry_space_group_name_H-M   'P 1'
_cell_length_a   8.71296231
_cell_length_b   12.07007666
_cell_length_c   8.71419220
_cell_angle_alpha   90.00000000
_cell_angle_beta   90.00000000
_cell_angle_gamma   90.92744078
_symmetry_Int_Tables_number   1
_chemical_formula_structural   Li3Co2(PO4)3
_chemical_formula_sum   'Li12 Co8 P12 O48'
_cell_volume   916.31775087
_cell_formula_units_Z   4
loop_
 _symmetry_equiv_pos_site_id
 _symmetry_equiv_pos_as_xyz
  1  'x, y, z'
loop_
 _atom_site_type_symbol
 _atom_site_label
 _atom_site_symmetry_multiplicity
 _atom_site_fract_x
 _atom_site_fract_y
 _atom_site_fract_z
 _atom_site_occupancy
  Li  Li0  1  0.058784  0.709795  0.062435  1
  Li  Li1  1  0.209802  0.179259  0.775123  1
  Li  Li2  1  0.205160  0.817919  0.731586  1
  Li  Li3  1  0.294840  0.682081  0.231586  1
  Li  Li4  1  0.290198  0.320741  0.275123  1
  Li  Li5  1  0.441216  0.790205  0.562435  1
  Li  Li6  1  0.558784  0.209795  0.437565  1
  Li  Li7  1  0.709802  0.679259  0.724877  1
  Li  Li8  1  0.705160  0.317919  0.768414  1
  Li  Li9  1  0.794840  0.182081  0.268414  1
  Li  Li10  1  0.790198  0.820741  0.224877  1
  Li  Li11  1  0.941216  0.290205  0.937565  1
  Co  Co12  1  0.239130  0.603162  0.542103  1
  Co  Co13  1  0.260870  0.896838  0.042103  1
  Co  Co14  1  0.244467  0.108784  0.459786  1
  Co  Co15  1  0.255533  0.391216  0.959786  1
  Co  Co16  1  0.744467  0.608784  0.040214  1
  Co  Co17  1  0.755533  0.891216  0.540214  1
  Co  Co18  1  0.739130  0.103162  0.957897  1
  Co  Co19  1  0.760870  0.396838  0.457897  1
  P  P20  1  0.043004  0.499756  0.245265  1
  P  P21  1  0.105732  0.850835  0.391692  1
  P  P22  1  0.107314  0.147762  0.106939  1
  P  P23  1  0.392686  0.352238  0.606939  1
  P  P24  1  0.394268  0.649165  0.891692  1
  P  P25  1  0.456996  0.000244  0.745265  1
  P  P26  1  0.543004  0.999756  0.254735  1
  P  P27  1  0.605732  0.350835  0.108308  1
  P  P28  1  0.607314  0.647762  0.393061  1
  P  P29  1  0.892686  0.852238  0.893061  1
  P  P30  1  0.894268  0.149165  0.608308  1
  P  P31  1  0.956996  0.500244  0.754735  1
  O  O32  1  0.045617  0.429122  0.870675  1
  O  O33  1  0.061123  0.581622  0.665509  1
  O  O34  1  0.070525  0.852944  0.891442  1
  O  O35  1  0.068389  0.167838  0.592480  1
  O  O36  1  0.131978  0.584600  0.347445  1
  O  O37  1  0.147712  0.974454  0.418306  1
  O  O38  1  0.150620  0.815653  0.225399  1
  O  O39  1  0.151564  0.235196  0.980595  1
  O  O40  1  0.167789  0.429299  0.166295  1
  O  O41  1  0.170483  0.183229  0.263999  1
  O  O42  1  0.171805  0.036116  0.056079  1
  O  O43  1  0.200640  0.783886  0.510812  1
  O  O44  1  0.299360  0.716114  0.010812  1
  O  O45  1  0.328195  0.463884  0.556079  1
  O  O46  1  0.329517  0.316771  0.763999  1
  O  O47  1  0.332211  0.070701  0.666295  1
  O  O48  1  0.348436  0.264804  0.480595  1
  O  O49  1  0.349380  0.684347  0.725399  1
  O  O50  1  0.352288  0.525546  0.918306  1
  O  O51  1  0.368022  0.915400  0.847445  1
  O  O52  1  0.429475  0.647056  0.391442  1
  O  O53  1  0.431611  0.332162  0.092480  1
  O  O54  1  0.438877  0.918378  0.165509  1
  O  O55  1  0.454383  0.070878  0.370675  1
  O  O56  1  0.545617  0.929122  0.629325  1
  O  O57  1  0.561122  0.081622  0.834491  1
  O  O58  1  0.568389  0.667838  0.907520  1
  O  O59  1  0.570525  0.352944  0.608558  1
  O  O60  1  0.631978  0.084600  0.152555  1
  O  O61  1  0.647712  0.474454  0.081694  1
  O  O62  1  0.650620  0.315653  0.274601  1
  O  O63  1  0.651564  0.735196  0.519405  1
  O  O64  1  0.667789  0.929299  0.333705  1
  O  O65  1  0.670483  0.683229  0.236001  1
  O  O66  1  0.671805  0.536116  0.443921  1
  O  O67  1  0.700640  0.283886  0.989188  1
  O  O68  1  0.799360  0.216114  0.489188  1
  O  O69  1  0.828195  0.963884  0.943921  1
  O  O70  1  0.829517  0.816771  0.736001  1
  O  O71  1  0.832211  0.570701  0.833705  1
  O  O72  1  0.848436  0.764804  0.019405  1
  O  O73  1  0.849380  0.184347  0.774601  1
  O  O74  1  0.852288  0.025546  0.581694  1
  O  O75  1  0.868022  0.415400  0.652555  1
  O  O76  1  0.931611  0.832162  0.407520  1
  O  O77  1  0.929475  0.147056  0.108558  1
  O  O78  1  0.938878  0.418378  0.334491  1
  O  O79  1  0.954383  0.570878  0.129325  1
