# generated using pymatgen
data_Cs2O2
_symmetry_space_group_name_H-M   'P 1'
_cell_length_a   4.39469302
_cell_length_b   5.49975099
_cell_length_c   5.49975099
_cell_angle_alpha   73.46211097
_cell_angle_beta   66.45084805
_cell_angle_gamma   66.45084799
_symmetry_Int_Tables_number   1
_chemical_formula_structural   Cs2O2
_chemical_formula_sum   'Cs2 O2'
_cell_volume   110.46530884
_cell_formula_units_Z   1
loop_
 _symmetry_equiv_pos_site_id
 _symmetry_equiv_pos_as_xyz
  1  'x, y, z'
loop_
 _atom_site_type_symbol
 _atom_site_label
 _atom_site_symmetry_multiplicity
 _atom_site_fract_x
 _atom_site_fract_y
 _atom_site_fract_z
 _atom_site_occupancy
  O  O0  1  0.000000  0.615351  0.384649  1
  O  O1  1  0.000000  0.384649  0.615351  1
  Cs  Cs2  1  0.743724  0.256276  0.256276  1
  Cs  Cs3  1  0.256276  0.743724  0.743724  1
