# generated using pymatgen
data_CaB2(H2O3)2
_symmetry_space_group_name_H-M   'P 1'
_cell_length_a   7.02523326
_cell_length_b   9.91680093
_cell_length_c   12.45747361
_cell_angle_alpha   90.00000000
_cell_angle_beta   90.00000000
_cell_angle_gamma   97.26707085
_symmetry_Int_Tables_number   1
_chemical_formula_structural   CaB2(H2O3)2
_chemical_formula_sum   'Ca8 B16 H32 O48'
_cell_volume   860.91381747
_cell_formula_units_Z   8
loop_
 _symmetry_equiv_pos_site_id
 _symmetry_equiv_pos_as_xyz
  1  'x, y, z'
loop_
 _atom_site_type_symbol
 _atom_site_label
 _atom_site_symmetry_multiplicity
 _atom_site_fract_x
 _atom_site_fract_y
 _atom_site_fract_z
 _atom_site_occupancy
  Ca  Ca0  1  0.220069  0.635500  0.100709  1
  Ca  Ca1  1  0.279931  0.864500  0.600709  1
  Ca  Ca2  1  0.198255  0.261561  0.239029  1
  Ca  Ca3  1  0.301745  0.238439  0.739029  1
  Ca  Ca4  1  0.698255  0.761561  0.260971  1
  Ca  Ca5  1  0.801745  0.738439  0.760971  1
  Ca  Ca6  1  0.720069  0.135500  0.399291  1
  Ca  Ca7  1  0.779931  0.364500  0.899291  1
  B  B8  1  0.098507  0.904906  0.197291  1
  B  B9  1  0.184023  0.734808  0.335371  1
  B  B10  1  0.174626  0.520103  0.848597  1
  B  B11  1  0.325374  0.979897  0.348597  1
  B  B12  1  0.315977  0.765192  0.835371  1
  B  B13  1  0.256931  0.336713  0.991002  1
  B  B14  1  0.243069  0.163287  0.491002  1
  B  B15  1  0.401493  0.595094  0.697291  1
  B  B16  1  0.598507  0.404906  0.302709  1
  B  B17  1  0.756931  0.836713  0.508998  1
  B  B18  1  0.743069  0.663287  0.008998  1
  B  B19  1  0.684023  0.234808  0.164629  1
  B  B20  1  0.674626  0.020103  0.651403  1
  B  B21  1  0.825374  0.479897  0.151403  1
  B  B22  1  0.815977  0.265192  0.664629  1
  B  B23  1  0.901493  0.095094  0.802709  1
  H  H24  1  0.021023  0.510348  0.274986  1
  H  H25  1  0.131748  0.913716  0.810331  1
  H  H26  1  0.007812  0.237699  0.052812  1
  H  H27  1  0.048985  0.292146  0.476553  1
  H  H28  1  0.014437  0.081239  0.585175  1
  H  H29  1  0.160372  0.589878  0.450418  1
  H  H30  1  0.102895  0.091719  0.920013  1
  H  H31  1  0.181654  0.533001  0.596660  1
  H  H32  1  0.318346  0.966999  0.096660  1
  H  H33  1  0.339628  0.910122  0.950418  1
  H  H34  1  0.368252  0.586284  0.310331  1
  H  H35  1  0.478977  0.989652  0.774986  1
  H  H36  1  0.397105  0.408281  0.420013  1
  H  H37  1  0.507812  0.737699  0.447188  1
  H  H38  1  0.485563  0.418761  0.085175  1
  H  H39  1  0.548985  0.792146  0.023447  1
  H  H40  1  0.451015  0.207854  0.976553  1
  H  H41  1  0.514437  0.581239  0.914825  1
  H  H42  1  0.492188  0.262301  0.552812  1
  H  H43  1  0.602895  0.591719  0.579987  1
  H  H44  1  0.521023  0.010348  0.225014  1
  H  H45  1  0.631748  0.413716  0.689669  1
  H  H46  1  0.660372  0.089878  0.049582  1
  H  H47  1  0.681654  0.033001  0.903340  1
  H  H48  1  0.818346  0.466999  0.403340  1
  H  H49  1  0.897105  0.908281  0.079987  1
  H  H50  1  0.839628  0.410122  0.549582  1
  H  H51  1  0.985563  0.918761  0.414825  1
  H  H52  1  0.951015  0.707854  0.523447  1
  H  H53  1  0.992188  0.762301  0.947188  1
  H  H54  1  0.868252  0.086284  0.189669  1
  H  H55  1  0.978977  0.489652  0.725014  1
  O  O56  1  0.055292  0.773046  0.252263  1
  O  O57  1  0.016384  0.463008  0.205230  1
  O  O58  1  0.070995  0.623089  0.399536  1
  O  O59  1  0.149559  0.821233  0.781654  1
  O  O60  1  0.088878  0.221286  0.428865  1
  O  O61  1  0.131493  0.407633  0.925571  1
  O  O62  1  0.225228  0.884991  0.101497  1
  O  O63  1  0.091685  0.063207  0.844215  1
  O  O64  1  0.254135  0.851193  0.405543  1
  O  O65  1  0.139642  0.217195  0.043543  1
  O  O66  1  0.245865  0.648807  0.905543  1
  O  O67  1  0.152271  0.074485  0.579261  1
  O  O68  1  0.274772  0.615009  0.601497  1
  O  O69  1  0.187194  0.013763  0.266374  1
  O  O70  1  0.350441  0.678767  0.281654  1
  O  O71  1  0.312806  0.486237  0.766374  1
  O  O72  1  0.429005  0.876911  0.899536  1
  O  O73  1  0.347729  0.425515  0.079261  1
  O  O74  1  0.444708  0.726954  0.752263  1
  O  O75  1  0.360358  0.282805  0.543543  1
  O  O76  1  0.408315  0.436793  0.344215  1
  O  O77  1  0.516384  0.963008  0.294770  1
  O  O78  1  0.368507  0.092367  0.425571  1
  O  O79  1  0.411122  0.278714  0.928865  1
  O  O80  1  0.588878  0.721286  0.071135  1
  O  O81  1  0.631493  0.907633  0.574429  1
  O  O82  1  0.483616  0.036992  0.705230  1
  O  O83  1  0.591685  0.563207  0.655785  1
  O  O84  1  0.639642  0.717195  0.456457  1
  O  O85  1  0.555292  0.273046  0.247737  1
  O  O86  1  0.652271  0.574485  0.920739  1
  O  O87  1  0.570995  0.123089  0.100464  1
  O  O88  1  0.687194  0.513763  0.233626  1
  O  O89  1  0.649559  0.321233  0.718346  1
  O  O90  1  0.812806  0.986237  0.733626  1
  O  O91  1  0.725228  0.384991  0.398503  1
  O  O92  1  0.847729  0.925515  0.420739  1
  O  O93  1  0.754135  0.351193  0.094457  1
  O  O94  1  0.860358  0.782805  0.956457  1
  O  O95  1  0.745865  0.148807  0.594457  1
  O  O96  1  0.908315  0.936793  0.155785  1
  O  O97  1  0.774772  0.115009  0.898503  1
  O  O98  1  0.868507  0.592367  0.074429  1
  O  O99  1  0.911122  0.778714  0.571135  1
  O  O100  1  0.850441  0.178767  0.218346  1
  O  O101  1  0.929005  0.376911  0.600464  1
  O  O102  1  0.983616  0.536992  0.794770  1
  O  O103  1  0.944708  0.226954  0.747737  1
