# generated using pymatgen
data_Zr2N2O
_symmetry_space_group_name_H-M   'P 1'
_cell_length_a   8.88836411
_cell_length_b   8.85358170
_cell_length_c   8.88288976
_cell_angle_alpha   109.47042113
_cell_angle_beta   109.43537254
_cell_angle_gamma   109.47410267
_symmetry_Int_Tables_number   1
_chemical_formula_structural   Zr2N2O
_chemical_formula_sum   'Zr16 N16 O8'
_cell_volume   538.33673510
_cell_formula_units_Z   8
loop_
 _symmetry_equiv_pos_site_id
 _symmetry_equiv_pos_as_xyz
  1  'x, y, z'
loop_
 _atom_site_type_symbol
 _atom_site_label
 _atom_site_symmetry_multiplicity
 _atom_site_fract_x
 _atom_site_fract_y
 _atom_site_fract_z
 _atom_site_occupancy
  Zr  Zr0  1  0.783611  0.245129  0.041736  1
  Zr  Zr1  1  0.990840  0.997812  0.987249  1
  Zr  Zr2  1  0.483440  0.991517  0.490995  1
  Zr  Zr3  1  0.502057  0.491207  0.999950  1
  Zr  Zr4  1  0.535855  0.283191  0.248907  1
  Zr  Zr5  1  0.974840  0.216369  0.758903  1
  Zr  Zr6  1  0.745043  0.461320  0.714147  1
  Zr  Zr7  1  0.749504  0.963889  0.210631  1
  Zr  Zr8  1  0.294097  0.254468  0.542574  1
  Zr  Zr9  1  0.713852  0.752986  0.463031  1
  Zr  Zr10  1  0.249665  0.034665  0.778469  1
  Zr  Zr11  1  0.259994  0.539106  0.281989  1
  Zr  Zr12  1  0.031414  0.784587  0.246938  1
  Zr  Zr13  1  0.005076  0.502138  0.512472  1
  Zr  Zr14  1  0.468478  0.720313  0.749507  1
  Zr  Zr15  1  0.201824  0.741041  0.958752  1
  N  N16  1  0.766090  0.230012  0.276958  1
  N  N17  1  0.774782  0.732710  0.241270  1
  N  N18  1  0.491589  0.228456  0.454777  1
  N  N19  1  0.457711  0.486287  0.229757  1
  N  N20  1  0.042287  0.272810  0.032667  1
  N  N21  1  0.963958  0.950368  0.727072  1
  N  N22  1  0.535021  0.259559  0.985021  1
  N  N23  1  0.276135  0.759277  0.225537  1
  N  N24  1  0.956980  0.730985  0.968723  1
  N  N25  1  0.543447  0.513820  0.771754  1
  N  N26  1  0.511466  0.774168  0.546882  1
  N  N27  1  0.227484  0.275641  0.762834  1
  N  N28  1  0.006045  0.464440  0.734621  1
  N  N29  1  0.729284  0.965406  0.960005  1
  N  N30  1  0.259853  0.989575  0.530460  1
  N  N31  1  0.239009  0.769862  0.728205  1
  O  O32  1  0.738407  0.012401  0.467761  1
  O  O33  1  0.273430  0.036493  0.046841  1
  O  O34  1  0.990792  0.536807  0.264623  1
  O  O35  1  0.775536  0.546814  0.510548  1
  O  O36  1  0.469227  0.745535  0.018120  1
  O  O37  1  0.035925  0.050564  0.275084  1
  O  O38  1  0.726863  0.239398  0.771666  1
  O  O39  1  0.219090  0.448875  0.482561  1
