# generated using pymatgen
data_Li5Fe8(BO3)8
_symmetry_space_group_name_H-M   'P 1'
_cell_length_a   5.25555046
_cell_length_b   5.25798571
_cell_length_c   20.20398808
_cell_angle_alpha   89.13720991
_cell_angle_beta   89.96815533
_cell_angle_gamma   60.10109767
_symmetry_Int_Tables_number   1
_chemical_formula_structural   Li5Fe8(BO3)8
_chemical_formula_sum   'Li5 Fe8 B8 O24'
_cell_volume   483.93125293
_cell_formula_units_Z   1
loop_
 _symmetry_equiv_pos_site_id
 _symmetry_equiv_pos_as_xyz
  1  'x, y, z'
loop_
 _atom_site_type_symbol
 _atom_site_label
 _atom_site_symmetry_multiplicity
 _atom_site_fract_x
 _atom_site_fract_y
 _atom_site_fract_z
 _atom_site_occupancy
  Li  Li0  1  0.326791  0.652450  0.670381  1
  Li  Li1  1  0.354346  0.667661  0.919876  1
  Li  Li2  1  0.354625  0.666728  0.417153  1
  Li  Li3  1  0.667618  0.342088  0.548868  1
  Li  Li4  1  0.659439  0.340535  0.053536  1
  Fe  Fe5  1  0.986303  0.675526  0.809692  1
  Fe  Fe6  1  0.984267  0.676859  0.308800  1
  Fe  Fe7  1  0.683194  0.005396  0.935479  1
  Fe  Fe8  1  0.683857  0.001250  0.435319  1
  Fe  Fe9  1  0.323654  0.007008  0.560419  1
  Fe  Fe10  1  0.321220  0.995034  0.060097  1
  Fe  Fe11  1  0.990396  0.322373  0.687029  1
  Fe  Fe12  1  0.006263  0.331525  0.182593  1
  B  B13  1  0.007713  0.332230  0.936345  1
  B  B14  1  0.006971  0.329512  0.435922  1
  B  B15  1  0.325992  0.009021  0.813030  1
  B  B16  1  0.326717  0.009776  0.310982  1
  B  B17  1  0.660203  0.998717  0.685675  1
  B  B18  1  0.664870  0.001841  0.184385  1
  B  B19  1  0.996909  0.671047  0.561278  1
  B  B20  1  0.994825  0.672336  0.060171  1
  O  O21  1  0.097653  0.275878  0.790768  1
  O  O22  1  0.103270  0.274794  0.285108  1
  O  O23  1  0.262480  0.072491  0.952684  1
  O  O24  1  0.026682  0.576912  0.913408  1
  O  O25  1  0.260858  0.068240  0.452179  1
  O  O26  1  0.027631  0.572518  0.412568  1
  O  O27  1  0.595091  0.982638  0.829251  1
  O  O28  1  0.265238  0.658683  0.567423  1
  O  O29  1  0.592031  0.987382  0.329531  1
  O  O30  1  0.262543  0.652513  0.056370  1
  O  O31  1  0.288557  0.769760  0.820467  1
  O  O32  1  0.281711  0.777352  0.321049  1
  O  O33  1  0.650036  0.262642  0.679671  1
  O  O34  1  0.708424  0.233961  0.176631  1
  O  O35  1  0.737352  0.354061  0.944453  1
  O  O36  1  0.418007  0.971747  0.668706  1
  O  O37  1  0.734231  0.354634  0.443934  1
  O  O38  1  0.402258  0.017934  0.166655  1
  O  O39  1  0.977488  0.422408  0.577157  1
  O  O40  1  0.973377  0.426365  0.082061  1
  O  O41  1  0.747635  0.928540  0.540794  1
  O  O42  1  0.738771  0.927614  0.041815  1
  O  O43  1  0.923161  0.746422  0.707618  1
  O  O44  1  0.891319  0.732436  0.209692  1
