# generated using pymatgen
data_NaMnPCO7
_symmetry_space_group_name_H-M   'P 1'
_cell_length_a   8.10642241
_cell_length_b   8.12357210
_cell_length_c   10.66213770
_cell_angle_alpha   70.59909530
_cell_angle_beta   109.27883001
_cell_angle_gamma   79.52813535
_symmetry_Int_Tables_number   1
_chemical_formula_structural   NaMnPCO7
_chemical_formula_sum   'Na4 Mn4 P4 C4 O28'
_cell_volume   590.69074896
_cell_formula_units_Z   4
loop_
 _symmetry_equiv_pos_site_id
 _symmetry_equiv_pos_as_xyz
  1  'x, y, z'
loop_
 _atom_site_type_symbol
 _atom_site_label
 _atom_site_symmetry_multiplicity
 _atom_site_fract_x
 _atom_site_fract_y
 _atom_site_fract_z
 _atom_site_occupancy
  Na  Na0  1  0.021663  0.019382  0.754389  1
  Na  Na1  1  0.730399  0.730146  0.754974  1
  Na  Na2  1  0.269601  0.269854  0.245026  1
  Na  Na3  1  0.978337  0.980618  0.245611  1
  Mn  Mn4  1  0.587465  0.163130  0.656451  1
  Mn  Mn5  1  0.104289  0.645391  0.660671  1
  Mn  Mn6  1  0.895711  0.354609  0.339329  1
  Mn  Mn7  1  0.412535  0.836870  0.343549  1
  P  P8  1  0.770640  0.481809  0.569946  1
  P  P9  1  0.263668  0.984355  0.566991  1
  P  P10  1  0.736332  0.015645  0.433009  1
  P  P11  1  0.229360  0.518191  0.430054  1
  C  C12  1  0.697069  0.046341  0.922400  1
  C  C13  1  0.205198  0.550723  0.924400  1
  C  C14  1  0.794802  0.449277  0.075600  1
  C  C15  1  0.302931  0.953659  0.077600  1
  O  O16  1  0.249076  0.010575  0.943547  1
  O  O17  1  0.745665  0.495787  0.943468  1
  O  O18  1  0.285205  0.468792  0.862885  1
  O  O19  1  0.776905  0.969652  0.855727  1
  O  O20  1  0.553136  0.191845  0.825189  1
  O  O21  1  0.057371  0.696222  0.821364  1
  O  O22  1  0.945913  0.497901  0.674530  1
  O  O23  1  0.759098  0.298057  0.668834  1
  O  O24  1  0.449949  0.993548  0.664054  1
  O  O25  1  0.251571  0.805098  0.669646  1
  O  O26  1  0.734737  0.019298  0.576533  1
  O  O27  1  0.096873  0.150923  0.527223  1
  O  O28  1  0.602532  0.648240  0.530836  1
  O  O29  1  0.223564  0.520013  0.571259  1
  O  O30  1  0.776436  0.479987  0.428741  1
  O  O31  1  0.903127  0.849077  0.472777  1
  O  O32  1  0.397468  0.351760  0.469164  1
  O  O33  1  0.265263  0.980702  0.423467  1
  O  O34  1  0.550051  0.006452  0.335946  1
  O  O35  1  0.748429  0.194902  0.330354  1
  O  O36  1  0.054087  0.502099  0.325470  1
  O  O37  1  0.240902  0.701943  0.331166  1
  O  O38  1  0.942629  0.303778  0.178636  1
  O  O39  1  0.446864  0.808155  0.174811  1
  O  O40  1  0.714795  0.531208  0.137115  1
  O  O41  1  0.223095  0.030348  0.144273  1
  O  O42  1  0.750924  0.989425  0.056453  1
  O  O43  1  0.254335  0.504213  0.056532  1
