# generated using pymatgen
data_Li6V(SiO4)2
_symmetry_space_group_name_H-M   'P 1'
_cell_length_a   6.21806104
_cell_length_b   11.05407875
_cell_length_c   5.12876768
_cell_angle_alpha   90.00000000
_cell_angle_beta   88.34166720
_cell_angle_gamma   90.00000000
_symmetry_Int_Tables_number   1
_chemical_formula_structural   Li6V(SiO4)2
_chemical_formula_sum   'Li12 V2 Si4 O16'
_cell_volume   352.37787174
_cell_formula_units_Z   2
loop_
 _symmetry_equiv_pos_site_id
 _symmetry_equiv_pos_as_xyz
  1  'x, y, z'
loop_
 _atom_site_type_symbol
 _atom_site_label
 _atom_site_symmetry_multiplicity
 _atom_site_fract_x
 _atom_site_fract_y
 _atom_site_fract_z
 _atom_site_occupancy
  Li  Li0  1  0.018911  0.342853  0.854784  1
  Li  Li1  1  0.249429  0.563393  0.801677  1
  Li  Li2  1  0.238844  0.073552  0.654024  1
  Li  Li3  1  0.303545  0.193827  0.023115  1
  Li  Li4  1  0.505182  0.846593  0.689641  1
  Li  Li5  1  0.491064  0.347444  0.819204  1
  Li  Li6  1  0.518911  0.157147  0.354784  1
  Li  Li7  1  0.738844  0.426448  0.154024  1
  Li  Li8  1  0.749429  0.936607  0.301677  1
  Li  Li9  1  0.803545  0.306173  0.523115  1
  Li  Li10  1  0.005182  0.653407  0.189641  1
  Li  Li11  1  0.991064  0.152556  0.319204  1
  V  V12  1  0.996233  0.827406  0.698673  1
  V  V13  1  0.496233  0.672594  0.198673  1
  Si  Si14  1  0.248154  0.403250  0.329856  1
  Si  Si15  1  0.249663  0.923579  0.173070  1
  Si  Si16  1  0.749663  0.576421  0.673070  1
  Si  Si17  1  0.748154  0.096750  0.829856  1
  O  O18  1  0.026783  0.331770  0.231656  1
  O  O19  1  0.035127  0.843080  0.274874  1
  O  O20  1  0.251580  0.064493  0.277120  1
  O  O21  1  0.249775  0.407540  0.648549  1
  O  O22  1  0.254627  0.541073  0.201140  1
  O  O23  1  0.251553  0.924972  0.850226  1
  O  O24  1  0.459888  0.325254  0.211784  1
  O  O25  1  0.466474  0.853949  0.278829  1
  O  O26  1  0.535127  0.656920  0.774874  1
  O  O27  1  0.526783  0.168230  0.731656  1
  O  O28  1  0.751553  0.575028  0.350226  1
  O  O29  1  0.749775  0.092460  0.148549  1
  O  O30  1  0.751580  0.435507  0.777120  1
  O  O31  1  0.754627  0.958927  0.701141  1
  O  O32  1  0.966474  0.646051  0.778829  1
  O  O33  1  0.959888  0.174746  0.711784  1
