# generated using pymatgen
data_Ba4Y2Cu4W2O17
_symmetry_space_group_name_H-M   'P 1'
_cell_length_a   6.03672993
_cell_length_b   17.82731808
_cell_length_c   15.32751045
_cell_angle_alpha   18.54310637
_cell_angle_beta   51.42152959
_cell_angle_gamma   54.52807290
_symmetry_Int_Tables_number   1
_chemical_formula_structural   Ba4Y2Cu4W2O17
_chemical_formula_sum   'Ba4 Y2 Cu4 W2 O17'
_cell_volume   409.69746168
_cell_formula_units_Z   1
loop_
 _symmetry_equiv_pos_site_id
 _symmetry_equiv_pos_as_xyz
  1  'x, y, z'
loop_
 _atom_site_type_symbol
 _atom_site_label
 _atom_site_symmetry_multiplicity
 _atom_site_fract_x
 _atom_site_fract_y
 _atom_site_fract_z
 _atom_site_occupancy
  Ba  Ba0  1  0.983688  0.972167  0.039342  1
  Ba  Ba1  1  0.018970  0.346409  0.974449  1
  Ba  Ba2  1  0.984460  0.675730  0.987691  1
  Ba  Ba3  1  0.494074  0.176647  0.489726  1
  Y  Y4  1  0.564374  0.530355  0.473543  1
  Y  Y5  1  0.402077  0.776309  0.542421  1
  Cu  Cu6  1  0.269447  0.259092  0.226621  1
  Cu  Cu7  1  0.229050  0.574127  0.268619  1
  Cu  Cu8  1  0.241643  0.927153  0.232626  1
  Cu  Cu9  1  0.789845  0.388517  0.775306  1
  W  W10  1  0.731051  0.096432  0.743913  1
  W  W11  1  0.736550  0.764681  0.733104  1
  O  O12  1  0.469943  0.109096  0.898428  1
  O  O13  1  0.564678  0.124367  0.079664  1
  O  O14  1  0.000878  0.496860  0.992314  1
  O  O15  1  0.563429  0.411347  0.911304  1
  O  O16  1  0.975789  0.130081  0.546280  1
  O  O17  1  0.520956  0.024750  0.471898  1
  O  O18  1  0.520104  0.539859  0.968162  1
  O  O19  1  0.968272  0.842614  0.016942  1
  O  O20  1  0.955553  0.328345  0.498342  1
  O  O21  1  0.941166  0.438707  0.566834  1
  O  O22  1  0.521273  0.703678  0.958623  1
  O  O23  1  0.526687  0.815776  0.057331  1
  O  O24  1  0.094659  0.568642  0.557412  1
  O  O25  1  0.488538  0.313882  0.508893  1
  O  O26  1  0.494326  0.675748  0.480030  1
  O  O27  1  0.032273  0.947022  0.526569  1
  O  O28  1  0.996264  0.837703  0.487214  1
