# generated using pymatgen
data_Li6Cr3Sb3O16
_symmetry_space_group_name_H-M   'P 1'
_cell_length_a   6.04712783
_cell_length_b   6.07551999
_cell_length_c   10.02636874
_cell_angle_alpha   89.99937253
_cell_angle_beta   89.85032074
_cell_angle_gamma   120.15568282
_symmetry_Int_Tables_number   1
_chemical_formula_structural   Li6Cr3Sb3O16
_chemical_formula_sum   'Li6 Cr3 Sb3 O16'
_cell_volume   318.50882688
_cell_formula_units_Z   1
loop_
 _symmetry_equiv_pos_site_id
 _symmetry_equiv_pos_as_xyz
  1  'x, y, z'
loop_
 _atom_site_type_symbol
 _atom_site_label
 _atom_site_symmetry_multiplicity
 _atom_site_fract_x
 _atom_site_fract_y
 _atom_site_fract_z
 _atom_site_occupancy
  Li  Li0  1  0.320029  0.660035  0.500849  1
  Li  Li1  1  0.341280  0.670654  0.888681  1
  Li  Li2  1  0.020297  0.010157  0.003962  1
  Li  Li3  1  0.022344  0.011191  0.496943  1
  Li  Li4  1  0.660107  0.330080  0.000153  1
  Li  Li5  1  0.665584  0.332808  0.379876  1
  Cr  Cr6  1  0.164952  0.830581  0.215474  1
  Cr  Cr7  1  0.164950  0.334385  0.215464  1
  Cr  Cr8  1  0.334707  0.167314  0.716160  1
  Sb  Sb9  1  0.659467  0.829749  0.215293  1
  Sb  Sb10  1  0.830044  0.662672  0.715994  1
  Sb  Sb11  1  0.830058  0.167393  0.715996  1
  O  O12  1  0.146575  0.839338  0.609094  1
  O  O13  1  0.031707  0.515869  0.311765  1
  O  O14  1  0.331958  0.666005  0.104878  1
  O  O15  1  0.996966  0.998502  0.317743  1
  O  O16  1  0.999602  0.999800  0.822729  1
  O  O17  1  0.146569  0.307243  0.609095  1
  O  O18  1  0.476402  0.967635  0.322974  1
  O  O19  1  0.476410  0.508793  0.322970  1
  O  O20  1  0.304634  0.152335  0.120369  1
  O  O21  1  0.690721  0.845375  0.603793  1
  O  O22  1  0.518891  0.490322  0.824798  1
  O  O23  1  0.518904  0.028590  0.824809  1
  O  O24  1  0.665321  0.332671  0.602367  1
  O  O25  1  0.852833  0.696322  0.108950  1
  O  O26  1  0.975874  0.487940  0.827716  1
  O  O27  1  0.852817  0.156540  0.108944  1
