# generated using pymatgen
data_Li4Mn3(OF3)3
_symmetry_space_group_name_H-M   'P 1'
_cell_length_a   5.66571022
_cell_length_b   6.27007346
_cell_length_c   5.85769697
_cell_angle_alpha   98.45195599
_cell_angle_beta   96.97759302
_cell_angle_gamma   99.49098551
_symmetry_Int_Tables_number   1
_chemical_formula_structural   Li4Mn3(OF3)3
_chemical_formula_sum   'Li4 Mn3 O3 F9'
_cell_volume   200.73651266
_cell_formula_units_Z   1
loop_
 _symmetry_equiv_pos_site_id
 _symmetry_equiv_pos_as_xyz
  1  'x, y, z'
loop_
 _atom_site_type_symbol
 _atom_site_label
 _atom_site_symmetry_multiplicity
 _atom_site_fract_x
 _atom_site_fract_y
 _atom_site_fract_z
 _atom_site_occupancy
  Li  Li0  1  0.115357  0.560934  0.319775  1
  Li  Li1  1  0.317019  0.140050  0.608460  1
  Li  Li2  1  0.602447  0.323158  0.143013  1
  Li  Li3  1  0.862083  0.400189  0.659687  1
  Mn  Mn4  1  0.407387  0.670723  0.849743  1
  Mn  Mn5  1  0.647981  0.851606  0.381058  1
  Mn  Mn6  1  0.003443  0.993889  0.999374  1
  O  O7  1  0.104381  0.739485  0.901109  1
  O  O8  1  0.432953  0.809972  0.598619  1
  O  O9  1  0.677748  0.875272  0.049464  1
  F  F10  1  0.095869  0.970517  0.309775  1
  F  F11  1  0.191877  0.422938  0.618326  1
  F  F12  1  0.387152  0.566907  0.157619  1
  F  F13  1  0.618158  0.463327  0.821693  1
  F  F14  1  0.309037  0.139502  0.958804  1
  F  F15  1  0.803372  0.600398  0.408311  1
  F  F16  1  0.589316  0.153993  0.411572  1
  F  F17  1  0.931808  0.281014  0.106532  1
  F  F18  1  0.902609  0.036125  0.697067  1
