# generated using pymatgen
data_Li4Ti3Sn5O16
_symmetry_space_group_name_H-M   'P 1'
_cell_length_a   6.23240773
_cell_length_b   6.20268470
_cell_length_c   10.69937785
_cell_angle_alpha   89.99504744
_cell_angle_beta   90.10290281
_cell_angle_gamma   119.83999158
_symmetry_Int_Tables_number   1
_chemical_formula_structural   Li4Ti3Sn5O16
_chemical_formula_sum   'Li4 Ti3 Sn5 O16'
_cell_volume   358.77470023
_cell_formula_units_Z   1
loop_
 _symmetry_equiv_pos_site_id
 _symmetry_equiv_pos_as_xyz
  1  'x, y, z'
loop_
 _atom_site_type_symbol
 _atom_site_label
 _atom_site_symmetry_multiplicity
 _atom_site_fract_x
 _atom_site_fract_y
 _atom_site_fract_z
 _atom_site_occupancy
  Li  Li0  1  0.336370  0.668242  0.867727  1
  Li  Li1  1  0.979969  0.990016  0.996203  1
  Li  Li2  1  0.988160  0.994005  0.500909  1
  Li  Li3  1  0.671128  0.335543  0.390214  1
  Ti  Ti4  1  0.651879  0.825872  0.221809  1
  Ti  Ti5  1  0.829044  0.170421  0.715770  1
  Ti  Ti6  1  0.829059  0.659267  0.716041  1
  Sn  Sn7  1  0.339708  0.669917  0.510607  1
  Sn  Sn8  1  0.675584  0.337756  0.008312  1
  Sn  Sn9  1  0.164169  0.831997  0.220166  1
  Sn  Sn10  1  0.164085  0.332164  0.220155  1
  Sn  Sn11  1  0.332384  0.166126  0.716652  1
  O  O12  1  0.141097  0.844796  0.609620  1
  O  O13  1  0.019794  0.509901  0.324729  1
  O  O14  1  0.343087  0.671574  0.113465  1
  O  O15  1  0.990658  0.995327  0.322170  1
  O  O16  1  0.991978  0.995760  0.816176  1
  O  O17  1  0.141040  0.296211  0.609689  1
  O  O18  1  0.504786  0.980283  0.318683  1
  O  O19  1  0.504760  0.524419  0.318650  1
  O  O20  1  0.299108  0.149587  0.109623  1
  O  O21  1  0.709306  0.854685  0.615047  1
  O  O22  1  0.525364  0.504837  0.810834  1
  O  O23  1  0.525515  0.020598  0.810923  1
  O  O24  1  0.682649  0.341276  0.611025  1
  O  O25  1  0.842081  0.700907  0.112233  1
  O  O26  1  0.975170  0.487600  0.808209  1
  O  O27  1  0.842066  0.141211  0.112201  1
