# generated using pymatgen
data_Li3Co(CuO2)4
_symmetry_space_group_name_H-M   'P 1'
_cell_length_a   6.18605666
_cell_length_b   6.18605679
_cell_length_c   6.03372292
_cell_angle_alpha   80.83556127
_cell_angle_beta   53.96492473
_cell_angle_gamma   54.44018272
_symmetry_Int_Tables_number   1
_chemical_formula_structural   Li3Co(CuO2)4
_chemical_formula_sum   'Li3 Co1 Cu4 O8'
_cell_volume   145.90853721
_cell_formula_units_Z   1
loop_
 _symmetry_equiv_pos_site_id
 _symmetry_equiv_pos_as_xyz
  1  'x, y, z'
loop_
 _atom_site_type_symbol
 _atom_site_label
 _atom_site_symmetry_multiplicity
 _atom_site_fract_x
 _atom_site_fract_y
 _atom_site_fract_z
 _atom_site_occupancy
  Li  Li0  1  0.000000  0.000000  0.500000  1
  Li  Li1  1  0.500000  0.000000  0.500000  1
  Li  Li2  1  0.500000  0.500000  0.500000  1
  Co  Co3  1  0.500000  0.500000  0.000000  1
  Cu  Cu4  1  0.000000  0.500000  0.500000  1
  Cu  Cu5  1  0.000000  0.000000  0.000000  1
  Cu  Cu6  1  0.500000  0.000000  0.000000  1
  Cu  Cu7  1  0.000000  0.500000  0.000000  1
  O  O8  1  0.467470  0.294724  0.827253  1
  O  O9  1  0.985241  0.242872  0.718255  1
  O  O10  1  0.524617  0.703496  0.718255  1
  O  O11  1  0.964526  0.794024  0.829498  1
  O  O12  1  0.035474  0.205976  0.170502  1
  O  O13  1  0.475383  0.296504  0.281745  1
  O  O14  1  0.014759  0.757128  0.281745  1
  O  O15  1  0.532530  0.705276  0.172747  1
