# generated using pymatgen
data_LiAg2F4
_symmetry_space_group_name_H-M   'P 1'
_cell_length_a   6.06925627
_cell_length_b   6.06906538
_cell_length_c   6.97849781
_cell_angle_alpha   103.79496477
_cell_angle_beta   103.78941441
_cell_angle_gamma   116.94019413
_symmetry_Int_Tables_number   1
_chemical_formula_structural   LiAg2F4
_chemical_formula_sum   'Li2 Ag4 F8'
_cell_volume   203.95773229
_cell_formula_units_Z   2
loop_
 _symmetry_equiv_pos_site_id
 _symmetry_equiv_pos_as_xyz
  1  'x, y, z'
loop_
 _atom_site_type_symbol
 _atom_site_label
 _atom_site_symmetry_multiplicity
 _atom_site_fract_x
 _atom_site_fract_y
 _atom_site_fract_z
 _atom_site_occupancy
  Li  Li0  1  0.125469  0.874604  0.750007  1
  Li  Li1  1  0.874661  0.125197  0.250000  1
  Ag  Ag2  1  0.469119  0.531026  0.749955  1
  Ag  Ag3  1  0.781572  0.218458  0.750000  1
  Ag  Ag4  1  0.218376  0.781627  0.250107  1
  Ag  Ag5  1  0.529790  0.470121  0.249994  1
  F  F6  1  0.265355  0.242211  0.905002  1
  F  F7  1  0.139440  0.662505  0.904904  1
  F  F8  1  0.242927  0.265240  0.403233  1
  F  F9  1  0.662361  0.139367  0.404885  1
  F  F10  1  0.337682  0.860330  0.595266  1
  F  F11  1  0.757925  0.734865  0.594880  1
  F  F12  1  0.860816  0.337525  0.095078  1
  F  F13  1  0.734510  0.756925  0.096688  1
