# generated using pymatgen
data_BaYF5
_symmetry_space_group_name_H-M   'P 1'
_cell_length_a   15.50201871
_cell_length_b   5.45959975
_cell_length_c   5.62668206
_cell_angle_alpha   90.00000000
_cell_angle_beta   90.00000000
_cell_angle_gamma   90.00000000
_symmetry_Int_Tables_number   1
_chemical_formula_structural   BaYF5
_chemical_formula_sum   'Ba4 Y4 F20'
_cell_volume   476.21320913
_cell_formula_units_Z   4
loop_
 _symmetry_equiv_pos_site_id
 _symmetry_equiv_pos_as_xyz
  1  'x, y, z'
loop_
 _atom_site_type_symbol
 _atom_site_label
 _atom_site_symmetry_multiplicity
 _atom_site_fract_x
 _atom_site_fract_y
 _atom_site_fract_z
 _atom_site_occupancy
  Ba  Ba0  1  0.104212  0.504117  0.441441  1
  Ba  Ba1  1  0.395788  0.495883  0.941441  1
  Ba  Ba2  1  0.604212  0.995883  0.558559  1
  Ba  Ba3  1  0.895788  0.004117  0.058559  1
  Y  Y4  1  0.173128  0.018635  0.939989  1
  Y  Y5  1  0.326872  0.981365  0.439989  1
  Y  Y6  1  0.673128  0.481365  0.060011  1
  Y  Y7  1  0.826872  0.518635  0.560011  1
  F  F8  1  0.112749  0.968583  0.592732  1
  F  F9  1  0.057040  0.867630  0.108333  1
  F  F10  1  0.099729  0.361225  0.927760  1
  F  F11  1  0.233417  0.758479  0.212351  1
  F  F12  1  0.236306  0.240995  0.234730  1
  F  F13  1  0.263694  0.759005  0.734730  1
  F  F14  1  0.266583  0.241521  0.712351  1
  F  F15  1  0.400271  0.638775  0.427760  1
  F  F16  1  0.442960  0.132370  0.608333  1
  F  F17  1  0.387251  0.031417  0.092732  1
  F  F18  1  0.612749  0.531417  0.407268  1
  F  F19  1  0.557040  0.632370  0.891667  1
  F  F20  1  0.599729  0.138775  0.072240  1
  F  F21  1  0.733417  0.741521  0.787649  1
  F  F22  1  0.736306  0.259005  0.765270  1
  F  F23  1  0.763694  0.740995  0.265270  1
  F  F24  1  0.766583  0.258479  0.287649  1
  F  F25  1  0.900271  0.861225  0.572240  1
  F  F26  1  0.942960  0.367630  0.391667  1
  F  F27  1  0.887251  0.468583  0.907268  1
