# generated using pymatgen
data_Li3Sb3(PO4)4
_symmetry_space_group_name_H-M   'P 1'
_cell_length_a   9.12173806
_cell_length_b   11.30885366
_cell_length_c   6.78703930
_cell_angle_alpha   90.00000000
_cell_angle_beta   104.94768161
_cell_angle_gamma   90.00000000
_symmetry_Int_Tables_number   1
_chemical_formula_structural   Li3Sb3(PO4)4
_chemical_formula_sum   'Li6 Sb6 P8 O32'
_cell_volume   676.43549543
_cell_formula_units_Z   2
loop_
 _symmetry_equiv_pos_site_id
 _symmetry_equiv_pos_as_xyz
  1  'x, y, z'
loop_
 _atom_site_type_symbol
 _atom_site_label
 _atom_site_symmetry_multiplicity
 _atom_site_fract_x
 _atom_site_fract_y
 _atom_site_fract_z
 _atom_site_occupancy
  Li  Li0  1  0.084395  0.596015  0.574821  1
  Li  Li1  1  0.080322  0.889530  0.069528  1
  Li  Li2  1  0.348157  0.199451  0.167567  1
  Li  Li3  1  0.651843  0.699451  0.332433  1
  Li  Li4  1  0.915605  0.096015  0.925179  1
  Li  Li5  1  0.919678  0.389530  0.430472  1
  Sb  Sb6  1  0.261586  0.886746  0.640078  1
  Sb  Sb7  1  0.291591  0.612305  0.167534  1
  Sb  Sb8  1  0.325438  0.318278  0.614896  1
  Sb  Sb9  1  0.674562  0.818278  0.885104  1
  Sb  Sb10  1  0.738414  0.386746  0.859922  1
  Sb  Sb11  1  0.708409  0.112305  0.332466  1
  P  P12  1  0.114494  0.368655  0.893566  1
  P  P13  1  0.082664  0.116769  0.384978  1
  P  P14  1  0.405679  0.596837  0.730429  1
  P  P15  1  0.390054  0.915342  0.166496  1
  P  P16  1  0.594321  0.096837  0.769571  1
  P  P17  1  0.609946  0.415342  0.333504  1
  P  P18  1  0.885506  0.868655  0.606434  1
  P  P19  1  0.917336  0.616769  0.115022  1
  O  O20  1  0.078939  0.434622  0.688663  1
  O  O21  1  0.028075  0.806535  0.566645  1
  O  O22  1  0.035476  0.044176  0.191547  1
  O  O23  1  0.047805  0.693383  0.073579  1
  O  O24  1  0.148272  0.041002  0.583934  1
  O  O25  1  0.235602  0.270807  0.879627  1
  O  O26  1  0.190612  0.448648  0.082386  1
  O  O27  1  0.296173  0.639359  0.859494  1
  O  O28  1  0.270360  0.933054  0.954237  1
  O  O29  1  0.218531  0.201463  0.373996  1
  O  O30  1  0.289665  0.874822  0.308681  1
  O  O31  1  0.296940  0.578768  0.516447  1
  O  O32  1  0.477186  0.196040  0.775802  1
  O  O33  1  0.490017  0.481115  0.813598  1
  O  O34  1  0.492693  0.318398  0.348483  1
  O  O35  1  0.509983  0.981115  0.686402  1
  O  O36  1  0.466472  0.037882  0.233814  1
  O  O37  1  0.522814  0.696040  0.724198  1
  O  O38  1  0.533528  0.537882  0.266186  1
  O  O39  1  0.507307  0.818398  0.151517  1
  O  O40  1  0.729640  0.433054  0.545763  1
  O  O41  1  0.703827  0.139359  0.640506  1
  O  O42  1  0.764398  0.770807  0.620373  1
  O  O43  1  0.703060  0.078768  0.983553  1
  O  O44  1  0.710335  0.374822  0.191319  1
  O  O45  1  0.851728  0.541002  0.916066  1
  O  O46  1  0.781469  0.701463  0.126004  1
  O  O47  1  0.809388  0.948648  0.417614  1
  O  O48  1  0.971925  0.306535  0.933355  1
  O  O49  1  0.921061  0.934622  0.811337  1
  O  O50  1  0.952195  0.193383  0.426421  1
  O  O51  1  0.964524  0.544176  0.308453  1
