# generated using pymatgen
data_Hf2N2O
_symmetry_space_group_name_H-M   'P 1'
_cell_length_a   5.46088197
_cell_length_b   5.48004053
_cell_length_c   14.61213072
_cell_angle_alpha   90.06184596
_cell_angle_beta   90.00000000
_cell_angle_gamma   60.11558160
_symmetry_Int_Tables_number   1
_chemical_formula_structural   Hf2N2O
_chemical_formula_sum   'Hf12 N12 O6'
_cell_volume   379.13601376
_cell_formula_units_Z   6
loop_
 _symmetry_equiv_pos_site_id
 _symmetry_equiv_pos_as_xyz
  1  'x, y, z'
loop_
 _atom_site_type_symbol
 _atom_site_label
 _atom_site_symmetry_multiplicity
 _atom_site_fract_x
 _atom_site_fract_y
 _atom_site_fract_z
 _atom_site_occupancy
  Hf  Hf0  1  0.996245  0.003506  0.642947  1
  Hf  Hf1  1  0.000249  0.003506  0.142947  1
  Hf  Hf2  1  0.676951  0.645266  0.809901  1
  Hf  Hf3  1  0.678279  0.647805  0.524026  1
  Hf  Hf4  1  0.677782  0.645266  0.309901  1
  Hf  Hf5  1  0.673917  0.647805  0.024026  1
  Hf  Hf6  1  0.326083  0.352195  0.975974  1
  Hf  Hf7  1  0.322218  0.354734  0.690099  1
  Hf  Hf8  1  0.321721  0.352195  0.475974  1
  Hf  Hf9  1  0.323049  0.354734  0.190099  1
  Hf  Hf10  1  -0.000249  0.996494  0.857053  1
  Hf  Hf11  1  0.003755  0.996494  0.357053  1
  N  N12  1  0.003618  0.704775  0.751906  1
  N  N13  1  0.291607  0.704775  0.251906  1
  N  N14  1  0.368052  0.675925  0.917704  1
  N  N15  1  0.956023  0.675925  0.417704  1
  N  N16  1  0.338882  0.626586  0.584634  1
  N  N17  1  0.034531  0.626586  0.084634  1
  N  N18  1  0.965469  0.373414  0.915366  1
  N  N19  1  0.661118  0.373414  0.415366  1
  N  N20  1  0.043977  0.324075  0.582296  1
  N  N21  1  0.631948  0.324075  0.082296  1
  N  N22  1  0.708393  0.295225  0.748094  1
  N  N23  1  0.996382  0.295225  0.248094  1
  O  O24  1  0.665454  0.978895  0.918046  1
  O  O25  1  0.355652  0.978895  0.418046  1
  O  O26  1  0.644348  0.021105  0.581954  1
  O  O27  1  0.334546  0.021105  0.081954  1
  O  O28  1  0.311336  0.000000  0.750000  1
  O  O29  1  0.688664  0.000000  0.250000  1
