# generated using pymatgen
data_LiFe2(BO3)2
_symmetry_space_group_name_H-M   'P 1'
_cell_length_a   5.23009576
_cell_length_b   9.14581807
_cell_length_c   11.25422561
_cell_angle_alpha   66.93033567
_cell_angle_beta   76.92479842
_cell_angle_gamma   89.03543559
_symmetry_Int_Tables_number   1
_chemical_formula_structural   LiFe2(BO3)2
_chemical_formula_sum   'Li4 Fe8 B8 O24'
_cell_volume   480.88631916
_cell_formula_units_Z   4
loop_
 _symmetry_equiv_pos_site_id
 _symmetry_equiv_pos_as_xyz
  1  'x, y, z'
loop_
 _atom_site_type_symbol
 _atom_site_label
 _atom_site_symmetry_multiplicity
 _atom_site_fract_x
 _atom_site_fract_y
 _atom_site_fract_z
 _atom_site_occupancy
  Li  Li0  1  0.972025  0.973069  0.399769  1
  Li  Li1  1  0.712451  0.721899  0.910684  1
  Li  Li2  1  0.517601  0.496657  0.654495  1
  Li  Li3  1  0.471445  0.469119  0.402909  1
  Fe  Fe4  1  0.979490  0.647681  0.376801  1
  Fe  Fe5  1  0.737427  0.070443  0.880861  1
  Fe  Fe6  1  0.505878  0.851487  0.629879  1
  Fe  Fe7  1  0.766296  0.429069  0.131973  1
  Fe  Fe8  1  0.226987  0.556209  0.881729  1
  Fe  Fe9  1  0.473278  0.151231  0.378473  1
  Fe  Fe10  1  0.034610  0.340792  0.628550  1
  Fe  Fe11  1  0.265999  0.930609  0.133038  1
  B  B12  1  0.977674  0.313980  0.374123  1
  B  B13  1  0.734520  0.396988  0.874997  1
  B  B14  1  0.536437  0.185551  0.626919  1
  B  B15  1  0.764042  0.103424  0.131204  1
  B  B16  1  0.471814  0.808435  0.383100  1
  B  B17  1  0.234342  0.892846  0.879391  1
  B  B18  1  0.010347  0.682591  0.625449  1
  B  B19  1  0.267001  0.605265  0.126992  1
  O  O20  1  0.972401  0.902394  0.880316  1
  O  O21  1  0.889717  0.280041  0.849506  1
  O  O22  1  0.836865  0.495093  0.926675  1
  O  O23  1  0.868764  0.811249  0.624216  1
  O  O24  1  0.918601  0.568370  0.588839  1
  O  O25  1  0.744534  0.155049  0.688682  1
  O  O26  1  0.737296  0.350450  0.332081  1
  O  O27  1  0.498143  0.419954  0.844371  1
  O  O28  1  0.388169  0.791155  0.830554  1
  O  O29  1  0.570564  0.916635  0.427266  1
  O  O30  1  0.590382  0.675164  0.386866  1
  O  O31  1  0.361882  0.979030  0.930920  1
  O  O32  1  0.633445  0.017659  0.079599  1
  O  O33  1  0.421605  0.328117  0.603231  1
  O  O34  1  0.449792  0.076235  0.584060  1
  O  O35  1  0.629445  0.215143  0.170765  1
  O  O36  1  0.533777  0.596457  0.114616  1
  O  O37  1  0.253886  0.668155  0.662235  1
  O  O38  1  0.239090  0.846547  0.337234  1
  O  O39  1  0.086940  0.421128  0.412918  1
  O  O40  1  0.090119  0.177980  0.378834  1
  O  O41  1  0.131740  0.512629  0.084179  1
  O  O42  1  0.137588  0.714025  0.172436  1
  O  O43  1  0.011513  0.072359  0.146362  1
