# generated using pymatgen
data_V2OF5
_symmetry_space_group_name_H-M   'P 1'
_cell_length_a   5.26103710
_cell_length_b   11.63651671
_cell_length_c   5.45954930
_cell_angle_alpha   79.43925215
_cell_angle_beta   90.02278610
_cell_angle_gamma   103.12154684
_symmetry_Int_Tables_number   1
_chemical_formula_structural   V2OF5
_chemical_formula_sum   'V6 O3 F15'
_cell_volume   319.69746538
_cell_formula_units_Z   3
loop_
 _symmetry_equiv_pos_site_id
 _symmetry_equiv_pos_as_xyz
  1  'x, y, z'
loop_
 _atom_site_type_symbol
 _atom_site_label
 _atom_site_symmetry_multiplicity
 _atom_site_fract_x
 _atom_site_fract_y
 _atom_site_fract_z
 _atom_site_occupancy
  V  V0  1  0.830621  0.662927  0.168321  1
  V  V1  1  0.667830  0.314452  0.342427  1
  V  V2  1  0.484153  0.988071  0.506260  1
  V  V3  1  0.333431  0.667238  0.666691  1
  V  V4  1  0.001862  0.003753  0.998050  1
  V  V5  1  0.184808  0.349014  0.825636  1
  O  O6  1  0.664996  0.168071  0.415041  1
  O  O7  1  0.331042  0.495376  0.754187  1
  O  O8  1  0.336404  0.840615  0.578934  1
  F  F9  1  0.994109  0.175647  0.911978  1
  F  F10  1  0.981998  0.365696  0.119748  1
  F  F11  1  0.880767  0.365300  0.617863  1
  F  F12  1  0.651451  0.490564  0.255276  1
  F  F13  1  0.788518  0.971580  0.709510  1
  F  F14  1  0.450106  0.300345  0.047348  1
  F  F15  1  0.654704  0.698165  0.450174  1
  F  F16  1  0.320746  0.037416  0.782714  1
  F  F17  1  0.684273  0.970176  0.213220  1
  F  F18  1  0.215696  0.036152  0.287127  1
  F  F19  1  0.544344  0.699425  0.950943  1
  F  F20  1  0.348349  0.300719  0.548634  1
  F  F21  1  0.119987  0.631638  0.385139  1
  F  F22  1  0.008944  0.633321  0.881844  1
  F  F23  1  0.020862  0.834338  0.082931  1
