# generated using pymatgen
data_Mn2PH9(C4O3)3
_symmetry_space_group_name_H-M   'P 1'
_cell_length_a   8.75934049
_cell_length_b   15.91772655
_cell_length_c   13.17498079
_cell_angle_alpha   90.00000000
_cell_angle_beta   101.14530912
_cell_angle_gamma   90.00000000
_symmetry_Int_Tables_number   1
_chemical_formula_structural   Mn2PH9(C4O3)3
_chemical_formula_sum   'Mn8 P4 H36 C48 O36'
_cell_volume   1802.32650939
_cell_formula_units_Z   4
loop_
 _symmetry_equiv_pos_site_id
 _symmetry_equiv_pos_as_xyz
  1  'x, y, z'
loop_
 _atom_site_type_symbol
 _atom_site_label
 _atom_site_symmetry_multiplicity
 _atom_site_fract_x
 _atom_site_fract_y
 _atom_site_fract_z
 _atom_site_occupancy
  Mn  Mn0  1  0.463295  0.686283  0.666292  1
  Mn  Mn1  1  0.963295  0.813717  0.166293  1
  Mn  Mn2  1  0.536705  0.313717  0.333707  1
  Mn  Mn3  1  0.036705  0.186283  0.833708  1
  Mn  Mn4  1  0.673766  0.822257  0.626959  1
  Mn  Mn5  1  0.173766  0.677743  0.126959  1
  Mn  Mn6  1  0.326234  0.177743  0.373041  1
  Mn  Mn7  1  0.826234  0.322257  0.873041  1
  P  P8  1  0.287451  0.584676  0.681328  1
  P  P9  1  0.787451  0.915324  0.181328  1
  P  P10  1  0.712549  0.415324  0.318672  1
  P  P11  1  0.212549  0.084676  0.818672  1
  H  H12  1  0.206158  0.629768  0.838395  1
  H  H13  1  0.706158  0.870232  0.338395  1
  H  H14  1  0.793842  0.370232  0.161605  1
  H  H15  1  0.293842  0.129768  0.661605  1
  H  H16  1  0.339977  0.543104  0.862113  1
  H  H17  1  0.839977  0.956896  0.362113  1
  H  H18  1  0.660023  0.456896  0.137887  1
  H  H19  1  0.160023  0.043104  0.637887  1
  H  H20  1  0.140883  0.525385  0.801826  1
  H  H21  1  0.640883  0.974615  0.301826  1
  H  H22  1  0.859117  0.474615  0.198174  1
  H  H23  1  0.359117  0.025385  0.698174  1
  H  H24  1  0.051683  0.662333  0.612316  1
  H  H25  1  0.551683  0.837667  0.112316  1
  H  H26  1  0.948317  0.337667  0.387684  1
  H  H27  1  0.448317  0.162333  0.887684  1
  H  H28  1  0.015638  0.551723  0.616807  1
  H  H29  1  0.515638  0.948277  0.116807  1
  H  H30  1  0.984362  0.448277  0.383193  1
  H  H31  1  0.484362  0.051723  0.883193  1
  H  H32  1  0.105968  0.594553  0.516998  1
  H  H33  1  0.605968  0.905447  0.016998  1
  H  H34  1  0.894032  0.405447  0.483002  1
  H  H35  1  0.394032  0.094553  0.983002  1
  H  H36  1  0.448024  0.459118  0.691080  1
  H  H37  1  0.948024  0.040882  0.191080  1
  H  H38  1  0.551976  0.540882  0.308920  1
  H  H39  1  0.051976  0.959118  0.808920  1
  H  H40  1  0.338690  0.475938  0.563349  1
  H  H41  1  0.838690  0.024062  0.063349  1
  H  H42  1  0.661310  0.524062  0.436651  1
  H  H43  1  0.161310  0.975938  0.936651  1
  H  H44  1  0.243667  0.435295  0.661700  1
  H  H45  1  0.743667  0.064705  0.161700  1
  H  H46  1  0.756333  0.564705  0.338300  1
  H  H47  1  0.256333  0.935295  0.838300  1
  C  C48  1  0.409775  0.672269  0.525974  1
  C  C49  1  0.909775  0.827731  0.025974  1
  C  C50  1  0.590225  0.327731  0.474026  1
  C  C51  1  0.090225  0.172269  0.974026  1
  C  C52  1  0.313409  0.767773  0.665331  1
  C  C53  1  0.813409  0.732227  0.165331  1
  C  C54  1  0.686591  0.232227  0.334669  1
  C  C55  1  0.186591  0.267773  0.834669  1
  C  C56  1  0.526418  0.697972  0.807637  1
  C  C57  1  0.026418  0.802028  0.307637  1
  C  C58  1  0.473582  0.302028  0.192363  1
  C  C59  1  0.973582  0.197972  0.692363  1
  C  C60  1  0.621003  0.610435  0.666852  1
  C  C61  1  0.121003  0.889565  0.166852  1
  C  C62  1  0.378997  0.389565  0.333148  1
  C  C63  1  0.878997  0.110435  0.833148  1
  C  C64  1  0.600679  0.870673  0.735631  1
  C  C65  1  0.100679  0.629327  0.235631  1
  C  C66  1  0.399321  0.129327  0.264369  1
  C  C67  1  0.899321  0.370673  0.764369  1
  C  C68  1  0.821301  0.762230  0.717801  1
  C  C69  1  0.321301  0.737770  0.217801  1
  C  C70  1  0.178699  0.237770  0.282199  1
  C  C71  1  0.678699  0.262230  0.782199  1
  C  C72  1  0.716253  0.755313  0.521421  1
  C  C73  1  0.216253  0.744687  0.021421  1
  C  C74  1  0.283747  0.244687  0.478579  1
  C  C75  1  0.783747  0.255313  0.978579  1
  C  C76  1  0.506216  0.867612  0.536029  1
  C  C77  1  0.006216  0.632388  0.036029  1
  C  C78  1  0.493784  0.132388  0.463971  1
  C  C79  1  0.993784  0.367612  0.963971  1
  C  C80  1  0.803824  0.906123  0.610095  1
  C  C81  1  0.303824  0.593877  0.110095  1
  C  C82  1  0.196176  0.093877  0.389905  1
  C  C83  1  0.696176  0.406123  0.889905  1
  C  C84  1  0.239202  0.569349  0.808849  1
  C  C85  1  0.739202  0.930651  0.308849  1
  C  C86  1  0.760798  0.430651  0.191151  1
  C  C87  1  0.260798  0.069349  0.691151  1
  C  C88  1  0.096348  0.599822  0.598684  1
  C  C89  1  0.596348  0.900178  0.098684  1
  C  C90  1  0.903652  0.400178  0.401316  1
  C  C91  1  0.403652  0.099822  0.901316  1
  C  C92  1  0.334585  0.478292  0.646132  1
  C  C93  1  0.834585  0.021708  0.146132  1
  C  C94  1  0.665415  0.521708  0.353868  1
  C  C95  1  0.165415  0.978292  0.853868  1
  O  O96  1  0.374342  0.657606  0.437761  1
  O  O97  1  0.874342  0.842394  0.937761  1
  O  O98  1  0.625658  0.342394  0.562239  1
  O  O99  1  0.125658  0.157606  0.062239  1
  O  O100  1  0.215893  0.817622  0.665649  1
  O  O101  1  0.715893  0.682378  0.165649  1
  O  O102  1  0.784107  0.182378  0.334351  1
  O  O103  1  0.284107  0.317622  0.834351  1
  O  O104  1  0.564796  0.703587  0.897070  1
  O  O105  1  0.064796  0.796413  0.397070  1
  O  O106  1  0.435204  0.296413  0.102930  1
  O  O107  1  0.935204  0.203587  0.602930  1
  O  O108  1  0.717875  0.560161  0.666007  1
  O  O109  1  0.217875  0.939839  0.166007  1
  O  O110  1  0.282125  0.439839  0.333993  1
  O  O111  1  0.782125  0.060161  0.833993  1
  O  O112  1  0.554693  0.903678  0.802749  1
  O  O113  1  0.054693  0.596322  0.302749  1
  O  O114  1  0.445307  0.096322  0.197251  1
  O  O115  1  0.945307  0.403678  0.697251  1
  O  O116  1  0.918885  0.725043  0.771814  1
  O  O117  1  0.418885  0.774957  0.271814  1
  O  O118  1  0.081115  0.274957  0.228186  1
  O  O119  1  0.581115  0.225043  0.728186  1
  O  O120  1  0.746408  0.714999  0.454250  1
  O  O121  1  0.246408  0.785001  0.954250  1
  O  O122  1  0.253592  0.285001  0.545750  1
  O  O123  1  0.753592  0.214999  0.045750  1
  O  O124  1  0.404690  0.898564  0.478332  1
  O  O125  1  0.904690  0.601436  0.978332  1
  O  O126  1  0.595310  0.101436  0.521668  1
  O  O127  1  0.095310  0.398564  0.021668  1
  O  O128  1  0.888018  0.960765  0.599480  1
  O  O129  1  0.388018  0.539235  0.099480  1
  O  O130  1  0.111982  0.039235  0.400520  1
  O  O131  1  0.611982  0.460765  0.900520  1
