# generated using pymatgen
data_GdAsO4
_symmetry_space_group_name_H-M   'P 1'
_cell_length_a   5.56356171
_cell_length_b   5.60961248
_cell_length_c   4.76554186
_cell_angle_alpha   90.00000000
_cell_angle_beta   90.07505650
_cell_angle_gamma   90.00000000
_symmetry_Int_Tables_number   1
_chemical_formula_structural   GdAsO4
_chemical_formula_sum   'Gd2 As2 O8'
_cell_volume   148.72969459
_cell_formula_units_Z   2
loop_
 _symmetry_equiv_pos_site_id
 _symmetry_equiv_pos_as_xyz
  1  'x, y, z'
loop_
 _atom_site_type_symbol
 _atom_site_label
 _atom_site_symmetry_multiplicity
 _atom_site_fract_x
 _atom_site_fract_y
 _atom_site_fract_z
 _atom_site_occupancy
  Gd  Gd0  1  0.250000  0.751910  0.500000  1
  Gd  Gd1  1  0.750000  0.248090  0.500000  1
  As  As2  1  0.250000  0.254284  0.000000  1
  As  As3  1  0.750000  0.745716  0.000000  1
  O  O4  1  0.079719  0.418506  0.762887  1
  O  O5  1  0.081810  0.086329  0.236276  1
  O  O6  1  0.418190  0.086329  0.763724  1
  O  O7  1  0.579719  0.581494  0.762887  1
  O  O8  1  0.420281  0.418506  0.237113  1
  O  O9  1  0.581810  0.913671  0.236276  1
  O  O10  1  0.918190  0.913671  0.763724  1
  O  O11  1  0.920281  0.581494  0.237113  1
