# generated using pymatgen
data_NaLi5Mn2P2(CO7)2
_symmetry_space_group_name_H-M   'P 1'
_cell_length_a   8.65351659
_cell_length_b   6.63298603
_cell_length_c   9.98749927
_cell_angle_alpha   89.98664296
_cell_angle_beta   88.43699248
_cell_angle_gamma   90.43578803
_symmetry_Int_Tables_number   1
_chemical_formula_structural   NaLi5Mn2P2(CO7)2
_chemical_formula_sum   'Na2 Li10 Mn4 P4 C4 O28'
_cell_volume   573.03909628
_cell_formula_units_Z   2
loop_
 _symmetry_equiv_pos_site_id
 _symmetry_equiv_pos_as_xyz
  1  'x, y, z'
loop_
 _atom_site_type_symbol
 _atom_site_label
 _atom_site_symmetry_multiplicity
 _atom_site_fract_x
 _atom_site_fract_y
 _atom_site_fract_z
 _atom_site_occupancy
  Na  Na0  1  0.085005  0.255121  0.378366  1
  Na  Na1  1  0.250806  0.997612  0.123069  1
  Li  Li2  1  0.077594  0.254684  0.874690  1
  Li  Li3  1  0.263651  0.018606  0.620472  1
  Li  Li4  1  0.265244  0.479779  0.617875  1
  Li  Li5  1  0.266677  0.481030  0.113237  1
  Li  Li6  1  0.739156  0.517187  0.883045  1
  Li  Li7  1  0.739500  0.982910  0.884073  1
  Li  Li8  1  0.734352  0.518965  0.384614  1
  Li  Li9  1  0.734901  0.981355  0.384465  1
  Li  Li10  1  0.916581  0.749312  0.626523  1
  Li  Li11  1  0.913893  0.741898  0.123618  1
  Mn  Mn12  1  0.356224  0.746370  0.884296  1
  Mn  Mn13  1  0.358136  0.749068  0.390385  1
  Mn  Mn14  1  0.645821  0.250531  0.614525  1
  Mn  Mn15  1  0.645549  0.249369  0.109782  1
  P  P16  1  0.405498  0.249759  0.849302  1
  P  P17  1  0.415353  0.254580  0.354454  1
  P  P18  1  0.593441  0.750440  0.648183  1
  P  P19  1  0.595958  0.745180  0.145390  1
  C  C20  1  0.041900  0.749196  0.864794  1
  C  C21  1  0.041918  0.748368  0.367168  1
  C  C22  1  0.951695  0.250211  0.639643  1
  C  C23  1  0.953719  0.258937  0.130043  1
  O  O24  1  0.101562  0.248481  0.652526  1
  O  O25  1  0.100885  0.278499  0.147587  1
  O  O26  1  0.088458  0.750151  0.987254  1
  O  O27  1  0.088935  0.749491  0.489144  1
  O  O28  1  0.141134  0.746300  0.764980  1
  O  O29  1  0.142345  0.745248  0.267676  1
  O  O30  1  0.312353  0.061049  0.895591  1
  O  O31  1  0.309486  0.431224  0.902719  1
  O  O32  1  0.322101  0.064582  0.401609  1
  O  O33  1  0.323172  0.435482  0.413439  1
  O  O34  1  0.413535  0.254842  0.692352  1
  O  O35  1  0.422456  0.750857  0.602512  1
  O  O36  1  0.418830  0.266901  0.198227  1
  O  O37  1  0.427523  0.732210  0.096005  1
  O  O38  1  0.575102  0.252229  0.898089  1
  O  O39  1  0.587530  0.749732  0.804933  1
  O  O40  1  0.585516  0.251058  0.400085  1
  O  O41  1  0.587061  0.748738  0.302366  1
  O  O42  1  0.687302  0.566976  0.595325  1
  O  O43  1  0.687683  0.935142  0.594972  1
  O  O44  1  0.697338  0.565900  0.095710  1
  O  O45  1  0.685297  0.933908  0.092043  1
  O  O46  1  0.862295  0.250598  0.746531  1
  O  O47  1  0.858381  0.247835  0.232814  1
  O  O48  1  0.890340  0.251785  0.523238  1
  O  O49  1  0.901241  0.249455  0.009411  1
  O  O50  1  0.894572  0.750654  0.839615  1
  O  O51  1  0.894999  0.750208  0.341233  1
