# generated using pymatgen
data_Li4Fe2OF8
_symmetry_space_group_name_H-M   'P 1'
_cell_length_a   5.11546418
_cell_length_b   5.10432657
_cell_length_c   14.02581480
_cell_angle_alpha   89.92075578
_cell_angle_beta   89.96522991
_cell_angle_gamma   119.98581498
_symmetry_Int_Tables_number   1
_chemical_formula_structural   Li4Fe2OF8
_chemical_formula_sum   'Li8 Fe4 O2 F16'
_cell_volume   317.20745671
_cell_formula_units_Z   2
loop_
 _symmetry_equiv_pos_site_id
 _symmetry_equiv_pos_as_xyz
  1  'x, y, z'
loop_
 _atom_site_type_symbol
 _atom_site_label
 _atom_site_symmetry_multiplicity
 _atom_site_fract_x
 _atom_site_fract_y
 _atom_site_fract_z
 _atom_site_occupancy
  Li  Li0  1  0.321838  0.652979  0.309662  1
  Li  Li1  1  0.333111  0.675940  0.015965  1
  Li  Li2  1  0.329750  0.649905  0.809132  1
  Li  Li3  1  0.338687  0.669411  0.513416  1
  Li  Li4  1  0.688692  0.337495  0.189860  1
  Li  Li5  1  0.649327  0.331889  0.689796  1
  Li  Li6  1  0.667227  0.343216  0.983909  1
  Li  Li7  1  0.671718  0.337676  0.486055  1
  Fe  Fe8  1  0.005549  0.020676  0.149132  1
  Fe  Fe9  1  0.013677  0.015343  0.650272  1
  Fe  Fe10  1  0.998643  0.014693  0.350438  1
  Fe  Fe11  1  0.017092  0.018230  0.849790  1
  O  O12  1  0.004381  0.274721  0.249719  1
  O  O13  1  0.271999  0.273481  0.749782  1
  F  F14  1  0.984169  0.685180  0.751610  1
  F  F15  1  0.021877  0.683487  0.412355  1
  F  F16  1  0.322992  0.977223  0.918331  1
  F  F17  1  0.020057  0.351997  0.917500  1
  F  F18  1  0.328155  0.347047  0.418302  1
  F  F19  1  0.649803  0.973580  0.417132  1
  F  F20  1  0.349126  0.327746  0.079035  1
  F  F21  1  0.300677  0.986165  0.247442  1
  F  F22  1  0.659711  0.687209  0.913612  1
  F  F23  1  0.348725  0.019389  0.581514  1
  F  F24  1  0.702080  0.688620  0.251156  1
  F  F25  1  0.684227  0.659283  0.586647  1
  F  F26  1  0.975556  0.662542  0.086277  1
  F  F27  1  0.676565  0.025677  0.082422  1
  F  F28  1  0.686650  0.986423  0.748306  1
  F  F29  1  0.976293  0.322589  0.579940  1
