# generated using pymatgen
data_NbGaO4
_symmetry_space_group_name_H-M   'P 1'
_cell_length_a   3.86957977
_cell_length_b   6.64712508
_cell_length_c   6.71221470
_cell_angle_alpha   107.07831056
_cell_angle_beta   90.00000000
_cell_angle_gamma   106.92212699
_symmetry_Int_Tables_number   1
_chemical_formula_structural   NbGaO4
_chemical_formula_sum   'Nb2 Ga2 O8'
_cell_volume   157.19860075
_cell_formula_units_Z   2
loop_
 _symmetry_equiv_pos_site_id
 _symmetry_equiv_pos_as_xyz
  1  'x, y, z'
loop_
 _atom_site_type_symbol
 _atom_site_label
 _atom_site_symmetry_multiplicity
 _atom_site_fract_x
 _atom_site_fract_y
 _atom_site_fract_z
 _atom_site_occupancy
  O  O0  1  0.861232  0.726294  0.482688  1
  O  O1  1  0.134940  0.273706  0.517312  1
  O  O2  1  0.942964  0.889750  0.132675  1
  O  O3  1  0.053216  0.110250  0.867325  1
  O  O4  1  0.256471  0.516771  0.144813  1
  O  O5  1  0.739700  0.483229  0.855186  1
  O  O6  1  0.637188  0.278168  0.204224  1
  O  O7  1  0.359018  0.721832  0.795777  1
  Ga  Ga8  1  0.195277  0.394386  0.815510  1
  Ga  Ga9  1  0.800893  0.605614  0.184491  1
  Nb  Nb10  1  0.102009  0.207798  0.230910  1
  Nb  Nb11  1  0.894211  0.792201  0.769091  1
