# generated using pymatgen
data_Ca4Al6O13
_symmetry_space_group_name_H-M   'P 1'
_cell_length_a   7.68589309
_cell_length_b   7.68589309
_cell_length_c   7.68589310
_cell_angle_alpha   109.47122068
_cell_angle_beta   109.47122068
_cell_angle_gamma   109.47122060
_symmetry_Int_Tables_number   1
_chemical_formula_structural   Ca4Al6O13
_chemical_formula_sum   'Ca4 Al6 O13'
_cell_volume   349.51122443
_cell_formula_units_Z   1
loop_
 _symmetry_equiv_pos_site_id
 _symmetry_equiv_pos_as_xyz
  1  'x, y, z'
loop_
 _atom_site_type_symbol
 _atom_site_label
 _atom_site_symmetry_multiplicity
 _atom_site_fract_x
 _atom_site_fract_y
 _atom_site_fract_z
 _atom_site_occupancy
  O  O0  1  0.000000  0.000000  0.000000  1
  O  O1  1  0.549193  0.549193  0.278963  1
  O  O2  1  0.270230  0.721037  0.270230  1
  O  O3  1  0.721037  0.270230  0.270230  1
  O  O4  1  0.000000  0.729770  0.450807  1
  O  O5  1  0.729770  0.000000  0.450807  1
  O  O6  1  0.450807  0.000000  0.729770  1
  O  O7  1  0.549193  0.278963  0.549193  1
  O  O8  1  0.278963  0.549193  0.549193  1
  O  O9  1  0.000000  0.450807  0.729770  1
  O  O10  1  0.270230  0.270230  0.721037  1
  O  O11  1  0.729770  0.450807  0.000000  1
  O  O12  1  0.450807  0.729770  0.000000  1
  Al  Al13  1  0.500000  0.750000  0.250000  1
  Al  Al14  1  0.250000  0.750000  0.500000  1
  Al  Al15  1  0.750000  0.250000  0.500000  1
  Al  Al16  1  0.250000  0.500000  0.750000  1
  Al  Al17  1  0.750000  0.500000  0.250000  1
  Al  Al18  1  0.500000  0.250000  0.750000  1
  Ca  Ca19  1  0.000000  0.000000  0.692218  1
  Ca  Ca20  1  0.000000  0.692218  0.000000  1
  Ca  Ca21  1  0.692218  0.000000  0.000000  1
  Ca  Ca22  1  0.307782  0.307782  0.307782  1
