# generated using pymatgen
data_Li2Fe5(Si2O7)2
_symmetry_space_group_name_H-M   'P 1'
_cell_length_a   7.64353141
_cell_length_b   8.11990432
_cell_length_c   5.54570726
_cell_angle_alpha   91.68479626
_cell_angle_beta   104.17562438
_cell_angle_gamma   114.86899794
_symmetry_Int_Tables_number   1
_chemical_formula_structural   Li2Fe5(Si2O7)2
_chemical_formula_sum   'Li2 Fe5 Si4 O14'
_cell_volume   299.31882368
_cell_formula_units_Z   1
loop_
 _symmetry_equiv_pos_site_id
 _symmetry_equiv_pos_as_xyz
  1  'x, y, z'
loop_
 _atom_site_type_symbol
 _atom_site_label
 _atom_site_symmetry_multiplicity
 _atom_site_fract_x
 _atom_site_fract_y
 _atom_site_fract_z
 _atom_site_occupancy
  Li  Li0  1  0.101472  0.453676  0.231342  1
  Li  Li1  1  0.898528  0.546324  0.768658  1
  Fe  Fe2  1  0.000000  0.000000  0.000000  1
  Fe  Fe3  1  0.390713  0.809909  0.074261  1
  Fe  Fe4  1  0.579791  0.704967  0.637850  1
  Fe  Fe5  1  0.420209  0.295033  0.362151  1
  Fe  Fe6  1  0.609287  0.190091  0.925739  1
  Si  Si7  1  0.223546  0.862866  0.498855  1
  Si  Si8  1  0.206864  0.391022  0.788550  1
  Si  Si9  1  0.793136  0.608978  0.211450  1
  Si  Si10  1  0.776454  0.137134  0.501145  1
  O  O11  1  0.179948  0.569437  0.885228  1
  O  O12  1  0.339535  0.960489  0.792679  1
  O  O13  1  0.016627  0.277414  0.526857  1
  O  O14  1  0.324409  0.736506  0.404386  1
  O  O15  1  0.183992  0.268071  0.020860  1
  O  O16  1  0.406614  0.439467  0.691774  1
  O  O17  1  0.225701  0.018315  0.313956  1
  O  O18  1  0.774299  0.981685  0.686044  1
  O  O19  1  0.593386  0.560533  0.308226  1
  O  O20  1  0.816008  0.731929  0.979140  1
  O  O21  1  0.675591  0.263495  0.595614  1
  O  O22  1  0.983373  0.722586  0.473143  1
  O  O23  1  0.660465  0.039511  0.207321  1
  O  O24  1  0.820052  0.430563  0.114772  1
