# generated using pymatgen
data_Li2Mn(PO3)4
_symmetry_space_group_name_H-M   'P 1'
_cell_length_a   8.07374178
_cell_length_b   9.53097259
_cell_length_c   13.37377924
_cell_angle_alpha   90.00000000
_cell_angle_beta   89.80816983
_cell_angle_gamma   90.00000000
_symmetry_Int_Tables_number   1
_chemical_formula_structural   Li2Mn(PO3)4
_chemical_formula_sum   'Li8 Mn4 P16 O48'
_cell_volume   1029.11472413
_cell_formula_units_Z   4
loop_
 _symmetry_equiv_pos_site_id
 _symmetry_equiv_pos_as_xyz
  1  'x, y, z'
loop_
 _atom_site_type_symbol
 _atom_site_label
 _atom_site_symmetry_multiplicity
 _atom_site_fract_x
 _atom_site_fract_y
 _atom_site_fract_z
 _atom_site_occupancy
  Li  Li0  1  0.135059  0.308611  0.821476  1
  Li  Li1  1  0.364942  0.808607  0.678529  1
  Li  Li2  1  0.504556  0.750889  0.489696  1
  Li  Li3  1  0.495444  0.249110  0.510304  1
  Li  Li4  1  0.635059  0.191389  0.321476  1
  Li  Li5  1  0.864942  0.691393  0.178529  1
  Li  Li6  1  0.004556  0.749111  0.989696  1
  Li  Li7  1  0.995444  0.250890  0.010304  1
  Mn  Mn8  1  0.880446  0.249875  0.504620  1
  Mn  Mn9  1  0.119552  0.750119  0.495383  1
  Mn  Mn10  1  0.380446  0.250125  0.004620  1
  Mn  Mn11  1  0.619552  0.749881  0.995383  1
  P  P12  1  0.830624  0.502577  0.860781  1
  P  P13  1  0.171457  0.007197  0.860529  1
  P  P14  1  0.546064  0.009869  0.846344  1
  P  P15  1  0.457927  0.505459  0.847328  1
  P  P16  1  0.953929  0.509842  0.653662  1
  P  P17  1  0.042071  0.005473  0.652668  1
  P  P18  1  0.669381  0.002589  0.639219  1
  P  P19  1  0.328544  0.507188  0.639469  1
  P  P20  1  0.671457  0.492803  0.360529  1
  P  P21  1  0.330624  0.997423  0.360781  1
  P  P22  1  0.957927  0.994541  0.347328  1
  P  P23  1  0.046064  0.490131  0.346344  1
  P  P24  1  0.542071  0.494527  0.152668  1
  P  P25  1  0.453929  0.990158  0.153662  1
  P  P26  1  0.828544  0.992812  0.139469  1
  P  P27  1  0.169381  0.497411  0.139219  1
  O  O28  1  0.825781  0.618118  0.937902  1
  O  O29  1  0.176045  0.136777  0.926650  1
  O  O30  1  0.445222  0.618032  0.924672  1
  O  O31  1  0.548144  0.122960  0.923299  1
  O  O32  1  0.089580  0.876640  0.893838  1
  O  O33  1  0.929526  0.372858  0.883193  1
  O  O34  1  0.637660  0.875655  0.863738  1
  O  O35  1  0.353183  0.375863  0.860641  1
  O  O36  1  0.645897  0.455088  0.829943  1
  O  O37  1  0.354153  0.966072  0.818250  1
  O  O38  1  0.897087  0.576542  0.759385  1
  O  O39  1  0.089083  0.075672  0.759670  1
  O  O40  1  0.602915  0.076545  0.740616  1
  O  O41  1  0.410920  0.575674  0.740328  1
  O  O42  1  0.145848  0.466070  0.681748  1
  O  O43  1  0.854106  0.955088  0.670061  1
  O  O44  1  0.862346  0.375658  0.636264  1
  O  O45  1  0.146822  0.875856  0.639359  1
  O  O46  1  0.410410  0.376645  0.606159  1
  O  O47  1  0.570470  0.872854  0.616811  1
  O  O48  1  0.951855  0.622963  0.576696  1
  O  O49  1  0.054781  0.118022  0.575329  1
  O  O50  1  0.323955  0.636784  0.573348  1
  O  O51  1  0.674220  0.118112  0.562103  1
  O  O52  1  0.676045  0.363223  0.426650  1
  O  O53  1  0.325781  0.881882  0.437902  1
  O  O54  1  0.945222  0.881968  0.424672  1
  O  O55  1  0.048144  0.377040  0.423299  1
  O  O56  1  0.589580  0.623360  0.393838  1
  O  O57  1  0.429526  0.127142  0.383193  1
  O  O58  1  0.853183  0.124137  0.360641  1
  O  O59  1  0.137660  0.624345  0.363738  1
  O  O60  1  0.854153  0.533928  0.318250  1
  O  O61  1  0.145897  0.044912  0.329943  1
  O  O62  1  0.589083  0.424328  0.259670  1
  O  O63  1  0.397087  0.923458  0.259385  1
  O  O64  1  0.910920  0.924326  0.240328  1
  O  O65  1  0.102915  0.423455  0.240616  1
  O  O66  1  0.645848  0.033930  0.181748  1
  O  O67  1  0.354106  0.544912  0.170061  1
  O  O68  1  0.362346  0.124342  0.136264  1
  O  O69  1  0.646822  0.624144  0.139359  1
  O  O70  1  0.910410  0.123355  0.106159  1
  O  O71  1  0.070470  0.627146  0.116811  1
  O  O72  1  0.554781  0.381978  0.075329  1
  O  O73  1  0.451856  0.877037  0.076696  1
  O  O74  1  0.823955  0.863216  0.073348  1
  O  O75  1  0.174220  0.381888  0.062103  1
