# generated using pymatgen
data_Nd4O3F7
_symmetry_space_group_name_H-M   'P 1'
_cell_length_a   5.51608927
_cell_length_b   5.86685363
_cell_length_c   5.85216751
_cell_angle_alpha   90.00000000
_cell_angle_beta   90.00000000
_cell_angle_gamma   91.10057127
_symmetry_Int_Tables_number   1
_chemical_formula_structural   Nd4O3F7
_chemical_formula_sum   'Nd4 O3 F7'
_cell_volume   189.35342368
_cell_formula_units_Z   1
loop_
 _symmetry_equiv_pos_site_id
 _symmetry_equiv_pos_as_xyz
  1  'x, y, z'
loop_
 _atom_site_type_symbol
 _atom_site_label
 _atom_site_symmetry_multiplicity
 _atom_site_fract_x
 _atom_site_fract_y
 _atom_site_fract_z
 _atom_site_occupancy
  Nd  Nd0  1  0.022209  0.248899  0.275044  1
  Nd  Nd1  1  0.510999  0.251898  0.796104  1
  Nd  Nd2  1  0.989001  0.748102  0.796104  1
  Nd  Nd3  1  0.477791  0.751101  0.275044  1
  O  O4  1  0.250000  0.000000  0.040156  1
  O  O5  1  0.750000  0.000000  0.025682  1
  O  O6  1  0.250000  0.500000  0.996143  1
  F  F7  1  0.250000  0.000000  0.560010  1
  F  F8  1  0.433953  0.353780  0.399622  1
  F  F9  1  0.750000  0.000000  0.494409  1
  F  F10  1  0.066047  0.646220  0.399622  1
  F  F11  1  0.575059  0.653247  0.679831  1
  F  F12  1  0.924941  0.346753  0.679831  1
  F  F13  1  0.750000  0.500000  0.080396  1
