# generated using pymatgen
data_Li2MnSiO4
_symmetry_space_group_name_H-M   'P 1'
_cell_length_a   5.04875406
_cell_length_b   5.04872717
_cell_length_c   11.82991474
_cell_angle_alpha   90.00488156
_cell_angle_beta   89.99668462
_cell_angle_gamma   119.99702955
_symmetry_Int_Tables_number   1
_chemical_formula_structural   Li2MnSiO4
_chemical_formula_sum   'Li6 Mn3 Si3 O12'
_cell_volume   261.15079993
_cell_formula_units_Z   3
loop_
 _symmetry_equiv_pos_site_id
 _symmetry_equiv_pos_as_xyz
  1  'x, y, z'
loop_
 _atom_site_type_symbol
 _atom_site_label
 _atom_site_symmetry_multiplicity
 _atom_site_fract_x
 _atom_site_fract_y
 _atom_site_fract_z
 _atom_site_occupancy
  Li  Li0  1  0.329702  0.892460  0.585920  1
  Li  Li1  1  0.107588  0.437244  0.919206  1
  Li  Li2  1  0.562690  0.670325  0.252536  1
  Li  Li3  1  0.437258  0.107585  0.080789  1
  Li  Li4  1  0.670314  0.562665  0.747458  1
  Li  Li5  1  0.892452  0.329715  0.414083  1
  Mn  Mn6  1  0.000087  0.452721  0.166611  1
  Mn  Mn7  1  0.547371  0.547390  0.499989  1
  Mn  Mn8  1  0.452708  0.000069  0.833390  1
  Si  Si9  1  0.000011  0.204374  0.666740  1
  Si  Si10  1  0.204396  0.000023  0.333262  1
  Si  Si11  1  0.795607  0.795610  -0.000007  1
  O  O12  1  0.134952  0.840979  0.967389  1
  O  O13  1  0.101586  0.442867  0.558356  1
  O  O14  1  0.341285  0.898476  0.225055  1
  O  O15  1  0.158989  0.293972  0.300639  1
  O  O16  1  0.293950  0.158977  0.699366  1
  O  O17  1  0.706099  0.864933  0.634013  1
  O  O18  1  0.557095  0.658609  0.891705  1
  O  O19  1  0.658631  0.557110  0.108302  1
  O  O20  1  0.442856  0.101591  0.441644  1
  O  O21  1  0.864951  0.706099  0.365970  1
  O  O22  1  0.840978  0.134968  0.032608  1
  O  O23  1  0.898443  0.341243  0.774943  1
