# generated using pymatgen
data_LiV2F7
_symmetry_space_group_name_H-M   'P 1'
_cell_length_a   13.24839794
_cell_length_b   5.10711096
_cell_length_c   7.49443117
_cell_angle_alpha   90.00000000
_cell_angle_beta   95.96350190
_cell_angle_gamma   90.00000000
_symmetry_Int_Tables_number   1
_chemical_formula_structural   LiV2F7
_chemical_formula_sum   'Li4 V8 F28'
_cell_volume   504.33681392
_cell_formula_units_Z   4
loop_
 _symmetry_equiv_pos_site_id
 _symmetry_equiv_pos_as_xyz
  1  'x, y, z'
loop_
 _atom_site_type_symbol
 _atom_site_label
 _atom_site_symmetry_multiplicity
 _atom_site_fract_x
 _atom_site_fract_y
 _atom_site_fract_z
 _atom_site_occupancy
  Li  Li0  1  0.072971  0.758916  0.851308  1
  Li  Li1  1  0.072971  0.741084  0.351308  1
  Li  Li2  1  0.927029  0.258916  0.648692  1
  Li  Li3  1  0.927029  0.241084  0.148692  1
  V  V4  1  0.182346  0.244457  0.665305  1
  V  V5  1  0.182346  0.255543  0.165305  1
  V  V6  1  0.393891  0.749155  0.727674  1
  V  V7  1  0.393891  0.750845  0.227674  1
  V  V8  1  0.606109  0.249155  0.772326  1
  V  V9  1  0.606109  0.250845  0.272326  1
  V  V10  1  0.817654  0.744457  0.834695  1
  V  V11  1  0.817654  0.755543  0.334695  1
  F  F12  1  0.107745  0.937884  0.584022  1
  F  F13  1  0.059109  0.438279  0.694424  1
  F  F14  1  0.176300  0.095968  0.915886  1
  F  F15  1  0.107745  0.562116  0.084022  1
  F  F16  1  0.059109  0.061721  0.194424  1
  F  F17  1  0.176300  0.404032  0.415886  1
  F  F18  1  0.311285  0.053301  0.645639  1
  F  F19  1  0.267885  0.543679  0.757858  1
  F  F20  1  0.311285  0.446699  0.145639  1
  F  F21  1  0.267885  0.956321  0.257858  1
  F  F22  1  0.393553  0.629604  0.477408  1
  F  F23  1  0.393553  0.870396  0.977408  1
  F  F24  1  0.480158  0.450974  0.804569  1
  F  F25  1  0.519842  0.950974  0.695431  1
  F  F26  1  0.480158  0.049026  0.304569  1
  F  F27  1  0.519842  0.549026  0.195431  1
  F  F28  1  0.606447  0.129604  0.022592  1
  F  F29  1  0.606447  0.370396  0.522592  1
  F  F30  1  0.732115  0.043679  0.742142  1
  F  F31  1  0.688715  0.553301  0.854361  1
  F  F32  1  0.732115  0.456321  0.242142  1
  F  F33  1  0.688715  0.946699  0.354361  1
  F  F34  1  0.823700  0.595968  0.584114  1
  F  F35  1  0.940891  0.938279  0.805576  1
  F  F36  1  0.892255  0.437884  0.915978  1
  F  F37  1  0.823700  0.904032  0.084114  1
  F  F38  1  0.940891  0.561721  0.305576  1
  F  F39  1  0.892255  0.062116  0.415978  1
