# generated using pymatgen
data_Li2FeF4
_symmetry_space_group_name_H-M   'P 1'
_cell_length_a   6.31901668
_cell_length_b   5.36037556
_cell_length_c   10.13189183
_cell_angle_alpha   90.00000000
_cell_angle_beta   77.38998049
_cell_angle_gamma   90.00000000
_symmetry_Int_Tables_number   1
_chemical_formula_structural   Li2FeF4
_chemical_formula_sum   'Li8 Fe4 F16'
_cell_volume   334.91226981
_cell_formula_units_Z   4
loop_
 _symmetry_equiv_pos_site_id
 _symmetry_equiv_pos_as_xyz
  1  'x, y, z'
loop_
 _atom_site_type_symbol
 _atom_site_label
 _atom_site_symmetry_multiplicity
 _atom_site_fract_x
 _atom_site_fract_y
 _atom_site_fract_z
 _atom_site_occupancy
  Li  Li0  1  0.920196  0.737664  0.309256  1
  Li  Li1  1  0.091122  0.196547  0.065714  1
  Li  Li2  1  0.408878  0.696547  0.434286  1
  Li  Li3  1  0.579804  0.237664  0.190744  1
  Li  Li4  1  0.420196  0.762336  0.809256  1
  Li  Li5  1  0.591122  0.303453  0.565714  1
  Li  Li6  1  0.908878  0.803453  0.934286  1
  Li  Li7  1  0.079804  0.262336  0.690744  1
  Fe  Fe8  1  0.196541  0.180326  0.396931  1
  Fe  Fe9  1  0.303459  0.680326  0.103069  1
  Fe  Fe10  1  0.696541  0.319674  0.896931  1
  Fe  Fe11  1  0.803459  0.819674  0.603069  1
  F  F12  1  0.098673  0.791158  0.473497  1
  F  F13  1  0.002429  0.525616  0.159709  1
  F  F14  1  0.199930  0.877548  0.949294  1
  F  F15  1  0.125092  0.995237  0.225780  1
  F  F16  1  0.374908  0.495237  0.274220  1
  F  F17  1  0.300070  0.377548  0.550706  1
  F  F18  1  0.497571  0.025616  0.340291  1
  F  F19  1  0.401327  0.291158  0.026503  1
  F  F20  1  0.598673  0.708842  0.973497  1
  F  F21  1  0.502429  0.974384  0.659709  1
  F  F22  1  0.699930  0.622452  0.449294  1
  F  F23  1  0.625092  0.504763  0.725780  1
  F  F24  1  0.874908  0.004763  0.774220  1
  F  F25  1  0.800070  0.122452  0.050706  1
  F  F26  1  0.997571  0.474384  0.840291  1
  F  F27  1  0.901327  0.208842  0.526503  1
