# generated using pymatgen
data_HC2S2N(O2F3)2
_symmetry_space_group_name_H-M   'P 1'
_cell_length_a   16.57507642
_cell_length_b   5.59100161
_cell_length_c   9.66387329
_cell_angle_alpha   90.00000000
_cell_angle_beta   90.00000000
_cell_angle_gamma   90.00000000
_symmetry_Int_Tables_number   1
_chemical_formula_structural   HC2S2N(O2F3)2
_chemical_formula_sum   'H4 C8 S8 N4 O16 F24'
_cell_volume   895.56349740
_cell_formula_units_Z   4
loop_
 _symmetry_equiv_pos_site_id
 _symmetry_equiv_pos_as_xyz
  1  'x, y, z'
loop_
 _atom_site_type_symbol
 _atom_site_label
 _atom_site_symmetry_multiplicity
 _atom_site_fract_x
 _atom_site_fract_y
 _atom_site_fract_z
 _atom_site_occupancy
  H  H0  1  0.250000  0.250000  0.401683  1
  H  H1  1  0.750000  0.750000  0.098317  1
  H  H2  1  0.750000  0.750000  0.598317  1
  H  H3  1  0.250000  0.250000  0.901683  1
  C  C4  1  0.091755  0.224315  0.591018  1
  C  C5  1  0.408245  0.275685  0.591018  1
  C  C6  1  0.591755  0.775685  0.908982  1
  C  C7  1  0.908245  0.724315  0.908982  1
  C  C8  1  0.908245  0.775685  0.408982  1
  C  C9  1  0.591755  0.724315  0.408982  1
  C  C10  1  0.408245  0.224315  0.091018  1
  C  C11  1  0.091755  0.275685  0.091018  1
  S  S12  1  0.181786  0.426889  0.582855  1
  S  S13  1  0.318214  0.073111  0.582855  1
  S  S14  1  0.681786  0.573111  0.917145  1
  S  S15  1  0.818214  0.926889  0.917145  1
  S  S16  1  0.818214  0.573111  0.417145  1
  S  S17  1  0.681786  0.926889  0.417145  1
  S  S18  1  0.318214  0.426889  0.082855  1
  S  S19  1  0.181786  0.073111  0.082855  1
  N  N20  1  0.250000  0.250000  0.508151  1
  N  N21  1  0.750000  0.750000  0.991849  1
  N  N22  1  0.750000  0.750000  0.491849  1
  N  N23  1  0.250000  0.250000  0.008151  1
  O  O24  1  0.205754  0.472125  0.722910  1
  O  O25  1  0.294246  0.027875  0.722910  1
  O  O26  1  0.705754  0.527875  0.777090  1
  O  O27  1  0.794246  0.972125  0.777090  1
  O  O28  1  0.794246  0.527875  0.277090  1
  O  O29  1  0.705754  0.972125  0.277090  1
  O  O30  1  0.294246  0.472125  0.222910  1
  O  O31  1  0.205754  0.027875  0.222910  1
  O  O32  1  0.161731  0.609035  0.484318  1
  O  O33  1  0.338269  0.890965  0.484318  1
  O  O34  1  0.661731  0.390965  0.015682  1
  O  O35  1  0.838269  0.109035  0.015682  1
  O  O36  1  0.838269  0.390965  0.515682  1
  O  O37  1  0.661731  0.109035  0.515682  1
  O  O38  1  0.338269  0.609035  0.984318  1
  O  O39  1  0.161731  0.890965  0.984318  1
  F  F40  1  0.106984  0.035662  0.673192  1
  F  F41  1  0.393016  0.464338  0.673192  1
  F  F42  1  0.606984  0.964338  0.826808  1
  F  F43  1  0.893016  0.535662  0.826808  1
  F  F44  1  0.893016  0.964338  0.326808  1
  F  F45  1  0.606984  0.535662  0.326808  1
  F  F46  1  0.393016  0.035662  0.173192  1
  F  F47  1  0.106984  0.464338  0.173192  1
  F  F48  1  0.073189  0.148137  0.462487  1
  F  F49  1  0.426811  0.351863  0.462487  1
  F  F50  1  0.573189  0.851863  0.037513  1
  F  F51  1  0.926811  0.648137  0.037513  1
  F  F52  1  0.926811  0.851863  0.537513  1
  F  F53  1  0.573189  0.648137  0.537513  1
  F  F54  1  0.426811  0.148137  0.962487  1
  F  F55  1  0.073189  0.351863  0.962487  1
  F  F56  1  0.029735  0.351914  0.643302  1
  F  F57  1  0.470265  0.148086  0.643302  1
  F  F58  1  0.529735  0.648086  0.856698  1
  F  F59  1  0.970265  0.851914  0.856698  1
  F  F60  1  0.970265  0.648086  0.356698  1
  F  F61  1  0.529735  0.851914  0.356698  1
  F  F62  1  0.470265  0.351914  0.143302  1
  F  F63  1  0.029735  0.148086  0.143302  1
