# generated using pymatgen
data_Li6Mn5Fe(BO3)6
_symmetry_space_group_name_H-M   'P 1'
_cell_length_a   8.27155302
_cell_length_b   14.33027314
_cell_length_c   3.18374013
_cell_angle_alpha   90.00000000
_cell_angle_beta   90.00000000
_cell_angle_gamma   90.09913367
_symmetry_Int_Tables_number   1
_chemical_formula_structural   Li6Mn5Fe(BO3)6
_chemical_formula_sum   'Li6 Mn5 Fe1 B6 O18'
_cell_volume   377.37965895
_cell_formula_units_Z   1
loop_
 _symmetry_equiv_pos_site_id
 _symmetry_equiv_pos_as_xyz
  1  'x, y, z'
loop_
 _atom_site_type_symbol
 _atom_site_label
 _atom_site_symmetry_multiplicity
 _atom_site_fract_x
 _atom_site_fract_y
 _atom_site_fract_z
 _atom_site_occupancy
  Li  Li0  1  0.292630  0.990367  0.500000  1
  Li  Li1  1  0.340607  0.358208  0.500000  1
  Li  Li2  1  0.366455  0.651025  0.500000  1
  Li  Li3  1  0.792928  0.491772  0.500000  1
  Li  Li4  1  0.841468  0.857313  0.500000  1
  Li  Li5  1  0.867136  0.150432  0.500000  1
  Mn  Mn6  1  0.134984  0.506274  0.000000  1
  Mn  Mn7  1  0.191995  0.179970  0.000000  1
  Mn  Mn8  1  0.634076  0.005582  0.000000  1
  Mn  Mn9  1  0.673597  0.314695  0.000000  1
  Mn  Mn10  1  0.691590  0.679793  0.000000  1
  Fe  Fe11  1  0.175266  0.816728  0.000000  1
  B  B12  1  0.001707  0.667763  0.500000  1
  B  B13  1  0.999563  0.999003  0.000000  1
  B  B14  1  0.000020  0.333370  0.500000  1
  B  B15  1  0.499930  0.166475  0.500000  1
  B  B16  1  0.499961  0.500109  0.000000  1
  B  B17  1  0.497827  0.833256  0.500000  1
  O  O18  1  0.010546  0.430019  0.500000  1
  O  O19  1  0.018155  0.764304  0.500000  1
  O  O20  1  0.138636  0.611131  0.500000  1
  O  O21  1  0.139873  0.279710  0.500000  1
  O  O22  1  0.153403  0.958400  0.000000  1
  O  O23  1  0.347420  0.124908  0.500000  1
  O  O24  1  0.346379  0.790875  0.500000  1
  O  O25  1  0.364221  0.442195  0.000000  1
  O  O26  1  0.481183  0.596786  0.000000  1
  O  O27  1  0.509922  0.929975  0.500000  1
  O  O28  1  0.513799  0.263324  0.500000  1
  O  O29  1  0.638169  0.111171  0.500000  1
  O  O30  1  0.637408  0.779446  0.500000  1
  O  O31  1  0.654578  0.461192  0.000000  1
  O  O32  1  0.848584  0.626587  0.500000  1
  O  O33  1  0.849631  0.290039  0.500000  1
  O  O34  1  0.863262  0.942044  0.000000  1
  O  O35  1  0.983092  0.095763  0.000000  1
