# generated using pymatgen
data_Li4Bi2S7
_symmetry_space_group_name_H-M   'P 1'
_cell_length_a   6.17140847
_cell_length_b   12.55870218
_cell_length_c   7.47245976
_cell_angle_alpha   90.00000000
_cell_angle_beta   99.90087473
_cell_angle_gamma   90.00000000
_symmetry_Int_Tables_number   1
_chemical_formula_structural   Li4Bi2S7
_chemical_formula_sum   'Li8 Bi4 S14'
_cell_volume   570.52661891
_cell_formula_units_Z   2
loop_
 _symmetry_equiv_pos_site_id
 _symmetry_equiv_pos_as_xyz
  1  'x, y, z'
loop_
 _atom_site_type_symbol
 _atom_site_label
 _atom_site_symmetry_multiplicity
 _atom_site_fract_x
 _atom_site_fract_y
 _atom_site_fract_z
 _atom_site_occupancy
  Li  Li0  1  0.165831  0.612118  0.524253  1
  Li  Li1  1  0.168355  0.833227  0.879751  1
  Li  Li2  1  0.331645  0.333227  0.620249  1
  Li  Li3  1  0.334169  0.112118  0.975747  1
  Li  Li4  1  0.665831  0.887882  0.024253  1
  Li  Li5  1  0.668355  0.666773  0.379751  1
  Li  Li6  1  0.831645  0.166773  0.120249  1
  Li  Li7  1  0.834169  0.387882  0.475747  1
  Bi  Bi8  1  0.210016  0.973353  0.359812  1
  Bi  Bi9  1  0.289984  0.473353  0.140188  1
  Bi  Bi10  1  0.710016  0.526647  0.859812  1
  Bi  Bi11  1  0.789984  0.026647  0.640188  1
  S  S12  1  0.802568  0.235897  0.705261  1
  S  S13  1  0.088727  0.228943  0.385050  1
  S  S14  1  0.000000  0.000000  0.000000  1
  S  S15  1  0.074425  0.485793  0.761560  1
  S  S16  1  0.425575  0.985793  0.738440  1
  S  S17  1  0.697432  0.735897  0.794739  1
  S  S18  1  0.588727  0.271057  0.885050  1
  S  S19  1  0.500000  0.500000  0.500000  1
  S  S20  1  0.411273  0.728943  0.114950  1
  S  S21  1  0.302568  0.264103  0.205261  1
  S  S22  1  0.574425  0.014207  0.261560  1
  S  S23  1  0.925575  0.514207  0.238440  1
  S  S24  1  0.911273  0.771057  0.614950  1
  S  S25  1  0.197432  0.764103  0.294739  1
