# generated using pymatgen
data_Li3Fe8(BO3)8
_symmetry_space_group_name_H-M   'P 1'
_cell_length_a   5.30114146
_cell_length_b   9.07402340
_cell_length_c   10.11159407
_cell_angle_alpha   90.50197922
_cell_angle_beta   90.66541748
_cell_angle_gamma   89.57847281
_symmetry_Int_Tables_number   1
_chemical_formula_structural   Li3Fe8(BO3)8
_chemical_formula_sum   'Li3 Fe8 B8 O24'
_cell_volume   486.33052002
_cell_formula_units_Z   1
loop_
 _symmetry_equiv_pos_site_id
 _symmetry_equiv_pos_as_xyz
  1  'x, y, z'
loop_
 _atom_site_type_symbol
 _atom_site_label
 _atom_site_symmetry_multiplicity
 _atom_site_fract_x
 _atom_site_fract_y
 _atom_site_fract_z
 _atom_site_occupancy
  Li  Li0  1  0.344261  0.012760  0.841139  1
  Li  Li1  1  0.657744  0.999779  0.122712  1
  Li  Li2  1  0.844946  0.506688  0.840885  1
  Fe  Fe3  1  0.161410  0.171550  0.124217  1
  Fe  Fe4  1  0.843827  0.161730  0.374020  1
  Fe  Fe5  1  0.334721  0.345088  0.872747  1
  Fe  Fe6  1  0.650893  0.329241  0.618943  1
  Fe  Fe7  1  0.336231  0.665349  0.369076  1
  Fe  Fe8  1  0.152747  0.831236  0.618942  1
  Fe  Fe9  1  0.664139  0.659474  0.121517  1
  Fe  Fe10  1  0.844058  0.843349  0.871533  1
  B  B11  1  0.158995  0.168450  0.628684  1
  B  B12  1  0.335135  0.336248  0.369849  1
  B  B13  1  0.832719  0.169211  0.877252  1
  B  B14  1  0.662748  0.328656  0.117645  1
  B  B15  1  0.337279  0.671319  0.872597  1
  B  B16  1  0.660647  0.669494  0.625117  1
  B  B17  1  0.168266  0.835763  0.122136  1
  B  B18  1  0.825863  0.826726  0.362114  1
  O  O19  1  0.252701  0.028678  0.647178  1
  O  O20  1  0.087663  0.168883  0.916054  1
  O  O21  1  0.691871  0.043342  0.891188  1
  O  O22  1  0.208897  0.214056  0.316349  1
  O  O23  1  0.304788  0.288349  0.666677  1
  O  O24  1  0.797928  0.200944  0.152262  1
  O  O25  1  0.918194  0.189290  0.578895  1
  O  O26  1  0.414337  0.310913  0.076205  1
  O  O27  1  0.227095  0.472517  0.365351  1
  O  O28  1  0.571835  0.314680  0.427405  1
  O  O29  1  0.724555  0.298886  0.827906  1
  O  O30  1  0.196567  0.547483  0.870548  1
  O  O31  1  0.772243  0.463040  0.117856  1
  O  O32  1  0.304311  0.712205  0.163794  1
  O  O33  1  0.426595  0.697456  0.565091  1
  O  O34  1  0.739514  0.529864  0.651132  1
  O  O35  1  0.589543  0.672054  0.920305  1
  O  O36  1  0.065263  0.805106  0.422290  1
  O  O37  1  0.234036  0.804845  0.825641  1
  O  O38  1  0.696719  0.697570  0.321643  1
  O  O39  1  0.807294  0.788621  0.666021  1
  O  O40  1  0.284920  0.969720  0.112243  1
  O  O41  1  0.912776  0.820700  0.086546  1
  O  O42  1  0.728322  0.960620  0.338891  1
