# generated using pymatgen
data_Li4Mn2Co3O10
_symmetry_space_group_name_H-M   'P 1'
_cell_length_a   7.70257494
_cell_length_b   6.49895861
_cell_length_c   7.65777051
_cell_angle_alpha   115.66413734
_cell_angle_beta   84.43308536
_cell_angle_gamma   91.16608035
_symmetry_Int_Tables_number   1
_chemical_formula_structural   Li4Mn2Co3O10
_chemical_formula_sum   'Li8 Mn4 Co6 O20'
_cell_volume   343.79128490
_cell_formula_units_Z   2
loop_
 _symmetry_equiv_pos_site_id
 _symmetry_equiv_pos_as_xyz
  1  'x, y, z'
loop_
 _atom_site_type_symbol
 _atom_site_label
 _atom_site_symmetry_multiplicity
 _atom_site_fract_x
 _atom_site_fract_y
 _atom_site_fract_z
 _atom_site_occupancy
  Li  Li0  1  0.050913  0.354003  0.794289  1
  Li  Li1  1  0.148290  0.057866  0.406501  1
  Li  Li2  1  0.998342  0.500744  0.491600  1
  Li  Li3  1  0.501658  0.999256  0.508400  1
  Li  Li4  1  0.351710  0.442134  0.593499  1
  Li  Li5  1  0.449087  0.145997  0.205711  1
  Li  Li6  1  0.662348  0.572167  0.411832  1
  Li  Li7  1  0.837652  0.927833  0.588168  1
  Mn  Mn8  1  0.295278  0.598382  0.301440  1
  Mn  Mn9  1  0.204722  0.901618  0.698560  1
  Mn  Mn10  1  0.800122  0.091907  0.303173  1
  Mn  Mn11  1  0.699878  0.408093  0.696827  1
  Co  Co12  1  0.097353  0.204889  0.101135  1
  Co  Co13  1  0.402647  0.295111  0.898865  1
  Co  Co14  1  0.250000  0.750000  0.000000  1
  Co  Co15  1  0.750000  0.250000  0.000000  1
  Co  Co16  1  0.598914  0.702391  0.100744  1
  Co  Co17  1  0.901086  0.797609  0.899256  1
  O  O18  1  0.307417  0.041004  0.949138  1
  O  O19  1  0.277946  0.167285  0.668353  1
  O  O20  1  0.222054  0.332715  0.331647  1
  O  O21  1  0.121800  0.650469  0.762560  1
  O  O22  1  0.192583  0.458996  0.050862  1
  O  O23  1  0.098101  0.781246  0.463096  1
  O  O24  1  0.624694  0.160961  0.763534  1
  O  O25  1  0.018569  0.946062  0.141389  1
  O  O26  1  0.481431  0.553938  0.858611  1
  O  O27  1  0.594907  0.278558  0.454799  1
  O  O28  1  0.401899  0.718754  0.536904  1
  O  O29  1  0.514755  0.440322  0.141534  1
  O  O30  1  0.985245  0.059678  0.858466  1
  O  O31  1  0.378200  0.849531  0.237440  1
  O  O32  1  0.905093  0.221442  0.545201  1
  O  O33  1  0.808967  0.537965  0.939044  1
  O  O34  1  0.875306  0.339039  0.236466  1
  O  O35  1  0.785712  0.666070  0.665724  1
  O  O36  1  0.714288  0.833930  0.334276  1
  O  O37  1  0.691033  0.962035  0.060956  1
