# generated using pymatgen
data_Li4Ti3Fe2Cu3O16
_symmetry_space_group_name_H-M   'P 1'
_cell_length_a   5.88547226
_cell_length_b   5.88759553
_cell_length_c   9.62488144
_cell_angle_alpha   89.98304050
_cell_angle_beta   91.00934504
_cell_angle_gamma   119.99159053
_symmetry_Int_Tables_number   1
_chemical_formula_structural   Li4Ti3Fe2Cu3O16
_chemical_formula_sum   'Li4 Ti3 Fe2 Cu3 O16'
_cell_volume   288.79770496
_cell_formula_units_Z   1
loop_
 _symmetry_equiv_pos_site_id
 _symmetry_equiv_pos_as_xyz
  1  'x, y, z'
loop_
 _atom_site_type_symbol
 _atom_site_label
 _atom_site_symmetry_multiplicity
 _atom_site_fract_x
 _atom_site_fract_y
 _atom_site_fract_z
 _atom_site_occupancy
  Li  Li0  1  0.332532  0.666581  0.896938  1
  Li  Li1  1  0.978446  0.989139  0.990571  1
  Li  Li2  1  0.998279  0.999195  0.496307  1
  Li  Li3  1  0.677162  0.338545  0.398521  1
  Ti  Ti4  1  0.177507  0.835855  0.217115  1
  Ti  Ti5  1  0.177822  0.341669  0.217053  1
  Ti  Ti6  1  0.350475  0.175422  0.721432  1
  Fe  Fe7  1  0.336887  0.668393  0.494675  1
  Fe  Fe8  1  0.671060  0.335660  0.991793  1
  Cu  Cu9  1  0.659604  0.829815  0.210245  1
  Cu  Cu10  1  0.834091  0.661413  0.709864  1
  Cu  Cu11  1  0.834185  0.172738  0.709961  1
  O  O12  1  0.176970  0.844245  0.597536  1
  O  O13  1  0.035688  0.517882  0.332817  1
  O  O14  1  0.317132  0.658601  0.102505  1
  O  O15  1  0.998770  0.999461  0.307945  1
  O  O16  1  0.994347  0.996697  0.801370  1
  O  O17  1  0.176325  0.332308  0.597760  1
  O  O18  1  0.475095  0.964902  0.343330  1
  O  O19  1  0.475026  0.509941  0.343244  1
  O  O20  1  0.327325  0.163563  0.104232  1
  O  O21  1  0.678449  0.838916  0.599165  1
  O  O22  1  0.503983  0.472541  0.844503  1
  O  O23  1  0.505531  0.032191  0.844269  1
  O  O24  1  0.667411  0.333886  0.605080  1
  O  O25  1  0.840249  0.672145  0.097330  1
  O  O26  1  0.959378  0.480384  0.835047  1
  O  O27  1  0.840273  0.168211  0.097232  1
