# generated using pymatgen
data_VH11N3Cl5
_symmetry_space_group_name_H-M   'P 1'
_cell_length_a   13.78923132
_cell_length_b   10.70147458
_cell_length_c   6.96778704
_cell_angle_alpha   90.00000000
_cell_angle_beta   90.00000000
_cell_angle_gamma   90.00000000
_symmetry_Int_Tables_number   1
_chemical_formula_structural   VH11N3Cl5
_chemical_formula_sum   'V4 H44 N12 Cl20'
_cell_volume   1028.20225021
_cell_formula_units_Z   4
loop_
 _symmetry_equiv_pos_site_id
 _symmetry_equiv_pos_as_xyz
  1  'x, y, z'
loop_
 _atom_site_type_symbol
 _atom_site_label
 _atom_site_symmetry_multiplicity
 _atom_site_fract_x
 _atom_site_fract_y
 _atom_site_fract_z
 _atom_site_occupancy
  V  V0  1  0.611778  0.250000  0.312211  1
  V  V1  1  0.111778  0.250000  0.187789  1
  V  V2  1  0.388222  0.750000  0.687789  1
  V  V3  1  0.888222  0.750000  0.812211  1
  H  H4  1  0.426847  0.250000  0.443123  1
  H  H5  1  0.926847  0.250000  0.056877  1
  H  H6  1  0.573153  0.750000  0.556877  1
  H  H7  1  0.073153  0.750000  0.943123  1
  H  H8  1  0.495420  0.327287  0.594790  1
  H  H9  1  0.995420  0.172713  0.905210  1
  H  H10  1  0.504580  0.827287  0.405210  1
  H  H11  1  0.004580  0.672713  0.094790  1
  H  H12  1  0.504580  0.672713  0.405210  1
  H  H13  1  0.004580  0.827287  0.094790  1
  H  H14  1  0.495420  0.172713  0.594790  1
  H  H15  1  0.995420  0.327287  0.905210  1
  H  H16  1  0.594432  0.525837  0.755685  1
  H  H17  1  0.094432  0.974163  0.744315  1
  H  H18  1  0.405568  0.025837  0.244315  1
  H  H19  1  0.905568  0.474163  0.255685  1
  H  H20  1  0.405568  0.474163  0.244315  1
  H  H21  1  0.905568  0.025837  0.255685  1
  H  H22  1  0.594432  0.974163  0.755685  1
  H  H23  1  0.094432  0.525837  0.744315  1
  H  H24  1  0.629138  0.518581  0.987625  1
  H  H25  1  0.129138  0.981419  0.512375  1
  H  H26  1  0.370862  0.018581  0.012375  1
  H  H27  1  0.870862  0.481419  0.487625  1
  H  H28  1  0.370862  0.481419  0.012375  1
  H  H29  1  0.870862  0.018581  0.487625  1
  H  H30  1  0.629138  0.981419  0.987625  1
  H  H31  1  0.129138  0.518581  0.512375  1
  H  H32  1  0.669035  0.410209  0.829058  1
  H  H33  1  0.169035  0.089791  0.670942  1
  H  H34  1  0.330965  0.910209  0.170942  1
  H  H35  1  0.830965  0.589791  0.329058  1
  H  H36  1  0.330965  0.589791  0.170942  1
  H  H37  1  0.830965  0.910209  0.329058  1
  H  H38  1  0.669035  0.089791  0.829058  1
  H  H39  1  0.169035  0.410209  0.670942  1
  H  H40  1  0.710002  0.557909  0.814355  1
  H  H41  1  0.210002  0.942091  0.685645  1
  H  H42  1  0.289998  0.057909  0.185645  1
  H  H43  1  0.789998  0.442091  0.314355  1
  H  H44  1  0.289998  0.442091  0.185645  1
  H  H45  1  0.789998  0.057909  0.314355  1
  H  H46  1  0.710002  0.942091  0.814355  1
  H  H47  1  0.210002  0.557909  0.685645  1
  N  N48  1  0.493572  0.250000  0.508107  1
  N  N49  1  0.993572  0.250000  0.991893  1
  N  N50  1  0.506428  0.750000  0.491893  1
  N  N51  1  0.006428  0.750000  0.008107  1
  N  N52  1  0.650312  0.503299  0.846404  1
  N  N53  1  0.150312  0.996701  0.653596  1
  N  N54  1  0.349688  0.003299  0.153596  1
  N  N55  1  0.849688  0.496701  0.346404  1
  N  N56  1  0.349688  0.496701  0.153596  1
  N  N57  1  0.849688  0.003299  0.346404  1
  N  N58  1  0.650312  0.996701  0.846404  1
  N  N59  1  0.150312  0.503299  0.653596  1
  Cl  Cl60  1  0.605281  0.476254  0.319303  1
  Cl  Cl61  1  0.105281  0.023746  0.180697  1
  Cl  Cl62  1  0.394719  0.976254  0.680697  1
  Cl  Cl63  1  0.894719  0.523746  0.819303  1
  Cl  Cl64  1  0.394719  0.523746  0.680697  1
  Cl  Cl65  1  0.894719  0.976254  0.819303  1
  Cl  Cl66  1  0.605281  0.023746  0.319303  1
  Cl  Cl67  1  0.105281  0.476254  0.180697  1
  Cl  Cl68  1  0.501938  0.250000  0.051005  1
  Cl  Cl69  1  0.001938  0.250000  0.448995  1
  Cl  Cl70  1  0.498062  0.750000  0.948995  1
  Cl  Cl71  1  0.998062  0.750000  0.551005  1
  Cl  Cl72  1  0.750775  0.250000  0.105194  1
  Cl  Cl73  1  0.250775  0.250000  0.394806  1
  Cl  Cl74  1  0.249225  0.750000  0.894806  1
  Cl  Cl75  1  0.749225  0.750000  0.605194  1
  Cl  Cl76  1  0.714066  0.250000  0.588567  1
  Cl  Cl77  1  0.214066  0.250000  0.911433  1
  Cl  Cl78  1  0.285934  0.750000  0.411433  1
  Cl  Cl79  1  0.785934  0.750000  0.088567  1
