# generated using pymatgen
data_MnOF
_symmetry_space_group_name_H-M   'P 1'
_cell_length_a   4.82366590
_cell_length_b   19.01583630
_cell_length_c   3.06373957
_cell_angle_alpha   90.00000000
_cell_angle_beta   90.00000000
_cell_angle_gamma   95.09474381
_symmetry_Int_Tables_number   1
_chemical_formula_structural   MnOF
_chemical_formula_sum   'Mn8 O8 F8'
_cell_volume   279.91443421
_cell_formula_units_Z   8
loop_
 _symmetry_equiv_pos_site_id
 _symmetry_equiv_pos_as_xyz
  1  'x, y, z'
loop_
 _atom_site_type_symbol
 _atom_site_label
 _atom_site_symmetry_multiplicity
 _atom_site_fract_x
 _atom_site_fract_y
 _atom_site_fract_z
 _atom_site_occupancy
  Mn  Mn0  1  0.000000  0.000000  0.000000  1
  Mn  Mn1  1  0.054309  0.251041  0.000000  1
  Mn  Mn2  1  0.000000  0.500000  0.000000  1
  Mn  Mn3  1  0.945691  0.748959  0.000000  1
  Mn  Mn4  1  0.593950  0.125230  0.500000  1
  Mn  Mn5  1  0.525147  0.376216  0.500000  1
  Mn  Mn6  1  0.474853  0.623784  0.500000  1
  Mn  Mn7  1  0.406050  0.874770  0.500000  1
  O  O8  1  0.159790  0.953000  0.500000  1
  O  O9  1  0.291972  0.574307  0.000000  1
  O  O10  1  0.337337  0.327257  0.000000  1
  O  O11  1  0.242267  0.824263  0.000000  1
  O  O12  1  0.757733  0.175737  0.000000  1
  O  O13  1  0.708028  0.425693  0.000000  1
  O  O14  1  0.662663  0.672743  0.000000  1
  O  O15  1  0.840210  0.047000  0.500000  1
  F  F16  1  0.246165  0.200684  0.500000  1
  F  F17  1  0.190899  0.452501  0.500000  1
  F  F18  1  0.148856  0.703635  0.500000  1
  F  F19  1  0.362153  0.079423  0.000000  1
  F  F20  1  0.637847  0.920577  0.000000  1
  F  F21  1  0.851144  0.296365  0.500000  1
  F  F22  1  0.809101  0.547499  0.500000  1
  F  F23  1  0.753835  0.799316  0.500000  1
