# generated using pymatgen
data_Ni7(P2O7)4
_symmetry_space_group_name_H-M   'P 1'
_cell_length_a   6.43546968
_cell_length_b   6.43546968
_cell_length_c   23.74702459
_cell_angle_alpha   90.00000000
_cell_angle_beta   90.00000000
_cell_angle_gamma   81.80882144
_symmetry_Int_Tables_number   1
_chemical_formula_structural   Ni7(P2O7)4
_chemical_formula_sum   'Ni14 P16 O56'
_cell_volume   973.45605092
_cell_formula_units_Z   2
loop_
 _symmetry_equiv_pos_site_id
 _symmetry_equiv_pos_as_xyz
  1  'x, y, z'
loop_
 _atom_site_type_symbol
 _atom_site_label
 _atom_site_symmetry_multiplicity
 _atom_site_fract_x
 _atom_site_fract_y
 _atom_site_fract_z
 _atom_site_occupancy
  Ni  Ni0  1  0.069025  0.930975  0.000000  1
  Ni  Ni1  1  0.329452  0.960626  0.137232  1
  Ni  Ni2  1  0.039374  0.670548  0.862768  1
  Ni  Ni3  1  0.301159  0.698841  0.500000  1
  Ni  Ni4  1  0.293034  0.419179  0.620893  1
  Ni  Ni5  1  0.580821  0.706966  0.379107  1
  Ni  Ni6  1  0.274232  0.274232  0.250000  1
  Ni  Ni7  1  0.725768  0.725768  0.750000  1
  Ni  Ni8  1  0.706966  0.580821  0.120893  1
  Ni  Ni9  1  0.419179  0.293034  0.879107  1
  Ni  Ni10  1  0.698841  0.301159  0.000000  1
  Ni  Ni11  1  0.670548  0.039374  0.637232  1
  Ni  Ni12  1  0.960626  0.329452  0.362768  1
  Ni  Ni13  1  0.930975  0.069025  0.500000  1
  P  P14  1  0.070377  0.819502  0.376536  1
  P  P15  1  0.180498  0.929623  0.623464  1
  P  P16  1  0.301266  0.776315  0.267395  1
  P  P17  1  0.223685  0.698734  0.732605  1
  P  P18  1  0.238050  0.475090  0.121031  1
  P  P19  1  0.524910  0.761950  0.878969  1
  P  P20  1  0.595985  0.810340  0.003357  1
  P  P21  1  0.189660  0.404015  0.996643  1
  P  P22  1  0.810340  0.595985  0.496643  1
  P  P23  1  0.404015  0.189660  0.503357  1
  P  P24  1  0.475090  0.238050  0.378969  1
  P  P25  1  0.761950  0.524910  0.621031  1
  P  P26  1  0.776315  0.301266  0.232605  1
  P  P27  1  0.698734  0.223685  0.767395  1
  P  P28  1  0.819502  0.070377  0.123464  1
  P  P29  1  0.929623  0.180498  0.876536  1
  O  O30  1  0.018522  0.965081  0.901792  1
  O  O31  1  0.034919  0.981478  0.098208  1
  O  O32  1  0.129632  0.877092  0.313287  1
  O  O33  1  0.122908  0.870368  0.686713  1
  O  O34  1  0.295131  0.956739  0.224445  1
  O  O35  1  0.043261  0.704869  0.775555  1
  O  O36  1  0.014039  0.580967  0.123292  1
  O  O37  1  0.419032  0.985961  0.876708  1
  O  O38  1  0.376116  0.907041  0.020572  1
  O  O39  1  0.092959  0.623884  0.979428  1
  O  O40  1  0.271725  0.718641  0.406397  1
  O  O41  1  0.281359  0.728275  0.593603  1
  O  O42  1  0.414793  0.772508  0.757734  1
  O  O43  1  0.227492  0.585207  0.242266  1
  O  O44  1  0.660076  0.912967  0.128118  1
  O  O45  1  0.087033  0.339924  0.871882  1
  O  O46  1  0.387069  0.640527  0.130397  1
  O  O47  1  0.359473  0.612931  0.869603  1
  O  O48  1  0.746967  0.976548  0.003300  1
  O  O49  1  0.023452  0.253033  0.996700  1
  O  O50  1  0.514771  0.729352  0.296900  1
  O  O51  1  0.270648  0.485229  0.703100  1
  O  O52  1  0.290255  0.391768  0.058535  1
  O  O53  1  0.608232  0.709745  0.941465  1
  O  O54  1  0.609398  0.682655  0.464316  1
  O  O55  1  0.317345  0.390602  0.535684  1
  O  O56  1  0.706648  0.722192  0.657726  1
  O  O57  1  0.277808  0.293352  0.342274  1
  O  O58  1  0.293352  0.277808  0.157726  1
  O  O59  1  0.722192  0.706648  0.842274  1
  O  O60  1  0.390602  0.317345  0.964316  1
  O  O61  1  0.682655  0.609398  0.035684  1
  O  O62  1  0.391768  0.290255  0.441465  1
  O  O63  1  0.709745  0.608232  0.558535  1
  O  O64  1  0.729352  0.514771  0.203100  1
  O  O65  1  0.485229  0.270648  0.796900  1
  O  O66  1  0.253033  0.023452  0.503300  1
  O  O67  1  0.976548  0.746967  0.496700  1
  O  O68  1  0.640527  0.387069  0.369603  1
  O  O69  1  0.612931  0.359473  0.630397  1
  O  O70  1  0.339924  0.087033  0.628118  1
  O  O71  1  0.912967  0.660076  0.371882  1
  O  O72  1  0.585207  0.227492  0.257734  1
  O  O73  1  0.772508  0.414793  0.742266  1
  O  O74  1  0.718641  0.271725  0.093603  1
  O  O75  1  0.728275  0.281359  0.906397  1
  O  O76  1  0.623884  0.092959  0.520572  1
  O  O77  1  0.907041  0.376116  0.479428  1
  O  O78  1  0.580967  0.014039  0.376708  1
  O  O79  1  0.985961  0.419032  0.623292  1
  O  O80  1  0.704869  0.043261  0.724445  1
  O  O81  1  0.956739  0.295131  0.275555  1
  O  O82  1  0.877092  0.129632  0.186713  1
  O  O83  1  0.870368  0.122908  0.813287  1
  O  O84  1  0.965081  0.018522  0.598208  1
  O  O85  1  0.981478  0.034919  0.401792  1
