# generated using pymatgen
data_K5NO4
_symmetry_space_group_name_H-M   'P 1'
_cell_length_a   4.50296091
_cell_length_b   20.12441257
_cell_length_c   7.59907810
_cell_angle_alpha   32.32252008
_cell_angle_beta   55.51473161
_cell_angle_gamma   56.66456541
_symmetry_Int_Tables_number   1
_chemical_formula_structural   K5NO4
_chemical_formula_sum   'K5 N1 O4'
_cell_volume   299.52149700
_cell_formula_units_Z   1
loop_
 _symmetry_equiv_pos_site_id
 _symmetry_equiv_pos_as_xyz
  1  'x, y, z'
loop_
 _atom_site_type_symbol
 _atom_site_label
 _atom_site_symmetry_multiplicity
 _atom_site_fract_x
 _atom_site_fract_y
 _atom_site_fract_z
 _atom_site_occupancy
  K  K0  1  0.615530  0.927379  0.580614  1
  K  K1  1  0.534783  0.200591  0.483714  1
  K  K2  1  0.399833  0.479789  0.337555  1
  K  K3  1  0.485345  0.605208  0.472409  1
  K  K4  1  0.532245  0.753490  0.590281  1
  N  N5  1  0.988393  0.394967  0.028762  1
  O  O6  1  0.342193  0.369254  0.919574  1
  O  O7  1  0.872476  0.314250  0.361821  1
  O  O8  1  0.857230  0.518552  0.824852  1
  O  O9  1  0.857322  0.709151  0.885768  1
