# generated using pymatgen
data_Li5Fe8(BO3)8
_symmetry_space_group_name_H-M   'P 1'
_cell_length_a   5.27073202
_cell_length_b   9.08123871
_cell_length_c   11.30262442
_cell_angle_alpha   113.05888410
_cell_angle_beta   77.22753542
_cell_angle_gamma   90.29285395
_symmetry_Int_Tables_number   1
_chemical_formula_structural   Li5Fe8(BO3)8
_chemical_formula_sum   'Li5 Fe8 B8 O24'
_cell_volume   483.45087072
_cell_formula_units_Z   1
loop_
 _symmetry_equiv_pos_site_id
 _symmetry_equiv_pos_as_xyz
  1  'x, y, z'
loop_
 _atom_site_type_symbol
 _atom_site_label
 _atom_site_symmetry_multiplicity
 _atom_site_fract_x
 _atom_site_fract_y
 _atom_site_fract_z
 _atom_site_occupancy
  Li  Li0  1  0.166888  0.159165  0.344376  1
  Li  Li1  1  0.610219  0.045941  0.085066  1
  Li  Li2  1  0.933250  0.430897  0.832021  1
  Li  Li3  1  0.112952  0.554837  0.098276  1
  Li  Li4  1  0.655974  0.673430  0.362874  1
  Fe  Fe5  1  0.412712  0.269117  0.866568  1
  Fe  Fe6  1  0.095268  0.230335  0.122527  1
  Fe  Fe7  1  0.846262  0.139238  0.618677  1
  Fe  Fe8  1  0.645510  0.342327  0.376523  1
  Fe  Fe9  1  0.350980  0.647262  0.627747  1
  Fe  Fe10  1  0.148379  0.842477  0.373633  1
  Fe  Fe11  1  0.901844  0.781138  0.862557  1
  Fe  Fe12  1  0.600626  0.723121  0.117260  1
  B  B13  1  0.645982  0.012802  0.369558  1
  B  B14  1  0.893828  0.115236  0.879603  1
  B  B15  1  0.152496  0.511202  0.365329  1
  B  B16  1  0.399284  0.599480  0.872025  1
  B  B17  1  0.849574  0.481317  0.622522  1
  B  B18  1  0.604634  0.395333  0.128044  1
  B  B19  1  0.354924  0.973741  0.617021  1
  B  B20  1  0.094933  0.897705  0.121241  1
  O  O21  1  0.116271  0.151525  0.930354  1
  O  O22  1  0.476785  0.115775  0.659142  1
  O  O23  1  0.217531  0.039517  0.138908  1
  O  O24  1  0.512326  0.135360  0.361410  1
  O  O25  1  0.881079  0.039877  0.413498  1
  O  O26  1  0.815030  0.218064  0.824740  1
  O  O27  1  0.249515  0.482446  0.894521  1
  O  O28  1  0.058719  0.356401  0.325833  1
  O  O29  1  0.710907  0.274866  0.156916  1
  O  O30  1  0.623958  0.477484  0.577996  1
  O  O31  1  0.941687  0.349195  0.636767  1
  O  O32  1  0.365340  0.373037  0.091813  1
  O  O33  1  0.644258  0.617509  0.901487  1
  O  O34  1  0.383637  0.532968  0.408854  1
  O  O35  1  0.299182  0.699878  0.823173  1
  O  O36  1  0.980348  0.619036  0.652559  1
  O  O37  1  0.732969  0.527243  0.134248  1
  O  O38  1  0.204293  0.781968  0.151594  1
  O  O39  1  0.120527  0.977319  0.580642  1
  O  O40  1  0.467159  0.833530  0.606993  1
  O  O41  1  0.019766  0.631769  0.354822  1
  O  O42  1  0.753838  0.994364  0.890311  1
  O  O43  1  0.554773  0.861172  0.333840  1
  O  O44  1  0.864132  0.878714  0.080171  1
