# generated using pymatgen
data_Mn3OF5
_symmetry_space_group_name_H-M   'P 1'
_cell_length_a   4.86510976
_cell_length_b   8.13857442
_cell_length_c   5.87261223
_cell_angle_alpha   92.35547836
_cell_angle_beta   89.49221929
_cell_angle_gamma   89.85899301
_symmetry_Int_Tables_number   1
_chemical_formula_structural   Mn3OF5
_chemical_formula_sum   'Mn6 O2 F10'
_cell_volume   232.31989931
_cell_formula_units_Z   2
loop_
 _symmetry_equiv_pos_site_id
 _symmetry_equiv_pos_as_xyz
  1  'x, y, z'
loop_
 _atom_site_type_symbol
 _atom_site_label
 _atom_site_symmetry_multiplicity
 _atom_site_fract_x
 _atom_site_fract_y
 _atom_site_fract_z
 _atom_site_occupancy
  Mn  Mn0  1  0.505453  0.003442  0.512763  1
  Mn  Mn1  1  0.492508  0.672420  0.167347  1
  Mn  Mn2  1  0.534866  0.327078  0.826264  1
  Mn  Mn3  1  0.983885  0.649585  0.675547  1
  Mn  Mn4  1  0.985254  0.334221  0.350163  1
  Mn  Mn5  1  0.991746  0.013548  0.980125  1
  O  O6  1  0.799605  0.426801  0.636356  1
  O  O7  1  0.687915  0.107555  0.783374  1
  F  F8  1  0.809268  0.770537  0.969988  1
  F  F9  1  0.799959  0.099454  0.283948  1
  F  F10  1  0.694662  0.772393  0.469193  1
  F  F11  1  0.701764  0.437324  0.136271  1
  F  F12  1  0.324062  0.550838  0.862740  1
  F  F13  1  0.291038  0.223068  0.527730  1
  F  F14  1  0.301444  0.913480  0.210698  1
  F  F15  1  0.189927  0.568734  0.368949  1
  F  F16  1  0.211614  0.244695  0.034231  1
  F  F17  1  0.195030  0.884831  0.704313  1
