# generated using pymatgen
data_Li4CrFe3O8
_symmetry_space_group_name_H-M   'P 1'
_cell_length_a   5.19603164
_cell_length_b   5.96928957
_cell_length_c   10.75608966
_cell_angle_alpha   106.06307915
_cell_angle_beta   85.41294809
_cell_angle_gamma   73.19355593
_symmetry_Int_Tables_number   1
_chemical_formula_structural   Li4CrFe3O8
_chemical_formula_sum   'Li8 Cr2 Fe6 O16'
_cell_volume   302.22245726
_cell_formula_units_Z   2
loop_
 _symmetry_equiv_pos_site_id
 _symmetry_equiv_pos_as_xyz
  1  'x, y, z'
loop_
 _atom_site_type_symbol
 _atom_site_label
 _atom_site_symmetry_multiplicity
 _atom_site_fract_x
 _atom_site_fract_y
 _atom_site_fract_z
 _atom_site_occupancy
  Li  Li0  1  0.999139  0.125467  0.750153  1
  Li  Li1  1  0.000221  0.999568  0.000401  1
  Li  Li2  1  0.002933  0.248976  0.500187  1
  Li  Li3  1  0.999797  0.375176  0.249999  1
  Li  Li4  1  0.000816  0.624399  0.749685  1
  Li  Li5  1  0.997300  0.500741  0.999864  1
  Li  Li6  1  0.999878  0.750566  0.499607  1
  Li  Li7  1  0.000005  0.874870  0.250090  1
  Cr  Cr8  1  0.501178  0.812227  0.373784  1
  Cr  Cr9  1  0.498806  0.937841  0.126197  1
  Fe  Fe10  1  0.498981  0.062838  0.875902  1
  Fe  Fe11  1  0.499992  0.186987  0.624237  1
  Fe  Fe12  1  0.501098  0.312696  0.374369  1
  Fe  Fe13  1  0.500007  0.562978  0.875776  1
  Fe  Fe14  1  0.498829  0.437396  0.125609  1
  Fe  Fe15  1  0.501084  0.687095  0.624096  1
  O  O16  1  0.273446  0.085842  0.310337  1
  O  O17  1  0.727230  0.036035  0.438214  1
  O  O18  1  0.270650  0.338366  0.811593  1
  O  O19  1  0.728845  0.287205  0.939841  1
  O  O20  1  0.726307  0.160922  0.189147  1
  O  O21  1  0.270402  0.212353  0.062599  1
  O  O22  1  0.271122  0.462785  0.560170  1
  O  O23  1  0.729383  0.411553  0.688389  1
  O  O24  1  0.273623  0.589195  0.310853  1
  O  O25  1  0.729508  0.537792  0.437397  1
  O  O26  1  0.271355  0.837486  0.810456  1
  O  O27  1  0.725973  0.788890  0.941418  1
  O  O28  1  0.272733  0.714051  0.061822  1
  O  O29  1  0.274002  0.961080  0.558601  1
  O  O30  1  0.726586  0.664202  0.189658  1
  O  O31  1  0.728771  0.912423  0.689548  1
