# generated using pymatgen
data_Mn6OF11
_symmetry_space_group_name_H-M   'P 1'
_cell_length_a   4.94857118
_cell_length_b   5.90234484
_cell_length_c   16.23636340
_cell_angle_alpha   90.00000000
_cell_angle_beta   89.41591942
_cell_angle_gamma   90.00000000
_symmetry_Int_Tables_number   1
_chemical_formula_structural   Mn6OF11
_chemical_formula_sum   'Mn12 O2 F22'
_cell_volume   474.20987890
_cell_formula_units_Z   2
loop_
 _symmetry_equiv_pos_site_id
 _symmetry_equiv_pos_as_xyz
  1  'x, y, z'
loop_
 _atom_site_type_symbol
 _atom_site_label
 _atom_site_symmetry_multiplicity
 _atom_site_fract_x
 _atom_site_fract_y
 _atom_site_fract_z
 _atom_site_occupancy
  Mn  Mn0  1  0.026008  0.184790  0.421152  1
  Mn  Mn1  1  0.000000  0.832617  0.250000  1
  Mn  Mn2  1  0.973992  0.184790  0.078848  1
  Mn  Mn3  1  0.000000  0.171125  0.750000  1
  Mn  Mn4  1  0.003620  0.832322  0.583024  1
  Mn  Mn5  1  0.996380  0.832322  0.916976  1
  Mn  Mn6  1  0.483513  0.333449  0.577146  1
  Mn  Mn7  1  0.516487  0.333449  0.922854  1
  Mn  Mn8  1  0.500000  0.328414  0.250000  1
  Mn  Mn9  1  0.504838  0.645197  0.081599  1
  Mn  Mn10  1  0.495162  0.645197  0.418401  1
  Mn  Mn11  1  0.500000  0.660326  0.750000  1
  O  O12  1  0.295874  0.410291  0.466808  1
  O  O13  1  0.704126  0.410291  0.033192  1
  F  F14  1  0.220802  0.105881  0.305591  1
  F  F15  1  0.232561  0.104804  0.639815  1
  F  F16  1  0.211248  0.117105  0.973191  1
  F  F17  1  0.244028  0.872999  0.134937  1
  F  F18  1  0.242593  0.892789  0.471094  1
  F  F19  1  0.226460  0.889639  0.806355  1
  F  F20  1  0.259335  0.391445  0.143148  1
  F  F21  1  0.280097  0.613689  0.307852  1
  F  F22  1  0.263069  0.603909  0.642339  1
  F  F23  1  0.278285  0.384863  0.812428  1
  F  F24  1  0.271641  0.620587  0.976974  1
  F  F25  1  0.719903  0.613689  0.192148  1
  F  F26  1  0.740665  0.391445  0.356852  1
  F  F27  1  0.728359  0.620587  0.523026  1
  F  F28  1  0.736931  0.603909  0.857661  1
  F  F29  1  0.721715  0.384863  0.687572  1
  F  F30  1  0.779198  0.105881  0.194409  1
  F  F31  1  0.788752  0.117105  0.526809  1
  F  F32  1  0.755972  0.872999  0.365063  1
  F  F33  1  0.757407  0.892789  0.028906  1
  F  F34  1  0.767439  0.104804  0.860185  1
  F  F35  1  0.773540  0.889639  0.693645  1
