# generated using pymatgen
data_Li2Fe(Si2O5)2
_symmetry_space_group_name_H-M   'P 1'
_cell_length_a   9.54321154
_cell_length_b   14.33584177
_cell_length_c   7.14796446
_cell_angle_alpha   90.01029224
_cell_angle_beta   90.04211772
_cell_angle_gamma   89.97754409
_symmetry_Int_Tables_number   1
_chemical_formula_structural   Li2Fe(Si2O5)2
_chemical_formula_sum   'Li8 Fe4 Si16 O40'
_cell_volume   977.91245390
_cell_formula_units_Z   4
loop_
 _symmetry_equiv_pos_site_id
 _symmetry_equiv_pos_as_xyz
  1  'x, y, z'
loop_
 _atom_site_type_symbol
 _atom_site_label
 _atom_site_symmetry_multiplicity
 _atom_site_fract_x
 _atom_site_fract_y
 _atom_site_fract_z
 _atom_site_occupancy
  Li  Li0  1  0.086838  0.827039  0.680187  1
  Li  Li1  1  0.160128  0.531510  0.071885  1
  Li  Li2  1  0.339869  0.468635  0.571798  1
  Li  Li3  1  0.413420  0.172905  0.180029  1
  Li  Li4  1  0.586756  0.672923  0.319864  1
  Li  Li5  1  0.660174  0.968784  0.928219  1
  Li  Li6  1  0.839828  0.031426  0.428152  1
  Li  Li7  1  0.913081  0.326989  0.819809  1
  Fe  Fe8  1  0.197908  0.340819  0.009394  1
  Fe  Fe9  1  0.301972  0.659237  0.509184  1
  Fe  Fe10  1  0.698293  0.159397  0.990624  1
  Fe  Fe11  1  0.802126  0.840765  0.490670  1
  Si  Si12  1  0.026794  0.567305  0.462702  1
  Si  Si13  1  0.061213  0.897766  0.240004  1
  Si  Si14  1  0.097648  0.216190  0.318514  1
  Si  Si15  1  0.133932  0.175277  0.737712  1
  Si  Si16  1  0.366022  0.824696  0.237638  1
  Si  Si17  1  0.402385  0.783801  0.818470  1
  Si  Si18  1  0.438803  0.102233  0.740114  1
  Si  Si19  1  0.473221  0.432730  0.962647  1
  Si  Si20  1  0.526799  0.932695  0.537377  1
  Si  Si21  1  0.561287  0.602248  0.760010  1
  Si  Si22  1  0.597615  0.283767  0.681566  1
  Si  Si23  1  0.634019  0.324653  0.262329  1
  Si  Si24  1  0.866018  0.675267  0.762326  1
  Si  Si25  1  0.902311  0.716224  0.181525  1
  Si  Si26  1  0.938730  0.397769  0.260027  1
  Si  Si27  1  0.973056  0.067324  0.037282  1
  O  O28  1  0.987542  0.811632  0.122640  1
  O  O29  1  0.986408  0.150244  0.198526  1
  O  O30  1  0.033660  0.428902  0.083523  1
  O  O31  1  0.012831  0.107113  0.829021  1
  O  O32  1  0.083917  0.983369  0.089301  1
  O  O33  1  0.129877  0.158745  0.511402  1
  O  O34  1  0.101735  0.282317  0.795673  1
  O  O35  1  0.190346  0.537206  0.460856  1
  O  O36  1  0.213156  0.860097  0.316513  1
  O  O37  1  0.238540  0.239523  0.200546  1
  O  O38  1  0.261402  0.760478  0.700477  1
  O  O39  1  0.286873  0.139895  0.816530  1
  O  O40  1  0.309682  0.462815  0.960784  1
  O  O41  1  0.398172  0.717670  0.295764  1
  O  O42  1  0.370116  0.841204  0.011341  1
  O  O43  1  0.415996  0.016608  0.589184  1
  O  O44  1  0.487195  0.892850  0.329076  1
  O  O45  1  0.466227  0.571094  0.583389  1
  O  O46  1  0.513549  0.849756  0.698518  1
  O  O47  1  0.512403  0.188352  0.622652  1
  O  O48  1  0.487596  0.688368  0.877367  1
  O  O49  1  0.486443  0.349766  0.801458  1
  O  O50  1  0.533758  0.071095  0.916455  1
  O  O51  1  0.512827  0.392873  0.170976  1
  O  O52  1  0.583979  0.516598  0.910782  1
  O  O53  1  0.629883  0.341202  0.488677  1
  O  O54  1  0.601907  0.217674  0.204296  1
  O  O55  1  0.690300  0.962785  0.539087  1
  O  O56  1  0.713095  0.639881  0.683477  1
  O  O57  1  0.738505  0.260407  0.799475  1
  O  O58  1  0.761400  0.739482  0.299448  1
  O  O59  1  0.786793  0.360101  0.183502  1
  O  O60  1  0.809721  0.037160  0.039219  1
  O  O61  1  0.898210  0.782296  0.704250  1
  O  O62  1  0.870142  0.658795  0.988627  1
  O  O63  1  0.916036  0.483399  0.410741  1
  O  O64  1  0.987199  0.607123  0.670958  1
  O  O65  1  0.966300  0.928887  0.416567  1
  O  O66  1  0.013581  0.650241  0.301507  1
  O  O67  1  0.012452  0.311621  0.377357  1
