# generated using pymatgen
data_Sn2N2O
_symmetry_space_group_name_H-M   'P 1'
_cell_length_a   8.85014896
_cell_length_b   8.87121381
_cell_length_c   8.80493215
_cell_angle_alpha   109.42637396
_cell_angle_beta   109.29260490
_cell_angle_gamma   109.46533413
_symmetry_Int_Tables_number   1
_chemical_formula_structural   Sn2N2O
_chemical_formula_sum   'Sn16 N16 O8'
_cell_volume   533.65444700
_cell_formula_units_Z   8
loop_
 _symmetry_equiv_pos_site_id
 _symmetry_equiv_pos_as_xyz
  1  'x, y, z'
loop_
 _atom_site_type_symbol
 _atom_site_label
 _atom_site_symmetry_multiplicity
 _atom_site_fract_x
 _atom_site_fract_y
 _atom_site_fract_z
 _atom_site_occupancy
  Sn  Sn0  1  0.496150  0.001617  0.994463  1
  Sn  Sn1  1  0.755215  0.288022  0.539609  1
  Sn  Sn2  1  0.210234  0.958984  0.243976  1
  Sn  Sn3  1  0.718357  0.472447  0.247049  1
  Sn  Sn4  1  0.243012  0.213979  0.956977  1
  Sn  Sn5  1  0.532060  0.753261  0.288487  1
  Sn  Sn6  1  0.999562  0.498703  0.998095  1
  Sn  Sn7  1  0.981769  0.256384  0.222451  1
  Sn  Sn8  1  0.508464  0.513661  0.512590  1
  Sn  Sn9  1  0.473924  0.263403  0.731287  1
  Sn  Sn10  1  0.002122  0.000185  0.499956  1
  Sn  Sn11  1  0.023366  0.735827  0.766768  1
  Sn  Sn12  1  0.758222  0.781689  0.038361  1
  Sn  Sn13  1  0.277922  0.527557  0.738177  1
  Sn  Sn14  1  0.787066  0.034582  0.753510  1
  Sn  Sn15  1  0.253958  0.713057  0.466735  1
  N  N16  1  0.506931  0.239867  0.976832  1
  N  N17  1  0.760307  0.729336  0.265327  1
  N  N18  1  0.755358  0.523530  0.517613  1
  N  N19  1  0.718889  0.257786  0.761878  1
  N  N20  1  0.003653  0.041215  0.268908  1
  N  N21  1  0.038856  0.264157  0.002511  1
  N  N22  1  0.960921  0.730036  0.987398  1
  N  N23  1  0.274867  0.738454  0.232487  1
  N  N24  1  0.237832  0.458197  0.460926  1
  N  N25  1  0.550568  0.781114  0.549991  1
  N  N26  1  0.546399  0.546377  0.782622  1
  N  N27  1  0.996631  0.950835  0.726069  1
  N  N28  1  0.228389  0.268037  0.727691  1
  N  N29  1  0.959054  0.500546  0.237679  1
  N  N30  1  0.037468  0.488669  0.758622  1
  N  N31  1  0.270373  0.776891  0.732054  1
  O  O32  1  0.721504  0.991070  0.957447  1
  O  O33  1  0.769687  0.044488  0.491825  1
  O  O34  1  0.287663  0.021305  0.062524  1
  O  O35  1  0.730681  0.205881  0.270571  1
  O  O36  1  0.449388  0.220673  0.451089  1
  O  O37  1  0.439440  0.462820  0.223196  1
  O  O38  1  0.237477  0.962686  0.508181  1
  O  O39  1  0.496263  0.782676  0.048070  1
