# generated using pymatgen
data_KPH3NO3
_symmetry_space_group_name_H-M   'P 1'
_cell_length_a   6.88488288
_cell_length_b   10.51352153
_cell_length_c   14.40847948
_cell_angle_alpha   90.00000000
_cell_angle_beta   57.57711110
_cell_angle_gamma   90.00000000
_symmetry_Int_Tables_number   1
_chemical_formula_structural   KPH3NO3
_chemical_formula_sum   'K8 P8 H24 N8 O24'
_cell_volume   880.36733339
_cell_formula_units_Z   8
loop_
 _symmetry_equiv_pos_site_id
 _symmetry_equiv_pos_as_xyz
  1  'x, y, z'
loop_
 _atom_site_type_symbol
 _atom_site_label
 _atom_site_symmetry_multiplicity
 _atom_site_fract_x
 _atom_site_fract_y
 _atom_site_fract_z
 _atom_site_occupancy
  K  K0  1  0.762536  0.677416  0.212030  1
  K  K1  1  0.237464  0.177416  0.287970  1
  K  K2  1  0.237464  0.322584  0.787970  1
  K  K3  1  0.762536  0.822584  0.712030  1
  K  K4  1  0.821490  0.663640  0.930770  1
  K  K5  1  0.178510  0.163640  0.569230  1
  K  K6  1  0.178510  0.336360  0.069230  1
  K  K7  1  0.821490  0.836360  0.430770  1
  P  P8  1  0.883713  0.472894  0.683213  1
  P  P9  1  0.116287  0.972894  0.816787  1
  P  P10  1  0.116287  0.527106  0.316787  1
  P  P11  1  0.883713  0.027106  0.183213  1
  P  P12  1  0.752865  0.376291  0.521094  1
  P  P13  1  0.247135  0.876291  0.978906  1
  P  P14  1  0.247135  0.623709  0.478906  1
  P  P15  1  0.752865  0.123709  0.021094  1
  H  H16  1  0.720902  0.539523  0.424863  1
  H  H17  1  0.279098  0.039523  0.075137  1
  H  H18  1  0.279098  0.460477  0.575137  1
  H  H19  1  0.720902  0.960477  0.924863  1
  H  H20  1  0.622936  0.542693  0.643738  1
  H  H21  1  0.377064  0.042693  0.856262  1
  H  H22  1  0.377064  0.457307  0.356262  1
  H  H23  1  0.622936  0.957307  0.143738  1
  H  H24  1  0.766404  0.389979  0.050347  1
  H  H25  1  0.233596  0.889979  0.449653  1
  H  H26  1  0.233596  0.610021  0.949653  1
  H  H27  1  0.766404  0.110021  0.550347  1
  H  H28  1  0.539469  0.458722  0.138496  1
  H  H29  1  0.460531  0.958722  0.361504  1
  H  H30  1  0.460531  0.541278  0.861504  1
  H  H31  1  0.539469  0.041278  0.638496  1
  H  H32  1  0.535106  0.315176  0.416724  1
  H  H33  1  0.464894  0.815176  0.083276  1
  H  H34  1  0.464894  0.684824  0.583276  1
  H  H35  1  0.535106  0.184824  0.916724  1
  H  H36  1  0.666311  0.242420  0.304699  1
  H  H37  1  0.333689  0.742420  0.195301  1
  H  H38  1  0.333689  0.757580  0.695301  1
  H  H39  1  0.666311  0.257580  0.804699  1
  N  N40  1  0.850272  0.479899  0.416114  1
  N  N41  1  0.149728  0.979899  0.083886  1
  N  N42  1  0.149728  0.520101  0.583886  1
  N  N43  1  0.850272  0.020101  0.916114  1
  N  N44  1  0.718295  0.460930  0.629309  1
  N  N45  1  0.281705  0.960930  0.870691  1
  N  N46  1  0.281705  0.539070  0.370691  1
  N  N47  1  0.718295  0.039070  0.129309  1
  O  O48  1  0.919849  0.344689  0.720187  1
  O  O49  1  0.080151  0.844689  0.779813  1
  O  O50  1  0.080151  0.655311  0.279813  1
  O  O51  1  0.919849  0.155311  0.220187  1
  O  O52  1  0.762280  0.574871  0.771007  1
  O  O53  1  0.237720  0.074871  0.728993  1
  O  O54  1  0.237720  0.425129  0.228993  1
  O  O55  1  0.762280  0.925129  0.271007  1
  O  O56  1  0.922219  0.269865  0.495072  1
  O  O57  1  0.077781  0.769865  0.004928  1
  O  O58  1  0.077781  0.730135  0.504928  1
  O  O59  1  0.922219  0.230134  0.995072  1
  O  O60  1  0.511831  0.340664  0.549590  1
  O  O61  1  0.488169  0.840664  0.950410  1
  O  O62  1  0.488169  0.659336  0.450410  1
  O  O63  1  0.511831  0.159336  0.049590  1
  O  O64  1  0.705398  0.474286  0.082789  1
  O  O65  1  0.294602  0.974286  0.417211  1
  O  O66  1  0.294602  0.525714  0.917211  1
  O  O67  1  0.705398  0.025714  0.582789  1
  O  O68  1  0.518077  0.286430  0.356098  1
  O  O69  1  0.481923  0.786430  0.143902  1
  O  O70  1  0.481923  0.713570  0.643902  1
  O  O71  1  0.518077  0.213570  0.856098  1
