# generated using pymatgen
data_Li2TiCo2O5
_symmetry_space_group_name_H-M   'P 1'
_cell_length_a   5.25637958
_cell_length_b   7.78043725
_cell_length_c   5.22210167
_cell_angle_alpha   70.43692450
_cell_angle_beta   112.10237323
_cell_angle_gamma   97.33225350
_symmetry_Int_Tables_number   1
_chemical_formula_structural   Li2TiCo2O5
_chemical_formula_sum   'Li4 Ti2 Co4 O10'
_cell_volume   186.45059581
_cell_formula_units_Z   2
loop_
 _symmetry_equiv_pos_site_id
 _symmetry_equiv_pos_as_xyz
  1  'x, y, z'
loop_
 _atom_site_type_symbol
 _atom_site_label
 _atom_site_symmetry_multiplicity
 _atom_site_fract_x
 _atom_site_fract_y
 _atom_site_fract_z
 _atom_site_occupancy
  Li  Li0  1  0.500481  0.204252  0.897583  1
  Li  Li1  1  0.000443  0.402281  0.800071  1
  Li  Li2  1  0.498049  0.999961  0.501747  1
  Li  Li3  1  0.001384  0.595216  0.201019  1
  Ti  Ti4  1  0.499279  0.389595  0.304945  1
  Ti  Ti5  1  0.002053  0.995727  0.998085  1
  Co  Co6  1  0.499970  0.599677  0.699967  1
  Co  Co7  1  0.999274  0.789577  0.604561  1
  Co  Co8  1  0.501871  0.801837  0.102446  1
  Co  Co9  1  0.996323  0.206592  0.395399  1
  O  O10  1  0.762613  0.814851  0.849050  1
  O  O11  1  0.266132  0.592757  0.958847  1
  O  O12  1  0.749915  0.201180  0.647402  1
  O  O13  1  0.735700  0.590259  0.453510  1
  O  O14  1  0.236988  0.814489  0.336084  1
  O  O15  1  0.228505  0.999109  0.771024  1
  O  O16  1  0.274043  0.399388  0.523802  1
  O  O17  1  0.774485  0.999225  0.232384  1
  O  O18  1  0.724244  0.401783  0.073459  1
  O  O19  1  0.248249  0.202244  0.148617  1
