# generated using pymatgen
data_Na2CoO3
_symmetry_space_group_name_H-M   'P 1'
_cell_length_a   5.40455048
_cell_length_b   9.47395310
_cell_length_c   5.40707502
_cell_angle_alpha   101.21578025
_cell_angle_beta   71.50853525
_cell_angle_gamma   78.70215260
_symmetry_Int_Tables_number   1
_chemical_formula_structural   Na2CoO3
_chemical_formula_sum   'Na8 Co4 O12'
_cell_volume   247.47597738
_cell_formula_units_Z   4
loop_
 _symmetry_equiv_pos_site_id
 _symmetry_equiv_pos_as_xyz
  1  'x, y, z'
loop_
 _atom_site_type_symbol
 _atom_site_label
 _atom_site_symmetry_multiplicity
 _atom_site_fract_x
 _atom_site_fract_y
 _atom_site_fract_z
 _atom_site_occupancy
  Na  Na0  1  0.004336  0.988512  0.493425  1
  Na  Na1  1  0.574193  0.845034  0.421504  1
  Na  Na2  1  0.173068  0.655475  0.330318  1
  Na  Na3  1  0.743799  0.512270  0.257865  1
  Na  Na4  1  0.253721  0.488512  0.748617  1
  Na  Na5  1  0.327107  0.345040  0.176299  1
  Na  Na6  1  0.423080  0.155712  0.579862  1
  Na  Na7  1  0.491799  0.011940  0.005758  1
  Co  Co8  1  0.083166  0.827978  0.914488  1
  Co  Co9  1  0.661428  0.672541  0.837008  1
  Co  Co10  1  0.835555  0.327643  0.664209  1
  Co  Co11  1  0.912207  0.172817  0.086506  1
  O  O12  1  0.345400  0.810328  0.105967  1
  O  O13  1  0.841490  0.809848  0.705170  1
  O  O14  1  0.401677  0.690339  0.645919  1
  O  O15  1  0.905802  0.690577  0.046670  1
  O  O16  1  0.558101  0.500570  0.943667  1
  O  O17  1  0.943197  0.499732  0.557981  1
  O  O18  1  0.044386  0.309414  0.908563  1
  O  O19  1  0.643482  0.310377  0.402592  1
  O  O20  1  0.702461  0.191023  0.842732  1
  O  O21  1  0.103837  0.190290  0.348587  1
  O  O22  1  0.190684  0.000274  0.806452  1
  O  O23  1  0.806117  0.000415  0.192093  1
