# generated using pymatgen
data_NaZrPCO7
_symmetry_space_group_name_H-M   'P 1'
_cell_length_a   9.35326101
_cell_length_b   6.68371084
_cell_length_c   5.79375506
_cell_angle_alpha   90.00000000
_cell_angle_beta   87.59197348
_cell_angle_gamma   90.00000000
_symmetry_Int_Tables_number   1
_chemical_formula_structural   NaZrPCO7
_chemical_formula_sum   'Na2 Zr2 P2 C2 O14'
_cell_volume   361.87382069
_cell_formula_units_Z   2
loop_
 _symmetry_equiv_pos_site_id
 _symmetry_equiv_pos_as_xyz
  1  'x, y, z'
loop_
 _atom_site_type_symbol
 _atom_site_label
 _atom_site_symmetry_multiplicity
 _atom_site_fract_x
 _atom_site_fract_y
 _atom_site_fract_z
 _atom_site_occupancy
  Na  Na0  1  0.187071  0.515851  0.229700  1
  Na  Na1  1  0.812929  0.015851  0.770300  1
  Zr  Zr2  1  0.347011  0.764959  0.790378  1
  Zr  Zr3  1  0.652989  0.264959  0.209622  1
  P  P4  1  0.450102  0.259218  0.729308  1
  P  P5  1  0.549898  0.759218  0.270692  1
  C  C6  1  0.074900  0.730172  0.721615  1
  C  C7  1  0.925100  0.230172  0.278385  1
  O  O8  1  0.053541  0.240809  0.313630  1
  O  O9  1  0.131962  0.737273  0.930577  1
  O  O10  1  0.179459  0.718035  0.555400  1
  O  O11  1  0.354977  0.074496  0.783339  1
  O  O12  1  0.367533  0.447812  0.807029  1
  O  O13  1  0.409638  0.741566  0.136889  1
  O  O14  1  0.489496  0.267659  0.466666  1
  O  O15  1  0.510504  0.767659  0.533334  1
  O  O16  1  0.590362  0.241566  0.863111  1
  O  O17  1  0.632467  0.947812  0.192971  1
  O  O18  1  0.645023  0.574496  0.216661  1
  O  O19  1  0.820541  0.218035  0.444600  1
  O  O20  1  0.868038  0.237273  0.069423  1
  O  O21  1  0.946459  0.740809  0.686370  1
