# generated using pymatgen
data_Na3VBAsO7
_symmetry_space_group_name_H-M   'P 1'
_cell_length_a   9.16493561
_cell_length_b   6.75510782
_cell_length_c   5.37142724
_cell_angle_alpha   90.00000000
_cell_angle_beta   88.63677583
_cell_angle_gamma   90.00000000
_symmetry_Int_Tables_number   1
_chemical_formula_structural   Na3VBAsO7
_chemical_formula_sum   'Na6 V2 B2 As2 O14'
_cell_volume   332.45162770
_cell_formula_units_Z   2
loop_
 _symmetry_equiv_pos_site_id
 _symmetry_equiv_pos_as_xyz
  1  'x, y, z'
loop_
 _atom_site_type_symbol
 _atom_site_label
 _atom_site_symmetry_multiplicity
 _atom_site_fract_x
 _atom_site_fract_y
 _atom_site_fract_z
 _atom_site_occupancy
  Na  Na0  1  0.072431  0.250000  0.755463  1
  Na  Na1  1  0.241002  0.998687  0.247185  1
  Na  Na2  1  0.241002  0.501313  0.247185  1
  Na  Na3  1  0.758998  0.498687  0.752815  1
  Na  Na4  1  0.758998  0.001313  0.752815  1
  Na  Na5  1  0.927569  0.750000  0.244537  1
  V  V6  1  0.326875  0.750000  0.783134  1
  V  V7  1  0.673125  0.250000  0.216866  1
  B  B8  1  0.061451  0.750000  0.730223  1
  B  B9  1  0.938549  0.250000  0.269777  1
  As  As10  1  0.422777  0.250000  0.711434  1
  As  As11  1  0.577223  0.750000  0.288566  1
  O  O12  1  0.082773  0.250000  0.314878  1
  O  O13  1  0.124021  0.750000  0.965255  1
  O  O14  1  0.170667  0.750000  0.535832  1
  O  O15  1  0.311124  0.053334  0.794102  1
  O  O16  1  0.311124  0.446666  0.794102  1
  O  O17  1  0.460149  0.250000  0.395531  1
  O  O18  1  0.416334  0.750000  0.131463  1
  O  O19  1  0.583666  0.250000  0.868537  1
  O  O20  1  0.539851  0.750000  0.604469  1
  O  O21  1  0.688876  0.553334  0.205898  1
  O  O22  1  0.688876  0.946666  0.205898  1
  O  O23  1  0.829333  0.250000  0.464168  1
  O  O24  1  0.875979  0.250000  0.034745  1
  O  O25  1  0.917227  0.750000  0.685122  1
