# generated using pymatgen
data_LiVCr(P2O7)2
_symmetry_space_group_name_H-M   'P 1'
_cell_length_a   4.86306882
_cell_length_b   8.07951476
_cell_length_c   6.99773021
_cell_angle_alpha   89.98365940
_cell_angle_beta   108.01435102
_cell_angle_gamma   90.29214563
_symmetry_Int_Tables_number   1
_chemical_formula_structural   LiVCr(P2O7)2
_chemical_formula_sum   'Li1 V1 Cr1 P4 O14'
_cell_volume   261.46755697
_cell_formula_units_Z   1
loop_
 _symmetry_equiv_pos_site_id
 _symmetry_equiv_pos_as_xyz
  1  'x, y, z'
loop_
 _atom_site_type_symbol
 _atom_site_label
 _atom_site_symmetry_multiplicity
 _atom_site_fract_x
 _atom_site_fract_y
 _atom_site_fract_z
 _atom_site_occupancy
  Li  Li0  1  0.828527  0.362055  0.328359  1
  V  V1  1  0.218140  0.507989  0.728360  1
  Cr  Cr2  1  0.789768  0.998038  0.275517  1
  P  P3  1  0.399089  0.177046  0.520984  1
  P  P4  1  0.216051  0.782592  0.086383  1
  P  P5  1  0.780486  0.283001  0.910188  1
  P  P6  1  0.601121  0.681952  0.475635  1
  O  O7  1  0.044045  0.336537  0.846888  1
  O  O8  1  0.135133  0.681264  0.890635  1
  O  O9  1  0.181039  0.038508  0.473342  1
  O  O10  1  0.252094  0.348002  0.517226  1
  O  O11  1  0.403408  0.665923  0.610446  1
  O  O12  1  0.591319  0.435556  0.913458  1
  O  O13  1  0.598634  0.149131  0.752231  1
  O  O14  1  0.403426  0.644957  0.249546  1
  O  O15  1  0.405429  0.932687  0.087301  1
  O  O16  1  0.603161  0.183843  0.392775  1
  O  O17  1  0.730885  0.852680  0.488343  1
  O  O18  1  0.826015  0.541383  0.519826  1
  O  O19  1  0.871053  0.198313  0.113814  1
  O  O20  1  0.945153  0.820520  0.141578  1
