# generated using pymatgen
data_Li24Ti5Cr7O36
_symmetry_space_group_name_H-M   'P 1'
_cell_length_a   5.05296717
_cell_length_b   13.40966447
_cell_length_c   9.78743440
_cell_angle_alpha   97.29308317
_cell_angle_beta   94.65953842
_cell_angle_gamma   100.77317416
_symmetry_Int_Tables_number   1
_chemical_formula_structural   Li24Ti5Cr7O36
_chemical_formula_sum   'Li24 Ti5 Cr7 O36'
_cell_volume   642.46332275
_cell_formula_units_Z   1
loop_
 _symmetry_equiv_pos_site_id
 _symmetry_equiv_pos_as_xyz
  1  'x, y, z'
loop_
 _atom_site_type_symbol
 _atom_site_label
 _atom_site_symmetry_multiplicity
 _atom_site_fract_x
 _atom_site_fract_y
 _atom_site_fract_z
 _atom_site_occupancy
  Li  Li0  1  0.826525  0.167231  0.001454  1
  Li  Li1  1  0.949782  0.386492  0.000451  1
  Li  Li2  1  -0.000222  0.750694  0.250332  1
  Li  Li3  1  0.666728  0.083226  0.250547  1
  Li  Li4  1  0.950781  0.886869  0.499692  1
  Li  Li5  1  0.625541  0.222382  0.501372  1
  Li  Li6  1  0.835513  0.665516  0.500753  1
  Li  Li7  1  0.495204  0.000974  0.500576  1
  Li  Li8  1  0.708861  0.444471  0.499169  1
  Li  Li9  1  0.666090  0.581922  0.749613  1
  Li  Li10  1  0.499454  0.499669  0.000448  1
  Li  Li11  1  0.717444  0.947837  0.002033  1
  Li  Li12  1  0.384915  0.280155  0.000405  1
  Li  Li13  1  0.612652  0.718801  -0.000124  1
  Li  Li14  1  0.285986  0.053240  0.998212  1
  Li  Li15  1  0.333629  0.417150  0.249584  1
  Li  Li16  1  0.290635  0.555572  0.500220  1
  Li  Li17  1  0.164874  0.333928  0.498045  1
  Li  Li18  1  0.380576  0.778366  0.499293  1
  Li  Li19  1  0.048158  0.112129  0.498975  1
  Li  Li20  1  0.335877  0.917070  0.750369  1
  Li  Li21  1  0.171379  0.832808  0.998395  1
  Li  Li22  1  0.000491  0.250324  0.750294  1
  Li  Li23  1  0.050402  0.614189  0.000191  1
  Ti  Ti24  1  0.891704  0.028119  0.751726  1
  Ti  Ti25  1  0.888568  0.527171  0.247531  1
  Ti  Ti26  1  0.778312  0.806253  0.753152  1
  Ti  Ti27  1  0.222377  0.191545  0.250579  1
  Ti  Ti28  1  0.101344  0.472292  0.744087  1
  Cr  Cr29  1  0.778999  0.306448  0.250377  1
  Cr  Cr30  1  0.546075  0.359691  0.749445  1
  Cr  Cr31  1  0.450608  0.141122  0.751419  1
  Cr  Cr32  1  0.560543  0.865267  0.251825  1
  Cr  Cr33  1  0.442911  0.642155  0.249716  1
  Cr  Cr34  1  0.227029  0.693348  0.749831  1
  Cr  Cr35  1  0.109520  0.968552  0.249519  1
  O  O36  1  0.999576  0.068632  0.137339  1
  O  O37  1  0.930009  0.213847  0.366260  1
  O  O38  1  0.993424  0.569889  0.634831  1
  O  O39  1  0.852408  0.355113  0.637839  1
  O  O40  1  0.729796  0.119512  0.634734  1
  O  O41  1  0.663549  0.403756  0.136395  1
  O  O42  1  0.932530  0.713365  0.864251  1
  O  O43  1  0.805503  0.474525  0.862427  1
  O  O44  1  0.599267  0.047745  0.866882  1
  O  O45  1  0.867074  0.859101  0.137995  1
  O  O46  1  0.733265  0.619466  0.135081  1
  O  O47  1  0.525372  0.189371  0.136909  1
  O  O48  1  0.667153  0.258133  0.860989  1
  O  O49  1  0.802105  0.974336  0.363343  1
  O  O50  1  0.595993  0.549869  0.364664  1
  O  O51  1  0.482460  0.309854  0.362018  1
  O  O52  1  0.667882  0.764785  0.361166  1
  O  O53  1  0.331741  0.092982  0.362511  1
  O  O54  1  0.668672  0.904149  0.635905  1
  O  O55  1  0.333518  0.242231  0.638289  1
  O  O56  1  0.514960  0.688504  0.637673  1
  O  O57  1  0.400394  0.452499  0.633245  1
  O  O58  1  0.193995  0.025504  0.637770  1
  O  O59  1  0.335957  0.738520  0.140516  1
  O  O60  1  0.480001  0.811265  0.864742  1
  O  O61  1  0.270404  0.381191  0.865036  1
  O  O62  1  0.147732  0.145099  0.861814  1
  O  O63  1  0.409017  0.948286  0.135546  1
  O  O64  1  0.188520  0.523366  0.135245  1
  O  O65  1  0.062709  0.284797  0.135587  1
  O  O66  1  0.333092  0.598730  0.862320  1
  O  O67  1  0.255880  0.883897  0.364854  1
  O  O68  1  0.150816  0.644366  0.362635  1
  O  O69  1  0.000127  0.427274  0.362440  1
  O  O70  1  0.072936  0.783795  0.636070  1
  O  O71  1  0.002897  0.929266  0.865174  1
