# generated using pymatgen
data_FeOF
_symmetry_space_group_name_H-M   'P 1'
_cell_length_a   14.24224863
_cell_length_b   9.51866751
_cell_length_c   3.09866466
_cell_angle_alpha   90.00000000
_cell_angle_beta   90.00000000
_cell_angle_gamma   90.36493825
_symmetry_Int_Tables_number   1
_chemical_formula_structural   FeOF
_chemical_formula_sum   'Fe12 O12 F12'
_cell_volume   420.06886143
_cell_formula_units_Z   12
loop_
 _symmetry_equiv_pos_site_id
 _symmetry_equiv_pos_as_xyz
  1  'x, y, z'
loop_
 _atom_site_type_symbol
 _atom_site_label
 _atom_site_symmetry_multiplicity
 _atom_site_fract_x
 _atom_site_fract_y
 _atom_site_fract_z
 _atom_site_occupancy
  Fe  Fe0  1  0.004198  0.006313  0.000000  1
  Fe  Fe1  1  0.007117  0.493783  0.000000  1
  Fe  Fe2  1  0.149899  0.249688  0.500000  1
  Fe  Fe3  1  0.167967  0.783958  0.500000  1
  Fe  Fe4  1  0.334002  0.000034  0.000000  1
  Fe  Fe5  1  0.344018  0.498121  0.000000  1
  Fe  Fe6  1  0.500685  0.724770  0.500000  1
  Fe  Fe7  1  0.484774  0.243942  0.500000  1
  Fe  Fe8  1  0.679613  0.997712  0.000000  1
  Fe  Fe9  1  0.667754  0.513701  0.000000  1
  Fe  Fe10  1  0.834729  0.220982  0.500000  1
  Fe  Fe11  1  0.819702  0.747825  0.500000  1
  O  O12  1  0.064213  0.409655  0.500000  1
  O  O13  1  0.064904  0.903126  0.500000  1
  O  O14  1  0.105012  0.155897  0.000000  1
  O  O15  1  0.238509  0.857652  0.000000  1
  O  O16  1  0.398248  0.402881  0.500000  1
  O  O17  1  0.431249  0.145518  0.000000  1
  O  O18  1  0.431684  0.657717  0.000000  1
  O  O19  1  0.602558  0.593219  0.500000  1
  O  O20  1  0.729336  0.901409  0.500000  1
  O  O21  1  0.765884  0.154292  0.000000  1
  O  O22  1  0.772543  0.645587  0.000000  1
  O  O23  1  0.936355  0.095870  0.500000  1
  F  F24  1  0.103265  0.657381  0.000000  1
  F  F25  1  0.231744  0.350419  0.000000  1
  F  F26  1  0.270106  0.103806  0.500000  1
  F  F27  1  0.264383  0.596225  0.500000  1
  F  F28  1  0.402039  0.904644  0.500000  1
  F  F29  1  0.566037  0.339522  0.000000  1
  F  F30  1  0.562438  0.850914  0.000000  1
  F  F31  1  0.598830  0.097449  0.500000  1
  F  F32  1  0.731920  0.399468  0.500000  1
  F  F33  1  0.897622  0.353999  0.000000  1
  F  F34  1  0.897776  0.841369  0.000000  1
  F  F35  1  0.938889  0.601152  0.500000  1
