# generated using pymatgen
data_Li4Ti2Nb3Co3O16
_symmetry_space_group_name_H-M   'P 1'
_cell_length_a   6.01998529
_cell_length_b   6.09416975
_cell_length_c   9.85171236
_cell_angle_alpha   89.98914565
_cell_angle_beta   89.57271586
_cell_angle_gamma   120.39306136
_symmetry_Int_Tables_number   1
_chemical_formula_structural   Li4Ti2Nb3Co3O16
_chemical_formula_sum   'Li4 Ti2 Nb3 Co3 O16'
_cell_volume   311.74671093
_cell_formula_units_Z   1
loop_
 _symmetry_equiv_pos_site_id
 _symmetry_equiv_pos_as_xyz
  1  'x, y, z'
loop_
 _atom_site_type_symbol
 _atom_site_label
 _atom_site_symmetry_multiplicity
 _atom_site_fract_x
 _atom_site_fract_y
 _atom_site_fract_z
 _atom_site_occupancy
  Li  Li0  1  0.332927  0.666552  0.903364  1
  Li  Li1  1  0.006650  0.003159  0.998752  1
  Li  Li2  1  0.040490  0.020267  0.485386  1
  Li  Li3  1  0.661645  0.330802  0.390941  1
  Ti  Ti4  1  0.274046  0.636971  0.484596  1
  Ti  Ti5  1  0.653845  0.327026  0.010908  1
  Nb  Nb6  1  0.641165  0.820652  0.228858  1
  Nb  Nb7  1  0.809915  0.651699  0.715676  1
  Nb  Nb8  1  0.809838  0.158271  0.715700  1
  Co  Co9  1  0.168108  0.826141  0.208586  1
  Co  Co10  1  0.168019  0.341961  0.208531  1
  Co  Co11  1  0.375455  0.187728  0.711408  1
  O  O12  1  0.158711  0.819737  0.593065  1
  O  O13  1  0.035390  0.517713  0.350094  1
  O  O14  1  0.349821  0.674971  0.099659  1
  O  O15  1  0.994342  0.997155  0.300233  1
  O  O16  1  0.996713  0.998269  0.807172  1
  O  O17  1  0.158755  0.338889  0.593047  1
  O  O18  1  0.492295  0.963318  0.350871  1
  O  O19  1  0.492362  0.529076  0.350861  1
  O  O20  1  0.340542  0.170350  0.092908  1
  O  O21  1  0.671017  0.835583  0.600708  1
  O  O22  1  0.535293  0.497477  0.850000  1
  O  O23  1  0.535259  0.037845  0.850025  1
  O  O24  1  0.697953  0.349087  0.589509  1
  O  O25  1  0.815072  0.651545  0.094223  1
  O  O26  1  0.969371  0.484595  0.828562  1
  O  O27  1  0.815003  0.163460  0.094197  1
