# generated using pymatgen
data_Ca2MnFeSi4(HO3)5
_symmetry_space_group_name_H-M   'P 1'
_cell_length_a   10.20013426
_cell_length_b   9.56962013
_cell_length_c   8.86456243
_cell_angle_alpha   58.64971851
_cell_angle_beta   67.33679832
_cell_angle_gamma   80.76014175
_symmetry_Int_Tables_number   1
_chemical_formula_structural   Ca2MnFeSi4(HO3)5
_chemical_formula_sum   'Ca4 Mn2 Fe2 Si8 H10 O30'
_cell_volume   681.02119280
_cell_formula_units_Z   2
loop_
 _symmetry_equiv_pos_site_id
 _symmetry_equiv_pos_as_xyz
  1  'x, y, z'
loop_
 _atom_site_type_symbol
 _atom_site_label
 _atom_site_symmetry_multiplicity
 _atom_site_fract_x
 _atom_site_fract_y
 _atom_site_fract_z
 _atom_site_occupancy
  Ca  Ca0  1  0.422467  0.184802  0.395820  1
  Ca  Ca1  1  0.496748  0.698833  0.169398  1
  Ca  Ca2  1  0.503252  0.301167  0.830602  1
  Ca  Ca3  1  0.577533  0.815198  0.604180  1
  Mn  Mn4  1  0.223870  0.016114  0.277193  1
  Mn  Mn5  1  0.776130  0.983886  0.722807  1
  Fe  Fe6  1  0.129613  0.842200  0.139171  1
  Fe  Fe7  1  0.870387  0.157800  0.860829  1
  Si  Si8  1  0.962495  0.202466  0.414801  1
  Si  Si9  1  0.212284  0.192780  0.847750  1
  Si  Si10  1  0.167417  0.489842  0.535040  1
  Si  Si11  1  0.218234  0.834842  0.781354  1
  Si  Si12  1  0.781766  0.165158  0.218646  1
  Si  Si13  1  0.832583  0.510158  0.464960  1
  Si  Si14  1  0.787716  0.807220  0.152250  1
  Si  Si15  1  0.037505  0.797534  0.585199  1
  H  H16  1  0.150704  0.441068  0.313115  1
  H  H17  1  0.495115  0.027176  0.186129  1
  H  H18  1  0.375189  0.394557  0.563861  1
  H  H19  1  0.234001  0.680571  0.949188  1
  H  H20  1  0.832504  0.642174  0.021534  1
  H  H21  1  0.167496  0.357826  0.978466  1
  H  H22  1  0.765999  0.319429  0.050812  1
  H  H23  1  0.624811  0.605443  0.436139  1
  H  H24  1  0.504885  0.972824  0.813871  1
  H  H25  1  0.849296  0.558932  0.686885  1
  O  O26  1  0.837674  0.042200  0.129730  1
  O  O27  1  0.924974  0.381083  0.406945  1
  O  O28  1  0.134684  0.186332  0.357749  1
  O  O29  1  0.909001  0.214315  0.256512  1
  O  O30  1  0.845441  0.469294  0.664635  1
  O  O31  1  0.375257  0.195588  0.709576  1
  O  O32  1  0.106307  0.294541  0.711354  1
  O  O33  1  0.124155  0.070091  0.074355  1
  O  O34  1  0.339018  0.505292  0.488384  1
  O  O35  1  0.359293  0.911912  0.595681  1
  O  O36  1  0.245015  0.343640  0.882102  1
  O  O37  1  0.447024  0.479807  0.121788  1
  O  O38  1  0.277364  0.827436  0.218313  1
  O  O39  1  0.539487  0.437641  0.215629  1
  O  O40  1  0.431497  0.118536  0.159904  1
  O  O41  1  0.568503  0.881464  0.840096  1
  O  O42  1  0.460513  0.562359  0.784371  1
  O  O43  1  0.722636  0.172564  0.781687  1
  O  O44  1  0.552976  0.520193  0.878212  1
  O  O45  1  0.754985  0.656360  0.117898  1
  O  O46  1  0.640707  0.088088  0.404319  1
  O  O47  1  0.660982  0.494708  0.511616  1
  O  O48  1  0.875845  0.929909  0.925645  1
  O  O49  1  0.893693  0.705459  0.288646  1
  O  O50  1  0.624743  0.804412  0.290424  1
  O  O51  1  0.154559  0.530706  0.335365  1
  O  O52  1  0.090999  0.785685  0.743488  1
  O  O53  1  0.865316  0.813668  0.642251  1
  O  O54  1  0.075026  0.618917  0.593055  1
  O  O55  1  0.162326  0.957800  0.870270  1
