# generated using pymatgen
data_LiFe2O2F3
_symmetry_space_group_name_H-M   'P 1'
_cell_length_a   3.87233933
_cell_length_b   5.35896626
_cell_length_c   10.09602684
_cell_angle_alpha   90.50460927
_cell_angle_beta   90.00000000
_cell_angle_gamma   111.17977013
_symmetry_Int_Tables_number   1
_chemical_formula_structural   LiFe2O2F3
_chemical_formula_sum   'Li2 Fe4 O4 F6'
_cell_volume   195.34926033
_cell_formula_units_Z   2
loop_
 _symmetry_equiv_pos_site_id
 _symmetry_equiv_pos_as_xyz
  1  'x, y, z'
loop_
 _atom_site_type_symbol
 _atom_site_label
 _atom_site_symmetry_multiplicity
 _atom_site_fract_x
 _atom_site_fract_y
 _atom_site_fract_z
 _atom_site_occupancy
  Li  Li0  1  0.308844  0.617687  0.737207  1
  Li  Li1  1  0.635522  0.271045  0.573667  1
  Fe  Fe2  1  0.353388  0.706776  0.440255  1
  Fe  Fe3  1  0.370413  0.740826  0.080108  1
  Fe  Fe4  1  0.700038  0.400078  0.253702  1
  Fe  Fe5  1  0.643677  0.287353  0.945198  1
  O  O6  1  0.260578  0.521156  0.244579  1
  O  O7  1  0.555844  0.111688  0.115796  1
  O  O8  1  0.811950  0.623898  0.062097  1
  O  O9  1  0.821776  0.643550  0.411271  1
  F  F10  1  0.449220  0.898439  0.887708  1
  F  F11  1  0.193991  0.387981  0.561424  1
  F  F12  1  0.447855  0.895710  0.611143  1
  F  F13  1  0.175073  0.350146  0.929281  1
  F  F14  1  0.725417  0.450835  0.767424  1
  F  F15  1  0.546415  0.092831  0.379142  1
