# generated using pymatgen
data_Ca8V7ZnBiO28
_symmetry_space_group_name_H-M   'P 1'
_cell_length_a   14.17206464
_cell_length_b   14.17421003
_cell_length_c   14.17206488
_cell_angle_alpha   45.39593958
_cell_angle_beta   45.49414176
_cell_angle_gamma   45.39593780
_symmetry_Int_Tables_number   1
_chemical_formula_structural   Ca8V7ZnBiO28
_chemical_formula_sum   'Ca16 V14 Zn2 Bi2 O56'
_cell_volume   1316.15402559
_cell_formula_units_Z   2
loop_
 _symmetry_equiv_pos_site_id
 _symmetry_equiv_pos_as_xyz
  1  'x, y, z'
loop_
 _atom_site_type_symbol
 _atom_site_label
 _atom_site_symmetry_multiplicity
 _atom_site_fract_x
 _atom_site_fract_y
 _atom_site_fract_z
 _atom_site_occupancy
  Ca  Ca0  1  0.068270  0.657557  0.071694  1
  Ca  Ca1  1  0.066194  0.069566  0.662618  1
  Ca  Ca2  1  0.056340  0.450321  0.468403  1
  Ca  Ca3  1  0.659389  0.073518  0.065675  1
  Ca  Ca4  1  0.448912  0.473635  0.054834  1
  Ca  Ca5  1  0.474292  0.060005  0.446860  1
  Ca  Ca6  1  0.162618  0.569566  0.566194  1
  Ca  Ca7  1  0.565675  0.573518  0.159389  1
  Ca  Ca8  1  0.571694  0.157557  0.568270  1
  Ca  Ca9  1  0.441583  0.407818  0.848863  1
  Ca  Ca10  1  0.850158  0.437799  0.410707  1
  Ca  Ca11  1  0.348863  0.907818  0.941583  1
  Ca  Ca12  1  0.910707  0.937799  0.350158  1
  Ca  Ca13  1  0.554834  0.973635  0.948912  1
  Ca  Ca14  1  0.946860  0.560005  0.974292  1
  Ca  Ca15  1  0.968403  0.950321  0.556340  1
  V  V16  1  0.267164  0.265739  0.264040  1
  V  V17  1  0.186361  0.685105  0.223690  1
  V  V18  1  0.223719  0.184559  0.686153  1
  V  V19  1  0.687122  0.223331  0.184804  1
  V  V20  1  0.275878  0.822787  0.309044  1
  V  V21  1  0.310938  0.274788  0.821422  1
  V  V22  1  0.186153  0.684559  0.723719  1
  V  V23  1  0.821944  0.310195  0.276019  1
  V  V24  1  0.684804  0.723331  0.187122  1
  V  V25  1  0.723690  0.185105  0.686361  1
  V  V26  1  0.321422  0.774788  0.810938  1
  V  V27  1  0.776019  0.810195  0.321944  1
  V  V28  1  0.809044  0.322787  0.775878  1
  V  V29  1  0.764040  0.765739  0.767164  1
  Zn  Zn30  1  0.001750  0.998006  0.002554  1
  Zn  Zn31  1  0.502554  0.498006  0.501750  1
  Bi  Bi32  1  0.405627  0.856992  0.439427  1
  Bi  Bi33  1  0.939427  0.356992  0.905627  1
  O  O34  1  0.099389  0.403572  0.257758  1
  O  O35  1  0.261007  0.091939  0.406639  1
  O  O36  1  0.405003  0.257746  0.097851  1
  O  O37  1  0.173980  0.602859  0.185773  1
  O  O38  1  0.185722  0.174919  0.602016  1
  O  O39  1  0.312159  0.310294  0.311379  1
  O  O40  1  0.116522  0.874172  0.129201  1
  O  O41  1  0.131211  0.110575  0.875721  1
  O  O42  1  0.083008  0.641603  0.408733  1
  O  O43  1  0.164219  0.367029  0.627874  1
  O  O44  1  0.603058  0.187387  0.172993  1
  O  O45  1  0.369186  0.617526  0.169796  1
  O  O46  1  0.408963  0.082901  0.641109  1
  O  O47  1  0.099629  0.836273  0.400902  1
  O  O48  1  0.618047  0.172508  0.366627  1
  O  O49  1  0.650285  0.408427  0.075597  1
  O  O50  1  0.119113  0.356555  0.886855  1
  O  O51  1  0.875620  0.123956  0.119229  1
  O  O52  1  0.400909  0.098647  0.836471  1
  O  O53  1  0.102016  0.674919  0.685722  1
  O  O54  1  0.380353  0.633928  0.378922  1
  O  O55  1  0.378800  0.379624  0.632917  1
  O  O56  1  0.356469  0.884570  0.121953  1
  O  O57  1  0.633449  0.378225  0.380249  1
  O  O58  1  0.835109  0.406680  0.095319  1
  O  O59  1  0.261932  0.908985  0.365137  1
  O  O60  1  0.127874  0.867029  0.664219  1
  O  O61  1  0.141109  0.582901  0.908963  1
  O  O62  1  0.368266  0.262430  0.903059  1
  O  O63  1  0.672993  0.687387  0.103058  1
  O  O64  1  0.375721  0.610575  0.631211  1
  O  O65  1  0.685773  0.102859  0.673980  1
  O  O66  1  0.886516  0.122824  0.355073  1
  O  O67  1  0.619229  0.623956  0.375620  1
  O  O68  1  0.629201  0.374172  0.616522  1
  O  O69  1  0.575597  0.908427  0.150285  1
  O  O70  1  0.669796  0.117526  0.869186  1
  O  O71  1  0.132917  0.879624  0.878800  1
  O  O72  1  0.903198  0.368224  0.263476  1
  O  O73  1  0.336471  0.598647  0.900909  1
  O  O74  1  0.866627  0.672508  0.118047  1
  O  O75  1  0.908733  0.141603  0.583008  1
  O  O76  1  0.386855  0.856555  0.619113  1
  O  O77  1  0.595319  0.906680  0.335109  1
  O  O78  1  0.621953  0.384570  0.856469  1
  O  O79  1  0.900902  0.336273  0.599629  1
  O  O80  1  0.403059  0.762430  0.868266  1
  O  O81  1  0.880249  0.878225  0.133449  1
  O  O82  1  0.878922  0.133928  0.880353  1
  O  O83  1  0.855073  0.622824  0.386516  1
  O  O84  1  0.763476  0.868224  0.403198  1
  O  O85  1  0.865137  0.408985  0.761932  1
  O  O86  1  0.597851  0.757746  0.905003  1
  O  O87  1  0.757758  0.903572  0.599389  1
  O  O88  1  0.906639  0.591939  0.761007  1
  O  O89  1  0.811379  0.810294  0.812159  1
