# generated using pymatgen
data_CaP2(H2O3)3
_symmetry_space_group_name_H-M   'P 1'
_cell_length_a   5.66159750
_cell_length_b   11.96375686
_cell_length_c   6.51645684
_cell_angle_alpha   98.67140892
_cell_angle_beta   118.23056698
_cell_angle_gamma   83.36774372
_symmetry_Int_Tables_number   1
_chemical_formula_structural   CaP2(H2O3)3
_chemical_formula_sum   'Ca2 P4 H12 O18'
_cell_volume   383.94313515
_cell_formula_units_Z   2
loop_
 _symmetry_equiv_pos_site_id
 _symmetry_equiv_pos_as_xyz
  1  'x, y, z'
loop_
 _atom_site_type_symbol
 _atom_site_label
 _atom_site_symmetry_multiplicity
 _atom_site_fract_x
 _atom_site_fract_y
 _atom_site_fract_z
 _atom_site_occupancy
  Ca  Ca0  1  0.266772  0.897437  0.227058  1
  Ca  Ca1  1  0.733228  0.102563  0.772942  1
  P  P2  1  0.253877  0.902776  0.723111  1
  P  P3  1  0.746123  0.097224  0.276889  1
  P  P4  1  0.652030  0.627114  0.387375  1
  P  P5  1  0.347970  0.372886  0.612625  1
  H  H6  1  0.896730  0.804214  0.458780  1
  H  H7  1  0.103270  0.195786  0.541220  1
  H  H8  1  0.621366  0.794462  0.934864  1
  H  H9  1  0.378634  0.205538  0.065136  1
  H  H10  1  0.931518  0.517456  0.286536  1
  H  H11  1  0.068482  0.482544  0.713464  1
  H  H12  1  0.324795  0.511670  0.296024  1
  H  H13  1  0.675205  0.488330  0.703976  1
  H  H14  1  0.913901  0.697410  0.859196  1
  H  H15  1  0.086099  0.302590  0.140804  1
  H  H16  1  0.971534  0.693295  0.113761  1
  H  H17  1  0.028466  0.306705  0.886239  1
  O  O18  1  0.419901  0.967133  0.658743  1
  O  O19  1  0.580099  0.032867  0.341257  1
  O  O20  1  0.082111  0.966491  0.827753  1
  O  O21  1  0.917889  0.033509  0.172247  1
  O  O22  1  0.078085  0.827440  0.483910  1
  O  O23  1  0.921915  0.172560  0.516090  1
  O  O24  1  0.435229  0.818632  0.914865  1
  O  O25  1  0.564771  0.181368  0.085135  1
  O  O26  1  0.619884  0.755788  0.397444  1
  O  O27  1  0.380116  0.244212  0.602556  1
  O  O28  1  0.810699  0.587247  0.239643  1
  O  O29  1  0.189301  0.412753  0.760357  1
  O  O30  1  0.362896  0.579015  0.241393  1
  O  O31  1  0.637104  0.420985  0.758607  1
  O  O32  1  0.802738  0.580773  0.626744  1
  O  O33  1  0.197262  0.419227  0.373256  1
  O  O34  1  0.936191  0.747837  0.002482  1
  O  O35  1  0.063809  0.252163  0.997518  1
