# generated using pymatgen
data_Li6V(BO3)3
_symmetry_space_group_name_H-M   'P 1'
_cell_length_a   7.04817767
_cell_length_b   16.29471366
_cell_length_c   6.55286284
_cell_angle_alpha   90.00000000
_cell_angle_beta   104.72728900
_cell_angle_gamma   90.00000000
_symmetry_Int_Tables_number   1
_chemical_formula_structural   Li6V(BO3)3
_chemical_formula_sum   'Li24 V4 B12 O36'
_cell_volume   727.85864726
_cell_formula_units_Z   4
loop_
 _symmetry_equiv_pos_site_id
 _symmetry_equiv_pos_as_xyz
  1  'x, y, z'
loop_
 _atom_site_type_symbol
 _atom_site_label
 _atom_site_symmetry_multiplicity
 _atom_site_fract_x
 _atom_site_fract_y
 _atom_site_fract_z
 _atom_site_occupancy
  Li  Li0  1  0.065130  0.994710  0.679122  1
  Li  Li1  1  0.135469  0.554808  0.587141  1
  Li  Li2  1  0.065130  0.505290  0.179122  1
  Li  Li3  1  0.305802  0.462724  0.948854  1
  Li  Li4  1  0.135469  0.945192  0.087141  1
  Li  Li5  1  0.270535  0.707416  0.634881  1
  Li  Li6  1  0.305802  0.037276  0.448854  1
  Li  Li7  1  0.416378  0.293807  0.951879  1
  Li  Li8  1  0.460600  0.968790  0.830335  1
  Li  Li9  1  0.270535  0.792584  0.134881  1
  Li  Li10  1  0.416378  0.206193  0.451879  1
  Li  Li11  1  0.460600  0.531210  0.330335  1
  Li  Li12  1  0.539400  0.468790  0.669665  1
  Li  Li13  1  0.583622  0.793807  0.548121  1
  Li  Li14  1  0.729465  0.207416  0.865119  1
  Li  Li15  1  0.539400  0.031210  0.169665  1
  Li  Li16  1  0.583622  0.706193  0.048121  1
  Li  Li17  1  0.694198  0.962724  0.551146  1
  Li  Li18  1  0.729465  0.292584  0.365119  1
  Li  Li19  1  0.864531  0.054808  0.912859  1
  Li  Li20  1  0.694198  0.537276  0.051146  1
  Li  Li21  1  0.934870  0.494710  0.820878  1
  Li  Li22  1  0.864531  0.445192  0.412859  1
  Li  Li23  1  0.934870  0.005290  0.320878  1
  V  V24  1  0.077774  0.183244  0.667716  1
  V  V25  1  0.077774  0.316756  0.167716  1
  V  V26  1  0.922226  0.683244  0.832284  1
  V  V27  1  0.922226  0.816756  0.332284  1
  B  B28  1  0.082756  0.361507  0.654097  1
  B  B29  1  0.082756  0.138493  0.154097  1
  B  B30  1  0.277815  0.875182  0.499248  1
  B  B31  1  0.430161  0.118599  0.811597  1
  B  B32  1  0.277815  0.624818  0.999248  1
  B  B33  1  0.430161  0.381401  0.311597  1
  B  B34  1  0.569839  0.618599  0.688403  1
  B  B35  1  0.722185  0.375182  0.000752  1
  B  B36  1  0.569839  0.881401  0.188403  1
  B  B37  1  0.722185  0.124818  0.500752  1
  B  B38  1  0.917244  0.861507  0.845903  1
  B  B39  1  0.917244  0.638493  0.345903  1
  O  O40  1  0.997198  0.665393  0.550514  1
  O  O41  1  0.107915  0.578441  0.965914  1
  O  O42  1  0.105367  0.445127  0.685730  1
  O  O43  1  0.122018  0.304471  0.817452  1
  O  O44  1  0.997198  0.834607  0.050514  1
  O  O45  1  0.107915  0.921559  0.465914  1
  O  O46  1  0.242455  0.705520  0.933861  1
  O  O47  1  0.105367  0.054873  0.185730  1
  O  O48  1  0.122018  0.195529  0.317452  1
  O  O49  1  0.262831  0.071728  0.734131  1
  O  O50  1  0.242455  0.794480  0.433861  1
  O  O51  1  0.262831  0.428272  0.234131  1
  O  O52  1  0.401318  0.200961  0.760682  1
  O  O53  1  0.399510  0.582643  0.576392  1
  O  O54  1  0.540260  0.408267  0.918930  1
  O  O55  1  0.459740  0.908267  0.581070  1
  O  O56  1  0.401318  0.299039  0.260682  1
  O  O57  1  0.600490  0.082643  0.923608  1
  O  O58  1  0.399510  0.917357  0.076392  1
  O  O59  1  0.598682  0.700961  0.739318  1
  O  O60  1  0.540260  0.091733  0.418930  1
  O  O61  1  0.459740  0.591733  0.081070  1
  O  O62  1  0.600490  0.417357  0.423608  1
  O  O63  1  0.598682  0.799039  0.239318  1
  O  O64  1  0.737169  0.571728  0.765869  1
  O  O65  1  0.757545  0.205520  0.566139  1
  O  O66  1  0.737169  0.928272  0.265869  1
  O  O67  1  0.877982  0.804471  0.682548  1
  O  O68  1  0.894633  0.945127  0.814270  1
  O  O69  1  0.757545  0.294480  0.066139  1
  O  O70  1  0.892085  0.078441  0.534086  1
  O  O71  1  0.002802  0.165393  0.949486  1
  O  O72  1  0.877982  0.695529  0.182549  1
  O  O73  1  0.894633  0.554873  0.314270  1
  O  O74  1  0.892085  0.421559  0.034086  1
  O  O75  1  0.002802  0.334607  0.449486  1
