# generated using pymatgen
data_LiMnF4
_symmetry_space_group_name_H-M   'P 1'
_cell_length_a   7.02374091
_cell_length_b   7.02374044
_cell_length_c   10.71111380
_cell_angle_alpha   90.00000000
_cell_angle_beta   90.00000000
_cell_angle_gamma   119.99999626
_symmetry_Int_Tables_number   1
_chemical_formula_structural   LiMnF4
_chemical_formula_sum   'Li6 Mn6 F24'
_cell_volume   457.61707262
_cell_formula_units_Z   6
loop_
 _symmetry_equiv_pos_site_id
 _symmetry_equiv_pos_as_xyz
  1  'x, y, z'
loop_
 _atom_site_type_symbol
 _atom_site_label
 _atom_site_symmetry_multiplicity
 _atom_site_fract_x
 _atom_site_fract_y
 _atom_site_fract_z
 _atom_site_occupancy
  Li  Li0  1  0.157898  0.746509  0.323184  1
  Li  Li1  1  0.253491  0.411389  0.656517  1
  Li  Li2  1  0.588611  0.842102  0.989851  1
  Li  Li3  1  0.457629  0.328422  0.087063  1
  Li  Li4  1  0.870792  0.542371  0.753730  1
  Li  Li5  1  0.671578  0.129208  0.420397  1
  Mn  Mn6  1  0.009786  0.842639  0.011588  1
  Mn  Mn7  1  0.992062  0.370073  0.067697  1
  Mn  Mn8  1  0.378012  0.007938  0.734363  1
  Mn  Mn9  1  0.157361  0.167147  0.344921  1
  Mn  Mn10  1  0.629927  0.621988  0.401030  1
  Mn  Mn11  1  0.832853  0.990214  0.678255  1
  F  F12  1  0.095179  0.643378  0.154643  1
  F  F13  1  0.277242  0.004800  0.929912  1
  F  F14  1  0.181366  0.716152  0.687035  1
  F  F15  1  0.995200  0.272441  0.263245  1
  F  F16  1  0.283848  0.465214  0.020368  1
  F  F17  1  0.185241  0.095518  0.665801  1
  F  F18  1  0.548198  0.904821  0.821310  1
  F  F19  1  0.356622  0.451802  0.487977  1
  F  F20  1  0.534786  0.818634  0.353701  1
  F  F21  1  0.171699  0.041907  0.152412  1
  F  F22  1  0.427514  0.396851  0.261224  1
  F  F23  1  0.312225  0.034758  0.405011  1
  F  F24  1  0.727559  0.722758  0.596578  1
  F  F25  1  0.567084  0.307401  0.763664  1
  F  F26  1  0.722533  0.687775  0.071678  1
  F  F27  1  0.870207  0.828301  0.819079  1
  F  F28  1  0.910277  0.814759  0.332468  1
  F  F29  1  0.740316  0.432916  0.430331  1
  F  F30  1  0.603149  0.030663  0.594557  1
  F  F31  1  0.969337  0.572486  0.927890  1
  F  F32  1  0.692599  0.259684  0.096997  1
  F  F33  1  0.965242  0.277467  0.738344  1
  F  F34  1  0.958093  0.129793  0.485746  1
  F  F35  1  0.904482  0.089723  0.999135  1
