# generated using pymatgen
data_Hf2N2O
_symmetry_space_group_name_H-M   'P 1'
_cell_length_a   8.73006316
_cell_length_b   8.73350039
_cell_length_c   8.72987241
_cell_angle_alpha   109.53043671
_cell_angle_beta   109.43669892
_cell_angle_gamma   109.40599112
_symmetry_Int_Tables_number   1
_chemical_formula_structural   Hf2N2O
_chemical_formula_sum   'Hf16 N16 O8'
_cell_volume   512.63515744
_cell_formula_units_Z   8
loop_
 _symmetry_equiv_pos_site_id
 _symmetry_equiv_pos_as_xyz
  1  'x, y, z'
loop_
 _atom_site_type_symbol
 _atom_site_label
 _atom_site_symmetry_multiplicity
 _atom_site_fract_x
 _atom_site_fract_y
 _atom_site_fract_z
 _atom_site_occupancy
  Hf  Hf0  1  0.965244  0.250193  0.214922  1
  Hf  Hf1  1  0.507825  0.006334  0.996685  1
  Hf  Hf2  1  0.789490  0.035093  0.758980  1
  Hf  Hf3  1  0.714517  0.466523  0.250276  1
  Hf  Hf4  1  0.755022  0.295741  0.531569  1
  Hf  Hf5  1  0.749433  0.778368  0.030686  1
  Hf  Hf6  1  0.009408  0.505663  0.996462  1
  Hf  Hf7  1  0.006078  0.995282  0.505693  1
  Hf  Hf8  1  0.502241  0.509552  0.512679  1
  Hf  Hf9  1  0.456541  0.249436  0.720447  1
  Hf  Hf10  1  0.538251  0.750995  0.291590  1
  Hf  Hf11  1  0.256881  0.717008  0.471432  1
  Hf  Hf12  1  0.239570  0.211734  0.954859  1
  Hf  Hf13  1  0.280693  0.533666  0.742801  1
  Hf  Hf14  1  0.213559  0.954168  0.248438  1
  Hf  Hf15  1  0.030842  0.744694  0.779747  1
  N  N16  1  0.741079  0.225329  0.274230  1
  N  N17  1  0.770584  0.728034  0.260582  1
  N  N18  1  0.046707  0.277666  0.014297  1
  N  N19  1  0.768177  0.543878  0.531347  1
  N  N20  1  0.225673  0.451563  0.462908  1
  N  N21  1  0.512486  0.239576  0.967376  1
  N  N22  1  0.988214  0.954958  0.727646  1
  N  N23  1  0.273866  0.736204  0.222272  1
  N  N24  1  0.959052  0.731782  0.993566  1
  N  N25  1  0.544798  0.532931  0.772707  1
  N  N26  1  0.223066  0.271138  0.737566  1
  N  N27  1  0.535420  0.771438  0.543149  1
  N  N28  1  0.029789  0.483051  0.758464  1
  N  N29  1  0.726114  0.984462  0.953976  1
  N  N30  1  0.263055  0.776153  0.731207  1
  N  N31  1  0.236118  0.966376  0.506943  1
  O  O32  1  0.756801  0.033315  0.487486  1
  O  O33  1  0.277618  0.017862  0.053742  1
  O  O34  1  0.963822  0.511469  0.238412  1
  O  O35  1  0.465331  0.224694  0.450991  1
  O  O36  1  0.453645  0.465842  0.226352  1
  O  O37  1  0.013123  0.048490  0.274491  1
  O  O38  1  0.722893  0.256518  0.766219  1
  O  O39  1  0.486974  0.762819  0.036808  1
