# generated using pymatgen
data_CoNCl4O3
_symmetry_space_group_name_H-M   'P 1'
_cell_length_a   8.94859004
_cell_length_b   9.19083703
_cell_length_c   11.94536161
_cell_angle_alpha   90.00000000
_cell_angle_beta   90.00000000
_cell_angle_gamma   90.00000000
_symmetry_Int_Tables_number   1
_chemical_formula_structural   CoNCl4O3
_chemical_formula_sum   'Co4 N4 Cl16 O12'
_cell_volume   982.44665630
_cell_formula_units_Z   4
loop_
 _symmetry_equiv_pos_site_id
 _symmetry_equiv_pos_as_xyz
  1  'x, y, z'
loop_
 _atom_site_type_symbol
 _atom_site_label
 _atom_site_symmetry_multiplicity
 _atom_site_fract_x
 _atom_site_fract_y
 _atom_site_fract_z
 _atom_site_occupancy
  Co  Co0  1  0.174824  0.750000  0.595791  1
  Co  Co1  1  0.325176  0.250000  0.095791  1
  Co  Co2  1  0.674824  0.750000  0.904209  1
  Co  Co3  1  0.825176  0.250000  0.404209  1
  N  N4  1  0.158819  0.250000  0.774059  1
  N  N5  1  0.341181  0.750000  0.274059  1
  N  N6  1  0.658819  0.250000  0.725941  1
  N  N7  1  0.841181  0.750000  0.225941  1
  Cl  Cl8  1  0.026802  0.250000  0.499159  1
  Cl  Cl9  1  0.124677  0.750000  0.769507  1
  Cl  Cl10  1  0.196815  0.437294  0.055448  1
  Cl  Cl11  1  0.196815  0.062706  0.055448  1
  Cl  Cl12  1  0.303185  0.562706  0.555448  1
  Cl  Cl13  1  0.303185  0.937294  0.555448  1
  Cl  Cl14  1  0.375323  0.250000  0.269507  1
  Cl  Cl15  1  0.473198  0.750000  0.999159  1
  Cl  Cl16  1  0.526802  0.250000  0.000841  1
  Cl  Cl17  1  0.624677  0.750000  0.730493  1
  Cl  Cl18  1  0.696815  0.062706  0.444552  1
  Cl  Cl19  1  0.696815  0.437294  0.444552  1
  Cl  Cl20  1  0.803185  0.562706  0.944552  1
  Cl  Cl21  1  0.803185  0.937294  0.944552  1
  Cl  Cl22  1  0.875323  0.250000  0.230493  1
  Cl  Cl23  1  0.973198  0.750000  0.500841  1
  O  O24  1  0.093703  0.131699  0.792451  1
  O  O25  1  0.093703  0.368301  0.792451  1
  O  O26  1  0.209954  0.750000  0.237411  1
  O  O27  1  0.290046  0.250000  0.737411  1
  O  O28  1  0.406297  0.631699  0.292451  1
  O  O29  1  0.406297  0.868301  0.292451  1
  O  O30  1  0.593703  0.131699  0.707549  1
  O  O31  1  0.593703  0.368301  0.707549  1
  O  O32  1  0.709954  0.750000  0.262589  1
  O  O33  1  0.790046  0.250000  0.762589  1
  O  O34  1  0.906297  0.631699  0.207549  1
  O  O35  1  0.906297  0.868301  0.207549  1
