# generated using pymatgen
data_Li7(SbS)2
_symmetry_space_group_name_H-M   'P 1'
_cell_length_a   13.19094982
_cell_length_b   7.51687909
_cell_length_c   8.69999104
_cell_angle_alpha   90.00000000
_cell_angle_beta   90.00000000
_cell_angle_gamma   90.00000000
_symmetry_Int_Tables_number   1
_chemical_formula_structural   Li7(SbS)2
_chemical_formula_sum   'Li28 Sb8 S8'
_cell_volume   862.64565302
_cell_formula_units_Z   4
loop_
 _symmetry_equiv_pos_site_id
 _symmetry_equiv_pos_as_xyz
  1  'x, y, z'
loop_
 _atom_site_type_symbol
 _atom_site_label
 _atom_site_symmetry_multiplicity
 _atom_site_fract_x
 _atom_site_fract_y
 _atom_site_fract_z
 _atom_site_occupancy
  Li  Li0  1  0.043798  0.669286  0.495133  1
  Li  Li1  1  0.043120  0.670626  0.007279  1
  Li  Li2  1  0.084908  0.258128  0.751431  1
  Li  Li3  1  0.113174  0.311293  0.251355  1
  Li  Li4  1  0.185275  0.551034  0.751548  1
  Li  Li5  1  0.208111  0.084627  0.531088  1
  Li  Li6  1  0.206200  0.083073  0.973744  1
  Li  Li7  1  0.293800  0.583073  0.473744  1
  Li  Li8  1  0.291889  0.584627  0.031088  1
  Li  Li9  1  0.314725  0.051034  0.251548  1
  Li  Li10  1  0.386826  0.811293  0.751355  1
  Li  Li11  1  0.415092  0.758128  0.251431  1
  Li  Li12  1  0.456880  0.170626  0.507279  1
  Li  Li13  1  0.456202  0.169286  0.995133  1
  Li  Li14  1  0.543798  0.830714  0.495133  1
  Li  Li15  1  0.543120  0.829374  0.007279  1
  Li  Li16  1  0.584908  0.241872  0.751431  1
  Li  Li17  1  0.613174  0.188707  0.251355  1
  Li  Li18  1  0.685275  0.948966  0.751548  1
  Li  Li19  1  0.708111  0.415373  0.531088  1
  Li  Li20  1  0.706200  0.416927  0.973744  1
  Li  Li21  1  0.793800  0.916927  0.473744  1
  Li  Li22  1  0.791889  0.915373  0.031088  1
  Li  Li23  1  0.814725  0.448966  0.251548  1
  Li  Li24  1  0.886826  0.688707  0.751355  1
  Li  Li25  1  0.915092  0.741872  0.251431  1
  Li  Li26  1  0.956880  0.329374  0.507279  1
  Li  Li27  1  0.956202  0.330714  0.995133  1
  Sb  Sb28  1  0.099372  0.926709  0.252747  1
  Sb  Sb29  1  0.086448  0.895631  0.750728  1
  Sb  Sb30  1  0.413552  0.395631  0.250728  1
  Sb  Sb31  1  0.400628  0.426709  0.752747  1
  Sb  Sb32  1  0.599372  0.573291  0.252747  1
  Sb  Sb33  1  0.586448  0.604369  0.750728  1
  Sb  Sb34  1  0.913552  0.104369  0.250728  1
  Sb  Sb35  1  0.900628  0.073291  0.752747  1
  S  S36  1  0.139712  0.398717  0.985115  1
  S  S37  1  0.140434  0.398251  0.517834  1
  S  S38  1  0.359566  0.898251  0.017834  1
  S  S39  1  0.360288  0.898717  0.485115  1
  S  S40  1  0.639712  0.101283  0.985115  1
  S  S41  1  0.640434  0.101749  0.517834  1
  S  S42  1  0.859566  0.601749  0.017834  1
  S  S43  1  0.860288  0.601283  0.485115  1
