# generated using pymatgen
data_Li7Mn12Cu5O32
_symmetry_space_group_name_H-M   'P 1'
_cell_length_a   8.32125535
_cell_length_b   8.28499419
_cell_length_c   8.30616253
_cell_angle_alpha   90.02190617
_cell_angle_beta   89.95293895
_cell_angle_gamma   90.04737169
_symmetry_Int_Tables_number   1
_chemical_formula_structural   Li7Mn12Cu5O32
_chemical_formula_sum   'Li7 Mn12 Cu5 O32'
_cell_volume   572.63930759
_cell_formula_units_Z   1
loop_
 _symmetry_equiv_pos_site_id
 _symmetry_equiv_pos_as_xyz
  1  'x, y, z'
loop_
 _atom_site_type_symbol
 _atom_site_label
 _atom_site_symmetry_multiplicity
 _atom_site_fract_x
 _atom_site_fract_y
 _atom_site_fract_z
 _atom_site_occupancy
  Li  Li0  1  0.002537  0.002746  0.003160  1
  Li  Li1  1  0.127120  0.875457  0.372891  1
  Li  Li2  1  0.374120  0.127194  0.873517  1
  Li  Li3  1  0.497433  0.996565  0.503026  1
  Li  Li4  1  0.502757  0.497374  0.996935  1
  Li  Li5  1  0.624751  0.627186  0.627457  1
  Li  Li6  1  0.873299  0.372728  0.124763  1
  Mn  Mn7  1  0.124974  0.127804  0.626484  1
  Mn  Mn8  1  0.126899  0.374458  0.872452  1
  Mn  Mn9  1  0.128927  0.626487  0.123384  1
  Mn  Mn10  1  0.372361  0.373975  0.625444  1
  Mn  Mn11  1  0.375626  0.625325  0.372411  1
  Mn  Mn12  1  0.375825  0.870405  0.126538  1
  Mn  Mn13  1  0.622619  0.371545  0.373793  1
  Mn  Mn14  1  0.627081  0.125044  0.128624  1
  Mn  Mn15  1  0.629504  0.873034  0.875593  1
  Mn  Mn16  1  0.871092  0.124873  0.375518  1
  Mn  Mn17  1  0.873072  0.877215  0.628373  1
  Mn  Mn18  1  0.875613  0.627690  0.875688  1
  Cu  Cu19  1  0.242646  0.239267  0.241325  1
  Cu  Cu20  1  0.256765  0.760152  0.741968  1
  Cu  Cu21  1  0.741791  0.258074  0.759813  1
  Cu  Cu22  1  0.757763  0.742706  0.256447  1
  Cu  Cu23  1  0.993293  0.506977  0.493563  1
  O  O24  1  0.100970  0.130002  0.390695  1
  O  O25  1  0.108600  0.896160  0.625038  1
  O  O26  1  0.114734  0.615035  0.885966  1
  O  O27  1  0.127204  0.388964  0.103106  1
  O  O28  1  0.122167  0.148468  0.855361  1
  O  O29  1  0.133732  0.367019  0.633616  1
  O  O30  1  0.141279  0.621111  0.354463  1
  O  O31  1  0.149301  0.855784  0.122206  1
  O  O32  1  0.350210  0.144313  0.621546  1
  O  O33  1  0.355279  0.378394  0.851070  1
  O  O34  1  0.363800  0.634644  0.136848  1
  O  O35  1  0.377395  0.851487  0.356170  1
  O  O36  1  0.374062  0.611239  0.602784  1
  O  O37  1  0.385755  0.384893  0.385725  1
  O  O38  1  0.391597  0.102203  0.126088  1
  O  O39  1  0.399903  0.867936  0.890961  1
  O  O40  1  0.602160  0.371647  0.610471  1
  O  O41  1  0.609686  0.602798  0.372649  1
  O  O42  1  0.615043  0.885273  0.114718  1
  O  O43  1  0.626575  0.109493  0.897824  1
  O  O44  1  0.622704  0.351902  0.144451  1
  O  O45  1  0.635933  0.135875  0.364608  1
  O  O46  1  0.644698  0.877754  0.649013  1
  O  O47  1  0.650349  0.642896  0.878015  1
  O  O48  1  0.853147  0.359642  0.379304  1
  O  O49  1  0.855983  0.122197  0.149517  1
  O  O50  1  0.865298  0.863779  0.863969  1
  O  O51  1  0.878580  0.645844  0.641044  1
  O  O52  1  0.871157  0.890838  0.397634  1
  O  O53  1  0.885437  0.114724  0.615493  1
  O  O54  1  0.891604  0.397342  0.870929  1
  O  O55  1  0.897795  0.626183  0.109677  1
