# generated using pymatgen
data_NiH12(BrO7)2
_symmetry_space_group_name_H-M   'P 1'
_cell_length_a   7.94270656
_cell_length_b   7.94265188
_cell_length_c   5.34306315
_cell_angle_alpha   90.00003900
_cell_angle_beta   89.99915354
_cell_angle_gamma   120.00029044
_symmetry_Int_Tables_number   1
_chemical_formula_structural   NiH12(BrO7)2
_chemical_formula_sum   'Ni1 H12 Br2 O14'
_cell_volume   291.91318671
_cell_formula_units_Z   1
loop_
 _symmetry_equiv_pos_site_id
 _symmetry_equiv_pos_as_xyz
  1  'x, y, z'
loop_
 _atom_site_type_symbol
 _atom_site_label
 _atom_site_symmetry_multiplicity
 _atom_site_fract_x
 _atom_site_fract_y
 _atom_site_fract_z
 _atom_site_occupancy
  Ni  Ni0  1  0.000000  0.000000  0.500000  1
  H  H1  1  0.066804  0.285130  0.791507  1
  H  H2  1  0.218325  0.933194  0.791506  1
  H  H3  1  0.714868  0.781675  0.791505  1
  H  H4  1  0.933196  0.714870  0.208493  1
  H  H5  1  0.781675  0.066806  0.208494  1
  H  H6  1  0.285132  0.218325  0.208495  1
  H  H7  1  0.270640  0.345540  0.675392  1
  H  H8  1  0.074896  0.729360  0.675391  1
  H  H9  1  0.654466  0.925102  0.675389  1
  H  H10  1  0.729360  0.654460  0.324608  1
  H  H11  1  0.925104  0.270640  0.324609  1
  H  H12  1  0.345534  0.074898  0.324611  1
  Br  Br13  1  0.666645  0.333323  0.822877  1
  Br  Br14  1  0.333355  0.666677  0.177123  1
  O  O15  1  0.666617  0.333309  0.130764  1
  O  O16  1  0.333383  0.666691  0.869236  1
  O  O17  1  0.151218  0.234367  0.739166  1
  O  O18  1  0.083149  0.848783  0.739166  1
  O  O19  1  0.765636  0.916853  0.739168  1
  O  O20  1  0.848782  0.765633  0.260834  1
  O  O21  1  0.916851  0.151217  0.260834  1
  O  O22  1  0.234364  0.083147  0.260832  1
  O  O23  1  0.886641  0.398531  0.716537  1
  O  O24  1  0.511866  0.113333  0.716509  1
  O  O25  1  0.601455  0.488118  0.716515  1
  O  O26  1  0.113359  0.601469  0.283463  1
  O  O27  1  0.488134  0.886667  0.283491  1
  O  O28  1  0.398545  0.511882  0.283485  1
