# generated using pymatgen
data_Li8Mn3Fe5(BO3)8
_symmetry_space_group_name_H-M   'P 1'
_cell_length_a   6.04358730
_cell_length_b   9.77455853
_cell_length_c   9.71222758
_cell_angle_alpha   65.01809065
_cell_angle_beta   78.27261944
_cell_angle_gamma   79.57425240
_symmetry_Int_Tables_number   1
_chemical_formula_structural   Li8Mn3Fe5(BO3)8
_chemical_formula_sum   'Li8 Mn3 Fe5 B8 O24'
_cell_volume   506.26770865
_cell_formula_units_Z   1
loop_
 _symmetry_equiv_pos_site_id
 _symmetry_equiv_pos_as_xyz
  1  'x, y, z'
loop_
 _atom_site_type_symbol
 _atom_site_label
 _atom_site_symmetry_multiplicity
 _atom_site_fract_x
 _atom_site_fract_y
 _atom_site_fract_z
 _atom_site_occupancy
  Li  Li0  1  0.954867  0.184829  0.532992  1
  Li  Li1  1  0.954933  0.685865  0.033832  1
  Li  Li2  1  0.547218  0.814662  0.968222  1
  Li  Li3  1  0.454971  0.684662  0.532241  1
  Li  Li4  1  0.546114  0.313734  0.466254  1
  Li  Li5  1  0.453214  0.183057  0.033027  1
  Li  Li6  1  0.046183  0.313721  0.966180  1
  Li  Li7  1  0.045015  0.813232  0.466291  1
  Mn  Mn8  1  0.686849  0.374706  0.707118  1
  Mn  Mn9  1  0.187393  0.874496  0.707495  1
  Mn  Mn10  1  0.187362  0.375110  0.206291  1
  Fe  Fe11  1  0.815982  0.628667  0.791252  1
  Fe  Fe12  1  0.684852  0.875642  0.210386  1
  Fe  Fe13  1  0.814159  0.128138  0.290959  1
  Fe  Fe14  1  0.314577  0.129031  0.791653  1
  Fe  Fe15  1  0.318683  0.629964  0.289663  1
  B  B16  1  0.665857  0.961920  0.633551  1
  B  B17  1  0.832620  0.037187  0.869647  1
  B  B18  1  0.835539  0.539712  0.365824  1
  B  B19  1  0.665504  0.462393  0.132920  1
  B  B20  1  0.333833  0.537711  0.867371  1
  B  B21  1  0.165473  0.462607  0.632247  1
  B  B22  1  0.162843  0.961733  0.132900  1
  B  B23  1  0.333933  0.035987  0.367167  1
  O  O24  1  0.823786  0.894880  0.987655  1
  O  O25  1  0.985421  0.438576  0.754824  1
  O  O26  1  0.983069  0.937108  0.254981  1
  O  O27  1  0.835658  0.842982  0.638430  1
  O  O28  1  0.822431  0.396291  0.482712  1
  O  O29  1  0.486331  0.938462  0.755467  1
  O  O30  1  0.833434  0.342485  0.137170  1
  O  O31  1  0.658396  0.152939  0.865129  1
  O  O32  1  0.663230  0.656594  0.361306  1
  O  O33  1  0.515171  0.566854  0.746042  1
  O  O34  1  0.678850  0.102339  0.512917  1
  O  O35  1  0.678844  0.602937  0.014115  1
  O  O36  1  0.325254  0.393780  0.983421  1
  O  O37  1  0.323945  0.893591  0.484230  1
  O  O38  1  0.486236  0.438834  0.255363  1
  O  O39  1  0.333792  0.342992  0.636841  1
  O  O40  1  0.334027  0.844339  0.137163  1
  O  O41  1  0.159578  0.652245  0.865901  1
  O  O42  1  0.516023  0.062411  0.245762  1
  O  O43  1  0.179035  0.603131  0.513369  1
  O  O44  1  0.162313  0.152538  0.364079  1
  O  O45  1  0.013807  0.065239  0.747916  1
  O  O46  1  0.017829  0.566391  0.245911  1
  O  O47  1  0.175560  0.103293  0.013818  1
