# generated using pymatgen
data_Sr2Sn(HO)8
_symmetry_space_group_name_H-M   'P 1'
_cell_length_a   6.86449512
_cell_length_b   10.50810234
_cell_length_c   6.16959343
_cell_angle_alpha   90.00000000
_cell_angle_beta   112.22443365
_cell_angle_gamma   90.00000000
_symmetry_Int_Tables_number   1
_chemical_formula_structural   Sr2Sn(HO)8
_chemical_formula_sum   'Sr4 Sn2 H16 O16'
_cell_volume   411.96858506
_cell_formula_units_Z   2
loop_
 _symmetry_equiv_pos_site_id
 _symmetry_equiv_pos_as_xyz
  1  'x, y, z'
loop_
 _atom_site_type_symbol
 _atom_site_label
 _atom_site_symmetry_multiplicity
 _atom_site_fract_x
 _atom_site_fract_y
 _atom_site_fract_z
 _atom_site_occupancy
  Sr  Sr0  1  0.283378  0.133612  0.637148  1
  Sr  Sr1  1  0.283378  0.366388  0.137148  1
  Sr  Sr2  1  0.716622  0.633612  0.862852  1
  Sr  Sr3  1  0.716622  0.866388  0.362852  1
  Sn  Sn4  1  0.000000  0.500000  0.500000  1
  Sn  Sn5  1  0.000000  0.000000  0.000000  1
  H  H6  1  0.304284  0.591293  0.843611  1
  H  H7  1  0.265777  0.884711  0.851223  1
  H  H8  1  0.304284  0.908707  0.343611  1
  H  H9  1  0.265777  0.615289  0.351223  1
  H  H10  1  0.457326  0.374856  0.643232  1
  H  H11  1  0.083376  0.736459  0.627110  1
  H  H12  1  0.916624  0.236459  0.872890  1
  H  H13  1  0.542674  0.874856  0.856768  1
  H  H14  1  0.457326  0.125144  0.143232  1
  H  H15  1  0.083376  0.763541  0.127110  1
  H  H16  1  0.916624  0.263541  0.372890  1
  H  H17  1  0.542674  0.625144  0.356768  1
  H  H18  1  0.734223  0.384711  0.648777  1
  H  H19  1  0.695716  0.091293  0.656389  1
  H  H20  1  0.734223  0.115289  0.148777  1
  H  H21  1  0.695716  0.408707  0.156389  1
  O  O22  1  0.047065  0.187161  0.912461  1
  O  O23  1  0.133508  0.938174  0.767199  1
  O  O24  1  0.047065  0.312839  0.412461  1
  O  O25  1  0.133508  0.561826  0.267199  1
  O  O26  1  0.297403  0.503895  0.784261  1
  O  O27  1  0.495227  0.812742  0.944957  1
  O  O28  1  0.297403  0.996105  0.284261  1
  O  O29  1  0.495227  0.687258  0.444957  1
  O  O30  1  0.504773  0.312742  0.555043  1
  O  O31  1  0.702597  0.003895  0.715739  1
  O  O32  1  0.504773  0.187258  0.055043  1
  O  O33  1  0.702597  0.496105  0.215739  1
  O  O34  1  0.866492  0.438174  0.732801  1
  O  O35  1  0.952935  0.687161  0.587539  1
  O  O36  1  0.866492  0.061826  0.232801  1
  O  O37  1  0.952935  0.812839  0.087539  1
