# generated using pymatgen
data_Li3V2(O2F)2
_symmetry_space_group_name_H-M   'P 1'
_cell_length_a   5.96284031
_cell_length_b   6.01056855
_cell_length_c   15.19611725
_cell_angle_alpha   95.94489567
_cell_angle_beta   78.51311368
_cell_angle_gamma   119.87764396
_symmetry_Int_Tables_number   1
_chemical_formula_structural   Li3V2(O2F)2
_chemical_formula_sum   'Li12 V8 O16 F8'
_cell_volume   462.77865403
_cell_formula_units_Z   4
loop_
 _symmetry_equiv_pos_site_id
 _symmetry_equiv_pos_as_xyz
  1  'x, y, z'
loop_
 _atom_site_type_symbol
 _atom_site_label
 _atom_site_symmetry_multiplicity
 _atom_site_fract_x
 _atom_site_fract_y
 _atom_site_fract_z
 _atom_site_occupancy
  Li  Li0  1  0.070785  0.858804  0.164562  1
  Li  Li1  1  0.064629  0.283841  0.165241  1
  Li  Li2  1  0.195394  0.669725  0.291215  1
  Li  Li3  1  0.333201  0.841086  0.664878  1
  Li  Li4  1  0.503290  0.528320  0.048052  1
  Li  Li5  1  0.563014  0.320980  0.174642  1
  Li  Li6  1  0.500553  0.002382  0.040952  1
  Li  Li7  1  0.663308  0.666892  0.296277  1
  Li  Li8  1  0.851835  0.847269  0.665013  1
  Li  Li9  1  0.985507  0.495691  0.026652  1
  Li  Li10  1  0.664075  0.142413  0.296088  1
  Li  Li11  1  0.838555  0.339329  0.668991  1
  V  V12  1  0.249603  0.498013  0.499516  1
  V  V13  1  0.250294  0.004761  0.498864  1
  V  V14  1  0.421213  0.664028  0.824374  1
  V  V15  1  0.745252  0.500844  0.507930  1
  V  V16  1  0.411401  0.170277  0.836188  1
  V  V17  1  0.754065  0.001546  0.493759  1
  V  V18  1  0.914040  0.670172  0.838779  1
  V  V19  1  0.916874  0.164567  0.829718  1
  O  O20  1  0.054853  0.675636  0.579859  1
  O  O21  1  0.226563  0.836533  0.896732  1
  O  O22  1  0.440985  0.827031  0.429493  1
  O  O23  1  0.105341  0.507294  0.760781  1
  O  O24  1  0.044789  0.167701  0.572600  1
  O  O25  1  0.444140  0.331581  0.435974  1
  O  O26  1  0.228141  0.328512  0.895714  1
  O  O27  1  0.118909  0.985189  0.760836  1
  O  O28  1  0.537139  0.674564  0.571770  1
  O  O29  1  0.718573  0.823087  0.896813  1
  O  O30  1  0.964831  0.830539  0.437208  1
  O  O31  1  0.634118  0.495744  0.759693  1
  O  O32  1  0.536529  0.152321  0.570843  1
  O  O33  1  0.965515  0.353384  0.437210  1
  O  O34  1  0.714230  0.332441  0.901473  1
  O  O35  1  0.619532  0.008546  0.754387  1
  F  F36  1  0.286073  0.665264  0.075391  1
  F  F37  1  0.366421  0.490341  0.244634  1
  F  F38  1  0.312431  0.180541  0.089621  1
  F  F39  1  0.363949  0.996600  0.246859  1
  F  F40  1  0.806887  0.650942  0.088317  1
  F  F41  1  0.859326  0.490845  0.254648  1
  F  F42  1  0.799163  0.195060  0.088960  1
  F  F43  1  0.871342  0.996031  0.251823  1
