# generated using pymatgen
data_CoPH4ClO3
_symmetry_space_group_name_H-M   'P 1'
_cell_length_a   7.46609804
_cell_length_b   13.40354599
_cell_length_c   9.56186444
_cell_angle_alpha   90.00000000
_cell_angle_beta   90.00000000
_cell_angle_gamma   90.00000000
_symmetry_Int_Tables_number   1
_chemical_formula_structural   CoPH4ClO3
_chemical_formula_sum   'Co8 P8 H32 Cl8 O24'
_cell_volume   956.87670013
_cell_formula_units_Z   8
loop_
 _symmetry_equiv_pos_site_id
 _symmetry_equiv_pos_as_xyz
  1  'x, y, z'
loop_
 _atom_site_type_symbol
 _atom_site_label
 _atom_site_symmetry_multiplicity
 _atom_site_fract_x
 _atom_site_fract_y
 _atom_site_fract_z
 _atom_site_occupancy
  Co  Co0  1  0.618508  0.501212  0.354814  1
  Co  Co1  1  0.118508  0.998788  0.645186  1
  Co  Co2  1  0.381492  0.001212  0.145186  1
  Co  Co3  1  0.881492  0.498788  0.854814  1
  Co  Co4  1  0.381492  0.498788  0.645186  1
  Co  Co5  1  0.881492  0.001212  0.354814  1
  Co  Co6  1  0.618508  0.998788  0.854814  1
  Co  Co7  1  0.118508  0.501212  0.145186  1
  P  P8  1  0.725074  0.151444  0.110141  1
  P  P9  1  0.225074  0.348556  0.889859  1
  P  P10  1  0.274926  0.651444  0.389859  1
  P  P11  1  0.774926  0.848556  0.610141  1
  P  P12  1  0.274926  0.848556  0.889859  1
  P  P13  1  0.774926  0.651444  0.110141  1
  P  P14  1  0.725074  0.348556  0.610141  1
  P  P15  1  0.225074  0.151444  0.389859  1
  H  H16  1  0.798777  0.216833  0.010072  1
  H  H17  1  0.298777  0.283167  0.989928  1
  H  H18  1  0.201223  0.716833  0.489928  1
  H  H19  1  0.701223  0.783167  0.510072  1
  H  H20  1  0.201223  0.783167  0.989928  1
  H  H21  1  0.701223  0.716833  0.010072  1
  H  H22  1  0.798777  0.283167  0.510072  1
  H  H23  1  0.298777  0.216833  0.489928  1
  H  H24  1  0.631907  0.211628  0.207044  1
  H  H25  1  0.131907  0.288372  0.792956  1
  H  H26  1  0.368093  0.711628  0.292956  1
  H  H27  1  0.868093  0.788372  0.707044  1
  H  H28  1  0.368093  0.788372  0.792956  1
  H  H29  1  0.868093  0.711628  0.207044  1
  H  H30  1  0.631907  0.288372  0.707044  1
  H  H31  1  0.131907  0.211628  0.292956  1
  H  H32  1  0.071522  0.088880  0.076894  1
  H  H33  1  0.571522  0.411120  0.923106  1
  H  H34  1  0.928478  0.588880  0.423106  1
  H  H35  1  0.428478  0.911120  0.576894  1
  H  H36  1  0.928478  0.911120  0.923106  1
  H  H37  1  0.428478  0.588880  0.076894  1
  H  H38  1  0.071522  0.411120  0.576894  1
  H  H39  1  0.571522  0.088880  0.423106  1
  H  H40  1  0.206160  0.094738  0.943268  1
  H  H41  1  0.706160  0.405262  0.056732  1
  H  H42  1  0.793840  0.594738  0.556732  1
  H  H43  1  0.293840  0.905262  0.443268  1
  H  H44  1  0.793840  0.905262  0.056732  1
  H  H45  1  0.293840  0.594738  0.943268  1
  H  H46  1  0.206160  0.405262  0.443268  1
  H  H47  1  0.706160  0.094738  0.556732  1
  Cl  Cl48  1  0.375241  0.400949  0.237750  1
  Cl  Cl49  1  0.875241  0.099051  0.762250  1
  Cl  Cl50  1  0.624759  0.900949  0.262250  1
  Cl  Cl51  1  0.124759  0.599051  0.737750  1
  Cl  Cl52  1  0.624759  0.599051  0.762250  1
  Cl  Cl53  1  0.124759  0.900949  0.237750  1
  Cl  Cl54  1  0.375241  0.099051  0.737750  1
  Cl  Cl55  1  0.875241  0.400949  0.262250  1
  O  O56  1  0.584438  0.085642  0.036434  1
  O  O57  1  0.084438  0.414358  0.963566  1
  O  O58  1  0.415562  0.585642  0.463566  1
  O  O59  1  0.915562  0.914358  0.536434  1
  O  O60  1  0.415562  0.914358  0.963566  1
  O  O61  1  0.915562  0.585642  0.036434  1
  O  O62  1  0.584438  0.414358  0.536434  1
  O  O63  1  0.084438  0.085642  0.463566  1
  O  O64  1  0.198097  0.095545  0.045841  1
  O  O65  1  0.698097  0.404455  0.954159  1
  O  O66  1  0.801903  0.595545  0.454159  1
  O  O67  1  0.301903  0.904455  0.545841  1
  O  O68  1  0.801903  0.904455  0.954159  1
  O  O69  1  0.301903  0.595545  0.045841  1
  O  O70  1  0.198097  0.404455  0.545841  1
  O  O71  1  0.698097  0.095545  0.454159  1
  O  O72  1  0.880451  0.096161  0.180948  1
  O  O73  1  0.380451  0.403839  0.819052  1
  O  O74  1  0.119549  0.596161  0.319052  1
  O  O75  1  0.619549  0.903839  0.680948  1
  O  O76  1  0.119549  0.903839  0.819052  1
  O  O77  1  0.619549  0.596161  0.180948  1
  O  O78  1  0.880451  0.403839  0.680948  1
  O  O79  1  0.380451  0.096161  0.319052  1
