# generated using pymatgen
data_TeH9SN2O5F3
_symmetry_space_group_name_H-M   'P 1'
_cell_length_a   7.12313170
_cell_length_b   7.60776325
_cell_length_c   8.82136489
_cell_angle_alpha   78.45521122
_cell_angle_beta   86.99053877
_cell_angle_gamma   72.47397376
_symmetry_Int_Tables_number   1
_chemical_formula_structural   TeH9SN2O5F3
_chemical_formula_sum   'Te2 H18 S2 N4 O10 F6'
_cell_volume   446.61107715
_cell_formula_units_Z   2
loop_
 _symmetry_equiv_pos_site_id
 _symmetry_equiv_pos_as_xyz
  1  'x, y, z'
loop_
 _atom_site_type_symbol
 _atom_site_label
 _atom_site_symmetry_multiplicity
 _atom_site_fract_x
 _atom_site_fract_y
 _atom_site_fract_z
 _atom_site_occupancy
  Te  Te0  1  0.003639  0.000015  0.988466  1
  Te  Te1  1  0.636921  0.391967  0.489748  1
  H  H2  1  0.147770  0.482746  0.845234  1
  H  H3  1  0.030087  0.623985  0.684793  1
  H  H4  1  0.595620  0.777892  0.801745  1
  H  H5  1  0.479127  0.925812  0.642539  1
  H  H6  1  0.211694  0.436330  0.167319  1
  H  H7  1  0.422951  0.931418  0.148362  1
  H  H8  1  0.716916  0.910063  0.681328  1
  H  H9  1  0.294432  0.709461  0.991424  1
  H  H10  1  0.904449  0.509532  0.817438  1
  H  H11  1  0.072702  0.350215  0.314192  1
  H  H12  1  0.658988  0.389374  0.205708  1
  H  H13  1  0.592789  0.790226  0.280300  1
  H  H14  1  0.187934  0.507758  0.338806  1
  H  H15  1  0.076338  0.384183  0.712274  1
  H  H16  1  0.531963  0.016433  0.788668  1
  H  H17  1  0.430552  0.981400  0.326130  1
  H  H18  1  0.607564  0.007811  0.196825  1
  H  H19  1  0.995356  0.573310  0.214453  1
  S  S20  1  0.077827  0.045298  0.576484  1
  S  S21  1  0.540876  0.377929  0.930014  1
  N  N22  1  0.039880  0.500892  0.764172  1
  N  N23  1  0.581141  0.907048  0.729180  1
  N  N24  1  0.514533  0.927818  0.236704  1
  N  N25  1  0.117397  0.465963  0.259310  1
  O  O26  1  0.272066  0.961618  0.513318  1
  O  O27  1  0.654765  0.251049  0.070647  1
  O  O28  1  0.340216  0.484037  0.983048  1
  O  O29  1  0.957488  0.198979  0.447775  1
  O  O30  1  0.517206  0.262303  0.820173  1
  O  O31  1  0.645821  0.514571  0.859315  1
  O  O32  1  0.099367  0.137245  0.708152  1
  O  O33  1  0.972583  0.904453  0.632129  1
  O  O34  1  0.274255  0.843760  0.003210  1
  O  O35  1  0.660617  0.482946  0.271726  1
  F  F36  1  0.919994  0.765716  0.987249  1
  F  F37  1  0.526691  0.203758  0.428468  1
  F  F38  1  0.720873  0.623167  0.494896  1
  F  F39  1  0.121554  0.180808  0.050345  1
  F  F40  1  0.357569  0.548547  0.481077  1
  F  F41  1  0.961909  0.926425  0.207560  1
