# generated using pymatgen
data_Li2VO2F
_symmetry_space_group_name_H-M   'P 1'
_cell_length_a   3.00351255
_cell_length_b   13.15031979
_cell_length_c   7.36353267
_cell_angle_alpha   89.82274942
_cell_angle_beta   90.02488902
_cell_angle_gamma   96.62513176
_symmetry_Int_Tables_number   1
_chemical_formula_structural   Li2VO2F
_chemical_formula_sum   'Li10 V5 O10 F5'
_cell_volume   288.89502931
_cell_formula_units_Z   5
loop_
 _symmetry_equiv_pos_site_id
 _symmetry_equiv_pos_as_xyz
  1  'x, y, z'
loop_
 _atom_site_type_symbol
 _atom_site_label
 _atom_site_symmetry_multiplicity
 _atom_site_fract_x
 _atom_site_fract_y
 _atom_site_fract_z
 _atom_site_occupancy
  Li  Li0  1  0.477241  0.954482  0.141063  1
  Li  Li1  1  0.078191  0.154502  0.135923  1
  Li  Li2  1  0.263448  0.526807  0.159983  1
  Li  Li3  1  0.328229  0.656852  0.847963  1
  Li  Li4  1  0.127790  0.256907  0.868125  1
  Li  Li5  1  0.661344  0.322597  0.143290  1
  Li  Li6  1  0.863544  0.726951  0.152475  1
  Li  Li7  1  0.932409  0.865961  0.846150  1
  Li  Li8  1  0.543533  0.087637  0.855477  1
  Li  Li9  1  0.727882  0.455849  0.840951  1
  V  V10  1  0.006390  0.003848  0.507415  1
  V  V11  1  0.201909  0.401093  0.497890  1
  V  V12  1  0.393723  0.790514  0.518053  1
  V  V13  1  0.598184  0.203330  0.497753  1
  V  V14  1  0.800364  0.597045  0.501061  1
  O  O15  1  0.470000  0.925109  0.638788  1
  O  O16  1  0.267179  0.535527  0.653159  1
  O  O17  1  0.059953  0.133177  0.647895  1
  O  O18  1  0.134845  0.268449  0.351685  1
  O  O19  1  0.337901  0.670615  0.350438  1
  O  O20  1  0.671317  0.337448  0.643408  1
  O  O21  1  0.867968  0.730639  0.660023  1
  O  O22  1  0.735674  0.471758  0.345662  1
  O  O23  1  0.520192  0.060601  0.354055  1
  O  O24  1  0.601164  0.202052  0.001506  1
  F  F25  1  0.994481  0.989976  0.992564  1
  F  F26  1  0.204728  0.409263  0.998787  1
  F  F27  1  0.399015  0.797928  0.004537  1
  F  F28  1  0.930234  0.861012  0.341044  1
  F  F29  1  0.801074  0.602071  0.002873  1
