# generated using pymatgen
data_LiSiBiO4
_symmetry_space_group_name_H-M   'P 1'
_cell_length_a   10.47247757
_cell_length_b   7.27910249
_cell_length_c   4.95972877
_cell_angle_alpha   90.00000000
_cell_angle_beta   90.00000000
_cell_angle_gamma   90.00000000
_symmetry_Int_Tables_number   1
_chemical_formula_structural   LiSiBiO4
_chemical_formula_sum   'Li4 Si4 Bi4 O16'
_cell_volume   378.08130235
_cell_formula_units_Z   4
loop_
 _symmetry_equiv_pos_site_id
 _symmetry_equiv_pos_as_xyz
  1  'x, y, z'
loop_
 _atom_site_type_symbol
 _atom_site_label
 _atom_site_symmetry_multiplicity
 _atom_site_fract_x
 _atom_site_fract_y
 _atom_site_fract_z
 _atom_site_occupancy
  Li  Li0  1  0.155145  0.009144  0.243721  1
  Li  Li1  1  0.344855  0.509144  0.743721  1
  Li  Li2  1  0.655145  0.490856  0.243721  1
  Li  Li3  1  0.844855  0.990856  0.743721  1
  Si  Si4  1  0.092539  0.768775  0.748331  1
  Si  Si5  1  0.407461  0.268775  0.248331  1
  Si  Si6  1  0.592539  0.731225  0.748331  1
  Si  Si7  1  0.907461  0.231225  0.248331  1
  Bi  Bi8  1  0.122529  0.259421  0.728918  1
  Bi  Bi9  1  0.377471  0.759421  0.228918  1
  Bi  Bi10  1  0.622529  0.240579  0.728918  1
  Bi  Bi11  1  0.877471  0.740579  0.228918  1
  O  O12  1  0.059915  0.233104  0.146571  1
  O  O13  1  0.076430  0.786862  0.083495  1
  O  O14  1  0.169127  0.583382  0.662404  1
  O  O15  1  0.161234  0.954600  0.628919  1
  O  O16  1  0.338766  0.454600  0.128919  1
  O  O17  1  0.330873  0.083382  0.162405  1
  O  O18  1  0.423570  0.286862  0.583495  1
  O  O19  1  0.440085  0.733104  0.646571  1
  O  O20  1  0.559915  0.266896  0.146571  1
  O  O21  1  0.576430  0.713138  0.083495  1
  O  O22  1  0.669127  0.916618  0.662404  1
  O  O23  1  0.661234  0.545400  0.628919  1
  O  O24  1  0.838766  0.045400  0.128919  1
  O  O25  1  0.830873  0.416618  0.162405  1
  O  O26  1  0.923570  0.213138  0.583495  1
  O  O27  1  0.940085  0.766896  0.646571  1
