# generated using pymatgen
data_VO2F
_symmetry_space_group_name_H-M   'P 1'
_cell_length_a   5.04270284
_cell_length_b   5.38212325
_cell_length_c   12.53016410
_cell_angle_alpha   90.59191689
_cell_angle_beta   91.83998949
_cell_angle_gamma   60.17967871
_symmetry_Int_Tables_number   1
_chemical_formula_structural   VO2F
_chemical_formula_sum   'V6 O12 F6'
_cell_volume   294.88638601
_cell_formula_units_Z   6
loop_
 _symmetry_equiv_pos_site_id
 _symmetry_equiv_pos_as_xyz
  1  'x, y, z'
loop_
 _atom_site_type_symbol
 _atom_site_label
 _atom_site_symmetry_multiplicity
 _atom_site_fract_x
 _atom_site_fract_y
 _atom_site_fract_z
 _atom_site_occupancy
  V  V0  1  0.692056  0.680751  0.660035  1
  V  V1  1  0.667562  0.606816  0.159773  1
  V  V2  1  0.332438  0.393184  0.840227  1
  V  V3  1  0.307944  0.319249  0.339965  1
  V  V4  1  0.000000  0.000000  0.500000  1
  V  V5  1  0.000000  0.000000  0.000000  1
  O  O6  1  0.955379  0.529572  0.279209  1
  O  O7  1  0.795245  0.808577  0.551932  1
  O  O8  1  0.921586  0.328694  0.081006  1
  O  O9  1  0.730023  0.136850  0.391098  1
  O  O10  1  0.516695  0.534380  0.780758  1
  O  O11  1  0.385280  0.817345  0.055601  1
  O  O12  1  0.614720  0.182655  0.944399  1
  O  O13  1  0.483305  0.465620  0.219242  1
  O  O14  1  0.269977  0.863150  0.608902  1
  O  O15  1  0.078414  0.671306  0.918994  1
  O  O16  1  0.204755  0.191423  0.448068  1
  O  O17  1  0.044621  0.470428  0.720791  1
  F  F18  1  0.870751  0.864853  0.115532  1
  F  F19  1  0.729527  0.338900  0.582079  1
  F  F20  1  0.599234  0.991845  0.748042  1
  F  F21  1  0.270473  0.661100  0.417921  1
  F  F22  1  0.400766  0.008155  0.251958  1
  F  F23  1  0.129249  0.135147  0.884468  1
