# generated using pymatgen
data_Li4V3Co2Sb3O16
_symmetry_space_group_name_H-M   'P 1'
_cell_length_a   6.14497978
_cell_length_b   6.13860131
_cell_length_c   9.86087847
_cell_angle_alpha   90.00632736
_cell_angle_beta   90.44057938
_cell_angle_gamma   119.96541275
_symmetry_Int_Tables_number   1
_chemical_formula_structural   Li4V3Co2Sb3O16
_chemical_formula_sum   'Li4 V3 Co2 Sb3 O16'
_cell_volume   322.23300687
_cell_formula_units_Z   1
loop_
 _symmetry_equiv_pos_site_id
 _symmetry_equiv_pos_as_xyz
  1  'x, y, z'
loop_
 _atom_site_type_symbol
 _atom_site_label
 _atom_site_symmetry_multiplicity
 _atom_site_fract_x
 _atom_site_fract_y
 _atom_site_fract_z
 _atom_site_occupancy
  Li  Li0  1  0.329043  0.664547  0.877521  1
  Li  Li1  1  0.978629  0.989294  0.990863  1
  Li  Li2  1  0.984578  0.992295  0.504827  1
  Li  Li3  1  0.655841  0.327944  0.399993  1
  V  V4  1  0.663724  0.831886  0.216203  1
  V  V5  1  0.834600  0.663425  0.714814  1
  V  V6  1  0.834586  0.171174  0.714822  1
  Co  Co7  1  0.345809  0.672884  0.519131  1
  Co  Co8  1  0.687160  0.343605  0.976122  1
  Sb  Sb9  1  0.169545  0.831737  0.215266  1
  Sb  Sb10  1  0.169538  0.337831  0.215259  1
  Sb  Sb11  1  0.341259  0.170641  0.715133  1
  O  O12  1  0.161517  0.846196  0.601592  1
  O  O13  1  0.028133  0.514107  0.330732  1
  O  O14  1  0.323641  0.661833  0.101315  1
  O  O15  1  0.009823  0.004929  0.320583  1
  O  O16  1  0.014023  0.007034  0.813154  1
  O  O17  1  0.161519  0.315317  0.601601  1
  O  O18  1  0.481250  0.968501  0.325289  1
  O  O19  1  0.481248  0.512832  0.325298  1
  O  O20  1  0.308447  0.154207  0.101985  1
  O  O21  1  0.685621  0.842800  0.607839  1
  O  O22  1  0.515723  0.480979  0.834963  1
  O  O23  1  0.515707  0.034791  0.834967  1
  O  O24  1  0.655386  0.327677  0.601971  1
  O  O25  1  0.849255  0.690265  0.107636  1
  O  O26  1  0.965160  0.482607  0.831324  1
  O  O27  1  0.849235  0.158964  0.107636  1
