# generated using pymatgen
data_Na3Li3Mn2P2(CO7)2
_symmetry_space_group_name_H-M   'P 1'
_cell_length_a   8.81447566
_cell_length_b   6.63555426
_cell_length_c   5.10516120
_cell_angle_alpha   89.65903817
_cell_angle_beta   89.68140341
_cell_angle_gamma   90.74608951
_symmetry_Int_Tables_number   1
_chemical_formula_structural   Na3Li3Mn2P2(CO7)2
_chemical_formula_sum   'Na3 Li3 Mn2 P2 C2 O14'
_cell_volume   298.56007555
_cell_formula_units_Z   1
loop_
 _symmetry_equiv_pos_site_id
 _symmetry_equiv_pos_as_xyz
  1  'x, y, z'
loop_
 _atom_site_type_symbol
 _atom_site_label
 _atom_site_symmetry_multiplicity
 _atom_site_fract_x
 _atom_site_fract_y
 _atom_site_fract_z
 _atom_site_occupancy
  Na  Na0  1  0.082813  0.256732  0.758854  1
  Na  Na1  1  0.254881  0.000791  0.246745  1
  Na  Na2  1  0.915663  0.747208  0.241500  1
  Li  Li3  1  0.268657  0.485632  0.233521  1
  Li  Li4  1  0.733347  0.512721  0.766195  1
  Li  Li5  1  0.732933  0.988193  0.767452  1
  Mn  Mn6  1  0.361587  0.746573  0.777989  1
  Mn  Mn7  1  0.641131  0.249067  0.221525  1
  P  P8  1  0.415269  0.253950  0.698980  1
  P  P9  1  0.589113  0.744852  0.296779  1
  C  C10  1  0.052027  0.747701  0.736480  1
  C  C11  1  0.944861  0.257092  0.266531  1
  O  O12  1  0.091446  0.271151  0.286013  1
  O  O13  1  0.117787  0.749096  0.963773  1
  O  O14  1  0.136264  0.743889  0.526574  1
  O  O15  1  0.324805  0.061681  0.782609  1
  O  O16  1  0.324039  0.432411  0.812035  1
  O  O17  1  0.419198  0.269318  0.393130  1
  O  O18  1  0.422403  0.734340  0.200640  1
  O  O19  1  0.582417  0.251843  0.797688  1
  O  O20  1  0.587570  0.747932  0.604682  1
  O  O21  1  0.682940  0.563969  0.197725  1
  O  O22  1  0.674751  0.934528  0.190153  1
  O  O23  1  0.859000  0.248386  0.475678  1
  O  O24  1  0.881012  0.251016  0.036963  1
  O  O25  1  0.904087  0.749934  0.719787  1
