# generated using pymatgen
data_Li8FeO5F
_symmetry_space_group_name_H-M   'P 1'
_cell_length_a   5.39511692
_cell_length_b   6.07579103
_cell_length_c   5.44681288
_cell_angle_alpha   114.71482040
_cell_angle_beta   63.08863055
_cell_angle_gamma   118.11416649
_symmetry_Int_Tables_number   1
_chemical_formula_structural   Li8FeO5F
_chemical_formula_sum   'Li8 Fe1 O5 F1'
_cell_volume   135.57911484
_cell_formula_units_Z   1
loop_
 _symmetry_equiv_pos_site_id
 _symmetry_equiv_pos_as_xyz
  1  'x, y, z'
loop_
 _atom_site_type_symbol
 _atom_site_label
 _atom_site_symmetry_multiplicity
 _atom_site_fract_x
 _atom_site_fract_y
 _atom_site_fract_z
 _atom_site_occupancy
  Li  Li0  1  0.110716  0.355694  0.474113  1
  Li  Li1  1  0.531616  0.658416  0.233000  1
  Li  Li2  1  0.232709  0.636084  0.894870  1
  Li  Li3  1  0.294818  0.016058  0.345617  1
  Li  Li4  1  0.671357  0.968980  0.675364  1
  Li  Li5  1  0.766272  0.346050  0.095598  1
  Li  Li6  1  0.468205  0.369498  0.795093  1
  Li  Li7  1  0.891548  0.648359  0.515647  1
  Fe  Fe8  1  0.035815  0.968346  0.948091  1
  O  O9  1  0.252096  0.762118  0.600918  1
  O  O10  1  0.371217  0.240753  0.102039  1
  O  O11  1  0.072822  0.232868  0.768459  1
  O  O12  1  0.930965  0.761842  0.222242  1
  O  O13  1  0.630252  0.758109  0.899701  1
  F  F14  1  0.739592  0.276826  0.429248  1
