# generated using pymatgen
data_Cr8Ni50Mo15W2
_symmetry_space_group_name_H-M   'P 1'
_cell_length_a   6.30061208
_cell_length_b   11.64078883
_cell_length_c   13.35339937
_cell_angle_alpha   108.30344518
_cell_angle_beta   98.49883332
_cell_angle_gamma   100.44898297
_symmetry_Int_Tables_number   1
_chemical_formula_structural   Cr8Ni50Mo15W2
_chemical_formula_sum   'Cr8 Ni50 Mo15 W2'
_cell_volume   892.16455355
_cell_formula_units_Z   1
loop_
 _symmetry_equiv_pos_site_id
 _symmetry_equiv_pos_as_xyz
  1  'x, y, z'
loop_
 _atom_site_type_symbol
 _atom_site_label
 _atom_site_symmetry_multiplicity
 _atom_site_fract_x
 _atom_site_fract_y
 _atom_site_fract_z
 _atom_site_occupancy
  Cr  Cr0  1  0.879597  0.160269  0.480467  1
  Cr  Cr1  1  0.440872  0.079573  0.239429  1
  Cr  Cr2  1  0.000386  0.999517  -0.000341  1
  Cr  Cr3  1  0.356825  0.520601  0.561631  1
  Cr  Cr4  1  0.520098  0.640094  0.919883  1
  Cr  Cr5  1  0.082860  0.559521  0.678706  1
  Cr  Cr6  1  0.960121  0.720321  0.159869  1
  Cr  Cr7  1  0.839348  0.880014  0.640325  1
  Ni  Ni8  1  0.398038  0.133258  0.067698  1
  Ni  Ni9  1  0.561985  0.252585  0.425589  1
  Ni  Ni10  1  0.121698  0.172350  0.185991  1
  Ni  Ni11  1  0.682646  0.093525  0.947197  1
  Ni  Ni12  1  0.278834  0.295803  0.546210  1
  Ni  Ni13  1  0.838469  0.213261  0.307815  1
  Ni  Ni14  1  0.441437  0.417081  0.906715  1
  Ni  Ni15  1  0.000220  0.335467  0.665338  1
  Ni  Ni16  1  0.720588  0.375068  0.786671  1
  Ni  Ni17  1  0.600556  0.534928  0.267035  1
  Ni  Ni18  1  0.160563  0.454942  0.026523  1
  Ni  Ni19  1  0.320462  0.574436  0.388358  1
  Ni  Ni20  1  0.881173  0.497007  0.146937  1
  Ni  Ni21  1  0.476565  0.691906  0.746048  1
  Ni  Ni22  1  0.043614  0.613446  0.508595  1
  Ni  Ni23  1  0.202194  0.732669  0.865815  1
  Ni  Ni24  1  0.760812  0.655265  0.627279  1
  Ni  Ni25  1  0.641950  0.812896  0.105728  1
  Ni  Ni26  1  0.358495  0.855699  0.226158  1
  Ni  Ni27  1  0.919021  0.775271  0.987439  1
  Ni  Ni28  1  0.522579  0.973979  0.587002  1
  Ni  Ni29  1  0.079784  0.893602  0.345251  1
  Ni  Ni30  1  0.237456  0.013473  0.706453  1
  Ni  Ni31  1  0.801571  0.936430  0.468119  1
  Ni  Ni32  1  0.959843  0.053069  0.826528  1
  Ni  Ni33  1  0.799268  0.265066  0.133487  1
  Ni  Ni34  1  0.962577  0.385641  0.495174  1
  Ni  Ni35  1  0.518960  0.303110  0.253385  1
  Ni  Ni36  1  0.078570  0.222698  0.012860  1
  Ni  Ni37  1  0.679789  0.427079  0.613494  1
  Ni  Ni38  1  0.239844  0.346263  0.374744  1
  Ni  Ni39  1  0.838406  0.547702  0.974168  1
  Ni  Ni40  1  0.397418  0.467788  0.732792  1
  Ni  Ni41  1  0.121990  0.506775  0.852209  1
  Ni  Ni42  1  0.999247  0.665694  0.332163  1
  Ni  Ni43  1  0.561899  0.586721  0.092259  1
  Ni  Ni44  1  0.720884  0.706794  0.454703  1
  Ni  Ni45  1  0.277411  0.626301  0.212746  1
  Ni  Ni46  1  0.879836  0.826785  0.813456  1
  Ni  Ni47  1  0.441777  0.744059  0.573840  1
  Ni  Ni48  1  0.601526  0.864233  0.933472  1
  Ni  Ni49  1  0.156206  0.783972  0.692923  1
  Ni  Ni50  1  0.041149  0.944956  0.172454  1
  Ni  Ni51  1  0.758145  0.987352  0.294269  1
  Ni  Ni52  1  0.317957  0.907169  0.054235  1
  Ni  Ni53  1  0.918498  0.103540  0.651833  1
  Ni  Ni54  1  0.481831  0.026780  0.412182  1
  Ni  Ni55  1  0.639048  0.145008  0.772966  1
  Ni  Ni56  1  0.197501  0.066030  0.532374  1
  Ni  Ni57  1  0.359726  0.185101  0.893327  1
  Mo  Mo58  1  0.719220  0.039618  0.120356  1
  Mo  Mo59  1  0.605559  0.199302  0.597413  1
  Mo  Mo60  1  0.760169  0.320197  0.959993  1
  Mo  Mo61  1  0.320007  0.240374  0.719691  1
  Mo  Mo62  1  0.040247  0.279849  0.839638  1
  Mo  Mo63  1  0.480046  0.359987  0.079961  1
  Mo  Mo64  1  0.634137  0.481004  0.443246  1
  Mo  Mo65  1  0.200804  0.399679  0.199510  1
  Mo  Mo66  1  0.800164  0.600543  0.800073  1
  Mo  Mo67  1  0.684821  0.759697  0.277770  1
  Mo  Mo68  1  0.240164  0.680359  0.039764  1
  Mo  Mo69  1  0.400070  0.800273  0.400156  1
  Mo  Mo70  1  0.564422  0.918557  0.757745  1
  Mo  Mo71  1  0.115744  0.840429  0.522052  1
  Mo  Mo72  1  0.274871  0.960368  0.882350  1
  W  W73  1  0.160113  0.119802  0.359750  1
  W  W74  1  0.919318  0.440021  0.320558  1
