# generated using pymatgen
data_Li3MnCo3O8
_symmetry_space_group_name_H-M   'P 1'
_cell_length_a   5.65628480
_cell_length_b   5.65628491
_cell_length_c   5.85392047
_cell_angle_alpha   119.56425395
_cell_angle_beta   90.63836128
_cell_angle_gamma   59.94100883
_symmetry_Int_Tables_number   1
_chemical_formula_structural   Li3MnCo3O8
_chemical_formula_sum   'Li3 Mn1 Co3 O8'
_cell_volume   133.88751720
_cell_formula_units_Z   1
loop_
 _symmetry_equiv_pos_site_id
 _symmetry_equiv_pos_as_xyz
  1  'x, y, z'
loop_
 _atom_site_type_symbol
 _atom_site_label
 _atom_site_symmetry_multiplicity
 _atom_site_fract_x
 _atom_site_fract_y
 _atom_site_fract_z
 _atom_site_occupancy
  Li  Li0  1  0.000000  0.000000  0.500000  1
  Li  Li1  1  0.500000  0.000000  0.500000  1
  Li  Li2  1  0.500000  0.500000  0.500000  1
  Mn  Mn3  1  0.000000  0.000000  0.000000  1
  Co  Co4  1  0.000000  0.500000  0.000000  1
  Co  Co5  1  0.500000  0.000000  0.000000  1
  Co  Co6  1  0.500000  0.500000  0.000000  1
  O  O7  1  0.237838  0.020209  0.782371  1
  O  O8  1  0.239755  0.523503  0.788534  1
  O  O9  1  0.267156  0.475664  0.208507  1
  O  O10  1  0.734969  0.028289  0.788534  1
  O  O11  1  0.265031  0.971711  0.211466  1
  O  O12  1  0.732844  0.524336  0.791493  1
  O  O13  1  0.760245  0.476497  0.211466  1
  O  O14  1  0.762162  0.979791  0.217629  1
