# generated using pymatgen
data_Li3Mn2SnO6
_symmetry_space_group_name_H-M   'P 1'
_cell_length_a   15.99183835
_cell_length_b   10.11819833
_cell_length_c   10.11819830
_cell_angle_alpha   17.47129560
_cell_angle_beta   17.04455167
_cell_angle_gamma   17.04455260
_symmetry_Int_Tables_number   1
_chemical_formula_structural   Li3Mn2SnO6
_chemical_formula_sum   'Li3 Mn2 Sn1 O6'
_cell_volume   124.67429895
_cell_formula_units_Z   1
loop_
 _symmetry_equiv_pos_site_id
 _symmetry_equiv_pos_as_xyz
  1  'x, y, z'
loop_
 _atom_site_type_symbol
 _atom_site_label
 _atom_site_symmetry_multiplicity
 _atom_site_fract_x
 _atom_site_fract_y
 _atom_site_fract_z
 _atom_site_occupancy
  Li  Li0  1  0.166667  0.500000  0.500000  1
  Li  Li1  1  0.500881  0.496443  0.496443  1
  Li  Li2  1  0.832453  0.503557  0.503557  1
  Mn  Mn3  1  0.983089  0.014019  0.014019  1
  Mn  Mn4  1  0.350244  0.985981  0.985981  1
  Sn  Sn5  1  0.666667  0.000000  0.000000  1
  O  O6  1  0.257543  0.251721  0.251721  1
  O  O7  1  0.565925  0.266213  0.266213  1
  O  O8  1  0.075791  0.748279  0.748279  1
  O  O9  1  0.890824  0.271232  0.271232  1
  O  O10  1  0.442509  0.728768  0.728768  1
  O  O11  1  0.767408  0.733787  0.733787  1
