# generated using pymatgen
data_LaBiO4
_symmetry_space_group_name_H-M   'P 1'
_cell_length_a   7.76902884
_cell_length_b   7.36045098
_cell_length_c   7.58485016
_cell_angle_alpha   90.00000000
_cell_angle_beta   118.38263833
_cell_angle_gamma   90.00000000
_symmetry_Int_Tables_number   1
_chemical_formula_structural   LaBiO4
_chemical_formula_sum   'La4 Bi4 O16'
_cell_volume   381.59132764
_cell_formula_units_Z   4
loop_
 _symmetry_equiv_pos_site_id
 _symmetry_equiv_pos_as_xyz
  1  'x, y, z'
loop_
 _atom_site_type_symbol
 _atom_site_label
 _atom_site_symmetry_multiplicity
 _atom_site_fract_x
 _atom_site_fract_y
 _atom_site_fract_z
 _atom_site_occupancy
  La  La0  1  0.224863  0.656731  0.363627  1
  La  La1  1  0.275137  0.156731  0.136373  1
  La  La2  1  0.724863  0.843269  0.863627  1
  La  La3  1  0.775137  0.343269  0.636373  1
  Bi  Bi4  1  0.231356  0.693363  0.903257  1
  Bi  Bi5  1  0.268644  0.193363  0.596743  1
  Bi  Bi6  1  0.731356  0.806637  0.403257  1
  Bi  Bi7  1  0.768644  0.306637  0.096743  1
  O  O8  1  0.141538  0.249077  0.772137  1
  O  O9  1  0.041807  0.369624  0.352215  1
  O  O10  1  0.223434  0.989327  0.397449  1
  O  O11  1  0.082047  0.837379  0.022186  1
  O  O12  1  0.358462  0.749077  0.727863  1
  O  O13  1  0.417953  0.337379  0.477814  1
  O  O14  1  0.276566  0.489327  0.102551  1
  O  O15  1  0.541807  0.130376  0.852215  1
  O  O16  1  0.458193  0.869624  0.147785  1
  O  O17  1  0.723434  0.510673  0.897449  1
  O  O18  1  0.582047  0.662621  0.522186  1
  O  O19  1  0.641538  0.250923  0.272137  1
  O  O20  1  0.917953  0.162621  0.977814  1
  O  O21  1  0.776566  0.010673  0.602551  1
  O  O22  1  0.958193  0.630376  0.647785  1
  O  O23  1  0.858462  0.750923  0.227863  1
