# generated using pymatgen
data_Li32Mn11Cr5O48
_symmetry_space_group_name_H-M   'P 1'
_cell_length_a   5.00668737
_cell_length_b   5.00652211
_cell_length_c   38.44843430
_cell_angle_alpha   88.97610104
_cell_angle_beta   91.02927402
_cell_angle_gamma   60.32778892
_symmetry_Int_Tables_number   1
_chemical_formula_structural   Li32Mn11Cr5O48
_chemical_formula_sum   'Li32 Mn11 Cr5 O48'
_cell_volume   836.84433540
_cell_formula_units_Z   1
loop_
 _symmetry_equiv_pos_site_id
 _symmetry_equiv_pos_as_xyz
  1  'x, y, z'
loop_
 _atom_site_type_symbol
 _atom_site_label
 _atom_site_symmetry_multiplicity
 _atom_site_fract_x
 _atom_site_fract_y
 _atom_site_fract_z
 _atom_site_occupancy
  Li  Li0  1  0.085768  0.091727  0.249982  1
  Li  Li1  1  0.001199  0.500060  0.999884  1
  Li  Li2  1  0.060363  0.435893  0.187545  1
  Li  Li3  1  0.125908  0.374893  0.374920  1
  Li  Li4  1  0.185354  0.309849  0.562497  1
  Li  Li5  1  0.250772  0.249378  0.749855  1
  Li  Li6  1  0.312509  0.187563  0.937513  1
  Li  Li7  1  0.029647  0.792534  0.125042  1
  Li  Li8  1  0.374507  0.125157  0.125140  1
  Li  Li9  1  0.161095  0.662808  0.500057  1
  Li  Li10  1  0.289890  0.533989  0.875074  1
  Li  Li11  1  0.437479  0.062326  0.312518  1
  Li  Li12  1  0.500789  0.998689  0.499950  1
  Li  Li13  1  0.416293  0.408256  0.250186  1
  Li  Li14  1  0.539415  0.284643  0.624981  1
  Li  Li15  1  0.212304  0.965807  0.625134  1
  Li  Li16  1  0.333107  0.842789  0.999763  1
  Li  Li17  1  0.664712  0.157049  0.999961  1
  Li  Li18  1  0.783210  0.039854  0.374790  1
  Li  Li19  1  0.466370  0.710703  0.375025  1
  Li  Li20  1  0.591161  0.586995  0.749772  1
  Li  Li21  1  0.562555  0.937563  0.687468  1
  Li  Li22  1  0.720893  0.456928  0.125263  1
  Li  Li23  1  0.838399  0.339780  0.499913  1
  Li  Li24  1  0.624793  0.875003  0.875102  1
  Li  Li25  1  0.961171  0.216135  0.875216  1
  Li  Li26  1  0.689880  0.814946  0.062415  1
  Li  Li27  1  0.748696  0.749718  0.250080  1
  Li  Li28  1  0.810785  0.687054  0.437466  1
  Li  Li29  1  0.874157  0.624887  0.625035  1
  Li  Li30  1  0.934380  0.560771  0.812468  1
  Li  Li31  1  0.908813  0.914437  0.749884  1
  Mn  Mn32  1  0.019908  0.145247  0.062439  1
  Mn  Mn33  1  0.104868  0.729673  0.312509  1
  Mn  Mn34  1  0.229647  0.604656  0.687471  1
  Mn  Mn35  1  0.479525  0.354841  0.437502  1
  Mn  Mn36  1  0.604973  0.229886  0.812472  1
  Mn  Mn37  1  0.729870  0.104824  0.187525  1
  Mn  Mn38  1  0.645141  0.520324  0.937532  1
  Mn  Mn39  1  0.770625  0.395285  0.312530  1
  Mn  Mn40  1  0.895362  0.270257  0.687477  1
  Mn  Mn41  1  0.855236  0.979762  0.562564  1
  Mn  Mn42  1  0.979561  0.854558  0.937504  1
  Cr  Cr43  1  0.142007  0.017414  0.437504  1
  Cr  Cr44  1  0.357752  0.483209  0.062464  1
  Cr  Cr45  1  0.267104  0.892125  0.812500  1
  Cr  Cr46  1  0.392209  0.767059  0.187496  1
  Cr  Cr47  1  0.517457  0.641903  0.562535  1
  O  O48  1  0.088600  0.054210  0.340509  1
  O  O49  1  0.048210  0.093993  0.159217  1
  O  O50  1  0.071069  0.429127  0.284023  1
  O  O51  1  0.195912  0.304107  0.659003  1
  O  O52  1  0.055690  0.443671  0.090983  1
  O  O53  1  0.180530  0.320250  0.466010  1
  O  O54  1  0.306229  0.194715  0.840990  1
  O  O55  1  0.318935  0.179929  0.033954  1
  O  O56  1  0.444948  0.055794  0.408957  1
  O  O57  1  0.072790  0.788653  0.215411  1
  O  O58  1  0.430865  0.070124  0.215977  1
  O  O59  1  0.198401  0.663654  0.590500  1
  O  O60  1  0.320694  0.536568  0.965507  1
  O  O61  1  0.030876  0.827404  0.034059  1
  O  O62  1  0.163687  0.697421  0.409549  1
  O  O63  1  0.289034  0.573001  0.784512  1
  O  O64  1  0.213515  0.929201  0.715483  1
  O  O65  1  0.172667  0.968812  0.534142  1
  O  O66  1  0.303967  0.838444  0.909528  1
  O  O67  1  0.445780  0.411550  0.340439  1
  O  O68  1  0.570509  0.286555  0.715396  1
  O  O69  1  0.413593  0.447803  0.159541  1
  O  O70  1  0.538861  0.322510  0.534650  1
  O  O71  1  0.661242  0.195321  0.909614  1
  O  O72  1  0.335965  0.802029  0.090470  1
  O  O73  1  0.468186  0.673345  0.465850  1
  O  O74  1  0.593851  0.547660  0.840888  1
  O  O75  1  0.429431  0.713459  0.284503  1
  O  O76  1  0.554166  0.588547  0.659478  1
  O  O77  1  0.702253  0.156120  0.090836  1
  O  O78  1  0.821823  0.038624  0.465418  1
  O  O79  1  0.786762  0.070491  0.284567  1
  O  O80  1  0.718742  0.422915  0.215851  1
  O  O81  1  0.844362  0.297895  0.590900  1
  O  O82  1  0.963446  0.179536  0.965442  1
  O  O83  1  0.676699  0.461265  0.034518  1
  O  O84  1  0.798204  0.343489  0.409206  1
  O  O85  1  0.569906  0.931084  0.783949  1
  O  O86  1  0.922797  0.218966  0.784114  1
  O  O87  1  0.555848  0.945372  0.591044  1
  O  O88  1  0.678917  0.820793  0.965993  1
  O  O89  1  0.695215  0.805455  0.159015  1
  O  O90  1  0.819991  0.680944  0.534057  1
  O  O91  1  0.945917  0.553992  0.909055  1
  O  O92  1  0.804460  0.695946  0.340983  1
  O  O93  1  0.929264  0.570957  0.715961  1
  O  O94  1  0.948026  0.913667  0.840459  1
  O  O95  1  0.911551  0.945427  0.659561  1
