# generated using pymatgen
data_Li3V2P4(HO8)2
_symmetry_space_group_name_H-M   'P 1'
_cell_length_a   9.74999749
_cell_length_b   8.07843506
_cell_length_c   7.88389588
_cell_angle_alpha   90.00000000
_cell_angle_beta   67.94106312
_cell_angle_gamma   90.00000000
_symmetry_Int_Tables_number   1
_chemical_formula_structural   Li3V2P4(HO8)2
_chemical_formula_sum   'Li6 V4 P8 H4 O32'
_cell_volume   575.51642577
_cell_formula_units_Z   2
loop_
 _symmetry_equiv_pos_site_id
 _symmetry_equiv_pos_as_xyz
  1  'x, y, z'
loop_
 _atom_site_type_symbol
 _atom_site_label
 _atom_site_symmetry_multiplicity
 _atom_site_fract_x
 _atom_site_fract_y
 _atom_site_fract_z
 _atom_site_occupancy
  Li  Li0  1  0.222443  0.133148  0.157056  1
  Li  Li1  1  0.226916  0.368400  0.649015  1
  Li  Li2  1  0.269404  0.867899  0.843718  1
  Li  Li3  1  0.777557  0.633148  0.342944  1
  Li  Li4  1  0.730596  0.367899  0.656282  1
  Li  Li5  1  0.773084  0.868400  0.850985  1
  V  V6  1  0.248917  0.503736  0.012379  1
  V  V7  1  0.252758  0.996183  0.495706  1
  V  V8  1  0.747242  0.496183  0.004294  1
  V  V9  1  0.751083  0.003736  0.487621  1
  P  P10  1  0.067309  0.848185  0.229440  1
  P  P11  1  0.067876  0.651611  0.740072  1
  P  P12  1  0.431071  0.351030  0.268100  1
  P  P13  1  0.568929  0.851030  0.231900  1
  P  P14  1  0.434725  0.157522  0.764544  1
  P  P15  1  0.565275  0.657522  0.735456  1
  P  P16  1  0.932691  0.348185  0.270560  1
  P  P17  1  0.932124  0.151611  0.759928  1
  H  H18  1  0.014135  0.510080  0.517130  1
  H  H19  1  0.505586  0.511060  0.505764  1
  H  H20  1  0.494414  0.011060  0.994236  1
  H  H21  1  0.985865  0.010080  0.982870  1
  O  O22  1  0.095362  0.945445  0.051870  1
  O  O23  1  0.101196  0.328816  0.148403  1
  O  O24  1  0.133872  0.672553  0.182049  1
  O  O25  1  0.140967  0.949404  0.338026  1
  O  O26  1  0.097193  0.547611  0.562945  1
  O  O27  1  0.099058  0.171853  0.646826  1
  O  O28  1  0.147269  0.817999  0.691894  1
  O  O29  1  0.142245  0.545422  0.849116  1
  O  O30  1  0.357001  0.453612  0.149652  1
  O  O31  1  0.348245  0.184630  0.307737  1
  O  O32  1  0.405627  0.833376  0.356968  1
  O  O33  1  0.407312  0.439957  0.447855  1
  O  O34  1  0.360662  0.048391  0.663104  1
  O  O35  1  0.353719  0.325268  0.815066  1
  O  O36  1  0.592688  0.939957  0.052145  1
  O  O37  1  0.594373  0.333376  0.143032  1
  O  O38  1  0.398056  0.678294  0.852762  1
  O  O39  1  0.408612  0.063197  0.948245  1
  O  O40  1  0.651755  0.684630  0.192263  1
  O  O41  1  0.642999  0.953612  0.350348  1
  O  O42  1  0.591388  0.563197  0.551755  1
  O  O43  1  0.601944  0.178294  0.647238  1
  O  O44  1  0.646281  0.825268  0.684934  1
  O  O45  1  0.639338  0.548391  0.836896  1
  O  O46  1  0.859033  0.449404  0.161974  1
  O  O47  1  0.866128  0.172553  0.317951  1
  O  O48  1  0.898804  0.828816  0.351597  1
  O  O49  1  0.904638  0.445445  0.448130  1
  O  O50  1  0.857755  0.045422  0.650884  1
  O  O51  1  0.852731  0.317999  0.808106  1
  O  O52  1  0.900942  0.671853  0.853174  1
  O  O53  1  0.902807  0.047611  0.937055  1
