# generated using pymatgen
data_Li5V3P8O29
_symmetry_space_group_name_H-M   'P 1'
_cell_length_a   9.75821152
_cell_length_b   9.76916761
_cell_length_c   13.99921443
_cell_angle_alpha   89.98897501
_cell_angle_beta   90.07598072
_cell_angle_gamma   59.95942519
_symmetry_Int_Tables_number   1
_chemical_formula_structural   Li5V3P8O29
_chemical_formula_sum   'Li10 V6 P16 O58'
_cell_volume   1155.27076036
_cell_formula_units_Z   2
loop_
 _symmetry_equiv_pos_site_id
 _symmetry_equiv_pos_as_xyz
  1  'x, y, z'
loop_
 _atom_site_type_symbol
 _atom_site_label
 _atom_site_symmetry_multiplicity
 _atom_site_fract_x
 _atom_site_fract_y
 _atom_site_fract_z
 _atom_site_occupancy
  Li  Li0  1  0.765367  0.896500  0.558162  1
  Li  Li1  1  0.765362  0.338118  0.058161  1
  Li  Li2  1  0.331703  0.905375  0.060351  1
  Li  Li3  1  0.668344  0.237058  0.439654  1
  Li  Li4  1  0.331707  0.762880  0.560389  1
  Li  Li5  1  0.668304  0.094617  0.939657  1
  Li  Li6  1  0.234705  0.661824  0.941784  1
  Li  Li7  1  0.234602  0.103534  0.441842  1
  Li  Li8  1  -0.000001  0.999985  0.000005  1
  Li  Li9  1  0.000019  0.999974  0.500003  1
  V  V10  1  0.566480  0.435176  0.253177  1
  V  V11  1  0.433495  0.564874  0.746817  1
  V  V12  1  0.566489  0.998362  0.753150  1
  V  V13  1  0.433535  0.001622  0.246830  1
  V  V14  1  0.999995  0.565489  0.249990  1
  V  V15  1  0.000010  0.434513  0.750019  1
  P  P16  1  0.919213  0.774265  0.844474  1
  P  P17  1  0.775301  0.911645  0.339007  1
  P  P18  1  0.919198  0.306526  0.344459  1
  P  P19  1  0.667781  0.664215  0.129925  1
  P  P20  1  0.667796  0.667991  0.629931  1
  P  P21  1  0.775296  0.313072  0.838985  1
  P  P22  1  0.686368  0.223540  0.656076  1
  P  P23  1  0.313637  0.909862  0.843930  1
  P  P24  1  0.686383  0.090121  0.156075  1
  P  P25  1  0.313607  0.776495  0.343926  1
  P  P26  1  0.224706  0.686938  0.161008  1
  P  P27  1  0.332183  0.331981  0.370079  1
  P  P28  1  0.332229  0.335779  0.870064  1
  P  P29  1  0.080792  0.693487  0.655543  1
  P  P30  1  0.224663  0.088382  0.660998  1
  P  P31  1  0.080803  0.225714  0.155532  1
  O  O32  1  0.991403  0.794186  0.571767  1
  O  O33  1  0.917400  0.741533  0.334389  1
  O  O34  1  0.770654  0.016251  0.065213  1
  O  O35  1  0.746392  0.915532  0.843027  1
  O  O36  1  0.920677  0.616585  0.831101  1
  O  O37  1  0.811814  0.667086  0.179893  1
  O  O38  1  0.920655  0.462765  0.331076  1
  O  O39  1  0.991416  0.214455  0.071781  1
  O  O40  1  0.917399  0.341057  0.834411  1
  O  O41  1  0.675107  0.813770  0.670588  1
  O  O42  1  0.619416  0.911939  0.327224  1
  O  O43  1  0.811821  0.521102  0.679946  1
  O  O44  1  0.672644  0.661280  0.023780  1
  O  O45  1  0.672673  0.666046  0.523779  1
  O  O46  1  0.675106  0.511107  0.170607  1
  O  O47  1  0.470908  0.909033  0.829390  1
  O  O48  1  0.511937  0.812107  0.167924  1
  O  O49  1  0.746390  0.338093  0.343030  1
  O  O50  1  0.796155  0.202988  0.747548  1
  O  O51  1  0.770678  0.213068  0.565200  1
  O  O52  1  0.780805  0.222885  0.928198  1
  O  O53  1  0.619381  0.468665  0.827201  1
  O  O54  1  0.511918  0.675969  0.667908  1
  O  O55  1  0.657855  0.261240  0.163131  1
  O  O56  1  0.470899  0.620077  0.329399  1
  O  O57  1  0.342105  0.919120  0.336862  1
  O  O58  1  0.796156  0.000877  0.247548  1
  O  O59  1  0.780826  0.996283  0.428190  1
  O  O60  1  0.219148  0.003708  0.571819  1
  O  O61  1  0.657862  0.080918  0.663127  1
  O  O62  1  0.529085  0.379958  0.670587  1
  O  O63  1  0.342126  0.738754  0.836870  1
  O  O64  1  0.488035  0.324079  0.332129  1
  O  O65  1  0.380588  0.531316  0.172818  1
  O  O66  1  0.219223  0.777083  0.071801  1
  O  O67  1  0.229333  0.786909  0.434799  1
  O  O68  1  0.203833  0.797010  0.252453  1
  O  O69  1  0.253599  0.661933  0.656969  1
  O  O70  1  0.488082  0.187895  0.832061  1
  O  O71  1  0.529110  0.090933  0.170606  1
  O  O72  1  0.324895  0.488892  0.829395  1
  O  O73  1  0.327357  0.338686  0.976214  1
  O  O74  1  0.327193  0.333952  0.476223  1
  O  O75  1  0.188158  0.478912  0.320065  1
  O  O76  1  0.380592  0.088040  0.672777  1
  O  O77  1  0.324882  0.186231  0.329385  1
  O  O78  1  0.082593  0.658948  0.165585  1
  O  O79  1  0.000005  0.797083  0.749998  1
  O  O80  1  0.008607  0.785538  0.928232  1
  O  O81  1  0.079321  0.537273  0.668912  1
  O  O82  1  0.188179  0.332944  0.820078  1
  O  O83  1  0.079324  0.383422  0.168910  1
  O  O84  1  0.253611  0.084454  0.156980  1
  O  O85  1  0.229372  0.983702  0.934801  1
  O  O86  1  0.203852  0.999129  0.752462  1
  O  O87  1  0.082577  0.258478  0.665601  1
  O  O88  1  0.008591  0.205863  0.428228  1
  O  O89  1  0.999983  0.202942  0.250005  1
