# generated using pymatgen
data_LiFePO4
_symmetry_space_group_name_H-M   'P 1'
_cell_length_a   6.29964000
_cell_length_b   10.00911161
_cell_length_c   6.06375819
_cell_angle_alpha   101.40069457
_cell_angle_beta   99.85490219
_cell_angle_gamma   71.39626536
_symmetry_Int_Tables_number   1
_chemical_formula_structural   LiFePO4
_chemical_formula_sum   'Li4 Fe4 P4 O16'
_cell_volume   352.80231883
_cell_formula_units_Z   4
loop_
 _symmetry_equiv_pos_site_id
 _symmetry_equiv_pos_as_xyz
  1  'x, y, z'
loop_
 _atom_site_type_symbol
 _atom_site_label
 _atom_site_symmetry_multiplicity
 _atom_site_fract_x
 _atom_site_fract_y
 _atom_site_fract_z
 _atom_site_occupancy
  Li  Li0  1  0.231062  0.740211  0.000215  1
  Li  Li1  1  0.327836  0.012975  0.825310  1
  Li  Li2  1  0.672164  0.987025  0.174690  1
  Li  Li3  1  0.768938  0.259789  0.999785  1
  Fe  Fe4  1  0.231292  0.322222  0.626876  1
  Fe  Fe5  1  0.238697  0.742222  0.501045  1
  Fe  Fe6  1  0.761303  0.257778  0.498955  1
  Fe  Fe7  1  0.768708  0.677778  0.373124  1
  P  P8  1  0.322625  0.435939  0.191502  1
  P  P9  1  0.185546  0.045537  0.304674  1
  P  P10  1  0.814454  0.954463  0.695326  1
  P  P11  1  0.677375  0.564061  0.808498  1
  O  O12  1  0.245874  0.114378  0.556457  1
  O  O13  1  0.185025  0.406786  0.356597  1
  O  O14  1  0.259193  0.371321  0.947633  1
  O  O15  1  0.073677  0.878617  0.759623  1
  O  O16  1  0.332082  0.067637  0.146984  1
  O  O17  1  0.268069  0.601110  0.211197  1
  O  O18  1  0.218604  0.883808  0.295658  1
  O  O19  1  0.418919  0.630146  0.745192  1
  O  O20  1  0.581081  0.369854  0.254808  1
  O  O21  1  0.781396  0.116192  0.704342  1
  O  O22  1  0.731931  0.398890  0.788803  1
  O  O23  1  0.667918  0.932363  0.853016  1
  O  O24  1  0.926323  0.121383  0.240377  1
  O  O25  1  0.740807  0.628679  0.052367  1
  O  O26  1  0.814975  0.593214  0.643403  1
  O  O27  1  0.754126  0.885622  0.443543  1
