# generated using pymatgen
data_Lu(CuO2)2
_symmetry_space_group_name_H-M   'P 1'
_cell_length_a   5.62684788
_cell_length_b   6.18719651
_cell_length_c   6.18719645
_cell_angle_alpha   101.12440628
_cell_angle_beta   63.48500717
_cell_angle_gamma   63.48500241
_symmetry_Int_Tables_number   1
_chemical_formula_structural   Lu(CuO2)2
_chemical_formula_sum   'Lu2 Cu4 O8'
_cell_volume   150.36107808
_cell_formula_units_Z   2
loop_
 _symmetry_equiv_pos_site_id
 _symmetry_equiv_pos_as_xyz
  1  'x, y, z'
loop_
 _atom_site_type_symbol
 _atom_site_label
 _atom_site_symmetry_multiplicity
 _atom_site_fract_x
 _atom_site_fract_y
 _atom_site_fract_z
 _atom_site_occupancy
  Lu  Lu0  1  0.250000  0.875239  0.624761  1
  Lu  Lu1  1  0.750000  0.124761  0.375239  1
  Cu  Cu2  1  0.000000  0.500000  0.000000  1
  Cu  Cu3  1  0.500000  0.500000  0.000000  1
  Cu  Cu4  1  0.000000  0.500000  0.500000  1
  Cu  Cu5  1  0.500000  0.000000  0.000000  1
  O  O6  1  0.099120  0.725025  0.368683  1
  O  O7  1  0.599120  0.868683  0.225025  1
  O  O8  1  0.204526  0.524077  0.666719  1
  O  O9  1  0.704526  0.166719  0.024077  1
  O  O10  1  0.295474  0.833281  0.975923  1
  O  O11  1  0.795474  0.475923  0.333281  1
  O  O12  1  0.400880  0.131317  0.774975  1
  O  O13  1  0.900880  0.274975  0.631317  1
