# generated using pymatgen
data_Na5Sn2P(CO4)4
_symmetry_space_group_name_H-M   'P 1'
_cell_length_a   10.16638179
_cell_length_b   9.94566548
_cell_length_c   10.22968328
_cell_angle_alpha   60.49740385
_cell_angle_beta   60.76876005
_cell_angle_gamma   61.13416608
_symmetry_Int_Tables_number   1
_chemical_formula_structural   Na5Sn2P(CO4)4
_chemical_formula_sum   'Na10 Sn4 P2 C8 O32'
_cell_volume   744.54116188
_cell_formula_units_Z   2
loop_
 _symmetry_equiv_pos_site_id
 _symmetry_equiv_pos_as_xyz
  1  'x, y, z'
loop_
 _atom_site_type_symbol
 _atom_site_label
 _atom_site_symmetry_multiplicity
 _atom_site_fract_x
 _atom_site_fract_y
 _atom_site_fract_z
 _atom_site_occupancy
  Na  Na0  1  0.673060  0.070454  0.070692  1
  Na  Na1  1  0.929308  0.314205  0.326940  1
  Na  Na2  1  0.070123  0.072757  0.671696  1
  Na  Na3  1  0.069557  0.680443  0.069557  1
  Na  Na4  1  0.671696  0.685425  0.070123  1
  Na  Na5  1  0.328304  0.314575  0.929877  1
  Na  Na6  1  0.929877  0.927243  0.328304  1
  Na  Na7  1  0.930443  0.319557  0.930443  1
  Na  Na8  1  0.070692  0.685795  0.673060  1
  Na  Na9  1  0.326940  0.929546  0.929308  1
  Sn  Sn10  1  0.500000  0.500000  0.000000  1
  Sn  Sn11  1  0.500000  0.000000  0.500000  1
  Sn  Sn12  1  0.000000  0.500000  0.500000  1
  Sn  Sn13  1  0.500000  0.500000  0.500000  1
  P  P14  1  0.125508  0.124492  0.125508  1
  P  P15  1  0.874492  0.875508  0.874492  1
  C  C16  1  0.289848  0.263610  0.282538  1
  C  C17  1  0.659013  0.281478  0.287256  1
  C  C18  1  0.287256  0.272252  0.659013  1
  C  C19  1  0.282538  0.664004  0.289848  1
  C  C20  1  0.717462  0.335996  0.710152  1
  C  C21  1  0.712744  0.727748  0.340987  1
  C  C22  1  0.340987  0.718522  0.712744  1
  C  C23  1  0.710152  0.736390  0.717462  1
  O  O24  1  0.309885  0.063854  0.058239  1
  O  O25  1  0.058230  0.059327  0.065934  1
  O  O26  1  0.065934  0.316509  0.058230  1
  O  O27  1  0.058239  0.068023  0.309885  1
  O  O28  1  0.409088  0.259207  0.154249  1
  O  O29  1  0.648347  0.143495  0.309662  1
  O  O30  1  0.688440  0.383799  0.146691  1
  O  O31  1  0.302441  0.149898  0.422839  1
  O  O32  1  0.155405  0.378030  0.285234  1
  O  O33  1  0.645043  0.304241  0.409638  1
  O  O34  1  0.285234  0.681331  0.155405  1
  O  O35  1  0.409638  0.141078  0.645043  1
  O  O36  1  0.845751  0.322544  0.590912  1
  O  O37  1  0.690338  0.601503  0.351653  1
  O  O38  1  0.422839  0.624821  0.302441  1
  O  O39  1  0.146691  0.281069  0.688440  1
  O  O40  1  0.577161  0.375179  0.697559  1
  O  O41  1  0.853309  0.718931  0.311560  1
  O  O42  1  0.309662  0.398497  0.648347  1
  O  O43  1  0.154249  0.677456  0.409088  1
  O  O44  1  0.590362  0.858922  0.354957  1
  O  O45  1  0.714766  0.318669  0.844595  1
  O  O46  1  0.354957  0.695759  0.590362  1
  O  O47  1  0.844595  0.621970  0.714766  1
  O  O48  1  0.311560  0.616201  0.853309  1
  O  O49  1  0.697559  0.850102  0.577161  1
  O  O50  1  0.351653  0.856505  0.690338  1
  O  O51  1  0.590912  0.740793  0.845751  1
  O  O52  1  0.941761  0.931977  0.690115  1
  O  O53  1  0.934066  0.683491  0.941770  1
  O  O54  1  0.941770  0.940673  0.934066  1
  O  O55  1  0.690115  0.936146  0.941761  1
