# generated using pymatgen
data_Ca2B5H2ClO10
_symmetry_space_group_name_H-M   'P 1'
_cell_length_a   17.69572225
_cell_length_b   6.56022373
_cell_length_c   6.33500808
_cell_angle_alpha   61.02793506
_cell_angle_beta   79.71533955
_cell_angle_gamma   83.95776155
_symmetry_Int_Tables_number   1
_chemical_formula_structural   Ca2B5H2ClO10
_chemical_formula_sum   'Ca6 B15 H6 Cl3 O30'
_cell_volume   632.89660143
_cell_formula_units_Z   3
loop_
 _symmetry_equiv_pos_site_id
 _symmetry_equiv_pos_as_xyz
  1  'x, y, z'
loop_
 _atom_site_type_symbol
 _atom_site_label
 _atom_site_symmetry_multiplicity
 _atom_site_fract_x
 _atom_site_fract_y
 _atom_site_fract_z
 _atom_site_occupancy
  Ca  Ca0  1  0.998587  0.996636  0.000150  1
  Ca  Ca1  1  0.184586  0.566967  0.968295  1
  Ca  Ca2  1  0.332822  0.005825  0.332196  1
  Ca  Ca3  1  0.515690  0.429821  0.871822  1
  Ca  Ca4  1  0.665346  0.974895  0.680981  1
  Ca  Ca5  1  0.845742  0.530817  0.654882  1
  B  B6  1  0.040784  0.002522  0.520897  1
  B  B7  1  0.150568  0.895722  0.300203  1
  B  B8  1  0.174025  0.118311  0.502119  1
  B  B9  1  0.224597  0.045798  0.875921  1
  B  B10  1  0.181560  0.450792  0.569728  1
  B  B11  1  0.374223  0.010964  0.849987  1
  B  B12  1  0.483785  0.106140  0.527140  1
  B  B13  1  0.507074  0.881754  0.952880  1
  B  B14  1  0.557811  0.944941  0.258318  1
  B  B15  1  0.513657  0.546897  0.354073  1
  B  B16  1  0.707380  0.961499  0.207533  1
  B  B17  1  0.817833  0.856719  0.985969  1
  B  B18  1  0.839493  0.078850  0.189454  1
  B  B19  1  0.890777  0.011422  0.559699  1
  B  B20  1  0.845682  0.412046  0.256302  1
  H  H21  1  0.011166  0.467063  0.542569  1
  H  H22  1  0.003568  0.508854  0.773342  1
  H  H23  1  0.334863  0.560030  0.319785  1
  H  H24  1  0.353363  0.478809  0.583974  1
  H  H25  1  0.680425  0.425252  0.220791  1
  H  H26  1  0.680387  0.493752  0.428880  1
  Cl  Cl27  1  0.025891  0.530567  0.116142  1
  Cl  Cl28  1  0.350351  0.480858  0.985805  1
  Cl  Cl29  1  0.681482  0.496708  0.813223  1
  O  O30  1  0.093729  0.050693  0.628310  1
  O  O31  1  0.966984  0.993194  0.634555  1
  O  O32  1  0.064663  0.949307  0.332895  1
  O  O33  1  0.163920  0.673021  0.530255  1
  O  O34  1  0.170538  0.879650  0.077718  1
  O  O35  1  0.193430  0.077763  0.294884  1
  O  O36  1  0.180863  0.376661  0.400984  1
  O  O37  1  0.229968  0.991558  0.673269  1
  O  O38  1  0.197222  0.293820  0.801031  1
  O  O39  1  0.300420  0.013221  0.957611  1
  O  O40  1  0.428134  0.967811  0.002029  1
  O  O41  1  0.397500  0.063002  0.609134  1
  O  O42  1  0.526412  0.917429  0.706778  1
  O  O43  1  0.503484  0.118901  0.289768  1
  O  O44  1  0.497498  0.325617  0.535788  1
  O  O45  1  0.563699  0.998348  0.001437  1
  O  O46  1  0.511799  0.622210  0.111393  1
  O  O47  1  0.633465  0.967126  0.313039  1
  O  O48  1  0.530240  0.700474  0.429703  1
  O  O49  1  0.760901  0.997709  0.321430  1
  O  O50  1  0.731116  0.908797  0.018931  1
  O  O51  1  0.832210  0.636737  0.214368  1
  O  O52  1  0.838427  0.839736  0.763858  1
  O  O53  1  0.859134  0.041720  0.979636  1
  O  O54  1  0.842205  0.338115  0.089335  1
  O  O55  1  0.897138  0.959084  0.355400  1
  O  O56  1  0.860092  0.255509  0.488585  1
  O  O57  1  0.982367  0.422955  0.706191  1
  O  O58  1  0.336831  0.611582  0.439821  1
  O  O59  1  0.670959  0.368556  0.397633  1
