# generated using pymatgen
data_Li3Nb2CrO6
_symmetry_space_group_name_H-M   'P 1'
_cell_length_a   16.47861618
_cell_length_b   10.49689137
_cell_length_c   10.49689128
_cell_angle_alpha   16.03936319
_cell_angle_beta   15.76627664
_cell_angle_gamma   15.76627634
_symmetry_Int_Tables_number   1
_chemical_formula_structural   Li3Nb2CrO6
_chemical_formula_sum   'Li3 Nb2 Cr1 O6'
_cell_volume   118.12591592
_cell_formula_units_Z   1
loop_
 _symmetry_equiv_pos_site_id
 _symmetry_equiv_pos_as_xyz
  1  'x, y, z'
loop_
 _atom_site_type_symbol
 _atom_site_label
 _atom_site_symmetry_multiplicity
 _atom_site_fract_x
 _atom_site_fract_y
 _atom_site_fract_z
 _atom_site_occupancy
  Li  Li0  1  0.166667  0.500000  0.500000  1
  Li  Li1  1  0.523986  0.490163  0.490163  1
  Li  Li2  1  0.809348  0.509837  0.509837  1
  Nb  Nb3  1  0.957817  0.031921  0.031921  1
  Nb  Nb4  1  0.375516  0.968079  0.968079  1
  Cr  Cr5  1  0.666667  0.000000  0.000000  1
  O  O6  1  0.266574  0.243967  0.243967  1
  O  O7  1  0.576090  0.245710  0.245710  1
  O  O8  1  0.066759  0.756033  0.756033  1
  O  O9  1  0.919326  0.257144  0.257144  1
  O  O10  1  0.414007  0.742856  0.742856  1
  O  O11  1  0.757243  0.754290  0.754290  1
