# generated using pymatgen
data_Li3Fe8(BO3)8
_symmetry_space_group_name_H-M   'P 1'
_cell_length_a   5.25584236
_cell_length_b   5.27095839
_cell_length_c   20.07931482
_cell_angle_alpha   89.68989973
_cell_angle_beta   90.40631763
_cell_angle_gamma   60.74818843
_symmetry_Int_Tables_number   1
_chemical_formula_structural   Li3Fe8(BO3)8
_chemical_formula_sum   'Li3 Fe8 B8 O24'
_cell_volume   485.29203235
_cell_formula_units_Z   1
loop_
 _symmetry_equiv_pos_site_id
 _symmetry_equiv_pos_as_xyz
  1  'x, y, z'
loop_
 _atom_site_type_symbol
 _atom_site_label
 _atom_site_symmetry_multiplicity
 _atom_site_fract_x
 _atom_site_fract_y
 _atom_site_fract_z
 _atom_site_occupancy
  Li  Li0  1  0.358191  0.667126  0.918872  1
  Li  Li1  1  0.333783  0.642225  0.170817  1
  Li  Li2  1  0.655958  0.344506  0.549234  1
  Fe  Fe3  1  0.981657  0.677083  0.810463  1
  Fe  Fe4  1  0.001017  0.673395  0.309815  1
  Fe  Fe5  1  0.684303  0.008484  0.937091  1
  Fe  Fe6  1  0.675155  0.994913  0.435048  1
  Fe  Fe7  1  0.318886  0.993680  0.560750  1
  Fe  Fe8  1  0.323737  0.015407  0.060647  1
  Fe  Fe9  1  0.004786  0.333359  0.683483  1
  Fe  Fe10  1  0.991416  0.314371  0.187331  1
  B  B11  1  0.003754  0.336985  0.935834  1
  B  B12  1  0.002297  0.337091  0.436647  1
  B  B13  1  0.326556  0.012034  0.811761  1
  B  B14  1  0.339240  0.003117  0.312036  1
  B  B15  1  0.662087  0.001712  0.685127  1
  B  B16  1  0.661272  0.994878  0.185924  1
  B  B17  1  0.998705  0.664709  0.559750  1
  B  B18  1  0.990264  0.671313  0.063244  1
  O  O19  1  0.112187  0.275632  0.784857  1
  O  O20  1  0.117159  0.271811  0.290263  1
  O  O21  1  0.254483  0.082925  0.958725  1
  O  O22  1  0.035011  0.574076  0.913351  1
  O  O23  1  0.274230  0.114619  0.456308  1
  O  O24  1  0.979368  0.598280  0.413290  1
  O  O25  1  0.592601  0.984375  0.831946  1
  O  O26  1  0.262549  0.651166  0.559897  1
  O  O27  1  0.604214  0.983962  0.333303  1
  O  O28  1  0.221833  0.719397  0.071239  1
  O  O29  1  0.273485  0.786119  0.822112  1
  O  O30  1  0.304022  0.764433  0.309995  1
  O  O31  1  0.712021  0.229100  0.677691  1
  O  O32  1  0.648749  0.257813  0.184845  1
  O  O33  1  0.738823  0.352001  0.934401  1
  O  O34  1  0.398350  0.022892  0.665575  1
  O  O35  1  0.761763  0.303647  0.444780  1
  O  O36  1  0.421805  0.966054  0.163691  1
  O  O37  1  0.968925  0.426217  0.582241  1
  O  O38  1  0.021918  0.402565  0.081252  1
  O  O39  1  0.743738  0.913613  0.537472  1
  O  O40  1  0.725366  0.887723  0.038807  1
  O  O41  1  0.880404  0.733949  0.711051  1
  O  O42  1  0.914153  0.742273  0.208332  1
