# generated using pymatgen
data_Li2Fe12P7
_symmetry_space_group_name_H-M   'P 1'
_cell_length_a   8.87502665
_cell_length_b   8.86606974
_cell_length_c   3.55244579
_cell_angle_alpha   90.00000000
_cell_angle_beta   90.00000000
_cell_angle_gamma   119.89708824
_symmetry_Int_Tables_number   1
_chemical_formula_structural   Li2Fe12P7
_chemical_formula_sum   'Li2 Fe12 P7'
_cell_volume   242.33064220
_cell_formula_units_Z   1
loop_
 _symmetry_equiv_pos_site_id
 _symmetry_equiv_pos_as_xyz
  1  'x, y, z'
loop_
 _atom_site_type_symbol
 _atom_site_label
 _atom_site_symmetry_multiplicity
 _atom_site_fract_x
 _atom_site_fract_y
 _atom_site_fract_z
 _atom_site_occupancy
  Li  Li0  1  0.333067  0.666465  0.000000  1
  Li  Li1  1  0.666932  0.333569  0.500000  1
  Fe  Fe2  1  0.115827  0.839447  0.000000  1
  Fe  Fe3  1  0.042513  0.610070  0.500000  1
  Fe  Fe4  1  0.160642  0.276502  0.000000  1
  Fe  Fe5  1  0.567591  0.957315  0.500000  1
  Fe  Fe6  1  0.389500  0.432157  0.500000  1
  Fe  Fe7  1  0.220039  0.093949  0.500000  1
  Fe  Fe8  1  0.723456  0.884163  0.000000  1
  Fe  Fe9  1  0.617396  0.568162  0.000000  1
  Fe  Fe10  1  0.432062  0.049139  0.000000  1
  Fe  Fe11  1  0.873986  0.780121  0.500000  1
  Fe  Fe12  1  0.951009  0.382972  0.000000  1
  Fe  Fe13  1  0.905952  0.126118  0.500000  1
  P  P14  1  0.284991  0.878254  0.500000  1
  P  P15  1  0.121355  0.406670  0.500000  1
  P  P16  1  -0.000103  0.999806  0.000000  1
  P  P17  1  0.593542  0.715114  0.500000  1
  P  P18  1  0.414161  0.286387  0.000000  1
  P  P19  1  0.872214  0.585624  0.000000  1
  P  P20  1  0.713867  0.127994  0.000000  1
