# generated using pymatgen
data_NaLi5Mn2P2(CO7)2
_symmetry_space_group_name_H-M   'P 1'
_cell_length_a   8.64248901
_cell_length_b   6.63730322
_cell_length_c   10.04152947
_cell_angle_alpha   89.93779673
_cell_angle_beta   88.17531417
_cell_angle_gamma   89.63093126
_symmetry_Int_Tables_number   1
_chemical_formula_structural   NaLi5Mn2P2(CO7)2
_chemical_formula_sum   'Na2 Li10 Mn4 P4 C4 O28'
_cell_volume   575.70620633
_cell_formula_units_Z   2
loop_
 _symmetry_equiv_pos_site_id
 _symmetry_equiv_pos_as_xyz
  1  'x, y, z'
loop_
 _atom_site_type_symbol
 _atom_site_label
 _atom_site_symmetry_multiplicity
 _atom_site_fract_x
 _atom_site_fract_y
 _atom_site_fract_z
 _atom_site_occupancy
  Na  Na0  1  0.086330  0.250784  0.876507  1
  Na  Na1  1  0.751481  0.499737  0.375983  1
  Li  Li2  1  0.081651  0.236669  0.372341  1
  Li  Li3  1  0.266738  0.027881  0.610870  1
  Li  Li4  1  0.266224  0.471362  0.609876  1
  Li  Li5  1  0.268470  0.023720  0.116611  1
  Li  Li6  1  0.266363  0.477036  0.117386  1
  Li  Li7  1  0.731599  0.527568  0.885300  1
  Li  Li8  1  0.730263  0.970649  0.886226  1
  Li  Li9  1  0.733066  0.979164  0.385553  1
  Li  Li10  1  0.916193  0.756774  0.629644  1
  Li  Li11  1  0.913402  0.762662  0.127365  1
  Mn  Mn12  1  0.352214  0.751080  0.886719  1
  Mn  Mn13  1  0.353807  0.749662  0.389056  1
  Mn  Mn14  1  0.648743  0.244726  0.616699  1
  Mn  Mn15  1  0.645689  0.248155  0.111330  1
  P  P16  1  0.415253  0.250904  0.855773  1
  P  P17  1  0.405462  0.245097  0.356449  1
  P  P18  1  0.591956  0.749082  0.648417  1
  P  P19  1  0.588300  0.754191  0.145458  1
  C  C20  1  0.037837  0.750498  0.864205  1
  C  C21  1  0.042889  0.759242  0.361060  1
  C  C22  1  0.961551  0.249166  0.628635  1
  C  C23  1  0.952902  0.247279  0.139244  1
  O  O24  1  0.110166  0.250886  0.646137  1
  O  O25  1  0.102555  0.249200  0.154126  1
  O  O26  1  0.079988  0.752956  0.987121  1
  O  O27  1  0.079795  0.751824  0.484978  1
  O  O28  1  0.142096  0.751448  0.767371  1
  O  O29  1  0.150065  0.745449  0.266455  1
  O  O30  1  0.324746  0.066477  0.911963  1
  O  O31  1  0.323427  0.436132  0.911175  1
  O  O32  1  0.302446  0.066303  0.405288  1
  O  O33  1  0.317131  0.434208  0.409855  1
  O  O34  1  0.415330  0.249347  0.699742  1
  O  O35  1  0.422175  0.753648  0.599756  1
  O  O36  1  0.414692  0.249310  0.200116  1
  O  O37  1  0.418917  0.750163  0.097478  1
  O  O38  1  0.587501  0.252250  0.896882  1
  O  O39  1  0.582796  0.755513  0.804599  1
  O  O40  1  0.573189  0.230539  0.406187  1
  O  O41  1  0.579829  0.769132  0.300638  1
  O  O42  1  0.684319  0.559918  0.602639  1
  O  O43  1  0.690642  0.928522  0.594393  1
  O  O44  1  0.684303  0.565421  0.100694  1
  O  O45  1  0.684168  0.932740  0.086702  1
  O  O46  1  0.865987  0.244328  0.731098  1
  O  O47  1  0.861328  0.241667  0.244394  1
  O  O48  1  0.908727  0.251515  0.509095  1
  O  O49  1  0.893082  0.250510  0.023008  1
  O  O50  1  0.892279  0.747373  0.834631  1
  O  O51  1  0.899939  0.780130  0.326776  1
