# generated using pymatgen
data_Li3Mn5O2F9
_symmetry_space_group_name_H-M   'P 1'
_cell_length_a   6.93082680
_cell_length_b   6.64804825
_cell_length_c   10.76251333
_cell_angle_alpha   84.44906277
_cell_angle_beta   98.87101735
_cell_angle_gamma   102.26681603
_symmetry_Int_Tables_number   1
_chemical_formula_structural   Li3Mn5O2F9
_chemical_formula_sum   'Li6 Mn10 O4 F18'
_cell_volume   477.72819797
_cell_formula_units_Z   2
loop_
 _symmetry_equiv_pos_site_id
 _symmetry_equiv_pos_as_xyz
  1  'x, y, z'
loop_
 _atom_site_type_symbol
 _atom_site_label
 _atom_site_symmetry_multiplicity
 _atom_site_fract_x
 _atom_site_fract_y
 _atom_site_fract_z
 _atom_site_occupancy
  Li  Li0  1  0.207060  0.799949  0.995990  1
  Li  Li1  1  0.135049  0.778182  0.534086  1
  Li  Li2  1  0.426173  0.574343  0.730932  1
  Li  Li3  1  0.588159  0.423742  0.254176  1
  Li  Li4  1  0.848637  0.185764  0.458810  1
  Li  Li5  1  0.793380  0.262720  0.041531  1
  Mn  Mn6  1  0.021274  0.999453  0.767676  1
  Mn  Mn7  1  0.089704  0.535208  0.263601  1
  Mn  Mn8  1  0.479543  0.893225  0.219855  1
  Mn  Mn9  1  0.300785  0.312414  0.987604  1
  Mn  Mn10  1  0.321613  0.299515  0.515329  1
  Mn  Mn11  1  0.657123  0.642359  0.495652  1
  Mn  Mn12  1  0.707238  0.716398  0.993538  1
  Mn  Mn13  1  0.504894  0.117075  0.781337  1
  Mn  Mn14  1  0.878321  0.451470  0.748717  1
  Mn  Mn15  1  0.055147  0.025156  0.250772  1
  O  O16  1  0.173968  0.825274  0.174891  1
  O  O17  1  0.091960  0.252637  0.370566  1
  O  O18  1  0.577980  0.390184  0.661469  1
  O  O19  1  0.276265  0.055477  0.888936  1
  F  F20  1  0.960906  0.731065  0.384830  1
  F  F21  1  0.327629  0.619189  0.549058  1
  F  F22  1  0.577528  0.816068  0.806077  1
  F  F23  1  0.191880  0.488454  0.816241  1
  F  F24  1  0.655158  0.940556  0.406689  1
  F  F25  1  0.074516  0.310755  0.100478  1
  F  F26  1  0.748937  0.970281  0.122252  1
  F  F27  1  0.421886  0.648964  0.050903  1
  F  F28  1  0.439312  0.591973  0.314710  1
  F  F29  1  0.603756  0.400719  0.928768  1
  F  F30  1  0.946393  0.710642  0.894659  1
  F  F31  1  0.277673  0.010547  0.617446  1
  F  F32  1  0.794259  0.512519  0.153759  1
  F  F33  1  0.913705  0.749935  0.634293  1
  F  F34  1  0.460336  0.202233  0.164866  1
  F  F35  1  0.664075  0.358109  0.424362  1
  F  F36  1  0.840331  0.162854  0.866208  1
  F  F37  1  0.967442  0.234592  0.628932  1
