# generated using pymatgen
data_CsMnH24(SO10)2
_symmetry_space_group_name_H-M   'P 1'
_cell_length_a   12.48457141
_cell_length_b   12.48457141
_cell_length_c   12.48457141
_cell_angle_alpha   90.00000000
_cell_angle_beta   90.00000000
_cell_angle_gamma   90.00000000
_symmetry_Int_Tables_number   1
_chemical_formula_structural   CsMnH24(SO10)2
_chemical_formula_sum   'Cs4 Mn4 H96 S8 O80'
_cell_volume   1945.90177132
_cell_formula_units_Z   4
loop_
 _symmetry_equiv_pos_site_id
 _symmetry_equiv_pos_as_xyz
  1  'x, y, z'
loop_
 _atom_site_type_symbol
 _atom_site_label
 _atom_site_symmetry_multiplicity
 _atom_site_fract_x
 _atom_site_fract_y
 _atom_site_fract_z
 _atom_site_occupancy
  Cs  Cs0  1  0.000000  0.000000  0.500000  1
  Cs  Cs1  1  0.000000  0.500000  0.000000  1
  Cs  Cs2  1  0.500000  0.000000  0.000000  1
  Cs  Cs3  1  0.500000  0.500000  0.500000  1
  Mn  Mn4  1  0.500000  0.500000  0.000000  1
  Mn  Mn5  1  0.500000  0.000000  0.500000  1
  Mn  Mn6  1  0.000000  0.500000  0.500000  1
  Mn  Mn7  1  0.000000  0.000000  0.000000  1
  H  H8  1  0.222139  0.509081  0.231475  1
  H  H9  1  0.777861  0.009081  0.268525  1
  H  H10  1  0.277861  0.490919  0.731475  1
  H  H11  1  0.722139  0.990919  0.768525  1
  H  H12  1  0.231475  0.222139  0.509081  1
  H  H13  1  0.268525  0.777861  0.009081  1
  H  H14  1  0.731475  0.277861  0.490919  1
  H  H15  1  0.768525  0.722139  0.990919  1
  H  H16  1  0.509081  0.231475  0.222139  1
  H  H17  1  0.009081  0.268525  0.777861  1
  H  H18  1  0.490919  0.731475  0.277861  1
  H  H19  1  0.990919  0.768525  0.722139  1
  H  H20  1  0.777861  0.490919  0.768525  1
  H  H21  1  0.222139  0.990919  0.731475  1
  H  H22  1  0.722139  0.509081  0.268525  1
  H  H23  1  0.277861  0.009081  0.231475  1
  H  H24  1  0.768525  0.777861  0.490919  1
  H  H25  1  0.731475  0.222139  0.990919  1
  H  H26  1  0.268525  0.722139  0.509081  1
  H  H27  1  0.231475  0.277861  0.009081  1
  H  H28  1  0.490919  0.768525  0.777861  1
  H  H29  1  0.990919  0.731475  0.222139  1
  H  H30  1  0.509081  0.268525  0.722139  1
  H  H31  1  0.009081  0.231475  0.277861  1
  H  H32  1  0.182249  0.627185  0.223035  1
  H  H33  1  0.817751  0.127185  0.276965  1
  H  H34  1  0.317751  0.372815  0.723035  1
  H  H35  1  0.682249  0.872815  0.776965  1
  H  H36  1  0.223035  0.182249  0.627185  1
  H  H37  1  0.276965  0.817751  0.127185  1
  H  H38  1  0.723035  0.317751  0.372815  1
  H  H39  1  0.776965  0.682249  0.872815  1
  H  H40  1  0.627185  0.223035  0.182249  1
  H  H41  1  0.127185  0.276965  0.817751  1
  H  H42  1  0.372815  0.723035  0.317751  1
  H  H43  1  0.872815  0.776965  0.682249  1
  H  H44  1  0.817751  0.372815  0.776965  1
  H  H45  1  0.182249  0.872815  0.723035  1
  H  H46  1  0.682249  0.627185  0.276965  1
  H  H47  1  0.317751  0.127185  0.223035  1
  H  H48  1  0.776965  0.817751  0.372815  1
  H  H49  1  0.723035  0.182249  0.872815  1
  H  H50  1  0.276965  0.682249  0.627185  1
  H  H51  1  0.223035  0.317751  0.127185  1
  H  H52  1  0.372815  0.776965  0.817751  1
  H  H53  1  0.872815  0.723035  0.182249  1
  H  H54  1  0.627185  0.276965  0.682249  1
  H  H55  1  0.127185  0.223035  0.317751  1
  H  H56  1  0.478124  0.708110  0.934855  1
  H  H57  1  0.521876  0.208110  0.565145  1
  H  H58  1  0.021876  0.291890  0.434855  1
  H  H59  1  0.978124  0.791890  0.065145  1
  H  H60  1  0.934855  0.478124  0.708110  1
  H  H61  1  0.565145  0.521876  0.208110  1
  H  H62  1  0.434855  0.021876  0.291890  1
  H  H63  1  0.065145  0.978124  0.791890  1
  H  H64  1  0.708110  0.934855  0.478124  1
  H  H65  1  0.208110  0.565145  0.521876  1
  H  H66  1  0.291890  0.434855  0.021876  1
  H  H67  1  0.791890  0.065145  0.978124  1
  H  H68  1  0.521876  0.291890  0.065145  1
  H  H69  1  0.478124  0.791890  0.434855  1
  H  H70  1  0.978124  0.708110  0.565145  1
  H  H71  1  0.021876  0.208110  0.934855  1
  H  H72  1  0.065145  0.521876  0.291890  1
  H  H73  1  0.434855  0.478124  0.791890  1
  H  H74  1  0.565145  0.978124  0.708110  1
  H  H75  1  0.934855  0.021876  0.208110  1
  H  H76  1  0.291890  0.065145  0.521876  1
  H  H77  1  0.791890  0.434855  0.478124  1
  H  H78  1  0.708110  0.565145  0.978124  1
  H  H79  1  0.208110  0.934855  0.021876  1
  H  H80  1  0.523894  0.704404  0.060545  1
  H  H81  1  0.476106  0.204404  0.439455  1
  H  H82  1  0.976106  0.295596  0.560545  1
  H  H83  1  0.023894  0.795596  0.939455  1
  H  H84  1  0.060545  0.523894  0.704404  1
  H  H85  1  0.439455  0.476106  0.204404  1
  H  H86  1  0.560545  0.976106  0.295596  1
  H  H87  1  0.939455  0.023894  0.795596  1
  H  H88  1  0.704404  0.060545  0.523894  1
  H  H89  1  0.204404  0.439455  0.476106  1
  H  H90  1  0.295596  0.560545  0.976106  1
  H  H91  1  0.795596  0.939455  0.023894  1
  H  H92  1  0.476106  0.295596  0.939455  1
  H  H93  1  0.523894  0.795596  0.560545  1
  H  H94  1  0.023894  0.704404  0.439455  1
  H  H95  1  0.976106  0.204404  0.060545  1
  H  H96  1  0.939455  0.476106  0.295596  1
  H  H97  1  0.560545  0.523894  0.795596  1
  H  H98  1  0.439455  0.023894  0.704404  1
  H  H99  1  0.060545  0.976106  0.204404  1
  H  H100  1  0.295596  0.939455  0.476106  1
  H  H101  1  0.795596  0.560545  0.523894  1
  H  H102  1  0.704404  0.439455  0.023894  1
  H  H103  1  0.204404  0.060545  0.976106  1
  S  S104  1  0.172099  0.827901  0.327901  1
  S  S105  1  0.827901  0.327901  0.172099  1
  S  S106  1  0.327901  0.172099  0.827901  1
  S  S107  1  0.672099  0.672099  0.672099  1
  S  S108  1  0.827901  0.172099  0.672099  1
  S  S109  1  0.172099  0.672099  0.827901  1
  S  S110  1  0.672099  0.827901  0.172099  1
  S  S111  1  0.327901  0.327901  0.327901  1
  O  O112  1  0.241600  0.758400  0.258400  1
  O  O113  1  0.758400  0.258400  0.241600  1
  O  O114  1  0.258400  0.241600  0.758400  1
  O  O115  1  0.741600  0.741600  0.741600  1
  O  O116  1  0.758400  0.241600  0.741600  1
  O  O117  1  0.241600  0.741600  0.758400  1
  O  O118  1  0.741600  0.758400  0.241600  1
  O  O119  1  0.258400  0.258400  0.258400  1
  O  O120  1  0.062932  0.779762  0.336761  1
  O  O121  1  0.937068  0.279762  0.163239  1
  O  O122  1  0.437069  0.220238  0.836761  1
  O  O123  1  0.562932  0.720238  0.663239  1
  O  O124  1  0.336761  0.062932  0.779762  1
  O  O125  1  0.163239  0.937068  0.279762  1
  O  O126  1  0.836761  0.437069  0.220238  1
  O  O127  1  0.663239  0.562932  0.720238  1
  O  O128  1  0.779762  0.336761  0.062932  1
  O  O129  1  0.279762  0.163239  0.937068  1
  O  O130  1  0.220238  0.836761  0.437069  1
  O  O131  1  0.720238  0.663239  0.562932  1
  O  O132  1  0.937068  0.220238  0.663239  1
  O  O133  1  0.062932  0.720238  0.836761  1
  O  O134  1  0.562932  0.779762  0.163239  1
  O  O135  1  0.437069  0.279762  0.336761  1
  O  O136  1  0.663239  0.937068  0.220238  1
  O  O137  1  0.836761  0.062932  0.720238  1
  O  O138  1  0.163239  0.562932  0.779762  1
  O  O139  1  0.336761  0.437069  0.279762  1
  O  O140  1  0.220238  0.663239  0.937068  1
  O  O141  1  0.720238  0.836761  0.062932  1
  O  O142  1  0.779762  0.163239  0.562932  1
  O  O143  1  0.279762  0.336761  0.437069  1
  O  O144  1  0.158768  0.552571  0.211463  1
  O  O145  1  0.841232  0.052571  0.288537  1
  O  O146  1  0.341232  0.447429  0.711463  1
  O  O147  1  0.658768  0.947429  0.788537  1
  O  O148  1  0.211463  0.158768  0.552571  1
  O  O149  1  0.288537  0.841232  0.052571  1
  O  O150  1  0.711463  0.341232  0.447429  1
  O  O151  1  0.788537  0.658768  0.947429  1
  O  O152  1  0.552571  0.211463  0.158768  1
  O  O153  1  0.052571  0.288537  0.841232  1
  O  O154  1  0.447429  0.711463  0.341232  1
  O  O155  1  0.947429  0.788537  0.658768  1
  O  O156  1  0.841232  0.447429  0.788537  1
  O  O157  1  0.158768  0.947429  0.711463  1
  O  O158  1  0.658768  0.552571  0.288537  1
  O  O159  1  0.341232  0.052571  0.211463  1
  O  O160  1  0.788537  0.841232  0.447429  1
  O  O161  1  0.711463  0.158768  0.947429  1
  O  O162  1  0.288537  0.658768  0.552571  1
  O  O163  1  0.211463  0.341232  0.052571  1
  O  O164  1  0.447429  0.788537  0.841232  1
  O  O165  1  0.947429  0.711463  0.158768  1
  O  O166  1  0.552571  0.288537  0.658768  1
  O  O167  1  0.052571  0.211463  0.341232  1
  O  O168  1  0.500485  0.661088  0.997690  1
  O  O169  1  0.499515  0.161088  0.502310  1
  O  O170  1  0.999515  0.338912  0.497690  1
  O  O171  1  0.000485  0.838912  0.002310  1
  O  O172  1  0.997690  0.500485  0.661088  1
  O  O173  1  0.502310  0.499515  0.161088  1
  O  O174  1  0.497690  0.999515  0.338912  1
  O  O175  1  0.002310  0.000485  0.838912  1
  O  O176  1  0.661088  0.997690  0.500485  1
  O  O177  1  0.161088  0.502310  0.499515  1
  O  O178  1  0.338912  0.497690  0.999515  1
  O  O179  1  0.838912  0.002310  0.000485  1
  O  O180  1  0.499515  0.338912  0.002310  1
  O  O181  1  0.500485  0.838912  0.497690  1
  O  O182  1  0.000485  0.661088  0.502310  1
  O  O183  1  0.999515  0.161088  0.997690  1
  O  O184  1  0.002310  0.499515  0.338912  1
  O  O185  1  0.497690  0.500485  0.838912  1
  O  O186  1  0.502310  0.000485  0.661088  1
  O  O187  1  0.997690  0.999515  0.161088  1
  O  O188  1  0.338912  0.002310  0.499515  1
  O  O189  1  0.838912  0.497690  0.500485  1
  O  O190  1  0.661088  0.502310  0.000485  1
  O  O191  1  0.161088  0.997690  0.999515  1
