# generated using pymatgen
data_Na3Ni2P2(CO7)2
_symmetry_space_group_name_H-M   'P 1'
_cell_length_a   10.15417211
_cell_length_b   10.42541076
_cell_length_c   8.37573821
_cell_angle_alpha   108.28754400
_cell_angle_beta   71.97220602
_cell_angle_gamma   60.47157552
_symmetry_Int_Tables_number   1
_chemical_formula_structural   Na3Ni2P2(CO7)2
_chemical_formula_sum   'Na6 Ni4 P4 C4 O28'
_cell_volume   606.01166841
_cell_formula_units_Z   2
loop_
 _symmetry_equiv_pos_site_id
 _symmetry_equiv_pos_as_xyz
  1  'x, y, z'
loop_
 _atom_site_type_symbol
 _atom_site_label
 _atom_site_symmetry_multiplicity
 _atom_site_fract_x
 _atom_site_fract_y
 _atom_site_fract_z
 _atom_site_occupancy
  Na  Na0  1  0.972266  0.767344  0.039045  1
  Na  Na1  1  0.527734  0.732656  0.960955  1
  Na  Na2  1  0.496810  0.255227  0.002170  1
  Na  Na3  1  0.255737  0.490297  0.486063  1
  Na  Na4  1  0.003190  0.244773  0.997830  1
  Na  Na5  1  0.244263  0.009703  0.513937  1
  Ni  Ni6  1  0.843246  0.810796  0.743834  1
  Ni  Ni7  1  0.656754  0.689204  0.256166  1
  Ni  Ni8  1  0.346176  0.309010  0.745492  1
  Ni  Ni9  1  0.153824  0.190990  0.254508  1
  P  P10  1  0.475432  0.951569  0.751895  1
  P  P11  1  0.979060  0.444428  0.749320  1
  P  P12  1  0.024568  0.548431  0.248105  1
  P  P13  1  0.520940  0.055572  0.250680  1
  C  C14  1  0.947465  0.978240  0.747421  1
  C  C15  1  0.552535  0.521760  0.252579  1
  C  C16  1  0.441831  0.483454  0.752434  1
  C  C17  1  0.058169  0.016546  0.247566  1
  O  O18  1  0.010473  0.926880  0.245124  1
  O  O19  1  0.699065  0.975343  0.062407  1
  O  O20  1  0.979010  0.593144  0.749153  1
  O  O21  1  0.861005  0.672048  0.241932  1
  O  O22  1  0.638995  0.827952  0.758068  1
  O  O23  1  0.520990  0.906856  0.250847  1
  O  O24  1  0.482151  0.852422  0.565671  1
  O  O25  1  0.800935  0.524657  0.937593  1
  O  O26  1  0.998078  0.328944  0.560551  1
  O  O27  1  0.202750  0.974469  0.248869  1
  O  O28  1  0.695458  0.478229  0.254539  1
  O  O29  1  0.468140  0.667298  0.257289  1
  O  O30  1  0.971892  0.158923  0.249014  1
  O  O31  1  0.489527  0.573120  0.754876  1
  O  O32  1  0.501344  0.433850  0.246068  1
  O  O33  1  0.031860  0.832702  0.742711  1
  O  O34  1  0.528108  0.341077  0.750986  1
  O  O35  1  0.297250  0.525531  0.751131  1
  O  O36  1  0.804542  0.021771  0.745461  1
  O  O37  1  0.017849  0.647578  0.434329  1
  O  O38  1  0.203785  0.470535  0.060141  1
  O  O39  1  0.501922  0.171056  0.439449  1
  O  O40  1  0.471875  0.102925  0.758894  1
  O  O41  1  0.354738  0.183372  0.246512  1
  O  O42  1  0.145262  0.316628  0.753488  1
  O  O43  1  0.028125  0.397075  0.241106  1
  O  O44  1  0.296215  0.029465  0.939859  1
  O  O45  1  0.998656  0.066150  0.753932  1
