# generated using pymatgen
data_Li2FePHO5
_symmetry_space_group_name_H-M   'P 1'
_cell_length_a   5.38881474
_cell_length_b   5.52641431
_cell_length_c   7.65700005
_cell_angle_alpha   107.54118627
_cell_angle_beta   109.22080904
_cell_angle_gamma   93.11128391
_symmetry_Int_Tables_number   1
_chemical_formula_structural   Li2FePHO5
_chemical_formula_sum   'Li4 Fe2 P2 H2 O10'
_cell_volume   202.30260014
_cell_formula_units_Z   2
loop_
 _symmetry_equiv_pos_site_id
 _symmetry_equiv_pos_as_xyz
  1  'x, y, z'
loop_
 _atom_site_type_symbol
 _atom_site_label
 _atom_site_symmetry_multiplicity
 _atom_site_fract_x
 _atom_site_fract_y
 _atom_site_fract_z
 _atom_site_occupancy
  Li  Li0  1  0.463339  0.125672  0.830787  1
  Li  Li1  1  0.792668  0.428328  0.805423  1
  Li  Li2  1  0.207330  0.571669  0.194574  1
  Li  Li3  1  0.536660  0.874326  0.169212  1
  Fe  Fe4  1  0.000001  0.000004  0.499997  1
  Fe  Fe5  1  0.000013  0.999989  0.000017  1
  P  P6  1  0.673945  0.376800  0.230538  1
  P  P7  1  0.326054  0.623201  0.769459  1
  H  H8  1  0.332628  0.075836  0.355151  1
  H  H9  1  0.667373  0.924166  0.644850  1
  O  O10  1  0.820454  0.061334  0.731317  1
  O  O11  1  0.736170  0.217210  0.371321  1
  O  O12  1  0.334144  0.337351  0.665950  1
  O  O13  1  0.387730  0.254254  0.072915  1
  O  O14  1  0.873519  0.355559  0.120946  1
  O  O15  1  0.126480  0.644441  0.879052  1
  O  O16  1  0.612269  0.745747  0.927085  1
  O  O17  1  0.665850  0.662650  0.334047  1
  O  O18  1  0.263824  0.782791  0.628674  1
  O  O19  1  0.179552  0.938666  0.268689  1
