# generated using pymatgen
data_VO2F
_symmetry_space_group_name_H-M   'P 1'
_cell_length_a   5.05350848
_cell_length_b   12.99684392
_cell_length_c   5.06155096
_cell_angle_alpha   87.85422681
_cell_angle_beta   117.89737773
_cell_angle_gamma   91.86717179
_symmetry_Int_Tables_number   1
_chemical_formula_structural   VO2F
_chemical_formula_sum   'V6 O12 F6'
_cell_volume   293.55827746
_cell_formula_units_Z   6
loop_
 _symmetry_equiv_pos_site_id
 _symmetry_equiv_pos_as_xyz
  1  'x, y, z'
loop_
 _atom_site_type_symbol
 _atom_site_label
 _atom_site_symmetry_multiplicity
 _atom_site_fract_x
 _atom_site_fract_y
 _atom_site_fract_z
 _atom_site_occupancy
  V  V0  1  0.927807  0.497712  0.959031  1
  V  V1  1  0.044367  0.998740  0.036768  1
  V  V2  1  0.666667  0.833333  0.333333  1
  V  V3  1  0.288966  0.667926  0.629899  1
  V  V4  1  0.666667  0.333333  0.333333  1
  V  V5  1  0.405527  0.168955  0.707635  1
  O  O6  1  0.005604  0.751175  0.408644  1
  O  O7  1  0.327730  0.915492  0.258023  1
  O  O8  1  0.596610  0.248961  0.007566  1
  O  O9  1  0.748179  0.914742  0.089061  1
  O  O10  1  0.097724  0.584220  0.750409  1
  O  O11  1  0.412638  0.252388  0.412506  1
  O  O12  1  0.585154  0.751925  0.577605  1
  O  O13  1  0.920695  0.414279  0.254161  1
  O  O14  1  0.235610  0.082447  0.916257  1
  O  O15  1  0.736724  0.417706  0.659100  1
  O  O16  1  0.662918  0.083811  0.749762  1
  O  O17  1  0.670415  0.582856  0.916905  1
  F  F18  1  0.404183  0.749241  0.000119  1
  F  F19  1  0.343484  0.417191  0.073049  1
  F  F20  1  0.067458  0.082836  0.339655  1
  F  F21  1  0.265876  0.583831  0.327011  1
  F  F22  1  0.989849  0.249476  0.593618  1
  F  F23  1  0.929150  0.917426  0.666548  1
