# generated using pymatgen
data_LiMnVP2(HO5)2
_symmetry_space_group_name_H-M   'P 1'
_cell_length_a   5.33892570
_cell_length_b   10.45463693
_cell_length_c   7.41128867
_cell_angle_alpha   110.39988763
_cell_angle_beta   111.86956257
_cell_angle_gamma   84.95893855
_symmetry_Int_Tables_number   1
_chemical_formula_structural   LiMnVP2(HO5)2
_chemical_formula_sum   'Li2 Mn2 V2 P4 H4 O20'
_cell_volume   359.40573375
_cell_formula_units_Z   2
loop_
 _symmetry_equiv_pos_site_id
 _symmetry_equiv_pos_as_xyz
  1  'x, y, z'
loop_
 _atom_site_type_symbol
 _atom_site_label
 _atom_site_symmetry_multiplicity
 _atom_site_fract_x
 _atom_site_fract_y
 _atom_site_fract_z
 _atom_site_occupancy
  Li  Li0  1  0.589789  0.032563  0.184640  1
  Li  Li1  1  0.410211  0.467437  0.315360  1
  Mn  Mn2  1  0.994526  0.997400  0.991545  1
  Mn  Mn3  1  0.005474  0.502600  0.508455  1
  V  V4  1  0.000000  0.750000  0.250000  1
  V  V5  1  0.000000  0.250000  0.750000  1
  P  P6  1  0.645911  0.275674  0.050939  1
  P  P7  1  0.646598  0.777185  0.545303  1
  P  P8  1  0.354089  0.224326  0.449061  1
  P  P9  1  0.353402  0.722815  0.954697  1
  H  H10  1  0.938633  0.496068  0.153608  1
  H  H11  1  0.966620  0.992741  0.652855  1
  H  H12  1  0.061367  0.003932  0.346392  1
  H  H13  1  0.033380  0.507259  0.847145  1
  O  O14  1  0.951559  0.935638  0.212722  1
  O  O15  1  0.656982  0.685718  0.043329  1
  O  O16  1  0.814978  0.834798  0.454089  1
  O  O17  1  0.973372  0.429246  0.714221  1
  O  O18  1  0.746771  0.359720  0.285522  1
  O  O19  1  0.753961  0.849006  0.780851  1
  O  O20  1  0.657909  0.622833  0.487360  1
  O  O21  1  0.342091  0.877167  0.012640  1
  O  O22  1  0.655044  0.183071  0.527065  1
  O  O23  1  0.810101  0.326245  0.950409  1
  O  O24  1  0.185022  0.665202  0.045911  1
  O  O25  1  0.343018  0.814282  0.456671  1
  O  O26  1  0.663925  0.123574  0.015251  1
  O  O27  1  0.336075  0.376426  0.484749  1
  O  O28  1  0.253229  0.140280  0.214478  1
  O  O29  1  0.246039  0.650994  0.719149  1
  O  O30  1  0.048441  0.564362  0.287278  1
  O  O31  1  0.189899  0.173755  0.549591  1
  O  O32  1  0.344956  0.316929  0.972935  1
  O  O33  1  0.026628  0.070754  0.785779  1
