# generated using pymatgen
data_Na11(WO3)13
_symmetry_space_group_name_H-M   'P 1'
_cell_length_a   14.30685155
_cell_length_b   6.85860280
_cell_length_c   8.92620073
_cell_angle_alpha   105.07989272
_cell_angle_beta   104.63707468
_cell_angle_gamma   80.77266697
_symmetry_Int_Tables_number   1
_chemical_formula_structural   Na11(WO3)13
_chemical_formula_sum   'Na11 W13 O39'
_cell_volume   814.06767093
_cell_formula_units_Z   1
loop_
 _symmetry_equiv_pos_site_id
 _symmetry_equiv_pos_as_xyz
  1  'x, y, z'
loop_
 _atom_site_type_symbol
 _atom_site_label
 _atom_site_symmetry_multiplicity
 _atom_site_fract_x
 _atom_site_fract_y
 _atom_site_fract_z
 _atom_site_occupancy
  Na  Na0  1  0.308110  0.076359  0.538723  1
  Na  Na1  1  0.923067  0.230998  0.616725  1
  Na  Na2  1  0.769231  0.692308  0.846154  1
  Na  Na3  1  0.385219  0.845204  0.922699  1
  Na  Na4  1  0.153243  0.539411  0.769609  1
  Na  Na5  1  0.846533  0.460495  0.230458  1
  Na  Na6  1  0.691928  0.924121  0.461849  1
  Na  Na7  1  0.615395  0.153617  0.075582  1
  Na  Na8  1  0.461111  0.615604  0.308700  1
  Na  Na9  1  0.230352  0.308257  0.153585  1
  Na  Na10  1  0.077351  0.769011  0.383607  1
  W  W11  1  0.152387  0.039720  0.770583  1
  W  W12  1  0.386075  0.344895  0.921725  1
  W  W13  1  0.769231  0.192308  0.846154  1
  W  W14  1  0.077431  0.268429  0.381139  1
  W  W15  1  0.461031  0.116186  0.311169  1
  W  W16  1  0.539032  0.885098  0.692566  1
  W  W17  1  0.923042  0.731848  0.619280  1
  W  W18  1  0.308495  0.579299  0.540580  1
  W  W19  1  0.690958  0.424169  0.463128  1
  W  W20  1  0.229966  0.805316  0.151727  1
  W  W21  1  0.847504  0.960446  0.229179  1
  W  W22  1  0.615420  0.652768  0.073027  1
  W  W23  1  0.999430  0.499517  -0.000259  1
  O  O24  1  0.269231  0.192308  0.846154  1
  O  O25  1  0.457055  0.120453  0.814683  1
  O  O26  1  0.660277  0.038189  0.771967  1
  O  O27  1  0.878185  0.346427  0.920341  1
  O  O28  1  0.691642  0.428726  0.970978  1
  O  O29  1  0.081407  0.264162  0.877625  1
  O  O30  1  0.499761  0.989620  0.494882  1
  O  O31  1  0.194547  0.925751  0.955167  1
  O  O32  1  0.116232  0.156033  0.582308  1
  O  O33  1  0.343914  0.458865  0.737140  1
  O  O34  1  0.577653  0.779042  0.889929  1
  O  O35  1  0.960808  0.605573  0.802378  1
  O  O36  1  0.733427  0.306232  0.647284  1
  O  O37  1  0.384630  0.338517  0.414137  1
  O  O38  1  0.000531  0.501026  0.499948  1
  O  O39  1  0.620643  0.647088  0.569824  1
  O  O40  1  0.807058  0.569668  0.535520  1
  O  O41  1  0.846820  0.955889  0.721330  1
  O  O42  1  0.041733  0.884772  0.689069  1
  O  O43  1  0.153832  0.046099  0.278171  1
  O  O44  1  0.957875  0.116750  0.310807  1
  O  O45  1  0.580586  0.267865  0.381500  1
  O  O46  1  0.228795  0.814875  0.656255  1
  O  O47  1  0.769231  0.192308  0.346154  1
  O  O48  1  0.195333  0.428283  0.465363  1
  O  O49  1  0.418503  0.729334  0.615098  1
  O  O50  1  0.038701  0.394996  0.197426  1
  O  O51  1  0.883633  0.848643  0.418974  1
  O  O52  1  0.269231  0.692308  0.346154  1
  O  O53  1  0.805034  0.078384  0.045023  1
  O  O54  1  0.422229  0.228582  0.110000  1
  O  O55  1  0.654829  0.535972  0.273334  1
  O  O56  1  0.309667  0.569740  0.036052  1
  O  O57  1  0.343129  0.956332  0.226945  1
  O  O58  1  0.537931  0.883590  0.192360  1
  O  O59  1  0.917819  0.737527  0.122484  1
  O  O60  1  0.119958  0.655282  0.077210  1
  O  O61  1  0.496729  0.499844  0.003239  1
  O  O62  1  0.731404  0.814948  0.156787  1
