# generated using pymatgen
data_Li6MnV3(PO4)6
_symmetry_space_group_name_H-M   'P 1'
_cell_length_a   9.04514154
_cell_length_b   8.48287034
_cell_length_c   8.48287015
_cell_angle_alpha   119.99999600
_cell_angle_beta   89.99999975
_cell_angle_gamma   62.03587328
_symmetry_Int_Tables_number   1
_chemical_formula_structural   Li6MnV3(PO4)6
_chemical_formula_sum   'Li6 Mn1 V3 P6 O24'
_cell_volume   473.89945372
_cell_formula_units_Z   1
loop_
 _symmetry_equiv_pos_site_id
 _symmetry_equiv_pos_as_xyz
  1  'x, y, z'
loop_
 _atom_site_type_symbol
 _atom_site_label
 _atom_site_symmetry_multiplicity
 _atom_site_fract_x
 _atom_site_fract_y
 _atom_site_fract_z
 _atom_site_occupancy
  Li  Li0  1  0.149315  0.189147  0.922086  1
  Li  Li1  1  0.149315  0.583624  0.661539  1
  Li  Li2  1  0.149315  0.928600  0.267061  1
  Li  Li3  1  0.851913  0.072307  0.741137  1
  Li  Li4  1  0.851913  0.406950  0.331170  1
  Li  Li5  1  0.851913  0.816917  0.075780  1
  Mn  Mn6  1  0.562347  0.291769  0.145884  1
  V  V7  1  0.045835  0.302777  0.651388  1
  V  V8  1  0.438396  0.707736  0.853868  1
  V  V9  1  0.953009  0.697993  0.348997  1
  P  P10  1  0.250531  0.207013  0.249159  1
  P  P11  1  0.250531  0.500310  0.957854  1
  P  P12  1  0.250531  0.791615  0.542456  1
  P  P13  1  0.750822  0.207910  0.462237  1
  P  P14  1  0.750822  0.503504  0.041267  1
  P  P15  1  0.750822  0.786941  0.745673  1
  O  O16  1  0.097481  0.363483  0.208507  1
  O  O17  1  0.189598  0.295848  0.463987  1
  O  O18  1  0.189598  0.346416  0.831861  1
  O  O19  1  0.097481  0.694012  0.154977  1
  O  O20  1  0.097481  0.747542  0.539035  1
  O  O21  1  0.419650  0.187263  0.201380  1
  O  O22  1  0.265190  0.613914  0.864240  1
  O  O23  1  0.419650  0.378970  0.985883  1
  O  O24  1  0.189598  0.978542  0.514556  1
  O  O25  1  0.265190  0.870570  0.749675  1
  O  O26  1  0.419650  0.594467  0.393087  1
  O  O27  1  0.265190  0.985135  0.120895  1
  O  O28  1  0.738534  0.001921  0.868079  1
  O  O29  1  0.579251  0.417813  0.617263  1
  O  O30  1  0.738534  0.127624  0.259544  1
  O  O31  1  0.805625  0.029089  0.499104  1
  O  O32  1  0.579251  0.620199  0.002937  1
  O  O33  1  0.738534  0.393387  0.133842  1
  O  O34  1  0.579251  0.803486  0.800549  1
  O  O35  1  0.902228  0.253513  0.467359  1
  O  O36  1  0.902228  0.311617  0.844259  1
  O  O37  1  0.805625  0.664390  0.165286  1
  O  O38  1  0.805625  0.695271  0.529985  1
  O  O39  1  0.902228  0.630414  0.786155  1
