# generated using pymatgen
data_CaB3H3O7
_symmetry_space_group_name_H-M   'P 1'
_cell_length_a   8.47569817
_cell_length_b   8.19654136
_cell_length_c   7.29772797
_cell_angle_alpha   90.00000000
_cell_angle_beta   97.98967451
_cell_angle_gamma   90.00000000
_symmetry_Int_Tables_number   1
_chemical_formula_structural   CaB3H3O7
_chemical_formula_sum   'Ca4 B12 H12 O28'
_cell_volume   502.06223570
_cell_formula_units_Z   4
loop_
 _symmetry_equiv_pos_site_id
 _symmetry_equiv_pos_as_xyz
  1  'x, y, z'
loop_
 _atom_site_type_symbol
 _atom_site_label
 _atom_site_symmetry_multiplicity
 _atom_site_fract_x
 _atom_site_fract_y
 _atom_site_fract_z
 _atom_site_occupancy
  Ca  Ca0  1  0.388011  0.293707  0.074057  1
  Ca  Ca1  1  0.111989  0.793707  0.925943  1
  Ca  Ca2  1  0.611989  0.706293  0.925943  1
  Ca  Ca3  1  0.888011  0.206293  0.074057  1
  B  B4  1  0.167218  0.460918  0.311958  1
  B  B5  1  0.332782  0.960918  0.688042  1
  B  B6  1  0.832782  0.539082  0.688042  1
  B  B7  1  0.667218  0.039082  0.311958  1
  B  B8  1  0.614419  0.353708  0.779764  1
  B  B9  1  0.885581  0.853708  0.220236  1
  B  B10  1  0.385581  0.646292  0.220236  1
  B  B11  1  0.114419  0.146292  0.779764  1
  B  B12  1  0.717825  0.308331  0.486533  1
  B  B13  1  0.782175  0.808331  0.513467  1
  B  B14  1  0.282175  0.691669  0.513467  1
  B  B15  1  0.217825  0.191669  0.486533  1
  H  H16  1  0.933340  0.449630  0.352018  1
  H  H17  1  0.566660  0.949630  0.647982  1
  H  H18  1  0.066660  0.550370  0.647982  1
  H  H19  1  0.433340  0.050370  0.352018  1
  H  H20  1  0.388754  0.457226  0.687446  1
  H  H21  1  0.111246  0.957226  0.312554  1
  H  H22  1  0.611246  0.542774  0.312554  1
  H  H23  1  0.888754  0.042774  0.687446  1
  H  H24  1  0.080691  0.383513  0.866346  1
  H  H25  1  0.419309  0.883513  0.133654  1
  H  H26  1  0.919309  0.616487  0.133654  1
  H  H27  1  0.580691  0.116487  0.866346  1
  O  O28  1  0.119746  0.276448  0.923711  1
  O  O29  1  0.380254  0.776448  0.076289  1
  O  O30  1  0.880254  0.723552  0.076289  1
  O  O31  1  0.619746  0.223552  0.923711  1
  O  O32  1  0.754580  0.457487  0.831065  1
  O  O33  1  0.745420  0.957487  0.168935  1
  O  O34  1  0.245420  0.542513  0.168935  1
  O  O35  1  0.254580  0.042513  0.831065  1
  O  O36  1  0.239765  0.293759  0.342020  1
  O  O37  1  0.260235  0.793759  0.657980  1
  O  O38  1  0.760235  0.706241  0.657980  1
  O  O39  1  0.739765  0.206241  0.342020  1
  O  O40  1  0.994753  0.444744  0.244185  1
  O  O41  1  0.505247  0.944744  0.755815  1
  O  O42  1  0.005247  0.555256  0.755815  1
  O  O43  1  0.494753  0.055256  0.244185  1
  O  O44  1  0.466092  0.455297  0.799432  1
  O  O45  1  0.033908  0.955297  0.200568  1
  O  O46  1  0.533908  0.544703  0.200568  1
  O  O47  1  0.966092  0.044703  0.799432  1
  O  O48  1  0.605472  0.279022  0.599075  1
  O  O49  1  0.894528  0.779022  0.400925  1
  O  O50  1  0.394528  0.720978  0.400925  1
  O  O51  1  0.105472  0.220978  0.599075  1
  O  O52  1  0.809867  0.448273  0.509344  1
  O  O53  1  0.690133  0.948273  0.490656  1
  O  O54  1  0.190133  0.551727  0.490656  1
  O  O55  1  0.309867  0.051727  0.509344  1
