# generated using pymatgen
data_NaVO3
_symmetry_space_group_name_H-M   'P 1'
_cell_length_a   7.82315742
_cell_length_b   7.82315742
_cell_length_c   6.22867278
_cell_angle_alpha   66.41703421
_cell_angle_beta   113.58296579
_cell_angle_gamma   106.92152252
_symmetry_Int_Tables_number   1
_chemical_formula_structural   NaVO3
_chemical_formula_sum   'Na4 V4 O12'
_cell_volume   316.27137963
_cell_formula_units_Z   4
loop_
 _symmetry_equiv_pos_site_id
 _symmetry_equiv_pos_as_xyz
  1  'x, y, z'
loop_
 _atom_site_type_symbol
 _atom_site_label
 _atom_site_symmetry_multiplicity
 _atom_site_fract_x
 _atom_site_fract_y
 _atom_site_fract_z
 _atom_site_occupancy
  Na  Na0  1  0.696970  0.716771  0.742198  1
  Na  Na1  1  0.282850  0.300029  0.742456  1
  Na  Na2  1  0.283229  0.303030  0.242198  1
  Na  Na3  1  0.699971  0.717150  0.242456  1
  V  V4  1  0.126338  0.703927  0.712674  1
  V  V5  1  0.296073  0.873662  0.212674  1
  V  V6  1  0.685999  0.145358  0.772760  1
  V  V7  1  0.854642  0.314001  0.272760  1
  O  O8  1  0.163366  0.842940  0.909231  1
  O  O9  1  0.157060  0.836634  0.409231  1
  O  O10  1  0.590960  0.916211  0.836130  1
  O  O11  1  0.257474  0.528850  0.865170  1
  O  O12  1  0.083789  0.409040  0.336130  1
  O  O13  1  0.471150  0.742526  0.365170  1
  O  O14  1  0.512316  0.278282  0.618449  1
  O  O15  1  0.896727  0.610617  0.648610  1
  O  O16  1  0.721718  0.487683  0.118449  1
  O  O17  1  0.389383  0.103273  0.148610  1
  O  O18  1  0.825505  0.181521  0.577323  1
  O  O19  1  0.818479  0.174495  0.077323  1
