# generated using pymatgen
data_NaCa3UH16C3SO25F
_symmetry_space_group_name_H-M   'P 1'
_cell_length_a   9.67879597
_cell_length_b   9.64824094
_cell_length_c   14.26183274
_cell_angle_alpha   92.07676840
_cell_angle_beta   91.43724308
_cell_angle_gamma   120.14367159
_symmetry_Int_Tables_number   1
_chemical_formula_structural   NaCa3UH16C3SO25F
_chemical_formula_sum   'Na2 Ca6 U2 H32 C6 S2 O50 F2'
_cell_volume   1149.51388725
_cell_formula_units_Z   2
loop_
 _symmetry_equiv_pos_site_id
 _symmetry_equiv_pos_as_xyz
  1  'x, y, z'
loop_
 _atom_site_type_symbol
 _atom_site_label
 _atom_site_symmetry_multiplicity
 _atom_site_fract_x
 _atom_site_fract_y
 _atom_site_fract_z
 _atom_site_occupancy
  Na  Na0  1  0.019028  0.019428  0.712532  1
  Na  Na1  1  0.980972  0.980572  0.287468  1
  Ca  Ca2  1  0.337779  0.449440  0.769050  1
  Ca  Ca3  1  0.662221  0.550560  0.230950  1
  Ca  Ca4  1  0.144651  0.717989  0.773018  1
  Ca  Ca5  1  0.855349  0.282011  0.226982  1
  Ca  Ca6  1  0.603094  0.909660  0.781142  1
  Ca  Ca7  1  0.396906  0.090340  0.218858  1
  U  U8  1  0.699746  0.363929  0.818321  1
  U  U9  1  0.300254  0.636071  0.181679  1
  H  H10  1  0.249544  0.300018  0.566650  1
  H  H11  1  0.750456  0.699982  0.433350  1
  H  H12  1  0.307773  0.195598  0.612138  1
  H  H13  1  0.692227  0.804402  0.387862  1
  H  H14  1  0.056926  0.760186  0.566946  1
  H  H15  1  0.943074  0.239814  0.433054  1
  H  H16  1  0.897931  0.705188  0.613230  1
  H  H17  1  0.102069  0.294812  0.386770  1
  H  H18  1  0.714638  0.953497  0.572082  1
  H  H19  1  0.285362  0.046503  0.427918  1
  H  H20  1  0.821825  0.122512  0.616359  1
  H  H21  1  0.178175  0.877488  0.383641  1
  H  H22  1  0.196536  0.718811  0.984472  1
  H  H23  1  0.803464  0.281189  0.015528  1
  H  H24  1  0.073528  0.780021  0.967682  1
  H  H25  1  0.926472  0.219979  0.032318  1
  H  H26  1  0.529422  0.838214  0.980975  1
  H  H27  1  0.470578  0.161786  0.019025  1
  H  H28  1  0.682935  0.013741  0.996065  1
  H  H29  1  0.317065  0.986259  0.003935  1
  H  H30  1  0.369341  0.363955  0.412770  1
  H  H31  1  0.630659  0.636045  0.587230  1
  H  H32  1  0.321160  0.488410  0.454553  1
  H  H33  1  0.678840  0.511590  0.545447  1
  H  H34  1  0.986391  0.612667  0.412910  1
  H  H35  1  0.013609  0.387333  0.587090  1
  H  H36  1  0.164209  0.673224  0.452090  1
  H  H37  1  0.835791  0.326776  0.547910  1
  H  H38  1  0.622347  0.998959  0.412519  1
  H  H39  1  0.377653  0.001041  0.587481  1
  H  H40  1  0.508484  0.830479  0.455170  1
  H  H41  1  0.491516  0.169521  0.544830  1
  C  C42  1  0.958180  0.294810  0.809464  1
  C  C43  1  0.041820  0.705190  0.190536  1
  C  C44  1  0.370287  0.105920  0.801837  1
  C  C45  1  0.629713  0.894080  0.198163  1
  C  C46  1  0.766769  0.688925  0.805984  1
  C  C47  1  0.233231  0.311075  0.194016  1
  S  S48  1  0.346308  0.677771  0.611321  1
  S  S49  1  0.653692  0.322229  0.388679  1
  O  O50  1  0.712635  0.369807  0.948619  1
  O  O51  1  0.287365  0.630193  0.051381  1
  O  O52  1  0.688730  0.353081  0.690686  1
  O  O53  1  0.311270  0.646919  0.309314  1
  O  O54  1  0.982089  0.441648  0.813354  1
  O  O55  1  0.017911  0.558352  0.186646  1
  O  O56  1  0.807716  0.183451  0.814864  1
  O  O57  1  0.192284  0.816549  0.185136  1
  O  O58  1  0.069484  0.263035  0.801159  1
  O  O59  1  0.930516  0.736965  0.198841  1
  O  O60  1  0.491654  0.081884  0.810784  1
  O  O61  1  0.508346  0.918116  0.189216  1
  O  O62  1  0.411244  0.258243  0.812662  1
  O  O63  1  0.588756  0.741757  0.187338  1
  O  O64  1  0.228151  0.995001  0.783434  1
  O  O65  1  0.771849  0.004999  0.216566  1
  O  O66  1  0.620917  0.566755  0.810244  1
  O  O67  1  0.379083  0.433245  0.189756  1
  O  O68  1  0.878668  0.650545  0.816191  1
  O  O69  1  0.121332  0.349455  0.183809  1
  O  O70  1  0.797512  0.829723  0.792090  1
  O  O71  1  0.202488  0.170277  0.207910  1
  O  O72  1  0.370408  0.835134  0.649995  1
  O  O73  1  0.629592  0.164866  0.350005  1
  O  O74  1  0.482204  0.658856  0.647864  1
  O  O75  1  0.517796  0.341144  0.352136  1
  O  O76  1  0.194640  0.545972  0.647821  1
  O  O77  1  0.805360  0.454028  0.352179  1
  O  O78  1  0.337784  0.670021  0.507208  1
  O  O79  1  0.662216  0.329979  0.492792  1
  O  O80  1  0.255651  0.260176  0.628433  1
  O  O81  1  0.744349  0.739824  0.371567  1
  O  O82  1  0.015177  0.761342  0.629393  1
  O  O83  1  0.984823  0.238658  0.370607  1
  O  O84  1  0.765368  0.008290  0.633617  1
  O  O85  1  0.234632  0.991710  0.366383  1
  O  O86  1  0.355803  0.427985  0.950570  1
  O  O87  1  0.644197  0.572015  0.049430  1
  O  O88  1  0.172987  0.789250  0.946914  1
  O  O89  1  0.827013  0.210750  0.053086  1
  O  O90  1  0.618636  0.923003  0.949598  1
  O  O91  1  0.381364  0.076997  0.050402  1
  O  O92  1  0.285062  0.372619  0.445774  1
  O  O93  1  0.714938  0.627381  0.554226  1
  O  O94  1  0.082427  0.705129  0.444367  1
  O  O95  1  0.917573  0.294871  0.555633  1
  O  O96  1  0.621599  0.910340  0.445640  1
  O  O97  1  0.378401  0.089660  0.554360  1
  O  O98  1  0.028974  0.070576  0.990655  1
  O  O99  1  0.971026  0.929424  0.009345  1
  F  F100  1  0.361488  0.690473  0.822462  1
  F  F101  1  0.638512  0.309527  0.177538  1
