# generated using pymatgen
data_Li4Mn3Fe(BO3)4
_symmetry_space_group_name_H-M   'P 1'
_cell_length_a   5.24788884
_cell_length_b   5.25102502
_cell_length_c   20.87713517
_cell_angle_alpha   89.22677696
_cell_angle_beta   90.88309845
_cell_angle_gamma   60.15640444
_symmetry_Int_Tables_number   1
_chemical_formula_structural   Li4Mn3Fe(BO3)4
_chemical_formula_sum   'Li8 Mn6 Fe2 B8 O24'
_cell_volume   498.80593905
_cell_formula_units_Z   2
loop_
 _symmetry_equiv_pos_site_id
 _symmetry_equiv_pos_as_xyz
  1  'x, y, z'
loop_
 _atom_site_type_symbol
 _atom_site_label
 _atom_site_symmetry_multiplicity
 _atom_site_fract_x
 _atom_site_fract_y
 _atom_site_fract_z
 _atom_site_occupancy
  Li  Li0  1  0.321263  0.651640  0.666208  1
  Li  Li1  1  0.347235  0.678729  0.916444  1
  Li  Li2  1  0.321341  0.650801  0.166194  1
  Li  Li3  1  0.348331  0.677651  0.416060  1
  Li  Li4  1  0.652287  0.334912  0.791208  1
  Li  Li5  1  0.662246  0.346117  0.541765  1
  Li  Li6  1  0.651188  0.337815  0.291542  1
  Li  Li7  1  0.662132  0.347608  0.041084  1
  Mn  Mn8  1  0.331353  0.003600  0.557406  1
  Mn  Mn9  1  0.329545  0.003131  0.058115  1
  Mn  Mn10  1  0.679519  0.000323  0.932348  1
  Mn  Mn11  1  0.998144  0.325619  0.684258  1
  Mn  Mn12  1  0.996890  0.323452  0.183701  1
  Mn  Mn13  1  0.993565  0.674314  0.309198  1
  Fe  Fe14  1  0.682429  0.004722  0.433687  1
  Fe  Fe15  1  0.999800  0.675654  0.808519  1
  B  B16  1  0.003378  0.340419  0.936222  1
  B  B17  1  0.003160  0.338346  0.436881  1
  B  B18  1  0.330279  0.005977  0.811752  1
  B  B19  1  0.333310  0.006145  0.313103  1
  B  B20  1  0.659253  0.997987  0.687877  1
  B  B21  1  0.658281  0.997523  0.187220  1
  B  B22  1  0.996680  0.665421  0.561449  1
  B  B23  1  0.995563  0.665585  0.061992  1
  O  O24  1  0.068149  0.255224  0.793080  1
  O  O25  1  0.069968  0.249237  0.291840  1
  O  O26  1  0.254422  0.069966  0.951383  1
  O  O27  1  0.033467  0.577860  0.915830  1
  O  O28  1  0.258615  0.070743  0.450287  1
  O  O29  1  0.021387  0.584761  0.418393  1
  O  O30  1  0.582366  0.025432  0.825769  1
  O  O31  1  0.269393  0.642702  0.569035  1
  O  O32  1  0.576985  0.038214  0.328423  1
  O  O33  1  0.268896  0.641592  0.069206  1
  O  O34  1  0.346901  0.734267  0.817835  1
  O  O35  1  0.356905  0.732887  0.319947  1
  O  O36  1  0.631104  0.272560  0.694639  1
  O  O37  1  0.629205  0.272169  0.194545  1
  O  O38  1  0.728599  0.369189  0.943501  1
  O  O39  1  0.421584  0.968174  0.667077  1
  O  O40  1  0.730147  0.358295  0.443771  1
  O  O41  1  0.420796  0.966967  0.166626  1
  O  O42  1  0.964315  0.422182  0.576813  1
  O  O43  1  0.962713  0.422395  0.077182  1
  O  O44  1  0.753875  0.928784  0.540448  1
  O  O45  1  0.752833  0.929651  0.040931  1
  O  O46  1  0.929633  0.747478  0.703160  1
  O  O47  1  0.929372  0.746979  0.202246  1
