# generated using pymatgen
data_Li2BiAsCO7
_symmetry_space_group_name_H-M   'P 1'
_cell_length_a   9.34412839
_cell_length_b   7.17260209
_cell_length_c   5.13904516
_cell_angle_alpha   90.00000000
_cell_angle_beta   90.29749888
_cell_angle_gamma   90.00000000
_symmetry_Int_Tables_number   1
_chemical_formula_structural   Li2BiAsCO7
_chemical_formula_sum   'Li4 Bi2 As2 C2 O14'
_cell_volume   344.42297590
_cell_formula_units_Z   2
loop_
 _symmetry_equiv_pos_site_id
 _symmetry_equiv_pos_as_xyz
  1  'x, y, z'
loop_
 _atom_site_type_symbol
 _atom_site_label
 _atom_site_symmetry_multiplicity
 _atom_site_fract_x
 _atom_site_fract_y
 _atom_site_fract_z
 _atom_site_occupancy
  Li  Li0  1  0.210072  0.056957  0.213454  1
  Li  Li1  1  0.210072  0.443043  0.213454  1
  Li  Li2  1  0.789928  0.556957  0.786546  1
  Li  Li3  1  0.789928  0.943043  0.786546  1
  Bi  Bi4  1  0.360048  0.750000  0.778611  1
  Bi  Bi5  1  0.639952  0.250000  0.221389  1
  As  As6  1  0.386764  0.250000  0.727672  1
  As  As7  1  0.613236  0.750000  0.272328  1
  C  C8  1  0.069021  0.750000  0.743886  1
  C  C9  1  0.930979  0.250000  0.256114  1
  O  O10  1  0.067308  0.250000  0.261457  1
  O  O11  1  0.140180  0.750000  0.967779  1
  O  O12  1  0.146639  0.750000  0.532280  1
  O  O13  1  0.311979  0.059410  0.879073  1
  O  O14  1  0.311979  0.440590  0.879073  1
  O  O15  1  0.428101  0.750000  0.227350  1
  O  O16  1  0.358528  0.250000  0.399079  1
  O  O17  1  0.641472  0.750000  0.600921  1
  O  O18  1  0.571899  0.250000  0.772650  1
  O  O19  1  0.688021  0.559410  0.120927  1
  O  O20  1  0.688021  0.940590  0.120927  1
  O  O21  1  0.853361  0.250000  0.467720  1
  O  O22  1  0.859820  0.250000  0.032221  1
  O  O23  1  0.932692  0.750000  0.738543  1
