# generated using pymatgen
data_Li8NiO5F
_symmetry_space_group_name_H-M   'P 1'
_cell_length_a   5.51428803
_cell_length_b   5.51433046
_cell_length_c   10.85088244
_cell_angle_alpha   89.99952544
_cell_angle_beta   90.00046215
_cell_angle_gamma   119.99923242
_symmetry_Int_Tables_number   1
_chemical_formula_structural   Li8NiO5F
_chemical_formula_sum   'Li16 Ni2 O10 F2'
_cell_volume   285.74674030
_cell_formula_units_Z   2
loop_
 _symmetry_equiv_pos_site_id
 _symmetry_equiv_pos_as_xyz
  1  'x, y, z'
loop_
 _atom_site_type_symbol
 _atom_site_label
 _atom_site_symmetry_multiplicity
 _atom_site_fract_x
 _atom_site_fract_y
 _atom_site_fract_z
 _atom_site_occupancy
  Li  Li0  1  0.976467  0.687869  0.772484  1
  Li  Li1  1  0.018712  0.638027  0.121050  1
  Li  Li2  1  0.981328  0.361897  0.620998  1
  Li  Li3  1  0.023478  0.312084  0.272541  1
  Li  Li4  1  0.333331  0.666685  0.414784  1
  Li  Li5  1  0.333305  0.666644  0.926232  1
  Li  Li6  1  0.312114  0.288596  0.772478  1
  Li  Li7  1  0.361969  0.380705  0.121044  1
  Li  Li8  1  0.638103  0.619428  0.620998  1
  Li  Li9  1  0.288596  0.976538  0.272539  1
  Li  Li10  1  0.687925  0.711407  0.272538  1
  Li  Li11  1  0.380560  0.018672  0.620995  1
  Li  Li12  1  0.666649  0.333318  0.914847  1
  Li  Li13  1  0.666666  0.333355  0.426229  1
  Li  Li14  1  0.619297  0.981280  0.121042  1
  Li  Li15  1  0.711401  0.023520  0.772482  1
  Ni  Ni16  1  0.000008  -0.000010  0.988608  1
  Ni  Ni17  1  -0.000010  0.000003  0.488554  1
  O  O18  1  0.001620  0.680080  0.947758  1
  O  O19  1  0.998364  0.319916  0.447726  1
  O  O20  1  0.333331  0.666678  0.212845  1
  O  O21  1  0.999994  0.999991  0.671075  1
  O  O22  1  0.999995  0.000012  0.171078  1
  O  O23  1  0.319896  0.321539  0.947750  1
  O  O24  1  0.321537  0.001653  0.447723  1
  O  O25  1  0.680075  0.678463  0.447724  1
  O  O26  1  0.666659  0.333325  0.712819  1
  O  O27  1  0.678454  0.998338  0.947757  1
  F  F28  1  0.333302  0.666620  0.708207  1
  F  F29  1  0.666671  0.333367  0.208359  1
