# generated using pymatgen
data_Sn2N2O
_symmetry_space_group_name_H-M   'P 1'
_cell_length_a   8.86847893
_cell_length_b   8.82317678
_cell_length_c   8.87474883
_cell_angle_alpha   109.42593965
_cell_angle_beta   109.48463393
_cell_angle_gamma   109.47578687
_symmetry_Int_Tables_number   1
_chemical_formula_structural   Sn2N2O
_chemical_formula_sum   'Sn16 N16 O8'
_cell_volume   534.75449469
_cell_formula_units_Z   8
loop_
 _symmetry_equiv_pos_site_id
 _symmetry_equiv_pos_as_xyz
  1  'x, y, z'
loop_
 _atom_site_type_symbol
 _atom_site_label
 _atom_site_symmetry_multiplicity
 _atom_site_fract_x
 _atom_site_fract_y
 _atom_site_fract_z
 _atom_site_occupancy
  Sn  Sn0  1  0.966617  0.250327  0.214869  1
  Sn  Sn1  1  0.505725  0.999028  0.998940  1
  Sn  Sn2  1  0.791461  0.026033  0.759658  1
  Sn  Sn3  1  0.710670  0.460628  0.240082  1
  Sn  Sn4  1  0.755027  0.286192  0.531495  1
  Sn  Sn5  1  0.742159  0.774247  0.028342  1
  Sn  Sn6  1  0.011745  0.505840  0.998359  1
  Sn  Sn7  1  0.496324  0.506223  0.506321  1
  Sn  Sn8  1  0.458247  0.251133  0.720642  1
  Sn  Sn9  1  0.006080  0.990727  0.504882  1
  Sn  Sn10  1  0.535088  0.752546  0.283844  1
  Sn  Sn11  1  0.266149  0.726220  0.475935  1
  Sn  Sn12  1  0.243319  0.217998  0.956025  1
  Sn  Sn13  1  0.278143  0.532796  0.745884  1
  Sn  Sn14  1  0.216591  0.954916  0.250663  1
  Sn  Sn15  1  0.034753  0.750210  0.786573  1
  N  N16  1  0.739096  0.238934  0.277782  1
  N  N17  1  0.770044  0.726626  0.273231  1
  N  N18  1  0.041412  0.275750  0.001561  1
  N  N19  1  0.494092  0.765271  0.040426  1
  N  N20  1  0.274383  0.729102  0.230071  1
  N  N21  1  0.222243  0.456397  0.452298  1
  N  N22  1  0.997520  0.951753  0.733057  1
  N  N23  1  0.500560  0.235197  0.964117  1
  N  N24  1  0.540713  0.528903  0.765041  1
  N  N25  1  0.959419  0.734786  0.000475  1
  N  N26  1  0.549240  0.777011  0.543476  1
  N  N27  1  0.216643  0.269824  0.726800  1
  N  N28  1  0.025140  0.492197  0.755983  1
  N  N29  1  0.736940  0.995183  0.965060  1
  N  N30  1  0.241925  0.967937  0.504850  1
  N  N31  1  0.266985  0.776532  0.731689  1
  O  O32  1  0.771087  0.044940  0.497696  1
  O  O33  1  0.278120  0.014902  0.059365  1
  O  O34  1  0.952653  0.505595  0.220707  1
  O  O35  1  0.468335  0.226222  0.446625  1
  O  O36  1  0.450028  0.452203  0.230917  1
  O  O37  1  0.715130  0.255919  0.758425  1
  O  O38  1  0.010193  0.048711  0.282610  1
  O  O39  1  0.759995  0.545044  0.535225  1
