# generated using pymatgen
data_Li3Cr3CoO8
_symmetry_space_group_name_H-M   'P 1'
_cell_length_a   5.09022046
_cell_length_b   5.86035060
_cell_length_c   10.56391007
_cell_angle_alpha   73.79443167
_cell_angle_beta   76.30558757
_cell_angle_gamma   73.42769906
_symmetry_Int_Tables_number   1
_chemical_formula_structural   Li3Cr3CoO8
_chemical_formula_sum   'Li6 Cr6 Co2 O16'
_cell_volume   285.77672005
_cell_formula_units_Z   2
loop_
 _symmetry_equiv_pos_site_id
 _symmetry_equiv_pos_as_xyz
  1  'x, y, z'
loop_
 _atom_site_type_symbol
 _atom_site_label
 _atom_site_symmetry_multiplicity
 _atom_site_fract_x
 _atom_site_fract_y
 _atom_site_fract_z
 _atom_site_occupancy
  Li  Li0  1  -0.000021  0.128559  0.250014  1
  Li  Li1  1  0.001902  0.257795  0.497070  1
  Li  Li2  1  0.001311  0.620500  0.251535  1
  Li  Li3  1  0.005900  0.863917  0.747335  1
  Li  Li4  1  0.996351  0.998690  0.000711  1
  Li  Li5  1  0.996746  0.384842  0.753815  1
  Cr  Cr6  1  0.499968  0.314973  0.126192  1
  Cr  Cr7  1  0.508401  0.061568  0.622456  1
  Cr  Cr8  1  0.501186  0.934705  0.374098  1
  Cr  Cr9  1  0.504422  0.562161  0.621376  1
  Cr  Cr10  1  0.490283  0.190115  0.877154  1
  Cr  Cr11  1  0.496858  0.686282  0.877934  1
  Co  Co12  1  0.491587  0.440384  0.374209  1
  Co  Co13  1  0.506930  0.809528  0.125847  1
  O  O14  1  0.284674  0.128544  0.067598  1
  O  O15  1  0.272539  0.276792  0.311802  1
  O  O16  1  0.286727  0.661289  0.067127  1
  O  O17  1  0.272733  0.027891  0.805708  1
  O  O18  1  0.288631  0.385729  0.560164  1
  O  O19  1  0.290549  0.772182  0.299716  1
  O  O20  1  0.289082  0.906650  0.561634  1
  O  O21  1  0.277689  0.529440  0.804322  1
  O  O22  1  0.708592  0.483098  0.196647  1
  O  O23  1  0.713285  0.114332  0.437797  1
  O  O24  1  0.713504  0.591221  0.434057  1
  O  O25  1  0.725643  0.969359  0.187073  1
  O  O26  1  0.728809  0.218932  0.688741  1
  O  O27  1  0.719527  0.729723  0.692015  1
  O  O28  1  0.715644  0.346370  0.939513  1
  O  O29  1  0.710521  0.854427  0.946335  1
