# generated using pymatgen
data_CaH6C2(NO)4
_symmetry_space_group_name_H-M   'P 1'
_cell_length_a   9.84565804
_cell_length_b   9.63561619
_cell_length_c   9.43086408
_cell_angle_alpha   90.00000000
_cell_angle_beta   128.56693839
_cell_angle_gamma   90.00000000
_symmetry_Int_Tables_number   1
_chemical_formula_structural   CaH6C2(NO)4
_chemical_formula_sum   'Ca4 H24 C8 N16 O16'
_cell_volume   699.54558590
_cell_formula_units_Z   4
loop_
 _symmetry_equiv_pos_site_id
 _symmetry_equiv_pos_as_xyz
  1  'x, y, z'
loop_
 _atom_site_type_symbol
 _atom_site_label
 _atom_site_symmetry_multiplicity
 _atom_site_fract_x
 _atom_site_fract_y
 _atom_site_fract_z
 _atom_site_occupancy
  Ca  Ca0  1  0.200747  0.024992  0.015031  1
  Ca  Ca1  1  0.799253  0.524992  0.484969  1
  Ca  Ca2  1  0.799253  0.975008  0.984969  1
  Ca  Ca3  1  0.200747  0.475008  0.515031  1
  H  H4  1  0.447372  0.753638  0.473103  1
  H  H5  1  0.552628  0.253638  0.026897  1
  H  H6  1  0.552628  0.246362  0.526897  1
  H  H7  1  0.447372  0.746362  0.973103  1
  H  H8  1  0.197652  0.879248  0.300613  1
  H  H9  1  0.802348  0.379248  0.199387  1
  H  H10  1  0.802348  0.120752  0.699387  1
  H  H11  1  0.197652  0.620752  0.800613  1
  H  H12  1  0.350056  0.000413  0.411385  1
  H  H13  1  0.649944  0.500413  0.088615  1
  H  H14  1  0.649944  0.999587  0.588615  1
  H  H15  1  0.350056  0.499587  0.911385  1
  H  H16  1  0.139121  0.165861  0.537424  1
  H  H17  1  0.860879  0.665861  0.962576  1
  H  H18  1  0.860879  0.834139  0.462576  1
  H  H19  1  0.139121  0.334139  0.037424  1
  H  H20  1  0.350792  0.046410  0.817691  1
  H  H21  1  0.649208  0.546410  0.682309  1
  H  H22  1  0.649208  0.953590  0.182309  1
  H  H23  1  0.350792  0.453590  0.317691  1
  H  H24  1  0.185539  0.940951  0.676733  1
  H  H25  1  0.814461  0.440951  0.823267  1
  H  H26  1  0.814461  0.059049  0.323267  1
  H  H27  1  0.185539  0.559049  0.176733  1
  C  C28  1  0.464967  0.773257  0.265760  1
  C  C29  1  0.535033  0.273257  0.234240  1
  C  C30  1  0.535033  0.226743  0.734240  1
  C  C31  1  0.464967  0.726743  0.765760  1
  C  C32  1  0.069931  0.245750  0.686607  1
  C  C33  1  0.930069  0.745750  0.813393  1
  C  C34  1  0.930069  0.754250  0.313393  1
  C  C35  1  0.069931  0.254250  0.186607  1
  N  N36  1  0.431440  0.821738  0.379718  1
  N  N37  1  0.568560  0.321738  0.120282  1
  N  N38  1  0.568560  0.178262  0.620282  1
  N  N39  1  0.431440  0.678262  0.879718  1
  N  N40  1  0.301091  0.923864  0.315693  1
  N  N41  1  0.698909  0.423864  0.184307  1
  N  N42  1  0.698909  0.076136  0.684307  1
  N  N43  1  0.301091  0.576136  0.815693  1
  N  N44  1  0.124049  0.140832  0.632341  1
  N  N45  1  0.875951  0.640832  0.867659  1
  N  N46  1  0.875951  0.859168  0.367659  1
  N  N47  1  0.124049  0.359168  0.132341  1
  N  N48  1  0.220738  0.029240  0.752148  1
  N  N49  1  0.779262  0.529240  0.747852  1
  N  N50  1  0.779262  0.970760  0.247852  1
  N  N51  1  0.220738  0.470760  0.252148  1
  O  O52  1  0.404821  0.840151  0.119360  1
  O  O53  1  0.595179  0.340151  0.380640  1
  O  O54  1  0.595179  0.159849  0.880640  1
  O  O55  1  0.404821  0.659849  0.619360  1
  O  O56  1  0.559470  0.665017  0.319186  1
  O  O57  1  0.440530  0.165017  0.180814  1
  O  O58  1  0.440530  0.334983  0.680814  1
  O  O59  1  0.559470  0.834983  0.819186  1
  O  O60  1  0.057414  0.220889  0.810771  1
  O  O61  1  0.942586  0.720889  0.689229  1
  O  O62  1  0.942586  0.779111  0.189229  1
  O  O63  1  0.057414  0.279111  0.310771  1
  O  O64  1  0.031664  0.361771  0.601608  1
  O  O65  1  0.968336  0.861771  0.898392  1
  O  O66  1  0.968336  0.638229  0.398392  1
  O  O67  1  0.031664  0.138229  0.101608  1
