# generated using pymatgen
data_Co3OF5
_symmetry_space_group_name_H-M   'P 1'
_cell_length_a   10.28903677
_cell_length_b   6.72647251
_cell_length_c   3.12439634
_cell_angle_alpha   90.00000000
_cell_angle_beta   90.00000000
_cell_angle_gamma   70.95546204
_symmetry_Int_Tables_number   1
_chemical_formula_structural   Co3OF5
_chemical_formula_sum   'Co6 O2 F10'
_cell_volume   204.40046907
_cell_formula_units_Z   2
loop_
 _symmetry_equiv_pos_site_id
 _symmetry_equiv_pos_as_xyz
  1  'x, y, z'
loop_
 _atom_site_type_symbol
 _atom_site_label
 _atom_site_symmetry_multiplicity
 _atom_site_fract_x
 _atom_site_fract_y
 _atom_site_fract_z
 _atom_site_occupancy
  Co  Co0  1  0.000000  0.000000  0.000000  1
  Co  Co1  1  0.000000  0.500000  0.500000  1
  Co  Co2  1  0.304487  0.347614  0.000000  1
  Co  Co3  1  0.656346  0.171900  0.500000  1
  Co  Co4  1  0.343654  0.828100  0.500000  1
  Co  Co5  1  0.695513  0.652386  0.000000  1
  O  O6  1  0.185856  0.406748  0.500000  1
  O  O7  1  0.814144  0.593252  0.500000  1
  F  F8  1  0.999809  0.305878  0.000000  1
  F  F9  1  0.000191  0.694123  0.000000  1
  F  F10  1  0.335735  0.029569  0.000000  1
  F  F11  1  0.446918  0.276890  0.500000  1
  F  F12  1  0.133499  0.933546  0.500000  1
  F  F13  1  0.335094  0.634911  0.000000  1
  F  F14  1  0.664906  0.365089  0.000000  1
  F  F15  1  0.866501  0.066454  0.500000  1
  F  F16  1  0.553082  0.723110  0.500000  1
  F  F17  1  0.664265  0.970431  0.000000  1
