# generated using pymatgen
data_Mn6O7F5
_symmetry_space_group_name_H-M   'P 1'
_cell_length_a   4.55933409
_cell_length_b   5.63795432
_cell_length_c   15.33124142
_cell_angle_alpha   89.78975146
_cell_angle_beta   89.74227896
_cell_angle_gamma   89.86082526
_symmetry_Int_Tables_number   1
_chemical_formula_structural   Mn6O7F5
_chemical_formula_sum   'Mn12 O14 F10'
_cell_volume   394.08663819
_cell_formula_units_Z   2
loop_
 _symmetry_equiv_pos_site_id
 _symmetry_equiv_pos_as_xyz
  1  'x, y, z'
loop_
 _atom_site_type_symbol
 _atom_site_label
 _atom_site_symmetry_multiplicity
 _atom_site_fract_x
 _atom_site_fract_y
 _atom_site_fract_z
 _atom_site_occupancy
  Mn  Mn0  1  0.029918  0.159618  0.410086  1
  Mn  Mn1  1  0.001772  0.843961  0.242572  1
  Mn  Mn2  1  0.002537  0.152388  0.076257  1
  Mn  Mn3  1  0.017280  0.166393  0.745415  1
  Mn  Mn4  1  0.001771  0.850929  0.575956  1
  Mn  Mn5  1  0.054751  0.851801  0.911943  1
  Mn  Mn6  1  0.495365  0.346002  0.586360  1
  Mn  Mn7  1  0.490321  0.356261  0.924990  1
  Mn  Mn8  1  0.510309  0.350852  0.257977  1
  Mn  Mn9  1  0.501486  0.648224  0.086700  1
  Mn  Mn10  1  0.503109  0.637257  0.427260  1
  Mn  Mn11  1  0.493476  0.634486  0.754138  1
  O  O12  1  0.220419  0.116170  0.300646  1
  O  O13  1  0.213923  0.108133  0.635016  1
  O  O14  1  0.242423  0.115565  0.970074  1
  O  O15  1  0.214018  0.885852  0.133258  1
  O  O16  1  0.235359  0.888186  0.468802  1
  O  O17  1  0.236747  0.889227  0.803278  1
  O  O18  1  0.281564  0.393613  0.478689  1
  O  O19  1  0.285340  0.396950  0.816994  1
  O  O20  1  0.286881  0.609693  0.977862  1
  O  O21  1  0.723207  0.378742  0.029499  1
  O  O22  1  0.714223  0.617042  0.197168  1
  O  O23  1  0.732542  0.389207  0.364116  1
  O  O24  1  0.720719  0.620427  0.530534  1
  O  O25  1  0.717664  0.378922  0.694484  1
  F  F26  1  0.248798  0.382616  0.153742  1
  F  F27  1  0.258377  0.620320  0.320635  1
  F  F28  1  0.233972  0.608799  0.644558  1
  F  F29  1  0.763459  0.616445  0.866604  1
  F  F30  1  0.746411  0.114270  0.181255  1
  F  F31  1  0.772133  0.122465  0.515608  1
  F  F32  1  0.753737  0.873487  0.356789  1
  F  F33  1  0.779797  0.875832  0.011949  1
  F  F34  1  0.769629  0.128961  0.858508  1
  F  F35  1  0.746561  0.870905  0.690276  1
