# generated using pymatgen
data_Cr22Ni50Mo3
_symmetry_space_group_name_H-M   'P 1'
_cell_length_a   6.15031848
_cell_length_b   11.54764006
_cell_length_c   11.96547864
_cell_angle_alpha   88.89960605
_cell_angle_beta   80.37041727
_cell_angle_gamma   89.42448269
_symmetry_Int_Tables_number   1
_chemical_formula_structural   Cr22Ni50Mo3
_chemical_formula_sum   'Cr22 Ni50 Mo3'
_cell_volume   837.65960258
_cell_formula_units_Z   1
loop_
 _symmetry_equiv_pos_site_id
 _symmetry_equiv_pos_as_xyz
  1  'x, y, z'
loop_
 _atom_site_type_symbol
 _atom_site_label
 _atom_site_symmetry_multiplicity
 _atom_site_fract_x
 _atom_site_fract_y
 _atom_site_fract_z
 _atom_site_occupancy
  Cr  Cr0  1  0.005666  0.995703  0.002480  1
  Cr  Cr1  1  0.320521  0.879173  0.040157  1
  Cr  Cr2  1  0.640414  0.759420  0.080720  1
  Cr  Cr3  1  0.281289  0.520823  0.160522  1
  Cr  Cr4  1  0.960301  0.640523  0.121246  1
  Cr  Cr5  1  0.599507  0.401225  0.201573  1
  Cr  Cr6  1  0.237826  0.160835  0.279511  1
  Cr  Cr7  1  0.921052  0.280178  0.241821  1
  Cr  Cr8  1  0.561665  0.038775  0.320523  1
  Cr  Cr9  1  0.199400  0.799172  0.399106  1
  Cr  Cr10  1  0.878101  0.919357  0.359433  1
  Cr  Cr11  1  0.519867  0.679642  0.440054  1
  Cr  Cr12  1  0.161065  0.441090  0.518432  1
  Cr  Cr13  1  0.840358  0.560581  0.479673  1
  Cr  Cr14  1  0.480682  0.320592  0.559181  1
  Cr  Cr15  1  0.794702  0.203186  0.597530  1
  Cr  Cr16  1  0.443980  0.956097  0.680122  1
  Cr  Cr17  1  0.079287  0.719913  0.759788  1
  Cr  Cr18  1  0.760423  0.838709  0.719274  1
  Cr  Cr19  1  0.399328  0.600417  0.799805  1
  Cr  Cr20  1  0.713698  0.484110  0.838482  1
  Cr  Cr21  1  0.361023  0.240440  0.920593  1
  Ni  Ni22  1  0.947399  0.852152  0.161538  1
  Ni  Ni23  1  0.267974  0.733038  0.200468  1
  Ni  Ni24  1  0.587397  0.613240  0.240949  1
  Ni  Ni25  1  0.227277  0.373993  0.319237  1
  Ni  Ni26  1  0.906919  0.493831  0.281671  1
  Ni  Ni27  1  0.547291  0.253395  0.360548  1
  Ni  Ni28  1  0.187960  0.012240  0.435907  1
  Ni  Ni29  1  0.868227  0.133204  0.399282  1
  Ni  Ni30  1  0.503877  0.892936  0.479564  1
  Ni  Ni31  1  0.146020  0.653655  0.558938  1
  Ni  Ni32  1  0.825299  0.773204  0.519223  1
  Ni  Ni33  1  0.466557  0.534068  0.599550  1
  Ni  Ni34  1  0.108275  0.295853  0.676741  1
  Ni  Ni35  1  0.787877  0.415833  0.638777  1
  Ni  Ni36  1  0.428075  0.174573  0.720627  1
  Ni  Ni37  1  0.063379  0.929928  0.801719  1
  Ni  Ni38  1  0.743492  0.051532  0.758330  1
  Ni  Ni39  1  0.386018  0.811909  0.840189  1
  Ni  Ni40  1  0.026282  0.576383  0.920681  1
  Ni  Ni41  1  0.706128  0.693487  0.879599  1
  Ni  Ni42  1  0.348424  0.456043  0.961127  1
  Ni  Ni43  1  0.987806  0.213132  0.044688  1
  Ni  Ni44  1  0.662980  0.336295  0.002635  1
  Ni  Ni45  1  0.303734  0.092298  0.082411  1
  Ni  Ni46  1  0.626132  0.970931  0.122804  1
  Ni  Ni47  1  0.931192  0.065646  0.201884  1
  Ni  Ni48  1  0.252985  0.946239  0.239651  1
  Ni  Ni49  1  0.572521  0.826165  0.280984  1
  Ni  Ni50  1  0.213373  0.587283  0.359194  1
  Ni  Ni51  1  0.892921  0.707008  0.320086  1
  Ni  Ni52  1  0.532656  0.467333  0.399846  1
  Ni  Ni53  1  0.174650  0.228390  0.476217  1
  Ni  Ni54  1  0.853116  0.347825  0.438997  1
  Ni  Ni55  1  0.496825  0.106753  0.517645  1
  Ni  Ni56  1  0.132886  0.863258  0.598806  1
  Ni  Ni57  1  0.811261  0.984262  0.557293  1
  Ni  Ni58  1  0.453482  0.745383  0.639826  1
  Ni  Ni59  1  0.094172  0.509686  0.717926  1
  Ni  Ni60  1  0.773312  0.627552  0.679055  1
  Ni  Ni61  1  0.416534  0.388144  0.757982  1
  Ni  Ni62  1  0.056412  0.144762  0.841277  1
  Ni  Ni63  1  0.733690  0.267961  0.796769  1
  Ni  Ni64  1  0.370796  0.023788  0.879181  1
  Ni  Ni65  1  0.014257  0.785595  0.961077  1
  Ni  Ni66  1  0.692990  0.903333  0.919992  1
  Ni  Ni67  1  0.334961  0.666833  0.000216  1
  Ni  Ni68  1  0.973203  0.427841  0.083787  1
  Ni  Ni69  1  0.656014  0.547931  0.040169  1
  Ni  Ni70  1  0.293598  0.306741  0.120747  1
  Ni  Ni71  1  0.611520  0.187125  0.164237  1
  Mo  Mo72  1  0.120590  0.079045  0.638584  1
  Mo  Mo73  1  0.039520  0.361186  0.880574  1
  Mo  Mo74  1  0.679611  0.119814  0.960774  1
