# generated using pymatgen
data_LiMn2(PO4)3
_symmetry_space_group_name_H-M   'P 1'
_cell_length_a   8.48962568
_cell_length_b   11.82747677
_cell_length_c   8.50129212
_cell_angle_alpha   90.09096360
_cell_angle_beta   90.03780901
_cell_angle_gamma   89.98634528
_symmetry_Int_Tables_number   1
_chemical_formula_structural   LiMn2(PO4)3
_chemical_formula_sum   'Li4 Mn8 P12 O48'
_cell_volume   853.62068694
_cell_formula_units_Z   4
loop_
 _symmetry_equiv_pos_site_id
 _symmetry_equiv_pos_as_xyz
  1  'x, y, z'
loop_
 _atom_site_type_symbol
 _atom_site_label
 _atom_site_symmetry_multiplicity
 _atom_site_fract_x
 _atom_site_fract_y
 _atom_site_fract_z
 _atom_site_occupancy
  Li  Li0  1  0.287077  0.318624  0.275806  1
  Li  Li1  1  0.787707  0.818520  0.225725  1
  Li  Li2  1  0.936807  0.289078  0.917084  1
  Li  Li3  1  0.938552  0.710991  0.583956  1
  Mn  Mn4  1  0.250010  0.116522  0.468425  1
  Mn  Mn5  1  0.251858  0.879237  0.034728  1
  Mn  Mn6  1  0.255138  0.383885  0.959661  1
  Mn  Mn7  1  0.257869  0.618414  0.534550  1
  Mn  Mn8  1  0.750606  0.379204  0.463974  1
  Mn  Mn9  1  0.748928  0.616616  0.032814  1
  Mn  Mn10  1  0.744611  0.114249  0.965012  1
  Mn  Mn11  1  0.741904  0.887886  0.541005  1
  P  P12  1  0.037996  0.501693  0.250792  1
  P  P13  1  0.109366  0.854285  0.392036  1
  P  P14  1  0.106760  0.144031  0.104121  1
  P  P15  1  0.398960  0.354552  0.608842  1
  P  P16  1  0.395899  0.646849  0.892178  1
  P  P17  1  0.457790  0.000400  0.752204  1
  P  P18  1  0.534841  0.001496  0.249558  1
  P  P19  1  0.609733  0.353728  0.106882  1
  P  P20  1  0.608020  0.644663  0.396432  1
  P  P21  1  0.894511  0.147101  0.604652  1
  P  P22  1  0.897681  0.854427  0.893629  1
  P  P23  1  0.959344  0.500151  0.748378  1
  O  O24  1  0.058932  0.579256  0.644443  1
  O  O25  1  0.057124  0.421193  0.856184  1
  O  O26  1  0.075067  0.159666  0.596093  1
  O  O27  1  0.076657  0.839703  0.901177  1
  O  O28  1  0.157310  0.024547  0.065592  1
  O  O29  1  0.157842  0.974112  0.434309  1
  O  O30  1  0.149781  0.420203  0.157567  1
  O  O31  1  0.145690  0.581002  0.345865  1
  O  O32  1  0.159256  0.179830  0.271857  1
  O  O33  1  0.150636  0.821631  0.222908  1
  O  O34  1  0.172235  0.230399  0.981875  1
  O  O35  1  0.172078  0.770557  0.517894  1
  O  O36  1  0.319945  0.274148  0.486359  1
  O  O37  1  0.318677  0.725658  0.014750  1
  O  O38  1  0.349661  0.678575  0.722666  1
  O  O39  1  0.349675  0.321364  0.776408  1
  O  O40  1  0.351583  0.081684  0.658871  1
  O  O41  1  0.350739  0.919898  0.844005  1
  O  O42  1  0.344707  0.473647  0.564188  1
  O  O43  1  0.345875  0.525587  0.932005  1
  O  O44  1  0.427256  0.338217  0.097143  1
  O  O45  1  0.428184  0.662638  0.402523  1
  O  O46  1  0.440583  0.078519  0.358556  1
  O  O47  1  0.440908  0.921543  0.143628  1
  O  O48  1  0.554535  0.920876  0.644710  1
  O  O49  1  0.558325  0.078627  0.855976  1
  O  O50  1  0.578487  0.340353  0.600618  1
  O  O51  1  0.576880  0.659228  0.901404  1
  O  O52  1  0.656369  0.474588  0.066643  1
  O  O53  1  0.655762  0.523953  0.433645  1
  O  O54  1  0.646618  0.080341  0.157666  1
  O  O55  1  0.648076  0.920360  0.341933  1
  O  O56  1  0.648583  0.321562  0.277294  1
  O  O57  1  0.659034  0.679895  0.227490  1
  O  O58  1  0.692143  0.276307  0.984735  1
  O  O59  1  0.693692  0.723943  0.515428  1
  O  O60  1  0.817201  0.225764  0.482983  1
  O  O61  1  0.818326  0.774222  0.014820  1
  O  O62  1  0.850533  0.177450  0.776698  1
  O  O63  1  0.850428  0.823056  0.723385  1
  O  O64  1  0.853460  0.418389  0.656785  1
  O  O65  1  0.853107  0.581890  0.840857  1
  O  O66  1  0.843624  0.025979  0.567535  1
  O  O67  1  0.842937  0.973374  0.935938  1
  O  O68  1  0.925595  0.161263  0.092318  1
  O  O69  1  0.925396  0.839356  0.404821  1
  O  O70  1  0.940588  0.422055  0.355071  1
  O  O71  1  0.941288  0.577970  0.141935  1
