# generated using pymatgen
data_Li2VO2F
_symmetry_space_group_name_H-M   'P 1'
_cell_length_a   2.98938288
_cell_length_b   5.11297661
_cell_length_c   7.78466587
_cell_angle_alpha   71.59018079
_cell_angle_beta   101.05758689
_cell_angle_gamma   89.99847500
_symmetry_Int_Tables_number   1
_chemical_formula_structural   Li2VO2F
_chemical_formula_sum   'Li4 V2 O4 F2'
_cell_volume   110.56559901
_cell_formula_units_Z   2
loop_
 _symmetry_equiv_pos_site_id
 _symmetry_equiv_pos_as_xyz
  1  'x, y, z'
loop_
 _atom_site_type_symbol
 _atom_site_label
 _atom_site_symmetry_multiplicity
 _atom_site_fract_x
 _atom_site_fract_y
 _atom_site_fract_z
 _atom_site_occupancy
  Li  Li0  1  0.830925  0.497791  0.661292  1
  Li  Li1  1  0.172766  0.476371  0.342710  1
  Li  Li2  1  0.663515  0.023522  0.323732  1
  Li  Li3  1  0.002769  0.002415  0.005334  1
  V  V4  1  0.329356  0.023510  0.671776  1
  V  V5  1  0.491167  0.476491  0.995026  1
  O  O6  1  0.886919  0.750212  0.833266  1
  O  O7  1  0.420749  0.250392  0.833215  1
  O  O8  1  0.771428  0.231688  0.513601  1
  O  O9  1  0.091781  0.267944  0.153472  1
  F  F10  1  0.252664  0.761606  0.500368  1
  F  F11  1  0.585964  0.738057  0.166208  1
