# generated using pymatgen
data_NiH10(SeO5)2
_symmetry_space_group_name_H-M   'P 1'
_cell_length_a   8.12340220
_cell_length_b   8.12340220
_cell_length_c   12.52294578
_cell_angle_alpha   59.09796139
_cell_angle_beta   120.90203861
_cell_angle_gamma   120.81167621
_symmetry_Int_Tables_number   1
_chemical_formula_structural   NiH10(SeO5)2
_chemical_formula_sum   'Ni2 H20 Se4 O20'
_cell_volume   572.72827316
_cell_formula_units_Z   2
loop_
 _symmetry_equiv_pos_site_id
 _symmetry_equiv_pos_as_xyz
  1  'x, y, z'
loop_
 _atom_site_type_symbol
 _atom_site_label
 _atom_site_symmetry_multiplicity
 _atom_site_fract_x
 _atom_site_fract_y
 _atom_site_fract_z
 _atom_site_occupancy
  Ni  Ni0  1  0.956488  0.956488  0.750000  1
  Ni  Ni1  1  0.043512  0.043512  0.250000  1
  H  H2  1  0.941845  0.240635  0.354133  1
  H  H3  1  0.240635  0.941845  0.145867  1
  H  H4  1  0.058155  0.759365  0.645867  1
  H  H5  1  0.759365  0.058155  0.854133  1
  H  H6  1  0.259461  0.304127  0.799296  1
  H  H7  1  0.304127  0.259461  0.700704  1
  H  H8  1  0.740539  0.695873  0.200704  1
  H  H9  1  0.695873  0.740539  0.299296  1
  H  H10  1  0.678953  0.570128  0.825206  1
  H  H11  1  0.570128  0.678953  0.674794  1
  H  H12  1  0.321047  0.429872  0.174794  1
  H  H13  1  0.429872  0.321047  0.325206  1
  H  H14  1  0.785608  0.091614  0.042242  1
  H  H15  1  0.091614  0.785608  0.457758  1
  H  H16  1  0.214392  0.908386  0.957758  1
  H  H17  1  0.908386  0.214392  0.542242  1
  H  H18  1  0.583156  0.118901  0.132546  1
  H  H19  1  0.118901  0.583156  0.367454  1
  H  H20  1  0.416844  0.881099  0.867454  1
  H  H21  1  0.881099  0.416844  0.632546  1
  Se  Se22  1  0.974524  0.625313  0.137041  1
  Se  Se23  1  0.625313  0.974524  0.362959  1
  Se  Se24  1  0.025476  0.374687  0.862959  1
  Se  Se25  1  0.374687  0.025476  0.637041  1
  O  O26  1  0.128758  0.898128  0.655123  1
  O  O27  1  0.898128  0.128758  0.844877  1
  O  O28  1  0.871242  0.101872  0.344877  1
  O  O29  1  0.101872  0.871242  0.155123  1
  O  O30  1  0.090315  0.804575  0.927185  1
  O  O31  1  0.804575  0.090315  0.572815  1
  O  O32  1  0.909685  0.195425  0.072815  1
  O  O33  1  0.195425  0.909685  0.427185  1
  O  O34  1  0.064814  0.487332  0.322604  1
  O  O35  1  0.487332  0.064814  0.177396  1
  O  O36  1  0.935186  0.512668  0.677396  1
  O  O37  1  0.512668  0.935186  0.822604  1
  O  O38  1  0.216287  0.216287  0.750000  1
  O  O39  1  0.783713  0.783713  0.250000  1
  O  O40  1  0.694866  0.694866  0.750000  1
  O  O41  1  0.305134  0.305134  0.250000  1
  O  O42  1  0.260323  0.402724  0.893609  1
  O  O43  1  0.402724  0.260323  0.606391  1
  O  O44  1  0.739677  0.597276  0.106391  1
  O  O45  1  0.597276  0.739677  0.393609  1
