# generated using pymatgen
data_Li11V6O5F19
_symmetry_space_group_name_H-M   'P 1'
_cell_length_a   5.14692472
_cell_length_b   5.45253064
_cell_length_c   16.30803978
_cell_angle_alpha   80.36317744
_cell_angle_beta   89.76712200
_cell_angle_gamma   88.42678301
_symmetry_Int_Tables_number   1
_chemical_formula_structural   Li11V6O5F19
_chemical_formula_sum   'Li11 V6 O5 F19'
_cell_volume   451.03657852
_cell_formula_units_Z   1
loop_
 _symmetry_equiv_pos_site_id
 _symmetry_equiv_pos_as_xyz
  1  'x, y, z'
loop_
 _atom_site_type_symbol
 _atom_site_label
 _atom_site_symmetry_multiplicity
 _atom_site_fract_x
 _atom_site_fract_y
 _atom_site_fract_z
 _atom_site_occupancy
  Li  Li0  1  0.470980  0.268952  0.203586  1
  Li  Li1  1  0.487059  0.235896  0.434520  1
  Li  Li2  1  0.993809  0.046034  0.777953  1
  Li  Li3  1  0.994012  0.405530  0.094670  1
  Li  Li4  1  0.491554  0.142713  0.882844  1
  Li  Li5  1  0.000421  0.262641  0.555413  1
  Li  Li6  1  0.023849  0.768189  0.205287  1
  Li  Li7  1  0.009322  0.736620  0.436913  1
  Li  Li8  1  0.489599  0.858109  0.109749  1
  Li  Li9  1  -0.000043  0.572549  0.896872  1
  Li  Li10  1  0.482313  0.781698  0.554522  1
  V  V11  1  0.018156  0.332452  0.337715  1
  V  V12  1  0.514258  0.158416  0.664732  1
  V  V13  1  0.999450  0.005340  0.001994  1
  V  V14  1  0.498329  0.505035  0.001947  1
  V  V15  1  0.469164  0.827608  0.339056  1
  V  V16  1  0.985938  0.680055  0.666868  1
  O  O17  1  0.199035  0.031091  0.375639  1
  O  O18  1  0.287407  0.531512  0.372901  1
  O  O19  1  0.200528  0.697096  0.035130  1
  O  O20  1  0.812739  0.324375  0.978258  1
  O  O21  1  0.813046  0.989799  0.631984  1
  F  F22  1  0.306513  0.181034  0.052422  1
  F  F23  1  0.682647  0.164008  0.301276  1
  F  F24  1  0.358365  0.151604  0.551489  1
  F  F25  1  0.137975  0.021893  0.885275  1
  F  F26  1  0.643809  0.165310  0.777590  1
  F  F27  1  0.637413  0.507666  0.120306  1
  F  F28  1  0.842781  0.336197  0.450760  1
  F  F29  1  0.128362  0.405869  0.211996  1
  F  F30  1  0.169203  0.326774  0.696985  1
  F  F31  1  0.674197  0.496864  0.625656  1
  F  F32  1  0.803702  0.665693  0.298867  1
  F  F33  1  0.355420  0.474860  0.893094  1
  F  F34  1  0.846382  0.978721  0.118770  1
  F  F35  1  0.132643  0.645756  0.555789  1
  F  F36  1  0.905352  0.677416  0.783127  1
  F  F37  1  0.355810  0.905550  0.215127  1
  F  F38  1  0.647127  0.832489  0.451378  1
  F  F39  1  0.315345  0.844969  0.697352  1
  F  F40  1  0.682761  0.839987  0.957426  1
