# generated using pymatgen
data_LiFe(PO3)4
_symmetry_space_group_name_H-M   'P 1'
_cell_length_a   14.15980046
_cell_length_b   9.02893837
_cell_length_c   7.16728315
_cell_angle_alpha   90.00000000
_cell_angle_beta   91.64889383
_cell_angle_gamma   90.00000000
_symmetry_Int_Tables_number   1
_chemical_formula_structural   LiFe(PO3)4
_chemical_formula_sum   'Li4 Fe4 P16 O48'
_cell_volume   915.94314289
_cell_formula_units_Z   4
loop_
 _symmetry_equiv_pos_site_id
 _symmetry_equiv_pos_as_xyz
  1  'x, y, z'
loop_
 _atom_site_type_symbol
 _atom_site_label
 _atom_site_symmetry_multiplicity
 _atom_site_fract_x
 _atom_site_fract_y
 _atom_site_fract_z
 _atom_site_occupancy
  Li  Li0  1  0.117995  0.523926  0.529758  1
  Li  Li1  1  0.382005  0.023926  0.970242  1
  Li  Li2  1  0.617995  0.976074  0.029758  1
  Li  Li3  1  0.882005  0.476074  0.470242  1
  Fe  Fe4  1  0.158985  0.758267  0.008756  1
  Fe  Fe5  1  0.341015  0.258267  0.491244  1
  Fe  Fe6  1  0.658985  0.741733  0.508756  1
  Fe  Fe7  1  0.841015  0.241733  0.991244  1
  P  P8  1  0.040220  0.256740  0.251697  1
  P  P9  1  0.057651  0.328205  0.861448  1
  P  P10  1  0.181761  0.078868  0.755000  1
  P  P11  1  0.177248  0.010051  0.359298  1
  P  P12  1  0.318239  0.578868  0.745000  1
  P  P13  1  0.322752  0.510051  0.140702  1
  P  P14  1  0.442349  0.828205  0.638552  1
  P  P15  1  0.459780  0.756740  0.248303  1
  P  P16  1  0.540220  0.243260  0.751697  1
  P  P17  1  0.557651  0.171795  0.361448  1
  P  P18  1  0.677248  0.489949  0.859298  1
  P  P19  1  0.681761  0.421132  0.255000  1
  P  P20  1  0.822752  0.989949  0.640702  1
  P  P21  1  0.818239  0.921132  0.245000  1
  P  P22  1  0.942349  0.671795  0.138552  1
  P  P23  1  0.959780  0.743260  0.748303  1
  O  O24  1  0.049076  0.662997  0.145126  1
  O  O25  1  0.061236  0.775466  0.805635  1
  O  O26  1  0.058675  0.356426  0.413289  1
  O  O27  1  0.083181  0.164635  0.781680  1
  O  O28  1  0.084284  0.094307  0.285106  1
  O  O29  1  0.096545  0.316346  0.075652  1
  O  O30  1  0.111174  0.450040  0.775453  1
  O  O31  1  0.155403  0.978696  0.574951  1
  O  O32  1  0.177724  0.862911  0.262742  1
  O  O33  1  0.200254  0.977529  0.920316  1
  O  O34  1  0.242002  0.689356  0.787776  1
  O  O35  1  0.236249  0.605770  0.151654  1
  O  O36  1  0.257998  0.189356  0.712224  1
  O  O37  1  0.263751  0.105770  0.348346  1
  O  O38  1  0.299746  0.477529  0.579684  1
  O  O39  1  0.344597  0.478696  0.925049  1
  O  O40  1  0.322276  0.362911  0.237259  1
  O  O41  1  0.388826  0.950040  0.724547  1
  O  O42  1  0.403455  0.816346  0.424348  1
  O  O43  1  0.416819  0.664635  0.718320  1
  O  O44  1  0.415716  0.594307  0.214894  1
  O  O45  1  0.441325  0.856426  0.086711  1
  O  O46  1  0.438764  0.275466  0.694365  1
  O  O47  1  0.450924  0.162997  0.354874  1
  O  O48  1  0.549076  0.837003  0.645126  1
  O  O49  1  0.561236  0.724534  0.305635  1
  O  O50  1  0.558675  0.143574  0.913289  1
  O  O51  1  0.584284  0.405693  0.785106  1
  O  O52  1  0.583181  0.335365  0.281680  1
  O  O53  1  0.596545  0.183654  0.575652  1
  O  O54  1  0.611174  0.049960  0.275453  1
  O  O55  1  0.677724  0.637089  0.762742  1
  O  O56  1  0.655403  0.521304  0.074951  1
  O  O57  1  0.700254  0.522471  0.420316  1
  O  O58  1  0.736249  0.894230  0.651654  1
  O  O59  1  0.742002  0.810644  0.287776  1
  O  O60  1  0.763751  0.394230  0.848346  1
  O  O61  1  0.757998  0.310644  0.212224  1
  O  O62  1  0.799746  0.022471  0.079684  1
  O  O63  1  0.822276  0.137089  0.737258  1
  O  O64  1  0.844597  0.021304  0.425049  1
  O  O65  1  0.888826  0.549960  0.224547  1
  O  O66  1  0.903455  0.683654  0.924348  1
  O  O67  1  0.915716  0.905693  0.714894  1
  O  O68  1  0.916819  0.835365  0.218320  1
  O  O69  1  0.941325  0.643574  0.586711  1
  O  O70  1  0.938764  0.224534  0.194365  1
  O  O71  1  0.950924  0.337003  0.854874  1
