# generated using pymatgen
data_B10H13CSN
_symmetry_space_group_name_H-M   'P 1'
_cell_length_a   7.46971631
_cell_length_b   14.99746476
_cell_length_c   10.70946011
_cell_angle_alpha   90.00000000
_cell_angle_beta   105.16398588
_cell_angle_gamma   90.00000000
_symmetry_Int_Tables_number   1
_chemical_formula_structural   B10H13CSN
_chemical_formula_sum   'B40 H52 C4 S4 N4'
_cell_volume   1157.97277212
_cell_formula_units_Z   4
loop_
 _symmetry_equiv_pos_site_id
 _symmetry_equiv_pos_as_xyz
  1  'x, y, z'
loop_
 _atom_site_type_symbol
 _atom_site_label
 _atom_site_symmetry_multiplicity
 _atom_site_fract_x
 _atom_site_fract_y
 _atom_site_fract_z
 _atom_site_occupancy
  B  B0  1  0.661679  0.639331  0.015756  1
  B  B1  1  0.161679  0.860669  0.515756  1
  B  B2  1  0.338321  0.360669  0.984244  1
  B  B3  1  0.838321  0.139331  0.484244  1
  B  B4  1  0.577134  0.637314  0.155030  1
  B  B5  1  0.077134  0.862686  0.655030  1
  B  B6  1  0.422866  0.362686  0.844970  1
  B  B7  1  0.922866  0.137314  0.344970  1
  B  B8  1  0.615475  0.741222  0.086933  1
  B  B9  1  0.115475  0.758778  0.586933  1
  B  B10  1  0.384525  0.258778  0.913067  1
  B  B11  1  0.884525  0.241222  0.413067  1
  B  B12  1  0.784926  0.737413  0.997348  1
  B  B13  1  0.284926  0.762587  0.497348  1
  B  B14  1  0.215074  0.262587  0.002652  1
  B  B15  1  0.715074  0.237413  0.502652  1
  B  B16  1  0.763827  0.565872  0.140647  1
  B  B17  1  0.263827  0.934128  0.640647  1
  B  B18  1  0.236173  0.434128  0.859353  1
  B  B19  1  0.736173  0.065872  0.359353  1
  B  B20  1  0.752354  0.614212  0.291917  1
  B  B21  1  0.252354  0.885788  0.791917  1
  B  B22  1  0.247646  0.385788  0.708083  1
  B  B23  1  0.747646  0.114212  0.208083  1
  B  B24  1  0.688213  0.728634  0.254345  1
  B  B25  1  0.188213  0.771366  0.754345  1
  B  B26  1  0.311787  0.271366  0.745655  1
  B  B27  1  0.811787  0.228634  0.245655  1
  B  B28  1  0.829383  0.794576  0.148926  1
  B  B29  1  0.329383  0.705424  0.648926  1
  B  B30  1  0.170617  0.205424  0.851074  1
  B  B31  1  0.670617  0.294576  0.351074  1
  B  B32  1  0.006379  0.735969  0.098597  1
  B  B33  1  0.506379  0.764031  0.598597  1
  B  B34  1  0.993621  0.264031  0.901403  1
  B  B35  1  0.493621  0.235969  0.401403  1
  B  B36  1  0.900449  0.632392  0.035383  1
  B  B37  1  0.400449  0.867608  0.535383  1
  B  B38  1  0.099551  0.367608  0.964617  1
  B  B39  1  0.599551  0.132392  0.464617  1
  H  H40  1  0.574177  0.602769  0.920211  1
  H  H41  1  0.074177  0.897231  0.420211  1
  H  H42  1  0.425823  0.397231  0.079789  1
  H  H43  1  0.925823  0.102769  0.579789  1
  H  H44  1  0.424230  0.610243  0.147326  1
  H  H45  1  0.924230  0.889757  0.647326  1
  H  H46  1  0.575770  0.389757  0.852674  1
  H  H47  1  0.075770  0.110243  0.352674  1
  H  H48  1  0.485686  0.790016  0.050297  1
  H  H49  1  0.985686  0.709984  0.550297  1
  H  H50  1  0.514314  0.209984  0.949703  1
  H  H51  1  0.014314  0.290016  0.449703  1
  H  H52  1  0.752074  0.772725  0.893972  1
  H  H53  1  0.252074  0.727275  0.393972  1
  H  H54  1  0.247926  0.227275  0.106028  1
  H  H55  1  0.747926  0.272725  0.606028  1
  H  H56  1  0.754351  0.486884  0.127292  1
  H  H57  1  0.254351  0.013116  0.627292  1
  H  H58  1  0.245649  0.513116  0.872708  1
  H  H59  1  0.745649  0.986884  0.372708  1
  H  H60  1  0.625108  0.771883  0.325928  1
  H  H61  1  0.125108  0.728117  0.825928  1
  H  H62  1  0.374892  0.228117  0.674072  1
  H  H63  1  0.874892  0.271883  0.174072  1
  H  H64  1  0.846987  0.872705  0.167278  1
  H  H65  1  0.346987  0.627295  0.667278  1
  H  H66  1  0.153013  0.127295  0.832722  1
  H  H67  1  0.653013  0.372705  0.332722  1
  H  H68  1  0.149053  0.766146  0.087756  1
  H  H69  1  0.649053  0.733854  0.587756  1
  H  H70  1  0.850947  0.233854  0.912244  1
  H  H71  1  0.350947  0.266146  0.412244  1
  H  H72  1  0.963867  0.589002  0.964366  1
  H  H73  1  0.463867  0.910998  0.464366  1
  H  H74  1  0.036133  0.410998  0.035634  1
  H  H75  1  0.536133  0.089002  0.535634  1
  H  H76  1  0.896448  0.581633  0.245074  1
  H  H77  1  0.396448  0.918367  0.745074  1
  H  H78  1  0.103552  0.418367  0.754926  1
  H  H79  1  0.603552  0.081633  0.254926  1
  H  H80  1  0.845241  0.695272  0.321916  1
  H  H81  1  0.345241  0.804728  0.821916  1
  H  H82  1  0.154759  0.304728  0.678084  1
  H  H83  1  0.654759  0.195272  0.178084  1
  H  H84  1  0.993972  0.763506  0.214887  1
  H  H85  1  0.493972  0.736494  0.714887  1
  H  H86  1  0.006028  0.236493  0.785113  1
  H  H87  1  0.506028  0.263506  0.285113  1
  H  H88  1  0.041958  0.651192  0.136123  1
  H  H89  1  0.541958  0.848808  0.636123  1
  H  H90  1  0.958042  0.348808  0.863877  1
  H  H91  1  0.458042  0.151192  0.363877  1
  C  C92  1  0.754218  0.541474  0.514173  1
  C  C93  1  0.254218  0.958526  0.014173  1
  C  C94  1  0.245782  0.458526  0.485827  1
  C  C95  1  0.745782  0.041474  0.985827  1
  S  S96  1  0.749081  0.505221  0.650769  1
  S  S97  1  0.249081  0.994779  0.150769  1
  S  S98  1  0.250919  0.494779  0.349231  1
  S  S99  1  0.750919  0.005221  0.849231  1
  N  N100  1  0.754912  0.569065  0.408943  1
  N  N101  1  0.254912  0.930935  0.908943  1
  N  N102  1  0.245088  0.430935  0.591057  1
  N  N103  1  0.745088  0.069065  0.091057  1
