# generated using pymatgen
data_Na6Cr2P(CO4)4
_symmetry_space_group_name_H-M   'P 1'
_cell_length_a   9.90528971
_cell_length_b   9.90528960
_cell_length_c   9.90528925
_cell_angle_alpha   59.99999889
_cell_angle_beta   60.00000184
_cell_angle_gamma   60.00000299
_symmetry_Int_Tables_number   1
_chemical_formula_structural   Na6Cr2P(CO4)4
_chemical_formula_sum   'Na12 Cr4 P2 C8 O32'
_cell_volume   687.20535674
_cell_formula_units_Z   2
loop_
 _symmetry_equiv_pos_site_id
 _symmetry_equiv_pos_as_xyz
  1  'x, y, z'
loop_
 _atom_site_type_symbol
 _atom_site_label
 _atom_site_symmetry_multiplicity
 _atom_site_fract_x
 _atom_site_fract_y
 _atom_site_fract_z
 _atom_site_occupancy
  Na  Na0  1  0.169356  0.080644  0.080644  1
  Na  Na1  1  0.169356  0.080644  0.669356  1
  Na  Na2  1  0.169356  0.669356  0.080644  1
  Na  Na3  1  0.419356  0.330644  0.330644  1
  Na  Na4  1  0.580644  0.080644  0.669356  1
  Na  Na5  1  0.580644  0.669356  0.080644  1
  Na  Na6  1  0.419356  0.330644  0.919356  1
  Na  Na7  1  0.419356  0.919356  0.330644  1
  Na  Na8  1  0.580644  0.669356  0.669356  1
  Na  Na9  1  0.830644  0.919356  0.330644  1
  Na  Na10  1  0.830644  0.330644  0.919356  1
  Na  Na11  1  0.830644  0.919356  0.919356  1
  Cr  Cr12  1  0.000000  0.500000  0.000000  1
  Cr  Cr13  1  0.000000  0.000000  0.500000  1
  Cr  Cr14  1  0.000000  0.500000  0.500000  1
  Cr  Cr15  1  0.500000  0.500000  0.500000  1
  P  P16  1  0.625000  0.125000  0.125000  1
  P  P17  1  0.375000  0.875000  0.875000  1
  C  C18  1  0.147223  0.284259  0.284259  1
  C  C19  1  0.215741  0.715741  0.352777  1
  C  C20  1  0.215741  0.352777  0.715741  1
  C  C21  1  0.215741  0.715741  0.715741  1
  C  C22  1  0.784259  0.284259  0.284259  1
  C  C23  1  0.784259  0.284259  0.647223  1
  C  C24  1  0.784259  0.647223  0.284259  1
  C  C25  1  0.852777  0.715741  0.715741  1
  O  O26  1  0.149516  0.308831  0.141494  1
  O  O27  1  0.149516  0.141494  0.400159  1
  O  O28  1  0.149516  0.400159  0.308831  1
  O  O29  1  0.099841  0.691169  0.350484  1
  O  O30  1  0.560627  0.060627  0.060627  1
  O  O31  1  0.191169  0.350484  0.599841  1
  O  O32  1  0.099841  0.350484  0.858506  1
  O  O33  1  0.560627  0.318121  0.060627  1
  O  O34  1  0.560627  0.060627  0.318121  1
  O  O35  1  0.191169  0.858506  0.350484  1
  O  O36  1  0.358506  0.599841  0.350484  1
  O  O37  1  0.818120  0.060627  0.060627  1
  O  O38  1  0.099841  0.858506  0.691169  1
  O  O39  1  0.358506  0.350484  0.691169  1
  O  O40  1  0.191169  0.599841  0.858506  1
  O  O41  1  0.641494  0.308831  0.400159  1
  O  O42  1  0.358506  0.691169  0.599841  1
  O  O43  1  0.808831  0.400159  0.141494  1
  O  O44  1  0.641494  0.649516  0.308831  1
  O  O45  1  0.900159  0.141494  0.308831  1
  O  O46  1  0.181880  0.939373  0.939373  1
  O  O47  1  0.641494  0.400159  0.649516  1
  O  O48  1  0.808831  0.141494  0.649516  1
  O  O49  1  0.439373  0.939373  0.681879  1
  O  O50  1  0.439373  0.681879  0.939373  1
  O  O51  1  0.900159  0.649516  0.141494  1
  O  O52  1  0.808831  0.649516  0.400159  1
  O  O53  1  0.439373  0.939373  0.939373  1
  O  O54  1  0.900159  0.308831  0.649516  1
  O  O55  1  0.850484  0.599841  0.691169  1
  O  O56  1  0.850484  0.858506  0.599841  1
  O  O57  1  0.850484  0.691169  0.858506  1
