# generated using pymatgen
data_Li2MnV3O8
_symmetry_space_group_name_H-M   'P 1'
_cell_length_a   8.50121766
_cell_length_b   8.50178808
_cell_length_c   8.50362666
_cell_angle_alpha   89.97706125
_cell_angle_beta   89.97414973
_cell_angle_gamma   89.97263514
_symmetry_Int_Tables_number   1
_chemical_formula_structural   Li2MnV3O8
_chemical_formula_sum   'Li8 Mn4 V12 O32'
_cell_volume   614.60412082
_cell_formula_units_Z   4
loop_
 _symmetry_equiv_pos_site_id
 _symmetry_equiv_pos_as_xyz
  1  'x, y, z'
loop_
 _atom_site_type_symbol
 _atom_site_label
 _atom_site_symmetry_multiplicity
 _atom_site_fract_x
 _atom_site_fract_y
 _atom_site_fract_z
 _atom_site_occupancy
  Li  Li0  1  0.125955  0.872612  0.371623  1
  Li  Li1  1  0.251164  0.751873  0.748755  1
  Li  Li2  1  0.248441  0.248393  0.248479  1
  Li  Li3  1  0.371565  0.126110  0.872529  1
  Li  Li4  1  0.628239  0.627717  0.628156  1
  Li  Li5  1  0.752063  0.748839  0.251234  1
  Li  Li6  1  0.748639  0.251362  0.752054  1
  Li  Li7  1  0.872916  0.371557  0.126156  1
  Mn  Mn8  1  0.995318  0.504091  0.496761  1
  Mn  Mn9  1  0.503936  0.496594  0.995267  1
  Mn  Mn10  1  0.496743  0.995337  0.503907  1
  Mn  Mn11  1  0.004283  0.004252  0.004225  1
  V  V12  1  0.126351  0.619818  0.121653  1
  V  V13  1  0.120890  0.379083  0.873320  1
  V  V14  1  0.121556  0.126293  0.619781  1
  V  V15  1  0.379098  0.873342  0.120964  1
  V  V16  1  0.379188  0.620990  0.374726  1
  V  V17  1  0.374775  0.379104  0.620895  1
  V  V18  1  0.626114  0.879945  0.879205  1
  V  V19  1  0.619810  0.121709  0.126160  1
  V  V20  1  0.621095  0.374792  0.379037  1
  V  V21  1  0.879142  0.626288  0.880118  1
  V  V22  1  0.879848  0.879253  0.626379  1
  V  V23  1  0.873292  0.120886  0.379068  1
  O  O24  1  0.103273  0.131128  0.399500  1
  O  O25  1  0.100246  0.896370  0.630222  1
  O  O26  1  0.115678  0.615304  0.884850  1
  O  O27  1  0.131407  0.399456  0.103216  1
  O  O28  1  0.122125  0.147635  0.850283  1
  O  O29  1  0.136515  0.364190  0.635322  1
  O  O30  1  0.148488  0.622381  0.352855  1
  O  O31  1  0.147644  0.850347  0.122146  1
  O  O32  1  0.352899  0.148532  0.622223  1
  O  O33  1  0.351315  0.377667  0.851990  1
  O  O34  1  0.364268  0.635295  0.136606  1
  O  O35  1  0.377705  0.852159  0.351278  1
  O  O36  1  0.368392  0.600019  0.603972  1
  O  O37  1  0.384837  0.384799  0.384735  1
  O  O38  1  0.399471  0.103303  0.131265  1
  O  O39  1  0.396167  0.868467  0.900493  1
  O  O40  1  0.604138  0.368550  0.599914  1
  O  O41  1  0.600113  0.604103  0.368389  1
  O  O42  1  0.615339  0.884820  0.115590  1
  O  O43  1  0.629864  0.100356  0.896247  1
  O  O44  1  0.622498  0.352951  0.148419  1
  O  O45  1  0.635294  0.136622  0.364070  1
  O  O46  1  0.649437  0.877646  0.647964  1
  O  O47  1  0.647854  0.649501  0.877707  1
  O  O48  1  0.852274  0.351328  0.377613  1
  O  O49  1  0.850358  0.122008  0.147692  1
  O  O50  1  0.864289  0.864464  0.864469  1
  O  O51  1  0.877735  0.647928  0.649737  1
  O  O52  1  0.868512  0.900352  0.396416  1
  O  O53  1  0.884694  0.115737  0.615279  1
  O  O54  1  0.900352  0.396272  0.868806  1
  O  O55  1  0.896397  0.630150  0.100357  1
