# generated using pymatgen
data_LiCoBO3
_symmetry_space_group_name_H-M   'P 1'
_cell_length_a   6.61148849
_cell_length_b   8.38675394
_cell_length_c   5.28336660
_cell_angle_alpha   90.00000000
_cell_angle_beta   67.32985016
_cell_angle_gamma   90.00000000
_symmetry_Int_Tables_number   1
_chemical_formula_structural   LiCoBO3
_chemical_formula_sum   'Li4 Co4 B4 O12'
_cell_volume   270.32286239
_cell_formula_units_Z   4
loop_
 _symmetry_equiv_pos_site_id
 _symmetry_equiv_pos_as_xyz
  1  'x, y, z'
loop_
 _atom_site_type_symbol
 _atom_site_label
 _atom_site_symmetry_multiplicity
 _atom_site_fract_x
 _atom_site_fract_y
 _atom_site_fract_z
 _atom_site_occupancy
  Li  Li0  1  0.101193  0.055288  0.726691  1
  Li  Li1  1  0.398807  0.555288  0.773309  1
  Li  Li2  1  0.601193  0.444712  0.226691  1
  Li  Li3  1  0.898807  0.944712  0.273309  1
  Co  Co4  1  0.258252  0.223552  0.116128  1
  Co  Co5  1  0.241748  0.723552  0.383872  1
  Co  Co6  1  0.758252  0.276448  0.616128  1
  Co  Co7  1  0.741748  0.776448  0.883872  1
  B  B8  1  0.190656  0.375110  0.614487  1
  B  B9  1  0.309344  0.875110  0.885513  1
  B  B10  1  0.690656  0.124890  0.114487  1
  B  B11  1  0.809344  0.624890  0.385513  1
  O  O12  1  0.206048  0.997968  0.063507  1
  O  O13  1  0.088800  0.252200  0.524174  1
  O  O14  1  0.293952  0.497968  0.436493  1
  O  O15  1  0.206701  0.368968  0.864022  1
  O  O16  1  0.293299  0.868968  0.635978  1
  O  O17  1  0.588800  0.247800  0.024174  1
  O  O18  1  0.411200  0.752200  0.975826  1
  O  O19  1  0.706701  0.131032  0.364022  1
  O  O20  1  0.793299  0.631032  0.135978  1
  O  O21  1  0.706048  0.502032  0.563507  1
  O  O22  1  0.911200  0.747800  0.475826  1
  O  O23  1  0.793952  0.002032  0.936493  1
