# generated using pymatgen
data_Nb5(AsPd)4
_symmetry_space_group_name_H-M   'P 1'
_cell_length_a   3.81775301
_cell_length_b   7.74665216
_cell_length_c   7.74665217
_cell_angle_alpha   86.51889273
_cell_angle_beta   75.73464158
_cell_angle_gamma   75.73464161
_symmetry_Int_Tables_number   1
_chemical_formula_structural   Nb5(AsPd)4
_chemical_formula_sum   'Nb5 As4 Pd4'
_cell_volume   215.19455980
_cell_formula_units_Z   1
loop_
 _symmetry_equiv_pos_site_id
 _symmetry_equiv_pos_as_xyz
  1  'x, y, z'
loop_
 _atom_site_type_symbol
 _atom_site_label
 _atom_site_symmetry_multiplicity
 _atom_site_fract_x
 _atom_site_fract_y
 _atom_site_fract_z
 _atom_site_occupancy
  As  As0  1  0.934064  0.822003  0.309869  1
  As  As1  1  0.065936  0.177997  0.690131  1
  As  As2  1  0.243933  0.690131  0.822003  1
  As  As3  1  0.756067  0.309869  0.177997  1
  Nb  Nb4  1  0.381724  0.306226  0.930326  1
  Nb  Nb5  1  0.618276  0.693774  0.069674  1
  Nb  Nb6  1  0.000000  0.000000  0.000000  1
  Nb  Nb7  1  0.687950  0.930326  0.693774  1
  Nb  Nb8  1  0.312050  0.069674  0.306226  1
  Pd  Pd9  1  0.596192  0.292387  0.515229  1
  Pd  Pd10  1  0.111421  0.484771  0.292387  1
  Pd  Pd11  1  0.403808  0.707613  0.484771  1
  Pd  Pd12  1  0.888579  0.515229  0.707613  1
