# generated using pymatgen
data_Sn(PO3)2
_symmetry_space_group_name_H-M   'P 1'
_cell_length_a   7.33599231
_cell_length_b   8.02940878
_cell_length_c   17.52944515
_cell_angle_alpha   90.00000000
_cell_angle_beta   91.25391244
_cell_angle_gamma   90.00000000
_symmetry_Int_Tables_number   1
_chemical_formula_structural   Sn(PO3)2
_chemical_formula_sum   'Sn8 P16 O48'
_cell_volume   1032.30158676
_cell_formula_units_Z   8
loop_
 _symmetry_equiv_pos_site_id
 _symmetry_equiv_pos_as_xyz
  1  'x, y, z'
loop_
 _atom_site_type_symbol
 _atom_site_label
 _atom_site_symmetry_multiplicity
 _atom_site_fract_x
 _atom_site_fract_y
 _atom_site_fract_z
 _atom_site_occupancy
  Sn  Sn0  1  0.029249  0.127342  0.897827  1
  Sn  Sn1  1  0.029249  0.372658  0.397827  1
  Sn  Sn2  1  0.479988  0.640737  0.674604  1
  Sn  Sn3  1  0.479988  0.859263  0.174604  1
  Sn  Sn4  1  0.520012  0.140737  0.825396  1
  Sn  Sn5  1  0.520012  0.359263  0.325396  1
  Sn  Sn6  1  0.970751  0.627342  0.602173  1
  Sn  Sn7  1  0.970751  0.872658  0.102173  1
  P  P8  1  0.128570  0.013520  0.693526  1
  P  P9  1  0.128570  0.486480  0.193526  1
  P  P10  1  0.244421  0.288885  0.589730  1
  P  P11  1  0.244421  0.211115  0.089730  1
  P  P12  1  0.268373  0.514436  0.856342  1
  P  P13  1  0.268373  0.985564  0.356342  1
  P  P14  1  0.363655  0.803095  0.959472  1
  P  P15  1  0.363655  0.696905  0.459472  1
  P  P16  1  0.636345  0.303095  0.540528  1
  P  P17  1  0.636345  0.196905  0.040528  1
  P  P18  1  0.731628  0.014436  0.643658  1
  P  P19  1  0.731628  0.485564  0.143658  1
  P  P20  1  0.755579  0.788885  0.910270  1
  P  P21  1  0.755579  0.711115  0.410270  1
  P  P22  1  0.871430  0.513520  0.806474  1
  P  P23  1  0.871430  0.986480  0.306474  1
  O  O24  1  0.084961  0.564601  0.810388  1
  O  O25  1  0.091326  0.336106  0.534986  1
  O  O26  1  0.084961  0.935399  0.310388  1
  O  O27  1  0.091326  0.163894  0.034986  1
  O  O28  1  0.153148  0.829515  0.681596  1
  O  O29  1  0.153148  0.670485  0.181596  1
  O  O30  1  0.201619  0.092482  0.765748  1
  O  O31  1  0.206997  0.102603  0.618629  1
  O  O32  1  0.201619  0.407518  0.265748  1
  O  O33  1  0.206997  0.397397  0.118629  1
  O  O34  1  0.254392  0.338717  0.886799  1
  O  O35  1  0.264767  0.635252  0.929691  1
  O  O36  1  0.254392  0.161283  0.386799  1
  O  O37  1  0.264767  0.864748  0.429691  1
  O  O38  1  0.280163  0.406433  0.655936  1
  O  O39  1  0.280163  0.093567  0.155936  1
  O  O40  1  0.311834  0.678831  0.541546  1
  O  O41  1  0.327326  0.947103  0.905431  1
  O  O42  1  0.311834  0.821169  0.041546  1
  O  O43  1  0.327326  0.552897  0.405431  1
  O  O44  1  0.427336  0.555704  0.806906  1
  O  O45  1  0.423252  0.255628  0.541151  1
  O  O46  1  0.427336  0.944296  0.306906  1
  O  O47  1  0.423252  0.244372  0.041151  1
  O  O48  1  0.576748  0.755628  0.958849  1
  O  O49  1  0.572664  0.055704  0.693094  1
  O  O50  1  0.576748  0.744372  0.458849  1
  O  O51  1  0.572664  0.444296  0.193094  1
  O  O52  1  0.672674  0.447103  0.594569  1
  O  O53  1  0.688166  0.178831  0.958454  1
  O  O54  1  0.672674  0.052897  0.094569  1
  O  O55  1  0.688166  0.321169  0.458454  1
  O  O56  1  0.719837  0.906433  0.844064  1
  O  O57  1  0.719837  0.593567  0.344064  1
  O  O58  1  0.735233  0.135252  0.570309  1
  O  O59  1  0.745608  0.838717  0.613201  1
  O  O60  1  0.735233  0.364748  0.070309  1
  O  O61  1  0.745608  0.661283  0.113201  1
  O  O62  1  0.793003  0.602603  0.881371  1
  O  O63  1  0.798381  0.592482  0.734252  1
  O  O64  1  0.793003  0.897397  0.381371  1
  O  O65  1  0.798381  0.907518  0.234252  1
  O  O66  1  0.846852  0.329515  0.818404  1
  O  O67  1  0.846852  0.170485  0.318404  1
  O  O68  1  0.908674  0.836106  0.965014  1
  O  O69  1  0.915039  0.064601  0.689612  1
  O  O70  1  0.908674  0.663894  0.465014  1
  O  O71  1  0.915039  0.435399  0.189612  1
