# generated using pymatgen
data_Li4Ti3V3Cr2O16
_symmetry_space_group_name_H-M   'P 1'
_cell_length_a   5.92542439
_cell_length_b   5.88557745
_cell_length_c   9.62822431
_cell_angle_alpha   89.98890284
_cell_angle_beta   90.12299463
_cell_angle_gamma   119.79293339
_symmetry_Int_Tables_number   1
_chemical_formula_structural   Li4Ti3V3Cr2O16
_chemical_formula_sum   'Li4 Ti3 V3 Cr2 O16'
_cell_volume   291.39798714
_cell_formula_units_Z   1
loop_
 _symmetry_equiv_pos_site_id
 _symmetry_equiv_pos_as_xyz
  1  'x, y, z'
loop_
 _atom_site_type_symbol
 _atom_site_label
 _atom_site_symmetry_multiplicity
 _atom_site_fract_x
 _atom_site_fract_y
 _atom_site_fract_z
 _atom_site_occupancy
  Li  Li0  1  0.337252  0.668608  0.893059  1
  Li  Li1  1  0.995492  0.997739  0.994467  1
  Li  Li2  1  0.001257  0.000516  0.497326  1
  Li  Li3  1  0.667202  0.333742  0.392373  1
  Ti  Ti4  1  0.174543  0.834462  0.215584  1
  Ti  Ti5  1  0.174202  0.339922  0.215684  1
  Ti  Ti6  1  0.336163  0.168106  0.720955  1
  V  V7  1  0.661771  0.830844  0.209215  1
  V  V8  1  0.834792  0.180770  0.708557  1
  V  V9  1  0.834950  0.653809  0.708656  1
  Cr  Cr10  1  0.336630  0.668268  0.485934  1
  Cr  Cr11  1  0.670437  0.335275  0.985418  1
  O  O12  1  0.165264  0.833330  0.604445  1
  O  O13  1  0.042803  0.521237  0.339017  1
  O  O14  1  0.311657  0.655916  0.101228  1
  O  O15  1  0.010718  0.005214  0.311713  1
  O  O16  1  0.002297  0.000878  0.809208  1
  O  O17  1  0.165392  0.332008  0.604488  1
  O  O18  1  0.474768  0.961007  0.339356  1
  O  O19  1  0.474674  0.513841  0.339400  1
  O  O20  1  0.328651  0.164430  0.103435  1
  O  O21  1  0.676033  0.837863  0.605803  1
  O  O22  1  0.517840  0.477237  0.838740  1
  O  O23  1  0.517631  0.040651  0.838789  1
  O  O24  1  0.647045  0.323971  0.597572  1
  O  O25  1  0.838849  0.670868  0.104365  1
  O  O26  1  0.962800  0.481749  0.838771  1
  O  O27  1  0.838888  0.168040  0.104281  1
