# generated using pymatgen
data_LiFe2O3F
_symmetry_space_group_name_H-M   'P 1'
_cell_length_a   5.99067849
_cell_length_b   8.02681498
_cell_length_c   8.02681498
_cell_angle_alpha   116.06454491
_cell_angle_beta   112.30918563
_cell_angle_gamma   67.69081437
_symmetry_Int_Tables_number   1
_chemical_formula_structural   LiFe2O3F
_chemical_formula_sum   'Li4 Fe8 O12 F4'
_cell_volume   310.07583507
_cell_formula_units_Z   4
loop_
 _symmetry_equiv_pos_site_id
 _symmetry_equiv_pos_as_xyz
  1  'x, y, z'
loop_
 _atom_site_type_symbol
 _atom_site_label
 _atom_site_symmetry_multiplicity
 _atom_site_fract_x
 _atom_site_fract_y
 _atom_site_fract_z
 _atom_site_occupancy
  Li  Li0  1  0.364232  0.988275  0.251109  1
  Li  Li1  1  0.126435  0.263238  0.996217  1
  Li  Li2  1  0.864232  0.748891  0.011725  1
  Li  Li3  1  0.626435  0.003783  0.736762  1
  Fe  Fe4  1  0.758431  0.234595  0.221626  1
  Fe  Fe5  1  0.018253  0.990133  0.503659  1
  Fe  Fe6  1  0.518253  0.496341  0.009867  1
  Fe  Fe7  1  0.882917  0.629481  0.375268  1
  Fe  Fe8  1  0.118957  0.358201  0.612901  1
  Fe  Fe9  1  0.618957  0.387099  0.641799  1
  Fe  Fe10  1  0.382917  0.624732  0.370519  1
  Fe  Fe11  1  0.258431  0.778374  0.765405  1
  O  O12  1  0.091716  0.129949  0.379832  1
  O  O13  1  0.408840  0.385403  0.139199  1
  O  O14  1  0.865903  0.384340  0.140515  1
  O  O15  1  0.750467  0.477708  0.486524  1
  O  O16  1  0.972511  0.252078  0.716691  1
  O  O17  1  0.521953  0.724712  0.255857  1
  O  O18  1  0.472511  0.283309  0.747922  1
  O  O19  1  0.021953  0.744143  0.275288  1
  O  O20  1  0.250467  0.513476  0.522292  1
  O  O21  1  0.908840  0.860801  0.614597  1
  O  O22  1  0.591716  0.620168  0.870051  1
  O  O23  1  0.365903  0.859485  0.615660  1
  F  F24  1  0.242937  0.001032  0.997073  1
  F  F25  1  0.626447  0.129540  0.372210  1
  F  F26  1  0.126446  0.627790  0.870460  1
  F  F27  1  0.742937  0.002927  0.998968  1
