# generated using pymatgen
data_V2(OF)3
_symmetry_space_group_name_H-M   'P 1'
_cell_length_a   5.19115437
_cell_length_b   13.23392123
_cell_length_c   5.22055615
_cell_angle_alpha   89.01025316
_cell_angle_beta   119.37687177
_cell_angle_gamma   90.60797741
_symmetry_Int_Tables_number   1
_chemical_formula_structural   V2(OF)3
_chemical_formula_sum   'V6 O9 F9'
_cell_volume   312.48317532
_cell_formula_units_Z   3
loop_
 _symmetry_equiv_pos_site_id
 _symmetry_equiv_pos_as_xyz
  1  'x, y, z'
loop_
 _atom_site_type_symbol
 _atom_site_label
 _atom_site_symmetry_multiplicity
 _atom_site_fract_x
 _atom_site_fract_y
 _atom_site_fract_z
 _atom_site_occupancy
  V  V0  1  0.040764  0.487571  0.034767  1
  V  V1  1  0.039400  0.999386  0.011809  1
  V  V2  1  0.640667  0.826646  0.344006  1
  V  V3  1  0.315706  0.667358  0.708116  1
  V  V4  1  0.716615  0.327523  0.363304  1
  V  V5  1  0.366515  0.157253  0.680762  1
  O  O6  1  0.414491  0.748451  0.986419  1
  O  O7  1  0.328124  0.419391  0.089153  1
  O  O8  1  0.313670  0.917726  0.227353  1
  O  O9  1  0.999070  0.251437  0.573257  1
  O  O10  1  0.088591  0.585724  0.753227  1
  O  O11  1  0.567983  0.750997  0.559989  1
  O  O12  1  0.910882  0.423234  0.235478  1
  O  O13  1  0.226043  0.081312  0.907816  1
  O  O14  1  0.654662  0.082710  0.755016  1
  F  F15  1  0.004606  0.751177  0.410806  1
  F  F16  1  0.069530  0.082628  0.325840  1
  F  F17  1  0.243993  0.586931  0.323601  1
  F  F18  1  0.584956  0.255057  0.991318  1
  F  F19  1  0.749394  0.918850  0.082390  1
  F  F20  1  0.408606  0.251002  0.405367  1
  F  F21  1  0.748020  0.420642  0.671239  1
  F  F22  1  0.912839  0.919469  0.660282  1
  F  F23  1  0.654872  0.587525  0.898686  1
