# generated using pymatgen
data_Li2CuPO4
_symmetry_space_group_name_H-M   'P 1'
_cell_length_a   6.23811251
_cell_length_b   5.35831920
_cell_length_c   5.06792988
_cell_angle_alpha   90.32507567
_cell_angle_beta   89.99966236
_cell_angle_gamma   89.63364556
_symmetry_Int_Tables_number   1
_chemical_formula_structural   Li2CuPO4
_chemical_formula_sum   'Li4 Cu2 P2 O8'
_cell_volume   169.39341113
_cell_formula_units_Z   2
loop_
 _symmetry_equiv_pos_site_id
 _symmetry_equiv_pos_as_xyz
  1  'x, y, z'
loop_
 _atom_site_type_symbol
 _atom_site_label
 _atom_site_symmetry_multiplicity
 _atom_site_fract_x
 _atom_site_fract_y
 _atom_site_fract_z
 _atom_site_occupancy
  Li  Li0  1  0.999356  0.155215  0.491761  1
  Li  Li1  1  0.248283  0.328066  0.996959  1
  Li  Li2  1  0.253996  0.672866  0.491275  1
  Li  Li3  1  0.745898  0.674901  0.490085  1
  Cu  Cu4  1  0.501326  0.820722  0.998862  1
  Cu  Cu5  1  0.749976  0.331927  0.004488  1
  P  P6  1  0.005122  0.827269  0.997391  1
  P  P7  1  0.494692  0.178519  0.497646  1
  O  O8  1  0.013608  0.099653  0.892716  1
  O  O9  1  0.000210  0.820385  0.304853  1
  O  O10  1  0.203564  0.679111  0.889643  1
  O  O11  1  0.292187  0.313043  0.386908  1
  O  O12  1  0.487052  0.188967  0.804259  1
  O  O13  1  0.498390  0.898510  0.408300  1
  O  O14  1  0.705758  0.312060  0.408000  1
  O  O15  1  0.800582  0.698785  0.879444  1
