# generated using pymatgen
data_Sr4Hf3O10
_symmetry_space_group_name_H-M   'P 1'
_cell_length_a   5.80235954
_cell_length_b   15.05270450
_cell_length_c   29.53940228
_cell_angle_alpha   11.12800368
_cell_angle_beta   90.00000791
_cell_angle_gamma   89.99997694
_symmetry_Int_Tables_number   1
_chemical_formula_structural   Sr4Hf3O10
_chemical_formula_sum   'Sr8 Hf6 O20'
_cell_volume   497.94535699
_cell_formula_units_Z   2
loop_
 _symmetry_equiv_pos_site_id
 _symmetry_equiv_pos_as_xyz
  1  'x, y, z'
loop_
 _atom_site_type_symbol
 _atom_site_label
 _atom_site_symmetry_multiplicity
 _atom_site_fract_x
 _atom_site_fract_y
 _atom_site_fract_z
 _atom_site_occupancy
  Sr  Sr0  1  0.000007  0.999983  0.569993  1
  Sr  Sr1  1  -0.000001  0.999933  0.295003  1
  Sr  Sr2  1  -0.000003  0.999930  0.705072  1
  Sr  Sr3  1  0.000006  0.999984  0.430045  1
  Sr  Sr4  1  0.499998  0.000068  0.794936  1
  Sr  Sr5  1  0.500008  0.000014  0.069954  1
  Sr  Sr6  1  0.499999  0.000068  0.205000  1
  Sr  Sr7  1  0.500005  0.000012  0.930030  1
  Hf  Hf8  1  0.999991  0.000017  0.999996  1
  Hf  Hf9  1  0.999972  0.999945  0.141676  1
  Hf  Hf10  1  0.999971  0.999942  0.858388  1
  Hf  Hf11  1  0.499972  0.000055  0.358326  1
  Hf  Hf12  1  0.499991  0.999983  0.500010  1
  Hf  Hf13  1  0.499970  0.000058  0.641620  1
  O  O14  1  0.000008  0.000018  0.070268  1
  O  O15  1  0.000006  0.999958  0.212161  1
  O  O16  1  0.000004  0.999951  0.787896  1
  O  O17  1  0.000010  0.000009  0.929725  1
  O  O18  1  0.197378  0.605104  0.697450  1
  O  O19  1  0.214936  0.430241  0.144512  1
  O  O20  1  0.214930  0.430243  0.425251  1
  O  O21  1  0.284546  0.430915  0.924935  1
  O  O22  1  0.284551  0.430907  0.644159  1
  O  O23  1  0.302478  0.604915  0.197542  1
  O  O24  1  0.500009  0.999992  0.570281  1
  O  O25  1  0.500005  0.000044  0.287845  1
  O  O26  1  0.500006  0.000047  0.712113  1
  O  O27  1  0.500010  0.999986  0.429733  1
  O  O28  1  0.697374  0.394887  0.802556  1
  O  O29  1  0.714941  0.569751  0.355497  1
  O  O30  1  0.714931  0.569752  0.074755  1
  O  O31  1  0.784551  0.569096  0.855845  1
  O  O32  1  0.784550  0.569099  0.575062  1
  O  O33  1  0.802475  0.395093  0.302453  1
