# generated using pymatgen
data_Li5BiS4
_symmetry_space_group_name_H-M   'P 1'
_cell_length_a   9.22690876
_cell_length_b   7.84183714
_cell_length_c   5.78065601
_cell_angle_alpha   90.00000000
_cell_angle_beta   90.00000000
_cell_angle_gamma   90.00000000
_symmetry_Int_Tables_number   1
_chemical_formula_structural   Li5BiS4
_chemical_formula_sum   'Li10 Bi2 S8'
_cell_volume   418.26465954
_cell_formula_units_Z   2
loop_
 _symmetry_equiv_pos_site_id
 _symmetry_equiv_pos_as_xyz
  1  'x, y, z'
loop_
 _atom_site_type_symbol
 _atom_site_label
 _atom_site_symmetry_multiplicity
 _atom_site_fract_x
 _atom_site_fract_y
 _atom_site_fract_z
 _atom_site_occupancy
  Li  Li0  1  0.047994  0.013160  0.758274  1
  Li  Li1  1  0.047994  0.486840  0.758274  1
  Li  Li2  1  0.250000  0.750000  0.232806  1
  Li  Li3  1  0.452006  0.013160  0.758274  1
  Li  Li4  1  0.452006  0.486840  0.758274  1
  Li  Li5  1  0.547994  0.986840  0.241726  1
  Li  Li6  1  0.547994  0.513160  0.241726  1
  Li  Li7  1  0.750000  0.250000  0.767194  1
  Li  Li8  1  0.952006  0.986840  0.241726  1
  Li  Li9  1  0.952006  0.513160  0.241726  1
  Bi  Bi10  1  0.250000  0.250000  0.191063  1
  Bi  Bi11  1  0.750000  0.750000  0.808937  1
  S  S12  1  0.969472  0.250000  0.009513  1
  S  S13  1  0.250000  0.999595  0.483266  1
  S  S14  1  0.250000  0.500405  0.483266  1
  S  S15  1  0.530528  0.250000  0.009513  1
  S  S16  1  0.469471  0.750000  0.990487  1
  S  S17  1  0.750000  0.000405  0.516734  1
  S  S18  1  0.750000  0.499595  0.516734  1
  S  S19  1  0.030529  0.750000  0.990487  1
