# generated using pymatgen
data_LiVSO4F3
_symmetry_space_group_name_H-M   'P 1'
_cell_length_a   7.20745675
_cell_length_b   7.67992641
_cell_length_c   9.97817026
_cell_angle_alpha   90.00000000
_cell_angle_beta   90.00000000
_cell_angle_gamma   90.00000000
_symmetry_Int_Tables_number   1
_chemical_formula_structural   LiVSO4F3
_chemical_formula_sum   'Li4 V4 S4 O16 F12'
_cell_volume   552.31903857
_cell_formula_units_Z   4
loop_
 _symmetry_equiv_pos_site_id
 _symmetry_equiv_pos_as_xyz
  1  'x, y, z'
loop_
 _atom_site_type_symbol
 _atom_site_label
 _atom_site_symmetry_multiplicity
 _atom_site_fract_x
 _atom_site_fract_y
 _atom_site_fract_z
 _atom_site_occupancy
  Li  Li0  1  0.190832  0.888698  0.277317  1
  Li  Li1  1  0.309168  0.388698  0.777317  1
  Li  Li2  1  0.690832  0.111302  0.277317  1
  Li  Li3  1  0.809168  0.611302  0.777317  1
  V  V4  1  0.995033  0.997876  0.990559  1
  V  V5  1  0.004967  0.502124  0.490559  1
  V  V6  1  0.495033  0.002124  0.990559  1
  V  V7  1  0.504967  0.497876  0.490559  1
  S  S8  1  0.241616  0.159816  0.511575  1
  S  S9  1  0.258384  0.659816  0.011575  1
  S  S10  1  0.741616  0.840184  0.511575  1
  S  S11  1  0.758384  0.340184  0.011575  1
  O  O12  1  0.097269  0.278987  0.439949  1
  O  O13  1  0.113994  0.785371  0.072674  1
  O  O14  1  0.175897  0.555972  0.904249  1
  O  O15  1  0.155174  0.067883  0.619417  1
  O  O16  1  0.324103  0.055972  0.404249  1
  O  O17  1  0.344826  0.567883  0.119417  1
  O  O18  1  0.402731  0.778987  0.939949  1
  O  O19  1  0.386006  0.285371  0.572674  1
  O  O20  1  0.613994  0.214629  0.072674  1
  O  O21  1  0.597269  0.721013  0.439949  1
  O  O22  1  0.675897  0.444028  0.904249  1
  O  O23  1  0.655174  0.932117  0.619417  1
  O  O24  1  0.844826  0.432117  0.119417  1
  O  O25  1  0.824103  0.944028  0.404249  1
  O  O26  1  0.886006  0.714629  0.572674  1
  O  O27  1  0.902731  0.221013  0.939949  1
  F  F28  1  0.038608  0.448598  0.670537  1
  F  F29  1  0.003549  0.894166  0.831432  1
  F  F30  1  0.260796  0.603573  0.491260  1
  F  F31  1  0.239204  0.103573  0.991260  1
  F  F32  1  0.461392  0.948598  0.170537  1
  F  F33  1  0.496451  0.394166  0.331432  1
  F  F34  1  0.503549  0.105834  0.831432  1
  F  F35  1  0.538608  0.551402  0.670537  1
  F  F36  1  0.760796  0.396427  0.491260  1
  F  F37  1  0.739204  0.896427  0.991260  1
  F  F38  1  0.961392  0.051402  0.170537  1
  F  F39  1  0.996451  0.605834  0.331432  1
