# generated using pymatgen
data_Li4Ti2Mn5O12
_symmetry_space_group_name_H-M   'P 1'
_cell_length_a   5.29415578
_cell_length_b   9.07305134
_cell_length_c   10.06514160
_cell_angle_alpha   89.99999800
_cell_angle_beta   98.99965056
_cell_angle_gamma   90.00000030
_symmetry_Int_Tables_number   1
_chemical_formula_structural   Li4Ti2Mn5O12
_chemical_formula_sum   'Li8 Ti4 Mn10 O24'
_cell_volume   477.51862969
_cell_formula_units_Z   2
loop_
 _symmetry_equiv_pos_site_id
 _symmetry_equiv_pos_as_xyz
  1  'x, y, z'
loop_
 _atom_site_type_symbol
 _atom_site_label
 _atom_site_symmetry_multiplicity
 _atom_site_fract_x
 _atom_site_fract_y
 _atom_site_fract_z
 _atom_site_occupancy
  Li  Li0  1  0.242786  0.092641  0.991687  1
  Li  Li1  1  0.757787  0.089025  0.509146  1
  Li  Li2  1  0.497355  0.414521  0.751782  1
  Li  Li3  1  0.748259  0.410321  0.509355  1
  Li  Li4  1  0.257214  0.592641  0.508313  1
  Li  Li5  1  0.742213  0.589025  0.990854  1
  Li  Li6  1  0.002645  0.914521  0.748218  1
  Li  Li7  1  0.751741  0.910321  0.990645  1
  Ti  Ti8  1  0.008705  0.242743  0.754838  1
  Ti  Ti9  1  0.491670  0.246724  0.243399  1
  Ti  Ti10  1  0.008330  0.746724  0.256601  1
  Ti  Ti11  1  0.491295  0.742743  0.745162  1
  Mn  Mn12  1  0.999921  0.078222  0.255188  1
  Mn  Mn13  1  0.499326  0.073597  0.744694  1
  Mn  Mn14  1  0.260142  0.253009  0.506678  1
  Mn  Mn15  1  0.004148  0.420047  0.248410  1
  Mn  Mn16  1  0.732275  0.262496  0.989576  1
  Mn  Mn17  1  0.000674  0.573597  0.755306  1
  Mn  Mn18  1  0.500079  0.578222  0.244812  1
  Mn  Mn19  1  0.239858  0.753009  0.993322  1
  Mn  Mn20  1  0.767725  0.762496  0.510424  1
  Mn  Mn21  1  0.495852  0.920047  0.251590  1
  O  O22  1  0.107346  0.104798  0.631105  1
  O  O23  1  0.395634  0.102555  0.366767  1
  O  O24  1  0.362659  0.230516  0.854663  1
  O  O25  1  0.147133  0.239608  0.142977  1
  O  O26  1  0.614536  0.099927  0.128337  1
  O  O27  1  0.886112  0.101964  0.874655  1
  O  O28  1  0.106836  0.411813  0.636543  1
  O  O29  1  0.635127  0.237555  0.636653  1
  O  O30  1  0.392630  0.409772  0.367019  1
  O  O31  1  0.862042  0.247416  0.363581  1
  O  O32  1  0.624291  0.409641  0.135822  1
  O  O33  1  0.870805  0.412045  0.857799  1
  O  O34  1  0.104366  0.602555  0.133233  1
  O  O35  1  0.392654  0.604798  0.868895  1
  O  O36  1  0.137341  0.730516  0.645337  1
  O  O37  1  0.613888  0.601964  0.625345  1
  O  O38  1  0.352867  0.739608  0.357023  1
  O  O39  1  0.885464  0.599927  0.371663  1
  O  O40  1  0.107370  0.909772  0.132981  1
  O  O41  1  0.864873  0.737555  0.863347  1
  O  O42  1  0.393164  0.911813  0.863457  1
  O  O43  1  0.637958  0.747416  0.136419  1
  O  O44  1  0.629195  0.912045  0.642201  1
  O  O45  1  0.875709  0.909641  0.364178  1
