# generated using pymatgen
data_Ni3OF5
_symmetry_space_group_name_H-M   'P 1'
_cell_length_a   4.70557288
_cell_length_b   7.76328383
_cell_length_c   5.63377659
_cell_angle_alpha   93.99401398
_cell_angle_beta   90.85297544
_cell_angle_gamma   89.29604542
_symmetry_Int_Tables_number   1
_chemical_formula_structural   Ni3OF5
_chemical_formula_sum   'Ni6 O2 F10'
_cell_volume   205.27015094
_cell_formula_units_Z   2
loop_
 _symmetry_equiv_pos_site_id
 _symmetry_equiv_pos_as_xyz
  1  'x, y, z'
loop_
 _atom_site_type_symbol
 _atom_site_label
 _atom_site_symmetry_multiplicity
 _atom_site_fract_x
 _atom_site_fract_y
 _atom_site_fract_z
 _atom_site_occupancy
  Ni  Ni0  1  0.489806  0.007207  0.498301  1
  Ni  Ni1  1  0.510194  0.659460  0.168366  1
  Ni  Ni2  1  0.500000  0.333333  0.833333  1
  Ni  Ni3  1  0.000733  0.669284  0.664659  1
  Ni  Ni4  1  0.000000  0.333333  0.333333  1
  Ni  Ni5  1  0.999267  0.997383  0.002008  1
  O  O6  1  0.697107  0.431333  0.129134  1
  O  O7  1  0.302893  0.235334  0.537532  1
  F  F8  1  0.799962  0.438340  0.629374  1
  F  F9  1  0.804911  0.765619  0.964362  1
  F  F10  1  0.805167  0.098961  0.300430  1
  F  F11  1  0.699272  0.100008  0.797694  1
  F  F12  1  0.693912  0.773138  0.467014  1
  F  F13  1  0.300728  0.566659  0.868973  1
  F  F14  1  0.306088  0.893528  0.199653  1
  F  F15  1  0.200038  0.228326  0.037293  1
  F  F16  1  0.194833  0.567706  0.366237  1
  F  F17  1  0.195089  0.901048  0.702304  1
