# generated using pymatgen
data_BaSO3
_symmetry_space_group_name_H-M   'P 1'
_cell_length_a   4.71665764
_cell_length_b   5.57264332
_cell_length_c   6.79782869
_cell_angle_alpha   90.00000000
_cell_angle_beta   106.78654535
_cell_angle_gamma   90.00000000
_symmetry_Int_Tables_number   1
_chemical_formula_structural   BaSO3
_chemical_formula_sum   'Ba2 S2 O6'
_cell_volume   171.06198176
_cell_formula_units_Z   2
loop_
 _symmetry_equiv_pos_site_id
 _symmetry_equiv_pos_as_xyz
  1  'x, y, z'
loop_
 _atom_site_type_symbol
 _atom_site_label
 _atom_site_symmetry_multiplicity
 _atom_site_fract_x
 _atom_site_fract_y
 _atom_site_fract_z
 _atom_site_occupancy
  Ba  Ba0  1  0.344622  0.750000  0.726069  1
  Ba  Ba1  1  0.655378  0.250000  0.273931  1
  S  S2  1  0.073497  0.750000  0.176200  1
  S  S3  1  0.926503  0.250000  0.823800  1
  O  O4  1  0.268699  0.250000  0.870854  1
  O  O5  1  0.176799  0.530718  0.318883  1
  O  O6  1  0.176799  0.969282  0.318883  1
  O  O7  1  0.823201  0.030718  0.681117  1
  O  O8  1  0.823201  0.469282  0.681117  1
  O  O9  1  0.731301  0.750000  0.129146  1
