# generated using pymatgen
data_Ba7Cu3H17
_symmetry_space_group_name_H-M   'P 1'
_cell_length_a   11.90338698
_cell_length_b   11.90338731
_cell_length_c   7.44798539
_cell_angle_alpha   89.99853337
_cell_angle_beta   89.99853335
_cell_angle_gamma   120.00637115
_symmetry_Int_Tables_number   1
_chemical_formula_structural   Ba7Cu3H17
_chemical_formula_sum   'Ba14 Cu6 H34'
_cell_volume   913.86633577
_cell_formula_units_Z   2
loop_
 _symmetry_equiv_pos_site_id
 _symmetry_equiv_pos_as_xyz
  1  'x, y, z'
loop_
 _atom_site_type_symbol
 _atom_site_label
 _atom_site_symmetry_multiplicity
 _atom_site_fract_x
 _atom_site_fract_y
 _atom_site_fract_z
 _atom_site_occupancy
  Ba  Ba0  1  0.878443  0.153256  0.672817  1
  Ba  Ba1  1  0.846655  0.725226  0.672708  1
  Ba  Ba2  1  0.274835  0.121626  0.672752  1
  Ba  Ba3  1  0.153256  0.878443  0.172817  1
  Ba  Ba4  1  0.725226  0.846655  0.172708  1
  Ba  Ba5  1  0.121626  0.274835  0.172752  1
  Ba  Ba6  1  0.452946  0.557355  0.533063  1
  Ba  Ba7  1  0.442564  0.895619  0.532964  1
  Ba  Ba8  1  0.104429  0.547093  0.533038  1
  Ba  Ba9  1  0.557355  0.452946  0.033063  1
  Ba  Ba10  1  0.895619  0.442564  0.032964  1
  Ba  Ba11  1  0.547093  0.104429  0.033038  1
  Ba  Ba12  1  0.666669  0.333345  0.515387  1
  Ba  Ba13  1  0.333345  0.666669  0.015387  1
  Cu  Cu14  1  0.656295  0.836869  0.758742  1
  Cu  Cu15  1  0.163253  0.819733  0.758894  1
  Cu  Cu16  1  0.180340  0.343654  0.758759  1
  Cu  Cu17  1  0.836869  0.656295  0.258742  1
  Cu  Cu18  1  0.819733  0.163253  0.258894  1
  Cu  Cu19  1  0.343654  0.180340  0.258759  1
  H  H20  1  0.586167  0.907782  0.863344  1
  H  H21  1  0.092364  0.678762  0.863061  1
  H  H22  1  0.321251  0.413635  0.863092  1
  H  H23  1  0.907782  0.586167  0.363344  1
  H  H24  1  0.678762  0.092364  0.363061  1
  H  H25  1  0.413635  0.321251  0.363092  1
  H  H26  1  0.637645  0.819950  0.538544  1
  H  H27  1  0.180038  0.817740  0.538852  1
  H  H28  1  0.182265  0.362336  0.538760  1
  H  H29  1  0.819950  0.637645  0.038544  1
  H  H30  1  0.817740  0.180038  0.038851  1
  H  H31  1  0.362336  0.182265  0.038760  1
  H  H32  1  0.603874  0.692864  0.849192  1
  H  H33  1  0.307455  0.911303  0.849346  1
  H  H34  1  0.088705  0.396223  0.849382  1
  H  H35  1  0.692864  0.603874  0.349192  1
  H  H36  1  0.911303  0.307455  0.349346  1
  H  H37  1  0.396223  0.088705  0.349382  1
  H  H38  1  0.812206  0.914673  0.812525  1
  H  H39  1  0.085168  0.897765  0.812595  1
  H  H40  1  0.102298  0.187559  0.812567  1
  H  H41  1  0.914673  0.812206  0.312525  1
  H  H42  1  0.897765  0.085168  0.312595  1
  H  H43  1  0.187559  0.102298  0.312567  1
  H  H44  1  0.876716  0.376661  0.690053  1
  H  H45  1  0.623332  0.500057  0.690092  1
  H  H46  1  0.499957  0.123301  0.690083  1
  H  H47  1  0.376661  0.876716  0.190053  1
  H  H48  1  0.500057  0.623332  0.190092  1
  H  H49  1  0.123301  0.499957  0.190083  1
  H  H50  1  0.666675  0.333335  0.180065  1
  H  H51  1  0.333335  0.666675  0.680065  1
  H  H52  1  0.666678  0.333351  0.871323  1
  H  H53  1  0.333351  0.666678  0.371323  1
