# generated using pymatgen
data_FeH16C4S4(N4Cl)2
_symmetry_space_group_name_H-M   'P 1'
_cell_length_a   13.78453923
_cell_length_b   13.78453923
_cell_length_c   9.17549279
_cell_angle_alpha   90.00000000
_cell_angle_beta   90.00000000
_cell_angle_gamma   90.00000000
_symmetry_Int_Tables_number   1
_chemical_formula_structural   FeH16C4S4(N4Cl)2
_chemical_formula_sum   'Fe4 H64 C16 S16 N32 Cl8'
_cell_volume   1743.46769913
_cell_formula_units_Z   4
loop_
 _symmetry_equiv_pos_site_id
 _symmetry_equiv_pos_as_xyz
  1  'x, y, z'
loop_
 _atom_site_type_symbol
 _atom_site_label
 _atom_site_symmetry_multiplicity
 _atom_site_fract_x
 _atom_site_fract_y
 _atom_site_fract_z
 _atom_site_occupancy
  Fe  Fe0  1  0.500000  0.500000  0.000000  1
  Fe  Fe1  1  0.000000  0.000000  0.000000  1
  Fe  Fe2  1  0.000000  0.500000  0.500000  1
  Fe  Fe3  1  0.500000  0.000000  0.500000  1
  H  H4  1  0.306742  0.168784  0.987824  1
  H  H5  1  0.193258  0.331216  0.987824  1
  H  H6  1  0.668784  0.693258  0.487824  1
  H  H7  1  0.831216  0.806742  0.487824  1
  H  H8  1  0.693258  0.831216  0.012176  1
  H  H9  1  0.806742  0.668784  0.012176  1
  H  H10  1  0.331216  0.306742  0.512176  1
  H  H11  1  0.168784  0.193258  0.512176  1
  H  H12  1  0.387300  0.107793  0.870029  1
  H  H13  1  0.112700  0.392207  0.870029  1
  H  H14  1  0.607793  0.612700  0.370029  1
  H  H15  1  0.892207  0.887300  0.370029  1
  H  H16  1  0.612700  0.892207  0.129971  1
  H  H17  1  0.887300  0.607793  0.129971  1
  H  H18  1  0.392207  0.387300  0.629971  1
  H  H19  1  0.107793  0.112700  0.629971  1
  H  H20  1  0.501240  0.193351  0.739108  1
  H  H21  1  0.998760  0.306649  0.739108  1
  H  H22  1  0.693351  0.498760  0.239108  1
  H  H23  1  0.806649  0.001240  0.239108  1
  H  H24  1  0.498760  0.806649  0.260892  1
  H  H25  1  0.001240  0.693351  0.260892  1
  H  H26  1  0.306649  0.501240  0.760892  1
  H  H27  1  0.193351  0.998760  0.760892  1
  H  H28  1  0.521216  0.315808  0.782465  1
  H  H29  1  0.978784  0.184192  0.782465  1
  H  H30  1  0.815808  0.478784  0.282465  1
  H  H31  1  0.684192  0.021216  0.282465  1
  H  H32  1  0.478784  0.684192  0.217535  1
  H  H33  1  0.021216  0.815808  0.217535  1
  H  H34  1  0.184192  0.521216  0.717535  1
  H  H35  1  0.315808  0.978784  0.717535  1
  H  H36  1  0.107972  0.578928  0.074564  1
  H  H37  1  0.392028  0.921072  0.074564  1
  H  H38  1  0.078928  0.892028  0.574564  1
  H  H39  1  0.421072  0.607972  0.574564  1
  H  H40  1  0.892028  0.421072  0.925436  1
  H  H41  1  0.607972  0.078928  0.925436  1
  H  H42  1  0.921072  0.107972  0.425436  1
  H  H43  1  0.578928  0.392028  0.425436  1
  H  H44  1  0.165130  0.655690  0.948094  1
  H  H45  1  0.334870  0.844310  0.948094  1
  H  H46  1  0.155690  0.834870  0.448095  1
  H  H47  1  0.344310  0.665130  0.448095  1
  H  H48  1  0.834870  0.344310  0.051906  1
  H  H49  1  0.665130  0.155690  0.051906  1
  H  H50  1  0.844310  0.165130  0.551906  1
  H  H51  1  0.655690  0.334870  0.551906  1
  H  H52  1  0.329661  0.497777  0.224239  1
  H  H53  1  0.170339  0.002223  0.224239  1
  H  H54  1  0.997777  0.670339  0.724239  1
  H  H55  1  0.502223  0.829661  0.724239  1
  H  H56  1  0.670339  0.502223  0.775761  1
  H  H57  1  0.829661  0.997777  0.775761  1
  H  H58  1  0.002223  0.329661  0.275761  1
  H  H59  1  0.497777  0.170339  0.275761  1
  H  H60  1  0.202302  0.494557  0.243993  1
  H  H61  1  0.297698  0.005443  0.243993  1
  H  H62  1  0.994557  0.797698  0.743993  1
  H  H63  1  0.505443  0.702302  0.743993  1
  H  H64  1  0.797698  0.505443  0.756007  1
  H  H65  1  0.702302  0.994557  0.756007  1
  H  H66  1  0.005443  0.202302  0.256007  1
  H  H67  1  0.494557  0.297698  0.256007  1
  C  C68  1  0.414544  0.252432  0.901178  1
  C  C69  1  0.085456  0.247568  0.901178  1
  C  C70  1  0.752432  0.585456  0.401178  1
  C  C71  1  0.747568  0.914544  0.401178  1
  C  C72  1  0.585456  0.747568  0.098822  1
  C  C73  1  0.914544  0.752432  0.098822  1
  C  C74  1  0.247568  0.414544  0.598822  1
  C  C75  1  0.252432  0.085456  0.598822  1
  C  C76  1  0.257229  0.575475  0.072232  1
  C  C77  1  0.242771  0.924525  0.072232  1
  C  C78  1  0.075475  0.742771  0.572232  1
  C  C79  1  0.424525  0.757229  0.572232  1
  C  C80  1  0.742771  0.424525  0.927768  1
  C  C81  1  0.757229  0.075475  0.927768  1
  C  C82  1  0.924525  0.257229  0.427768  1
  C  C83  1  0.575475  0.242771  0.427768  1
  S  S84  1  0.382633  0.354484  0.998300  1
  S  S85  1  0.117367  0.145516  0.998300  1
  S  S86  1  0.854484  0.617367  0.498300  1
  S  S87  1  0.645516  0.882633  0.498300  1
  S  S88  1  0.617367  0.645516  0.001700  1
  S  S89  1  0.882633  0.854484  0.001700  1
  S  S90  1  0.145516  0.382633  0.501700  1
  S  S91  1  0.354484  0.117367  0.501700  1
  S  S92  1  0.360074  0.615252  0.983477  1
  S  S93  1  0.139926  0.884748  0.983477  1
  S  S94  1  0.115252  0.639926  0.483477  1
  S  S95  1  0.384748  0.860074  0.483477  1
  S  S96  1  0.639926  0.384748  0.016523  1
  S  S97  1  0.860074  0.115252  0.016523  1
  S  S98  1  0.884748  0.360074  0.516523  1
  S  S99  1  0.615252  0.139926  0.516523  1
  N  N100  1  0.368359  0.168872  0.926794  1
  N  N101  1  0.131641  0.331128  0.926794  1
  N  N102  1  0.668872  0.631641  0.426794  1
  N  N103  1  0.831128  0.868359  0.426794  1
  N  N104  1  0.631641  0.831128  0.073206  1
  N  N105  1  0.868359  0.668872  0.073206  1
  N  N106  1  0.331128  0.368359  0.573206  1
  N  N107  1  0.168872  0.131641  0.573206  1
  N  N108  1  0.484125  0.253248  0.799612  1
  N  N109  1  0.015875  0.246752  0.799612  1
  N  N110  1  0.753248  0.515875  0.299612  1
  N  N111  1  0.746752  0.984125  0.299612  1
  N  N112  1  0.515875  0.746752  0.200388  1
  N  N113  1  0.984125  0.753248  0.200388  1
  N  N114  1  0.246752  0.484125  0.700388  1
  N  N115  1  0.253248  0.015875  0.700388  1
  N  N116  1  0.169607  0.602099  0.023016  1
  N  N117  1  0.330393  0.897901  0.023016  1
  N  N118  1  0.102099  0.830393  0.523016  1
  N  N119  1  0.397901  0.669607  0.523016  1
  N  N120  1  0.830393  0.397901  0.976984  1
  N  N121  1  0.669607  0.102099  0.976984  1
  N  N122  1  0.897901  0.169607  0.476984  1
  N  N123  1  0.602099  0.330393  0.476984  1
  N  N124  1  0.262369  0.517661  0.188429  1
  N  N125  1  0.237631  0.982339  0.188429  1
  N  N126  1  0.017661  0.737631  0.688429  1
  N  N127  1  0.482339  0.762369  0.688429  1
  N  N128  1  0.737631  0.482339  0.811571  1
  N  N129  1  0.762369  0.017661  0.811571  1
  N  N130  1  0.982339  0.262369  0.311571  1
  N  N131  1  0.517661  0.237631  0.311571  1
  Cl  Cl132  1  0.490679  0.499590  0.277659  1
  Cl  Cl133  1  0.009321  0.000410  0.277659  1
  Cl  Cl134  1  0.999590  0.509321  0.777659  1
  Cl  Cl135  1  0.500410  0.990679  0.777659  1
  Cl  Cl136  1  0.509321  0.500410  0.722341  1
  Cl  Cl137  1  0.990679  0.999590  0.722341  1
  Cl  Cl138  1  0.000410  0.490679  0.222341  1
  Cl  Cl139  1  0.499590  0.009321  0.222341  1
