# generated using pymatgen
data_Ti2N2O
_symmetry_space_group_name_H-M   'P 1'
_cell_length_a   8.21563915
_cell_length_b   8.21920061
_cell_length_c   8.22800980
_cell_angle_alpha   109.59115929
_cell_angle_beta   109.43630226
_cell_angle_gamma   109.31135146
_symmetry_Int_Tables_number   1
_chemical_formula_structural   Ti2N2O
_chemical_formula_sum   'Ti16 N16 O8'
_cell_volume   428.09723433
_cell_formula_units_Z   8
loop_
 _symmetry_equiv_pos_site_id
 _symmetry_equiv_pos_as_xyz
  1  'x, y, z'
loop_
 _atom_site_type_symbol
 _atom_site_label
 _atom_site_symmetry_multiplicity
 _atom_site_fract_x
 _atom_site_fract_y
 _atom_site_fract_z
 _atom_site_occupancy
  Ti  Ti0  1  0.785071  0.247031  0.042433  1
  Ti  Ti1  1  0.990487  0.989813  0.000405  1
  Ti  Ti2  1  0.486429  0.991878  0.498696  1
  Ti  Ti3  1  0.490822  0.484893  0.988400  1
  Ti  Ti4  1  0.541121  0.291419  0.242909  1
  Ti  Ti5  1  0.953585  0.203541  0.751262  1
  Ti  Ti6  1  0.751122  0.451482  0.714199  1
  Ti  Ti7  1  0.757697  0.971730  0.204006  1
  Ti  Ti8  1  0.291932  0.256338  0.549573  1
  Ti  Ti9  1  0.710007  0.753471  0.462798  1
  Ti  Ti10  1  0.244009  0.039030  0.785481  1
  Ti  Ti11  1  0.266861  0.549659  0.297121  1
  Ti  Ti12  1  0.016121  0.505029  0.512121  1
  Ti  Ti13  1  0.044858  0.795679  0.249935  1
  Ti  Ti14  1  0.456551  0.705793  0.745683  1
  Ti  Ti15  1  0.196972  0.737170  0.951532  1
  N  N16  1  0.764037  0.224810  0.274581  1
  N  N17  1  0.452240  0.490621  0.227469  1
  N  N18  1  0.038360  0.048639  0.273198  1
  N  N19  1  0.726530  0.236674  0.773893  1
  N  N20  1  0.958989  0.949383  0.723938  1
  N  N21  1  0.224567  0.450831  0.487800  1
  N  N22  1  0.540359  0.266284  0.990360  1
  N  N23  1  0.276056  0.766437  0.224919  1
  N  N24  1  0.951902  0.726631  0.958532  1
  N  N25  1  0.549626  0.507188  0.775871  1
  N  N26  1  0.513787  0.779250  0.551925  1
  N  N27  1  0.224210  0.278966  0.767570  1
  N  N28  1  0.011356  0.459478  0.733844  1
  N  N29  1  0.727905  0.962402  0.950391  1
  N  N30  1  0.266187  0.991577  0.540185  1
  N  N31  1  0.233633  0.774118  0.727359  1
  O  O32  1  0.735877  0.007103  0.459691  1
  O  O33  1  0.278174  0.046923  0.054545  1
  O  O34  1  0.988512  0.540896  0.262920  1
  O  O35  1  0.776339  0.729606  0.239345  1
  O  O36  1  0.493690  0.225956  0.448565  1
  O  O37  1  0.048198  0.276850  0.039676  1
  O  O38  1  0.771120  0.546650  0.505139  1
  O  O39  1  0.464706  0.738770  0.011731  1
