# generated using pymatgen
data_Li7CoOF7
_symmetry_space_group_name_H-M   'P 1'
_cell_length_a   2.95251304
_cell_length_b   5.87235534
_cell_length_c   8.28295560
_cell_angle_alpha   90.00000000
_cell_angle_beta   90.00000000
_cell_angle_gamma   90.00000000
_symmetry_Int_Tables_number   1
_chemical_formula_structural   Li7CoOF7
_chemical_formula_sum   'Li7 Co1 O1 F7'
_cell_volume   143.61158791
_cell_formula_units_Z   1
loop_
 _symmetry_equiv_pos_site_id
 _symmetry_equiv_pos_as_xyz
  1  'x, y, z'
loop_
 _atom_site_type_symbol
 _atom_site_label
 _atom_site_symmetry_multiplicity
 _atom_site_fract_x
 _atom_site_fract_y
 _atom_site_fract_z
 _atom_site_occupancy
  Li  Li0  1  0.000000  0.509230  0.991510  1
  Li  Li1  1  0.000000  0.987235  0.002967  1
  Li  Li2  1  0.500000  0.768624  0.250000  1
  Li  Li3  1  0.000000  0.987235  0.497033  1
  Li  Li4  1  0.000000  0.509230  0.508490  1
  Li  Li5  1  0.500000  0.752144  0.750000  1
  Li  Li6  1  0.500000  0.249083  0.750000  1
  Co  Co7  1  0.500000  0.220832  0.250000  1
  O  O8  1  0.000000  0.000550  0.250000  1
  F  F9  1  0.500000  0.260502  0.993157  1
  F  F10  1  0.500000  0.745871  0.992490  1
  F  F11  1  0.000000  0.500227  0.250000  1
  F  F12  1  0.500000  0.260502  0.506843  1
  F  F13  1  0.500000  0.745871  0.507510  1
  F  F14  1  0.000000  0.001550  0.750000  1
  F  F15  1  0.000000  0.501311  0.750000  1
