# generated using pymatgen
data_Li2Mn(SiO3)2
_symmetry_space_group_name_H-M   'P 1'
_cell_length_a   10.30425157
_cell_length_b   7.22742821
_cell_length_c   10.08134255
_cell_angle_alpha   90.00000000
_cell_angle_beta   90.00000000
_cell_angle_gamma   90.00000000
_symmetry_Int_Tables_number   1
_chemical_formula_structural   Li2Mn(SiO3)2
_chemical_formula_sum   'Li12 Mn6 Si12 O36'
_cell_volume   750.79022792
_cell_formula_units_Z   6
loop_
 _symmetry_equiv_pos_site_id
 _symmetry_equiv_pos_as_xyz
  1  'x, y, z'
loop_
 _atom_site_type_symbol
 _atom_site_label
 _atom_site_symmetry_multiplicity
 _atom_site_fract_x
 _atom_site_fract_y
 _atom_site_fract_z
 _atom_site_occupancy
  Li  Li0  1  0.000000  0.782202  0.243901  1
  Li  Li1  1  0.000000  0.761480  0.762617  1
  Li  Li2  1  0.233396  0.286400  0.451752  1
  Li  Li3  1  0.237689  0.222248  0.041289  1
  Li  Li4  1  0.262311  0.777752  0.541289  1
  Li  Li5  1  0.266604  0.713600  0.951752  1
  Li  Li6  1  0.500000  0.238520  0.262617  1
  Li  Li7  1  0.500000  0.217798  0.743901  1
  Li  Li8  1  0.733396  0.713600  0.951752  1
  Li  Li9  1  0.737689  0.777752  0.541289  1
  Li  Li10  1  0.762311  0.222248  0.041289  1
  Li  Li11  1  0.766604  0.286400  0.451752  1
  Mn  Mn12  1  0.000000  0.251724  0.246698  1
  Mn  Mn13  1  0.000000  0.981449  0.011883  1
  Mn  Mn14  1  0.000000  0.521829  0.480064  1
  Mn  Mn15  1  0.500000  0.018551  0.511883  1
  Mn  Mn16  1  0.500000  0.478171  0.980064  1
  Mn  Mn17  1  0.500000  0.748276  0.746698  1
  Si  Si18  1  0.000000  0.988021  0.527121  1
  Si  Si19  1  0.000000  0.512807  0.968667  1
  Si  Si20  1  0.224810  0.024854  0.747539  1
  Si  Si21  1  0.224992  0.474282  0.748871  1
  Si  Si22  1  0.275008  0.525718  0.248871  1
  Si  Si23  1  0.275190  0.975146  0.247539  1
  Si  Si24  1  0.500000  0.487193  0.468667  1
  Si  Si25  1  0.500000  0.011979  0.027121  1
  Si  Si26  1  0.724810  0.975146  0.247539  1
  Si  Si27  1  0.724992  0.525718  0.248871  1
  Si  Si28  1  0.775008  0.474282  0.748871  1
  Si  Si29  1  0.775190  0.024854  0.747539  1
  O  O30  1  0.000000  0.302881  0.025216  1
  O  O31  1  0.000000  0.687820  0.068522  1
  O  O32  1  0.000000  0.196549  0.469641  1
  O  O33  1  0.000000  0.812014  0.428372  1
  O  O34  1  0.136425  0.042431  0.188125  1
  O  O35  1  0.121344  0.552601  0.862822  1
  O  O36  1  0.123546  0.949424  0.630538  1
  O  O37  1  0.139338  0.449076  0.309112  1
  O  O38  1  0.173297  0.942524  0.888039  1
  O  O39  1  0.179019  0.543503  0.602974  1
  O  O40  1  0.278545  0.751031  0.256000  1
  O  O41  1  0.221455  0.248969  0.756000  1
  O  O42  1  0.320981  0.456497  0.102974  1
  O  O43  1  0.326703  0.057476  0.388039  1
  O  O44  1  0.360662  0.550924  0.809112  1
  O  O45  1  0.376454  0.050576  0.130538  1
  O  O46  1  0.378656  0.447399  0.362822  1
  O  O47  1  0.363575  0.957569  0.688125  1
  O  O48  1  0.500000  0.697119  0.525216  1
  O  O49  1  0.500000  0.312180  0.568522  1
  O  O50  1  0.500000  0.187986  0.928372  1
  O  O51  1  0.500000  0.803451  0.969641  1
  O  O52  1  0.636425  0.957569  0.688125  1
  O  O53  1  0.621344  0.447399  0.362822  1
  O  O54  1  0.623546  0.050576  0.130538  1
  O  O55  1  0.639338  0.550924  0.809112  1
  O  O56  1  0.673297  0.057476  0.388039  1
  O  O57  1  0.679019  0.456497  0.102974  1
  O  O58  1  0.778545  0.248969  0.756000  1
  O  O59  1  0.721455  0.751031  0.256000  1
  O  O60  1  0.820981  0.543503  0.602974  1
  O  O61  1  0.826703  0.942524  0.888039  1
  O  O62  1  0.860662  0.449076  0.309112  1
  O  O63  1  0.876454  0.949424  0.630538  1
  O  O64  1  0.878656  0.552601  0.862822  1
  O  O65  1  0.863575  0.042431  0.188125  1
