# generated using pymatgen
data_LiFe2(BO3)2
_symmetry_space_group_name_H-M   'P 1'
_cell_length_a   5.20812045
_cell_length_b   9.11939496
_cell_length_c   11.41725329
_cell_angle_alpha   67.03255144
_cell_angle_beta   77.46766175
_cell_angle_gamma   89.75892557
_symmetry_Int_Tables_number   1
_chemical_formula_structural   LiFe2(BO3)2
_chemical_formula_sum   'Li4 Fe8 B8 O24'
_cell_volume   485.42163822
_cell_formula_units_Z   4
loop_
 _symmetry_equiv_pos_site_id
 _symmetry_equiv_pos_as_xyz
  1  'x, y, z'
loop_
 _atom_site_type_symbol
 _atom_site_label
 _atom_site_symmetry_multiplicity
 _atom_site_fract_x
 _atom_site_fract_y
 _atom_site_fract_z
 _atom_site_occupancy
  Li  Li0  1  0.973442  0.971548  0.387155  1
  Li  Li1  1  0.703289  0.725341  0.917455  1
  Li  Li2  1  0.021320  0.998785  0.659200  1
  Li  Li3  1  0.257681  0.258535  0.136955  1
  Fe  Fe4  1  0.984125  0.642210  0.373536  1
  Fe  Fe5  1  0.742704  0.070959  0.884028  1
  Fe  Fe6  1  0.532951  0.839374  0.623762  1
  Fe  Fe7  1  0.759004  0.435583  0.144767  1
  Fe  Fe8  1  0.227343  0.557873  0.869165  1
  Fe  Fe9  1  0.470401  0.154364  0.387896  1
  Fe  Fe10  1  0.017505  0.353776  0.632788  1
  Fe  Fe11  1  0.252811  0.931081  0.123903  1
  B  B12  1  0.970401  0.312740  0.381409  1
  B  B13  1  0.725486  0.405260  0.878195  1
  B  B14  1  0.513534  0.180599  0.634315  1
  B  B15  1  0.762600  0.111239  0.132675  1
  B  B16  1  0.486831  0.814645  0.374159  1
  B  B17  1  0.233574  0.884311  0.876911  1
  B  B18  1  0.037081  0.690465  0.618236  1
  B  B19  1  0.265286  0.594072  0.129425  1
  O  O20  1  0.979926  0.899162  0.857298  1
  O  O21  1  0.873566  0.312778  0.823130  1
  O  O22  1  0.848073  0.506788  0.921430  1
  O  O23  1  0.920859  0.830566  0.602907  1
  O  O24  1  0.951528  0.582666  0.572923  1
  O  O25  1  0.767979  0.169567  0.660906  1
  O  O26  1  0.743442  0.346622  0.332974  1
  O  O27  1  0.458080  0.398665  0.896935  1
  O  O28  1  0.382217  0.765065  0.848107  1
  O  O29  1  0.573570  0.927284  0.415421  1
  O  O30  1  0.639274  0.696494  0.365903  1
  O  O31  1  0.353317  0.976206  0.922997  1
  O  O32  1  0.641959  0.022256  0.084021  1
  O  O33  1  0.362901  0.299702  0.642365  1
  O  O34  1  0.419081  0.065676  0.596951  1
  O  O35  1  0.613812  0.228405  0.165304  1
  O  O36  1  0.534246  0.600956  0.109291  1
  O  O37  1  0.247095  0.655194  0.678982  1
  O  O38  1  0.235674  0.825260  0.344177  1
  O  O39  1  0.057471  0.414452  0.432069  1
  O  O40  1  0.100200  0.184448  0.374770  1
  O  O41  1  0.140123  0.488107  0.091709  1
  O  O42  1  0.118433  0.689371  0.180934  1
  O  O43  1  0.014139  0.095879  0.151048  1
