# generated using pymatgen
data_Li2Ni3SbO8
_symmetry_space_group_name_H-M   'P 1'
_cell_length_a   5.81278866
_cell_length_b   5.81290964
_cell_length_c   9.51311747
_cell_angle_alpha   90.00090585
_cell_angle_beta   89.99954152
_cell_angle_gamma   120.00068950
_symmetry_Int_Tables_number   1
_chemical_formula_structural   Li2Ni3SbO8
_chemical_formula_sum   'Li4 Ni6 Sb2 O16'
_cell_volume   278.37394190
_cell_formula_units_Z   2
loop_
 _symmetry_equiv_pos_site_id
 _symmetry_equiv_pos_as_xyz
  1  'x, y, z'
loop_
 _atom_site_type_symbol
 _atom_site_label
 _atom_site_symmetry_multiplicity
 _atom_site_fract_x
 _atom_site_fract_y
 _atom_site_fract_z
 _atom_site_occupancy
  Li  Li0  1  0.333276  0.666648  0.901591  1
  Li  Li1  1  0.999962  0.999992  0.990669  1
  Li  Li2  1  0.000038  0.000031  0.490669  1
  Li  Li3  1  0.666724  0.333371  0.401591  1
  Ni  Ni4  1  0.173937  0.835034  0.214135  1
  Ni  Ni5  1  0.164978  0.338933  0.214135  1
  Ni  Ni6  1  0.661066  0.826055  0.214136  1
  Ni  Ni7  1  0.338934  0.164989  0.714136  1
  Ni  Ni8  1  0.826063  0.661097  0.714135  1
  Ni  Ni9  1  0.835022  0.173956  0.714135  1
  Sb  Sb10  1  0.333361  0.666695  0.486276  1
  Sb  Sb11  1  0.666639  0.333334  0.986276  1
  O  O12  1  0.182766  0.855710  0.593475  1
  O  O13  1  0.031969  0.542637  0.344752  1
  O  O14  1  0.333323  0.666659  0.118804  1
  O  O15  1  0.999993  0.000022  0.299472  1
  O  O16  1  0.000007  0.000028  0.799472  1
  O  O17  1  0.144294  0.327073  0.593460  1
  O  O18  1  0.510674  0.968073  0.344764  1
  O  O19  1  0.457413  0.489341  0.344780  1
  O  O20  1  0.327016  0.144293  0.093473  1
  O  O21  1  0.672984  0.817278  0.593473  1
  O  O22  1  0.489326  0.457399  0.844764  1
  O  O23  1  0.542587  0.031928  0.844780  1
  O  O24  1  0.666677  0.333336  0.618804  1
  O  O25  1  0.817234  0.672944  0.093475  1
  O  O26  1  0.968031  0.510668  0.844752  1
  O  O27  1  0.855706  0.182778  0.093460  1
