# generated using pymatgen
data_K4Li3Mn2O8
_symmetry_space_group_name_H-M   'P 1'
_cell_length_a   5.64931631
_cell_length_b   8.45118199
_cell_length_c   11.15788704
_cell_angle_alpha   90.00000000
_cell_angle_beta   78.49977717
_cell_angle_gamma   90.00000000
_symmetry_Int_Tables_number   1
_chemical_formula_structural   K4Li3Mn2O8
_chemical_formula_sum   'K8 Li6 Mn4 O16'
_cell_volume   522.02063344
_cell_formula_units_Z   2
loop_
 _symmetry_equiv_pos_site_id
 _symmetry_equiv_pos_as_xyz
  1  'x, y, z'
loop_
 _atom_site_type_symbol
 _atom_site_label
 _atom_site_symmetry_multiplicity
 _atom_site_fract_x
 _atom_site_fract_y
 _atom_site_fract_z
 _atom_site_occupancy
  K  K0  1  0.171739  0.996573  0.154927  1
  K  K1  1  0.163143  0.260210  0.619704  1
  K  K2  1  0.353489  0.498999  0.336206  1
  K  K3  1  0.663143  0.239790  0.119704  1
  K  K4  1  0.377366  0.789602  0.885856  1
  K  K5  1  0.671739  0.503427  0.654927  1
  K  K6  1  0.877366  0.710398  0.385856  1
  K  K7  1  0.853489  0.001001  0.836206  1
  Li  Li8  1  0.264053  0.529861  0.076554  1
  Li  Li9  1  0.191812  0.014512  0.431665  1
  Li  Li10  1  0.098550  0.548865  0.798524  1
  Li  Li11  1  0.598550  0.951135  0.298523  1
  Li  Li12  1  0.764053  0.970139  0.576554  1
  Li  Li13  1  0.691812  0.485488  0.931665  1
  Mn  Mn14  1  0.200847  0.291433  0.930278  1
  Mn  Mn15  1  0.295951  0.785738  0.571528  1
  Mn  Mn16  1  0.700847  0.208567  0.430278  1
  Mn  Mn17  1  0.795951  0.714262  0.071528  1
  O  O18  1  0.062272  0.702507  0.135353  1
  O  O19  1  0.140810  0.309907  0.085973  1
  O  O20  1  0.090389  0.952186  0.601639  1
  O  O21  1  0.198637  0.584583  0.621848  1
  O  O22  1  0.364425  0.812693  0.402785  1
  O  O23  1  0.444525  0.176121  0.367237  1
  O  O24  1  0.318671  0.109628  0.894919  1
  O  O25  1  0.590389  0.547814  0.101639  1
  O  O26  1  0.375036  0.459510  0.879138  1
  O  O27  1  0.698637  0.915417  0.121848  1
  O  O28  1  0.562272  0.797493  0.635353  1
  O  O29  1  0.640810  0.190093  0.585973  1
  O  O30  1  0.818671  0.390372  0.394919  1
  O  O31  1  0.875036  0.040490  0.379138  1
  O  O32  1  0.864425  0.687307  0.902785  1
  O  O33  1  0.944525  0.323879  0.867237  1
