# generated using pymatgen
data_Li3Mn(Si2O5)3
_symmetry_space_group_name_H-M   'P 1'
_cell_length_a   11.19034556
_cell_length_b   11.19034556
_cell_length_c   10.06164410
_cell_angle_alpha   90.00000000
_cell_angle_beta   90.00000000
_cell_angle_gamma   78.79511492
_symmetry_Int_Tables_number   1
_chemical_formula_structural   Li3Mn(Si2O5)3
_chemical_formula_sum   'Li12 Mn4 Si24 O60'
_cell_volume   1235.94107949
_cell_formula_units_Z   4
loop_
 _symmetry_equiv_pos_site_id
 _symmetry_equiv_pos_as_xyz
  1  'x, y, z'
loop_
 _atom_site_type_symbol
 _atom_site_label
 _atom_site_symmetry_multiplicity
 _atom_site_fract_x
 _atom_site_fract_y
 _atom_site_fract_z
 _atom_site_occupancy
  Li  Li0  1  0.238264  0.761736  0.000000  1
  Li  Li1  1  0.489196  0.989196  0.250000  1
  Li  Li2  1  0.010804  0.510804  0.750000  1
  Li  Li3  1  0.261736  0.738264  0.500000  1
  Li  Li4  1  0.068090  0.068090  0.772209  1
  Li  Li5  1  0.568090  0.568090  0.727791  1
  Li  Li6  1  0.431910  0.431910  0.272209  1
  Li  Li7  1  0.931910  0.931910  0.227791  1
  Li  Li8  1  0.738264  0.261736  0.500000  1
  Li  Li9  1  0.510804  0.010804  0.750000  1
  Li  Li10  1  0.989196  0.489196  0.250000  1
  Li  Li11  1  0.761736  0.238264  0.000000  1
  Mn  Mn12  1  0.160219  0.660219  0.250000  1
  Mn  Mn13  1  0.339781  0.839781  0.750000  1
  Mn  Mn14  1  0.839781  0.339781  0.750000  1
  Mn  Mn15  1  0.660219  0.160219  0.250000  1
  Si  Si16  1  0.188237  0.959667  0.197269  1
  Si  Si17  1  0.040333  0.811763  0.802731  1
  Si  Si18  1  0.311763  0.540333  0.697269  1
  Si  Si19  1  0.459667  0.688237  0.302731  1
  Si  Si20  1  0.519875  0.740262  0.007683  1
  Si  Si21  1  0.019875  0.240262  0.492317  1
  Si  Si22  1  0.259738  0.480125  0.992317  1
  Si  Si23  1  0.759738  0.980125  0.507683  1
  Si  Si24  1  0.200695  0.420114  0.457595  1
  Si  Si25  1  0.700695  0.920114  0.042405  1
  Si  Si26  1  0.079886  0.299305  0.957595  1
  Si  Si27  1  0.579886  0.799305  0.542405  1
  Si  Si28  1  0.420114  0.200695  0.457595  1
  Si  Si29  1  0.299305  0.079886  0.957595  1
  Si  Si30  1  0.920114  0.700695  0.042405  1
  Si  Si31  1  0.799305  0.579886  0.542405  1
  Si  Si32  1  0.740262  0.519875  0.007683  1
  Si  Si33  1  0.240262  0.019875  0.492317  1
  Si  Si34  1  0.480125  0.259738  0.992317  1
  Si  Si35  1  0.980125  0.759738  0.507683  1
  Si  Si36  1  0.540333  0.311763  0.697269  1
  Si  Si37  1  0.688237  0.459667  0.302731  1
  Si  Si38  1  0.959667  0.188237  0.197269  1
  Si  Si39  1  0.811763  0.040333  0.802731  1
  O  O40  1  0.280746  0.991864  0.082842  1
  O  O41  1  0.008136  0.719254  0.917158  1
  O  O42  1  0.028420  0.739345  0.662431  1
  O  O43  1  0.260655  0.971580  0.337569  1
  O  O44  1  0.150468  0.832162  0.164972  1
  O  O45  1  0.167838  0.849532  0.835028  1
  O  O46  1  0.256662  0.903467  0.588464  1
  O  O47  1  0.096533  0.743338  0.411536  1
  O  O48  1  0.645551  0.990253  0.173000  1
  O  O49  1  0.009747  0.354449  0.827000  1
  O  O50  1  0.145551  0.490253  0.327000  1
  O  O51  1  0.509747  0.854449  0.673000  1
  O  O52  1  0.243338  0.596533  0.088464  1
  O  O53  1  0.403467  0.756662  0.911536  1
  O  O54  1  0.349532  0.667838  0.664972  1
  O  O55  1  0.332162  0.650468  0.335028  1
  O  O56  1  0.239345  0.528420  0.837569  1
  O  O57  1  0.471580  0.760655  0.162431  1
  O  O58  1  0.491864  0.780746  0.417158  1
  O  O59  1  0.219254  0.508136  0.582842  1
  O  O60  1  0.109297  0.336540  0.519388  1
  O  O61  1  0.163460  0.390703  0.019388  1
  O  O62  1  0.663460  0.890703  0.480612  1
  O  O63  1  0.609297  0.836540  0.980612  1
  O  O64  1  0.601758  0.601758  0.983884  1
  O  O65  1  0.336724  0.336724  0.419776  1
  O  O66  1  0.059388  0.059388  0.203381  1
  O  O67  1  0.163276  0.163276  0.919776  1
  O  O68  1  0.101758  0.101758  0.516116  1
  O  O69  1  0.440612  0.440612  0.703381  1
  O  O70  1  0.398242  0.398242  0.016116  1
  O  O71  1  0.559388  0.559388  0.296619  1
  O  O72  1  0.663276  0.663276  0.580224  1
  O  O73  1  0.940612  0.940612  0.796619  1
  O  O74  1  0.836724  0.836724  0.080224  1
  O  O75  1  0.898242  0.898242  0.483884  1
  O  O76  1  0.890703  0.663460  0.480612  1
  O  O77  1  0.336540  0.109297  0.519388  1
  O  O78  1  0.390703  0.163460  0.019388  1
  O  O79  1  0.836540  0.609297  0.980612  1
  O  O80  1  0.508136  0.219254  0.582842  1
  O  O81  1  0.780746  0.491864  0.417158  1
  O  O82  1  0.528420  0.239345  0.837569  1
  O  O83  1  0.760655  0.471580  0.162431  1
  O  O84  1  0.667838  0.349532  0.664972  1
  O  O85  1  0.650468  0.332162  0.335028  1
  O  O86  1  0.596533  0.243338  0.088464  1
  O  O87  1  0.756662  0.403467  0.911536  1
  O  O88  1  0.354449  0.009747  0.827000  1
  O  O89  1  0.490253  0.145551  0.327000  1
  O  O90  1  0.990253  0.645551  0.173000  1
  O  O91  1  0.854449  0.509747  0.673000  1
  O  O92  1  0.743338  0.096533  0.411536  1
  O  O93  1  0.903467  0.256662  0.588464  1
  O  O94  1  0.849532  0.167838  0.835028  1
  O  O95  1  0.832162  0.150468  0.164972  1
  O  O96  1  0.739345  0.028420  0.662431  1
  O  O97  1  0.971580  0.260655  0.337569  1
  O  O98  1  0.719254  0.008136  0.917158  1
  O  O99  1  0.991864  0.280746  0.082842  1
