# generated using pymatgen
data_Na2PRuCO7
_symmetry_space_group_name_H-M   'P 1'
_cell_length_a   9.13315456
_cell_length_b   6.56041154
_cell_length_c   5.24760385
_cell_angle_alpha   90.00000000
_cell_angle_beta   88.82187495
_cell_angle_gamma   90.00000000
_symmetry_Int_Tables_number   1
_chemical_formula_structural   Na2PRuCO7
_chemical_formula_sum   'Na4 P2 Ru2 C2 O14'
_cell_volume   314.35553836
_cell_formula_units_Z   2
loop_
 _symmetry_equiv_pos_site_id
 _symmetry_equiv_pos_as_xyz
  1  'x, y, z'
loop_
 _atom_site_type_symbol
 _atom_site_label
 _atom_site_symmetry_multiplicity
 _atom_site_fract_x
 _atom_site_fract_y
 _atom_site_fract_z
 _atom_site_occupancy
  Na  Na0  1  0.238289  0.004662  0.236233  1
  Na  Na1  1  0.238289  0.495338  0.236233  1
  Na  Na2  1  0.761711  0.504662  0.763767  1
  Na  Na3  1  0.761711  0.995338  0.763767  1
  P  P4  1  0.422792  0.250000  0.708587  1
  P  P5  1  0.577208  0.750000  0.291413  1
  Ru  Ru6  1  0.345197  0.750000  0.781575  1
  Ru  Ru7  1  0.654803  0.250000  0.218425  1
  C  C8  1  0.071734  0.750000  0.724878  1
  C  C9  1  0.928266  0.250000  0.275122  1
  O  O10  1  0.064710  0.250000  0.290029  1
  O  O11  1  0.141287  0.750000  0.943914  1
  O  O12  1  0.165156  0.750000  0.527957  1
  O  O13  1  0.329677  0.061785  0.791309  1
  O  O14  1  0.329677  0.438215  0.791309  1
  O  O15  1  0.426863  0.750000  0.158662  1
  O  O16  1  0.445974  0.250000  0.412547  1
  O  O17  1  0.554026  0.750000  0.587453  1
  O  O18  1  0.573137  0.250000  0.841338  1
  O  O19  1  0.670323  0.561785  0.208691  1
  O  O20  1  0.670323  0.938215  0.208691  1
  O  O21  1  0.834844  0.250000  0.472043  1
  O  O22  1  0.858713  0.250000  0.056086  1
  O  O23  1  0.935290  0.750000  0.709971  1
