# generated using pymatgen
data_Li2VF6
_symmetry_space_group_name_H-M   'P 1'
_cell_length_a   9.78624289
_cell_length_b   8.68750754
_cell_length_c   5.05648606
_cell_angle_alpha   90.00000000
_cell_angle_beta   90.00000000
_cell_angle_gamma   90.00000000
_symmetry_Int_Tables_number   1
_chemical_formula_structural   Li2VF6
_chemical_formula_sum   'Li8 V4 F24'
_cell_volume   429.89262965
_cell_formula_units_Z   4
loop_
 _symmetry_equiv_pos_site_id
 _symmetry_equiv_pos_as_xyz
  1  'x, y, z'
loop_
 _atom_site_type_symbol
 _atom_site_label
 _atom_site_symmetry_multiplicity
 _atom_site_fract_x
 _atom_site_fract_y
 _atom_site_fract_z
 _atom_site_occupancy
  Li  Li0  1  0.104814  0.452811  0.494103  1
  Li  Li1  1  0.113133  0.865760  0.015161  1
  Li  Li2  1  0.386867  0.365760  0.515161  1
  Li  Li3  1  0.395186  0.952811  0.994103  1
  Li  Li4  1  0.604814  0.047189  0.494103  1
  Li  Li5  1  0.613133  0.634240  0.015161  1
  Li  Li6  1  0.886867  0.134240  0.515161  1
  Li  Li7  1  0.895186  0.547189  0.994103  1
  V  V8  1  0.131156  0.237536  0.998722  1
  V  V9  1  0.368844  0.737536  0.498722  1
  V  V10  1  0.631156  0.262464  0.998722  1
  V  V11  1  0.868844  0.762464  0.498722  1
  F  F12  1  0.012214  0.101050  0.838100  1
  F  F13  1  0.016667  0.254567  0.309499  1
  F  F14  1  0.027754  0.405286  0.843845  1
  F  F15  1  0.226829  0.060863  0.117842  1
  F  F16  1  0.244409  0.247136  0.700413  1
  F  F17  1  0.259607  0.872337  0.687477  1
  F  F18  1  0.240393  0.372337  0.187477  1
  F  F19  1  0.255591  0.747136  0.200413  1
  F  F20  1  0.273171  0.560863  0.617841  1
  F  F21  1  0.472246  0.905286  0.343845  1
  F  F22  1  0.483333  0.754567  0.809499  1
  F  F23  1  0.487786  0.601050  0.338100  1
  F  F24  1  0.512214  0.398950  0.838100  1
  F  F25  1  0.516667  0.245433  0.309499  1
  F  F26  1  0.527754  0.094714  0.843845  1
  F  F27  1  0.726829  0.439137  0.117842  1
  F  F28  1  0.744409  0.252864  0.700413  1
  F  F29  1  0.759607  0.627663  0.687477  1
  F  F30  1  0.740393  0.127663  0.187477  1
  F  F31  1  0.755591  0.752864  0.200413  1
  F  F32  1  0.773171  0.939137  0.617841  1
  F  F33  1  0.972246  0.594714  0.343845  1
  F  F34  1  0.983333  0.745433  0.809499  1
  F  F35  1  0.987786  0.898950  0.338100  1
