# generated using pymatgen
data_Li2Mn3(BO3)3
_symmetry_space_group_name_H-M   'P 1'
_cell_length_a   8.28207034
_cell_length_b   8.71972520
_cell_length_c   6.30606630
_cell_angle_alpha   69.79376928
_cell_angle_beta   88.93821125
_cell_angle_gamma   117.36793280
_symmetry_Int_Tables_number   1
_chemical_formula_structural   Li2Mn3(BO3)3
_chemical_formula_sum   'Li4 Mn6 B6 O18'
_cell_volume   370.85501020
_cell_formula_units_Z   2
loop_
 _symmetry_equiv_pos_site_id
 _symmetry_equiv_pos_as_xyz
  1  'x, y, z'
loop_
 _atom_site_type_symbol
 _atom_site_label
 _atom_site_symmetry_multiplicity
 _atom_site_fract_x
 _atom_site_fract_y
 _atom_site_fract_z
 _atom_site_occupancy
  Li  Li0  1  0.702875  0.719074  0.406405  1
  Li  Li1  1  0.025497  0.310666  0.108906  1
  Li  Li2  1  0.011427  0.305340  0.587182  1
  Li  Li3  1  0.279089  0.979421  0.282870  1
  Mn  Mn4  1  0.996822  0.669006  0.156784  1
  Mn  Mn5  1  0.988055  0.629642  0.688119  1
  Mn  Mn6  1  0.647132  0.994029  0.996616  1
  Mn  Mn7  1  0.623340  0.002856  0.501838  1
  Mn  Mn8  1  0.396061  0.377493  0.303824  1
  Mn  Mn9  1  0.341349  0.300113  0.844315  1
  B  B10  1  0.999243  0.012018  0.005387  1
  B  B11  1  0.001039  0.012578  0.489690  1
  B  B12  1  0.671803  0.324739  0.108351  1
  B  B13  1  0.667799  0.341019  0.571998  1
  B  B14  1  0.332779  0.649182  0.915055  1
  B  B15  1  0.327940  0.665288  0.402353  1
  O  O16  1  0.743059  0.200779  0.183544  1
  O  O17  1  0.732436  0.213842  0.647761  1
  O  O18  1  0.787661  0.512323  0.997623  1
  O  O19  1  0.785038  0.532128  0.484732  1
  O  O20  1  0.815184  0.878016  0.082110  1
  O  O21  1  0.807290  0.917760  0.529791  1
  O  O22  1  0.476926  0.246716  0.153146  1
  O  O23  1  0.475622  0.268286  0.584720  1
  O  O24  1  0.416473  0.558690  0.437371  1
  O  O25  1  0.383565  0.510263  0.987883  1
  O  O26  1  0.468246  0.838317  0.811519  1
  O  O27  1  0.440442  0.860521  0.323045  1
  O  O28  1  0.101043  0.209008  0.399250  1
  O  O29  1  0.056139  0.203886  0.892609  1
  O  O30  1  0.138062  0.586154  0.443690  1
  O  O31  1  0.147443  0.595959  0.950710  1
  O  O32  1  0.138743  0.964497  0.039186  1
  O  O33  1  0.090760  0.910343  0.531640  1
