# generated using pymatgen
data_V4(OF3)3
_symmetry_space_group_name_H-M   'P 1'
_cell_length_a   5.27235112
_cell_length_b   5.42097545
_cell_length_c   17.57739986
_cell_angle_alpha   91.24751175
_cell_angle_beta   99.10870604
_cell_angle_gamma   60.74656687
_symmetry_Int_Tables_number   1
_chemical_formula_structural   V4(OF3)3
_chemical_formula_sum   'V8 O6 F18'
_cell_volume   431.88468403
_cell_formula_units_Z   2
loop_
 _symmetry_equiv_pos_site_id
 _symmetry_equiv_pos_as_xyz
  1  'x, y, z'
loop_
 _atom_site_type_symbol
 _atom_site_label
 _atom_site_symmetry_multiplicity
 _atom_site_fract_x
 _atom_site_fract_y
 _atom_site_fract_z
 _atom_site_occupancy
  V  V0  1  0.749491  0.620605  0.124974  1
  V  V1  1  0.784833  0.107580  0.629960  1
  V  V2  1  0.457507  0.268185  0.249431  1
  V  V3  1  0.495757  0.758405  0.750109  1
  V  V4  1  0.251612  0.904714  0.372770  1
  V  V5  1  0.274557  0.345156  0.871297  1
  V  V6  1  0.037176  0.972946  0.001332  1
  V  V7  1  0.004424  0.531004  0.504464  1
  O  O8  1  0.953082  0.806477  0.558600  1
  O  O9  1  0.394289  0.794026  0.041506  1
  O  O10  1  0.389198  0.085122  0.333138  1
  O  O11  1  0.103917  0.451743  0.207669  1
  O  O12  1  0.081849  0.953136  0.700922  1
  O  O13  1  0.439486  0.076100  0.814908  1
  F  F14  1  0.907448  0.837081  0.082539  1
  F  F15  1  0.956614  0.311450  0.060423  1
  F  F16  1  0.541080  0.931569  0.188890  1
  F  F17  1  0.896973  0.040388  0.293245  1
  F  F18  1  0.921219  0.337412  0.583537  1
  F  F19  1  0.920778  0.549115  0.791136  1
  F  F20  1  0.594628  0.403629  0.168055  1
  F  F21  1  0.584156  0.914856  0.664081  1
  F  F22  1  0.577733  0.710214  0.459216  1
  F  F23  1  0.462400  0.562500  0.315340  1
  F  F24  1  0.543758  0.428135  0.687855  1
  F  F25  1  0.428118  0.291635  0.542614  1
  F  F26  1  0.423551  0.584486  0.836354  1
  F  F27  1  0.590811  0.201880  0.960504  1
  F  F28  1  0.084870  0.674617  0.415007  1
  F  F29  1  0.041658  0.676795  0.934424  1
  F  F30  1  0.035201  0.200491  0.441062  1
  F  F31  1  0.071827  0.168548  0.914632  1
