# generated using pymatgen
data_Li2Mn3(BO3)3
_symmetry_space_group_name_H-M   'P 1'
_cell_length_a   5.85628769
_cell_length_b   8.25964857
_cell_length_c   9.12689358
_cell_angle_alpha   67.10877912
_cell_angle_beta   102.36737778
_cell_angle_gamma   78.20653261
_symmetry_Int_Tables_number   1
_chemical_formula_structural   Li2Mn3(BO3)3
_chemical_formula_sum   'Li4 Mn6 B6 O18'
_cell_volume   376.41902164
_cell_formula_units_Z   2
loop_
 _symmetry_equiv_pos_site_id
 _symmetry_equiv_pos_as_xyz
  1  'x, y, z'
loop_
 _atom_site_type_symbol
 _atom_site_label
 _atom_site_symmetry_multiplicity
 _atom_site_fract_x
 _atom_site_fract_y
 _atom_site_fract_z
 _atom_site_occupancy
  Li  Li0  1  0.724309  0.947328  0.562493  1
  Li  Li1  1  0.942459  0.385883  0.771013  1
  Li  Li2  1  0.594674  0.722166  0.105394  1
  Li  Li3  1  0.071894  0.611273  0.227760  1
  Mn  Mn4  1  0.764998  0.986119  0.191668  1
  Mn  Mn5  1  0.901637  0.347325  0.141409  1
  Mn  Mn6  1  0.528554  0.717217  0.444841  1
  Mn  Mn7  1  0.434965  0.315118  0.551209  1
  Mn  Mn8  1  0.138073  0.616226  0.888515  1
  Mn  Mn9  1  0.231496  0.018338  0.782005  1
  B  B10  1  0.881110  0.380443  0.455034  1
  B  B11  1  0.785771  0.952577  0.878836  1
  B  B12  1  0.577293  0.687313  0.795834  1
  B  B13  1  0.454881  0.295430  0.234262  1
  B  B14  1  0.211885  0.037752  0.099303  1
  B  B15  1  0.089527  0.645953  0.537424  1
  O  O16  1  0.852747  0.847929  0.050524  1
  O  O17  1  0.869815  0.794097  0.449667  1
  O  O18  1  0.937223  0.912304  0.788165  1
  O  O19  1  0.813833  0.485532  0.282763  1
  O  O20  1  0.729653  0.420520  0.545015  1
  O  O21  1  0.796928  0.539172  0.883659  1
  O  O22  1  0.442887  0.895840  0.186109  1
  O  O23  1  0.592596  0.258708  0.136338  1
  O  O24  1  0.504274  0.796253  0.627197  1
  O  O25  1  0.538566  0.198635  0.403159  1
  O  O26  1  0.434398  0.732460  0.890218  1
  O  O27  1  0.555593  0.087903  0.787720  1
  O  O28  1  0.223900  0.437488  0.147295  1
  O  O29  1  0.232195  0.600711  0.443273  1
  O  O30  1  0.162419  0.537041  0.706187  1
  O  O31  1  0.073966  0.074497  0.197120  1
  O  O32  1  0.110763  0.246236  0.545254  1
  O  O33  1  0.128052  0.134885  0.930007  1
