# generated using pymatgen
data_Li3Zn(Fe5O8)4
_symmetry_space_group_name_H-M   'P 1'
_cell_length_a   8.45917656
_cell_length_b   8.48662576
_cell_length_c   8.47713854
_cell_angle_alpha   90.37358106
_cell_angle_beta   89.61412981
_cell_angle_gamma   89.60690141
_symmetry_Int_Tables_number   1
_chemical_formula_structural   Li3Zn(Fe5O8)4
_chemical_formula_sum   'Li3 Zn1 Fe20 O32'
_cell_volume   608.53139291
_cell_formula_units_Z   1
loop_
 _symmetry_equiv_pos_site_id
 _symmetry_equiv_pos_as_xyz
  1  'x, y, z'
loop_
 _atom_site_type_symbol
 _atom_site_label
 _atom_site_symmetry_multiplicity
 _atom_site_fract_x
 _atom_site_fract_y
 _atom_site_fract_z
 _atom_site_occupancy
  Li  Li0  1  0.126077  0.374460  0.875348  1
  Li  Li1  1  0.622752  0.375335  0.373881  1
  Li  Li2  1  0.625392  0.874111  0.877106  1
  Zn  Zn3  1  0.005515  0.996507  0.993490  1
  Fe  Fe4  1  0.001994  0.495109  0.496295  1
  Fe  Fe5  1  0.126905  0.874910  0.373130  1
  Fe  Fe6  1  0.123639  0.129689  0.632326  1
  Fe  Fe7  1  0.131226  0.623532  0.120996  1
  Fe  Fe8  1  0.247843  0.254872  0.250625  1
  Fe  Fe9  1  0.248783  0.753076  0.761073  1
  Fe  Fe10  1  0.375064  0.376663  0.623117  1
  Fe  Fe11  1  0.376714  0.873488  0.122983  1
  Fe  Fe12  1  0.374380  0.125246  0.876766  1
  Fe  Fe13  1  0.380395  0.620852  0.373166  1
  Fe  Fe14  1  0.503751  0.996410  0.495782  1
  Fe  Fe15  1  0.504867  0.496267  0.993348  1
  Fe  Fe16  1  0.624621  0.124562  0.124426  1
  Fe  Fe17  1  0.623544  0.623734  0.624923  1
  Fe  Fe18  1  0.743509  0.257207  0.757339  1
  Fe  Fe19  1  0.742317  0.752381  0.252008  1
  Fe  Fe20  1  0.871001  0.128886  0.373717  1
  Fe  Fe21  1  0.873870  0.625899  0.875594  1
  Fe  Fe22  1  0.873221  0.375191  0.123853  1
  Fe  Fe23  1  0.870208  0.876104  0.632911  1
  O  O24  1  0.116025  0.114553  0.382447  1
  O  O25  1  0.114504  0.387273  0.126350  1
  O  O26  1  0.118149  0.882850  0.615729  1
  O  O27  1  0.136771  0.366550  0.621877  1
  O  O28  1  0.112317  0.626097  0.886288  1
  O  O29  1  0.126700  0.636800  0.365873  1
  O  O30  1  0.140996  0.129645  0.858986  1
  O  O31  1  0.143981  0.863272  0.135751  1
  O  O32  1  0.371852  0.129955  0.629945  1
  O  O33  1  0.365819  0.876099  0.359365  1
  O  O34  1  0.375907  0.365492  0.865630  1
  O  O35  1  0.373501  0.372648  0.387193  1
  O  O36  1  0.370592  0.638970  0.121432  1
  O  O37  1  0.379560  0.113815  0.118908  1
  O  O38  1  0.381174  0.618964  0.631724  1
  O  O39  1  0.374133  0.884883  0.891442  1
  O  O40  1  0.614773  0.384116  0.624536  1
  O  O41  1  0.613229  0.124053  0.885043  1
  O  O42  1  0.624249  0.624877  0.389506  1
  O  O43  1  0.635486  0.124747  0.365457  1
  O  O44  1  0.607706  0.883395  0.125767  1
  O  O45  1  0.632651  0.862772  0.622766  1
  O  O46  1  0.634972  0.366414  0.126048  1
  O  O47  1  0.635857  0.622852  0.864382  1
  O  O48  1  0.876630  0.365630  0.363544  1
  O  O49  1  0.869144  0.627742  0.630301  1
  O  O50  1  0.865438  0.133894  0.134601  1
  O  O51  1  0.880499  0.119270  0.618700  1
  O  O52  1  0.870847  0.859641  0.859923  1
  O  O53  1  0.875391  0.384908  0.884736  1
  O  O54  1  0.884866  0.882970  0.382354  1
  O  O55  1  0.878692  0.620467  0.119296  1
