# generated using pymatgen
data_LiFe2(PO4)2
_symmetry_space_group_name_H-M   'P 1'
_cell_length_a   5.17391465
_cell_length_b   10.23043344
_cell_length_c   6.93386744
_cell_angle_alpha   90.00000000
_cell_angle_beta   89.61064913
_cell_angle_gamma   90.00000000
_symmetry_Int_Tables_number   1
_chemical_formula_structural   LiFe2(PO4)2
_chemical_formula_sum   'Li2 Fe4 P4 O16'
_cell_volume   367.01076392
_cell_formula_units_Z   2
loop_
 _symmetry_equiv_pos_site_id
 _symmetry_equiv_pos_as_xyz
  1  'x, y, z'
loop_
 _atom_site_type_symbol
 _atom_site_label
 _atom_site_symmetry_multiplicity
 _atom_site_fract_x
 _atom_site_fract_y
 _atom_site_fract_z
 _atom_site_occupancy
  Li  Li0  1  0.700215  0.371085  0.000689  1
  Li  Li1  1  0.799785  0.871085  0.499311  1
  Fe  Fe2  1  0.202288  0.167054  0.017514  1
  Fe  Fe3  1  0.297712  0.667054  0.482486  1
  Fe  Fe4  1  0.695500  0.322600  0.493556  1
  Fe  Fe5  1  0.804500  0.822600  0.006444  1
  P  P6  1  0.194793  0.407013  0.268374  1
  P  P7  1  0.305207  0.907013  0.231626  1
  P  P8  1  0.705132  0.091212  0.766741  1
  P  P9  1  0.794868  0.591212  0.733259  1
  O  O10  1  0.085671  0.620348  0.690257  1
  O  O11  1  0.177047  0.842826  0.417564  1
  O  O12  1  0.186466  0.849895  0.048885  1
  O  O13  1  0.257235  0.057802  0.235265  1
  O  O14  1  0.242765  0.557802  0.264735  1
  O  O15  1  0.313534  0.349895  0.451115  1
  O  O16  1  0.322953  0.342826  0.082436  1
  O  O17  1  0.414329  0.120348  0.809743  1
  O  O18  1  0.598270  0.876555  0.246653  1
  O  O19  1  0.720558  0.640963  0.933456  1
  O  O20  1  0.647297  0.668582  0.568949  1
  O  O21  1  0.740657  0.443436  0.726426  1
  O  O22  1  0.759343  0.943436  0.773574  1
  O  O23  1  0.852703  0.168582  0.931051  1
  O  O24  1  0.779442  0.140963  0.566544  1
  O  O25  1  0.901730  0.376555  0.253347  1
