# generated using pymatgen
data_Na3Fe2(PO4)3
_symmetry_space_group_name_H-M   'P 1'
_cell_length_a   8.85236744
_cell_length_b   12.57293200
_cell_length_c   9.03714545
_cell_angle_alpha   90.00000000
_cell_angle_beta   90.00000000
_cell_angle_gamma   90.33125842
_symmetry_Int_Tables_number   1
_chemical_formula_structural   Na3Fe2(PO4)3
_chemical_formula_sum   'Na12 Fe8 P12 O48'
_cell_volume   1005.81941061
_cell_formula_units_Z   4
loop_
 _symmetry_equiv_pos_site_id
 _symmetry_equiv_pos_as_xyz
  1  'x, y, z'
loop_
 _atom_site_type_symbol
 _atom_site_label
 _atom_site_symmetry_multiplicity
 _atom_site_fract_x
 _atom_site_fract_y
 _atom_site_fract_z
 _atom_site_occupancy
  Na  Na0  1  0.063269  0.693159  0.029138  1
  Na  Na1  1  0.219174  0.171047  0.791417  1
  Na  Na2  1  0.181963  0.820824  0.719157  1
  Na  Na3  1  0.318037  0.679176  0.219157  1
  Na  Na4  1  0.280826  0.328953  0.291417  1
  Na  Na5  1  0.436731  0.806841  0.529138  1
  Na  Na6  1  0.563269  0.193160  0.470862  1
  Na  Na7  1  0.719174  0.671047  0.708583  1
  Na  Na8  1  0.681963  0.320824  0.780843  1
  Na  Na9  1  0.818037  0.179176  0.280843  1
  Na  Na10  1  0.780826  0.828953  0.208583  1
  Na  Na11  1  0.936731  0.306841  0.970862  1
  Fe  Fe12  1  0.237865  0.599689  0.537824  1
  Fe  Fe13  1  0.262135  0.900311  0.037824  1
  Fe  Fe14  1  0.237690  0.103294  0.460621  1
  Fe  Fe15  1  0.262310  0.396706  0.960621  1
  Fe  Fe16  1  0.737690  0.603294  0.039379  1
  Fe  Fe17  1  0.762310  0.896706  0.539379  1
  Fe  Fe18  1  0.737865  0.099689  0.962176  1
  Fe  Fe19  1  0.762135  0.400311  0.462176  1
  P  P20  1  0.032678  0.500417  0.247384  1
  P  P21  1  0.106516  0.850361  0.383031  1
  P  P22  1  0.115830  0.145323  0.107467  1
  P  P23  1  0.384170  0.354677  0.607467  1
  P  P24  1  0.393484  0.649639  0.883031  1
  P  P25  1  0.467322  0.999583  0.747384  1
  P  P26  1  0.532678  0.000417  0.252616  1
  P  P27  1  0.606516  0.350361  0.116969  1
  P  P28  1  0.615830  0.645323  0.392533  1
  P  P29  1  0.884170  0.854677  0.892533  1
  P  P30  1  0.893484  0.149639  0.616969  1
  P  P31  1  0.967322  0.499583  0.752616  1
  O  O32  1  0.069110  0.427569  0.848325  1
  O  O33  1  0.059867  0.584314  0.666906  1
  O  O34  1  0.057849  0.864209  0.915970  1
  O  O35  1  0.065614  0.156596  0.591010  1
  O  O36  1  0.127133  0.574902  0.349171  1
  O  O37  1  0.162355  0.961235  0.430242  1
  O  O38  1  0.142941  0.827693  0.216512  1
  O  O39  1  0.170830  0.242057  0.013213  1
  O  O40  1  0.147034  0.440132  0.148329  1
  O  O41  1  0.146988  0.167071  0.274140  1
  O  O42  1  0.196627  0.046088  0.050378  1
  O  O43  1  0.192435  0.767825  0.481513  1
  O  O44  1  0.307565  0.732175  0.981513  1
  O  O45  1  0.303373  0.453912  0.550378  1
  O  O46  1  0.353012  0.332929  0.774140  1
  O  O47  1  0.352966  0.059868  0.648329  1
  O  O48  1  0.329170  0.257943  0.513213  1
  O  O49  1  0.357059  0.672307  0.716512  1
  O  O50  1  0.337645  0.538765  0.930242  1
  O  O51  1  0.372867  0.925098  0.849171  1
  O  O52  1  0.442151  0.635791  0.415970  1
  O  O53  1  0.434386  0.343404  0.091010  1
  O  O54  1  0.440133  0.915686  0.166906  1
  O  O55  1  0.430890  0.072431  0.348325  1
  O  O56  1  0.569110  0.927569  0.651675  1
  O  O57  1  0.559867  0.084314  0.833094  1
  O  O58  1  0.565614  0.656596  0.908990  1
  O  O59  1  0.557849  0.364209  0.584030  1
  O  O60  1  0.627133  0.074902  0.150829  1
  O  O61  1  0.662355  0.461235  0.069758  1
  O  O62  1  0.642941  0.327693  0.283488  1
  O  O63  1  0.670830  0.742057  0.486787  1
  O  O64  1  0.647034  0.940132  0.351671  1
  O  O65  1  0.646988  0.667071  0.225860  1
  O  O66  1  0.696627  0.546088  0.449622  1
  O  O67  1  0.692435  0.267825  0.018487  1
  O  O68  1  0.807565  0.232175  0.518487  1
  O  O69  1  0.803373  0.953912  0.949622  1
  O  O70  1  0.853012  0.832929  0.725860  1
  O  O71  1  0.852966  0.559868  0.851671  1
  O  O72  1  0.829170  0.757943  0.986787  1
  O  O73  1  0.857059  0.172307  0.783488  1
  O  O74  1  0.837645  0.038765  0.569758  1
  O  O75  1  0.872867  0.425098  0.650829  1
  O  O76  1  0.934386  0.843404  0.408990  1
  O  O77  1  0.942151  0.135791  0.084030  1
  O  O78  1  0.940133  0.415686  0.333095  1
  O  O79  1  0.930890  0.572431  0.151675  1
