# generated using pymatgen
data_LiCr(PO3)4
_symmetry_space_group_name_H-M   'P 1'
_cell_length_a   6.86935902
_cell_length_b   7.29904357
_cell_length_c   8.68468232
_cell_angle_alpha   90.00000000
_cell_angle_beta   90.00000000
_cell_angle_gamma   96.14543936
_symmetry_Int_Tables_number   1
_chemical_formula_structural   LiCr(PO3)4
_chemical_formula_sum   'Li2 Cr2 P8 O24'
_cell_volume   432.94544385
_cell_formula_units_Z   2
loop_
 _symmetry_equiv_pos_site_id
 _symmetry_equiv_pos_as_xyz
  1  'x, y, z'
loop_
 _atom_site_type_symbol
 _atom_site_label
 _atom_site_symmetry_multiplicity
 _atom_site_fract_x
 _atom_site_fract_y
 _atom_site_fract_z
 _atom_site_occupancy
  Li  Li0  1  0.326627  0.693517  0.297762  1
  Li  Li1  1  0.673373  0.306483  0.797762  1
  Cr  Cr2  1  0.241717  0.240391  0.931131  1
  Cr  Cr3  1  0.758283  0.759609  0.431131  1
  P  P4  1  0.980706  0.410728  0.366919  1
  P  P5  1  0.079459  0.088932  0.583168  1
  P  P6  1  0.408719  0.602111  0.729666  1
  P  P7  1  0.437653  0.057368  0.394711  1
  P  P8  1  0.562347  0.942632  0.894711  1
  P  P9  1  0.591281  0.397889  0.229666  1
  P  P10  1  0.920541  0.911068  0.083168  1
  P  P11  1  0.019294  0.589272  0.866919  1
  O  O12  1  0.002327  0.777613  0.958417  1
  O  O13  1  0.969327  0.902127  0.560205  1
  O  O14  1  0.110238  0.460984  0.975596  1
  O  O15  1  0.077025  0.173256  0.741525  1
  O  O16  1  0.184592  0.649512  0.735569  1
  O  O17  1  0.169656  0.472582  0.292934  1
  O  O18  1  0.308643  0.079083  0.548162  1
  O  O19  1  0.321190  0.953003  0.273747  1
  O  O20  1  0.415335  0.401660  0.778023  1
  O  O21  1  0.510418  0.725323  0.864801  1
  O  O22  1  0.370863  0.011632  0.937890  1
  O  O23  1  0.495410  0.657319  0.576484  1
  O  O24  1  0.504590  0.342681  0.076484  1
  O  O25  1  0.629137  0.988368  0.437891  1
  O  O26  1  0.489582  0.274677  0.364801  1
  O  O27  1  0.584665  0.598340  0.278023  1
  O  O28  1  0.678810  0.046997  0.773747  1
  O  O29  1  0.691357  0.920917  0.048162  1
  O  O30  1  0.830344  0.527418  0.792934  1
  O  O31  1  0.815408  0.350488  0.235569  1
  O  O32  1  0.922975  0.826744  0.241526  1
  O  O33  1  0.889762  0.539016  0.475596  1
  O  O34  1  0.030673  0.097873  0.060205  1
  O  O35  1  0.997673  0.222387  0.458417  1
