# generated using pymatgen
data_Li11Ti8Fe5O32
_symmetry_space_group_name_H-M   'P 1'
_cell_length_a   8.35569212
_cell_length_b   8.43889853
_cell_length_c   8.42189638
_cell_angle_alpha   90.14081063
_cell_angle_beta   89.97067364
_cell_angle_gamma   89.93471995
_symmetry_Int_Tables_number   1
_chemical_formula_structural   Li11Ti8Fe5O32
_chemical_formula_sum   'Li11 Ti8 Fe5 O32'
_cell_volume   593.84955786
_cell_formula_units_Z   1
loop_
 _symmetry_equiv_pos_site_id
 _symmetry_equiv_pos_as_xyz
  1  'x, y, z'
loop_
 _atom_site_type_symbol
 _atom_site_label
 _atom_site_symmetry_multiplicity
 _atom_site_fract_x
 _atom_site_fract_y
 _atom_site_fract_z
 _atom_site_occupancy
  Li  Li0  1  0.002387  0.494698  0.506962  1
  Li  Li1  1  0.116187  0.875322  0.372908  1
  Li  Li2  1  0.242040  0.749636  0.751354  1
  Li  Li3  1  0.249927  0.252693  0.249400  1
  Li  Li4  1  0.374810  0.124346  0.875017  1
  Li  Li5  1  0.501175  0.500556  0.002720  1
  Li  Li6  1  0.505510  0.000385  0.499206  1
  Li  Li7  1  0.633599  0.620530  0.624030  1
  Li  Li8  1  0.751479  0.252330  0.742992  1
  Li  Li9  1  0.875260  0.377504  0.129371  1
  Li  Li10  1  0.000826  0.998354  0.002825  1
  Ti  Ti11  1  0.134139  0.618498  0.132190  1
  Ti  Ti12  1  0.121029  0.364712  0.879382  1
  Ti  Ti13  1  0.134259  0.122804  0.619213  1
  Ti  Ti14  1  0.360843  0.885020  0.128500  1
  Ti  Ti15  1  0.370578  0.636290  0.388527  1
  Ti  Ti16  1  0.380188  0.377277  0.634666  1
  Ti  Ti17  1  0.616886  0.872346  0.865878  1
  Ti  Ti18  1  0.626168  0.137434  0.115606  1
  Fe  Fe19  1  0.623197  0.373267  0.376228  1
  Fe  Fe20  1  0.747082  0.751637  0.245840  1
  Fe  Fe21  1  0.876093  0.626284  0.871993  1
  Fe  Fe22  1  0.876733  0.874832  0.627355  1
  Fe  Fe23  1  0.872058  0.126663  0.372608  1
  O  O24  1  0.094831  0.127978  0.388063  1
  O  O25  1  0.103248  0.614954  0.886836  1
  O  O26  1  0.098624  0.892720  0.621944  1
  O  O27  1  0.125890  0.392037  0.103303  1
  O  O28  1  0.111582  0.145918  0.854568  1
  O  O29  1  0.139208  0.620712  0.356329  1
  O  O30  1  0.138758  0.360531  0.634391  1
  O  O31  1  0.143625  0.859007  0.125206  1
  O  O32  1  0.354512  0.137536  0.620048  1
  O  O33  1  0.360171  0.637546  0.134776  1
  O  O34  1  0.359117  0.376316  0.854782  1
  O  O35  1  0.378603  0.855363  0.359400  1
  O  O36  1  0.373230  0.609068  0.607482  1
  O  O37  1  0.394797  0.105155  0.127072  1
  O  O38  1  0.394707  0.390037  0.384596  1
  O  O39  1  0.397407  0.872030  0.891794  1
  O  O40  1  0.608056  0.374451  0.600580  1
  O  O41  1  0.619145  0.882460  0.116315  1
  O  O42  1  0.616723  0.615964  0.370928  1
  O  O43  1  0.637101  0.105974  0.897182  1
  O  O44  1  0.625691  0.357083  0.148520  1
  O  O45  1  0.650242  0.874284  0.643571  1
  O  O46  1  0.644821  0.129813  0.363033  1
  O  O47  1  0.653048  0.640730  0.877465  1
  O  O48  1  0.853144  0.351526  0.377898  1
  O  O49  1  0.867665  0.854959  0.867743  1
  O  O50  1  0.862029  0.122521  0.153056  1
  O  O51  1  0.877263  0.644227  0.648590  1
  O  O52  1  0.869413  0.888626  0.384896  1
  O  O53  1  0.886687  0.406011  0.871383  1
  O  O54  1  0.880310  0.109053  0.602347  1
  O  O55  1  0.887899  0.632010  0.111149  1
