# generated using pymatgen
data_Li5Cr2Ni3O10
_symmetry_space_group_name_H-M   'P 1'
_cell_length_a   5.09780627
_cell_length_b   5.06216005
_cell_length_c   7.74118102
_cell_angle_alpha   109.99497568
_cell_angle_beta   101.84379473
_cell_angle_gamma   99.60494013
_symmetry_Int_Tables_number   1
_chemical_formula_structural   Li5Cr2Ni3O10
_chemical_formula_sum   'Li5 Cr2 Ni3 O10'
_cell_volume   177.52342629
_cell_formula_units_Z   1
loop_
 _symmetry_equiv_pos_site_id
 _symmetry_equiv_pos_as_xyz
  1  'x, y, z'
loop_
 _atom_site_type_symbol
 _atom_site_label
 _atom_site_symmetry_multiplicity
 _atom_site_fract_x
 _atom_site_fract_y
 _atom_site_fract_z
 _atom_site_occupancy
  Li  Li0  1  0.211585  0.907101  0.402187  1
  Li  Li1  1  0.404824  0.300778  0.797221  1
  Li  Li2  1  0.500000  0.500000  0.500000  1
  Li  Li3  1  0.595176  0.699222  0.202779  1
  Li  Li4  1  0.788415  0.092899  0.597813  1
  Cr  Cr5  1  0.109759  0.702213  0.695818  1
  Cr  Cr6  1  0.890241  0.297787  0.304182  1
  Ni  Ni7  1  0.000000  0.500000  0.000000  1
  Ni  Ni8  1  0.698636  0.897693  0.899022  1
  Ni  Ni9  1  0.301364  0.102307  0.100978  1
  O  O10  1  0.051809  0.078794  0.845448  1
  O  O11  1  0.336719  0.705658  0.941364  1
  O  O12  1  0.129572  0.323168  0.549725  1
  O  O13  1  0.224502  0.476525  0.245297  1
  O  O14  1  0.431044  0.888761  0.659156  1
  O  O15  1  0.568956  0.111239  0.340844  1
  O  O16  1  0.775498  0.523475  0.754703  1
  O  O17  1  0.870428  0.676832  0.450275  1
  O  O18  1  0.663281  0.294342  0.058636  1
  O  O19  1  0.948191  0.921206  0.154552  1
