# generated using pymatgen
data_Li3MnFe3O8
_symmetry_space_group_name_H-M   'P 1'
_cell_length_a   5.93241234
_cell_length_b   6.00534518
_cell_length_c   5.94360107
_cell_angle_alpha   89.91309057
_cell_angle_beta   60.03887997
_cell_angle_gamma   60.21379121
_symmetry_Int_Tables_number   1
_chemical_formula_structural   Li3MnFe3O8
_chemical_formula_sum   'Li3 Mn1 Fe3 O8'
_cell_volume   150.40986738
_cell_formula_units_Z   1
loop_
 _symmetry_equiv_pos_site_id
 _symmetry_equiv_pos_as_xyz
  1  'x, y, z'
loop_
 _atom_site_type_symbol
 _atom_site_label
 _atom_site_symmetry_multiplicity
 _atom_site_fract_x
 _atom_site_fract_y
 _atom_site_fract_z
 _atom_site_occupancy
  Li  Li0  1  -0.000006  0.500009  0.500004  1
  Li  Li1  1  0.500013  0.499992  0.000002  1
  Li  Li2  1  -0.000002  0.499988  0.000002  1
  Mn  Mn3  1  -0.000125  0.000130  0.000069  1
  Fe  Fe4  1  0.500031  -0.000037  0.500006  1
  Fe  Fe5  1  0.000013  0.999976  0.499989  1
  Fe  Fe6  1  0.500040  -0.000041  -0.000043  1
  O  O7  1  0.008027  0.225689  0.756811  1
  O  O8  1  0.519756  0.216546  0.742332  1
  O  O9  1  0.018588  0.216740  0.230398  1
  O  O10  1  0.532229  0.217136  0.230849  1
  O  O11  1  0.467752  0.782888  0.769160  1
  O  O12  1  0.981429  0.783248  0.769593  1
  O  O13  1  0.480267  0.783437  0.257655  1
  O  O14  1  0.991987  0.774299  0.243177  1
