# generated using pymatgen
data_Na4ZnP6(HO2)12
_symmetry_space_group_name_H-M   'P 1'
_cell_length_a   9.54838352
_cell_length_b   9.31164244
_cell_length_c   7.35600447
_cell_angle_alpha   71.92320664
_cell_angle_beta   105.11900733
_cell_angle_gamma   114.39888395
_symmetry_Int_Tables_number   1
_chemical_formula_structural   Na4ZnP6(HO2)12
_chemical_formula_sum   'Na4 Zn1 P6 H12 O24'
_cell_volume   559.53564884
_cell_formula_units_Z   1
loop_
 _symmetry_equiv_pos_site_id
 _symmetry_equiv_pos_as_xyz
  1  'x, y, z'
loop_
 _atom_site_type_symbol
 _atom_site_label
 _atom_site_symmetry_multiplicity
 _atom_site_fract_x
 _atom_site_fract_y
 _atom_site_fract_z
 _atom_site_occupancy
  Na  Na0  1  0.911710  0.671238  0.137762  1
  Na  Na1  1  0.088290  0.328762  0.862238  1
  Na  Na2  1  0.036340  0.283258  0.365692  1
  Na  Na3  1  0.963660  0.716742  0.634308  1
  Zn  Zn4  1  0.500000  0.500000  0.000000  1
  P  P5  1  0.290205  0.630681  0.146270  1
  P  P6  1  0.709795  0.369319  0.853730  1
  P  P7  1  0.628245  0.744388  0.305577  1
  P  P8  1  0.371755  0.255612  0.694423  1
  P  P9  1  0.763820  0.069698  0.041964  1
  P  P10  1  0.236180  0.930302  0.958036  1
  H  H11  1  0.988560  0.033744  0.728889  1
  H  H12  1  0.011440  0.966256  0.271111  1
  H  H13  1  0.851746  0.088517  0.707409  1
  H  H14  1  0.148254  0.911483  0.292591  1
  H  H15  1  0.603649  0.708859  0.673694  1
  H  H16  1  0.396351  0.291141  0.326306  1
  H  H17  1  0.460627  0.749026  0.682573  1
  H  H18  1  0.539373  0.250974  0.317427  1
  H  H19  1  0.246646  0.637202  0.682699  1
  H  H20  1  0.753354  0.362798  0.317301  1
  H  H21  1  0.834876  0.396756  0.523570  1
  H  H22  1  0.165124  0.603244  0.476430  1
  O  O23  1  0.442100  0.685026  0.305285  1
  O  O24  1  0.557900  0.314974  0.694715  1
  O  O25  1  0.307959  0.792473  0.974913  1
  O  O26  1  0.692040  0.207527  0.025087  1
  O  O27  1  0.151001  0.580667  0.241207  1
  O  O28  1  0.848999  0.419333  0.758793  1
  O  O29  1  0.297520  0.509202  0.055449  1
  O  O30  1  0.702480  0.490798  0.944551  1
  O  O31  1  0.668393  0.935942  0.211047  1
  O  O32  1  0.331607  0.064058  0.788953  1
  O  O33  1  0.659578  0.664195  0.180012  1
  O  O34  1  0.340422  0.335805  0.819988  1
  O  O35  1  0.701854  0.724999  0.513494  1
  O  O36  1  0.298146  0.275001  0.486506  1
  O  O37  1  0.933861  0.134899  0.126010  1
  O  O38  1  0.066139  0.865101  0.873990  1
  O  O39  1  0.282769  0.983598  0.142854  1
  O  O40  1  0.717231  0.016402  0.857146  1
  O  O41  1  0.048296  0.876805  0.341721  1
  O  O42  1  0.951704  0.123195  0.658279  1
  O  O43  1  0.528594  0.691178  0.759298  1
  O  O44  1  0.471406  0.308822  0.240702  1
  O  O45  1  0.854156  0.403705  0.394118  1
  O  O46  1  0.145844  0.596295  0.605882  1
