# generated using pymatgen
data_CsUF6
_symmetry_space_group_name_H-M   'P 1'
_cell_length_a   5.56793962
_cell_length_b   5.56793963
_cell_length_c   5.56793963
_cell_angle_alpha   95.70965043
_cell_angle_beta   95.70965043
_cell_angle_gamma   95.70965041
_symmetry_Int_Tables_number   1
_chemical_formula_structural   CsUF6
_chemical_formula_sum   'Cs1 U1 F6'
_cell_volume   169.86226335
_cell_formula_units_Z   1
loop_
 _symmetry_equiv_pos_site_id
 _symmetry_equiv_pos_as_xyz
  1  'x, y, z'
loop_
 _atom_site_type_symbol
 _atom_site_label
 _atom_site_symmetry_multiplicity
 _atom_site_fract_x
 _atom_site_fract_y
 _atom_site_fract_z
 _atom_site_occupancy
  F  F0  1  0.918902  0.312904  0.202094  1
  F  F1  1  0.312904  0.202094  0.918902  1
  F  F2  1  0.797906  0.081098  0.687096  1
  F  F3  1  0.687096  0.797906  0.081098  1
  F  F4  1  0.081098  0.687096  0.797906  1
  F  F5  1  0.202094  0.918902  0.312904  1
  Cs  Cs6  1  0.500000  0.500000  0.500000  1
  U  U7  1  0.000000  0.000000  0.000000  1
