# generated using pymatgen
data_Si3Sb2O9
_symmetry_space_group_name_H-M   'P 1'
_cell_length_a   6.98095071
_cell_length_b   6.98093385
_cell_length_c   9.48286455
_cell_angle_alpha   89.99979906
_cell_angle_beta   90.00011922
_cell_angle_gamma   119.99962185
_symmetry_Int_Tables_number   1
_chemical_formula_structural   Si3Sb2O9
_chemical_formula_sum   'Si6 Sb4 O18'
_cell_volume   400.22105087
_cell_formula_units_Z   2
loop_
 _symmetry_equiv_pos_site_id
 _symmetry_equiv_pos_as_xyz
  1  'x, y, z'
loop_
 _atom_site_type_symbol
 _atom_site_label
 _atom_site_symmetry_multiplicity
 _atom_site_fract_x
 _atom_site_fract_y
 _atom_site_fract_z
 _atom_site_occupancy
  Si  Si0  1  0.205417  0.927988  0.249994  1
  Si  Si1  1  0.072021  0.277422  0.250002  1
  Si  Si2  1  0.277419  0.205403  0.750004  1
  Si  Si3  1  0.722587  0.794598  0.250001  1
  Si  Si4  1  0.927986  0.722575  0.750003  1
  Si  Si5  1  0.794597  0.072014  0.749995  1
  Sb  Sb6  1  0.333342  0.666661  0.990747  1
  Sb  Sb7  1  0.333329  0.666667  0.509248  1
  Sb  Sb8  1  0.666662  0.333344  0.490752  1
  Sb  Sb9  1  0.666669  0.333318  0.009253  1
  O  O10  1  0.181888  0.936772  0.750000  1
  O  O11  1  0.322557  0.903791  0.107202  1
  O  O12  1  0.322559  0.903789  0.392785  1
  O  O13  1  0.096225  0.418764  0.107209  1
  O  O14  1  0.096206  0.418757  0.392793  1
  O  O15  1  0.063227  0.245114  0.750003  1
  O  O16  1  0.245122  0.181891  0.250001  1
  O  O17  1  0.581253  0.677460  0.107207  1
  O  O18  1  0.581250  0.677459  0.392796  1
  O  O19  1  0.418751  0.322550  0.607209  1
  O  O20  1  0.418757  0.322533  0.892798  1
  O  O21  1  0.754888  0.818107  0.749994  1
  O  O22  1  0.936784  0.754892  0.250001  1
  O  O23  1  0.903794  0.581243  0.607210  1
  O  O24  1  0.903788  0.581236  0.892795  1
  O  O25  1  0.677447  0.096219  0.607210  1
  O  O26  1  0.677462  0.096207  0.892791  1
  O  O27  1  0.818117  0.063230  0.250000  1
