# generated using pymatgen
data_Na2LiFePCO7
_symmetry_space_group_name_H-M   'P 1'
_cell_length_a   8.81609086
_cell_length_b   6.73550664
_cell_length_c   10.22201861
_cell_angle_alpha   89.62910209
_cell_angle_beta   88.22887957
_cell_angle_gamma   90.37559388
_symmetry_Int_Tables_number   1
_chemical_formula_structural   Na2LiFePCO7
_chemical_formula_sum   'Na8 Li4 Fe4 P4 C4 O28'
_cell_volume   606.67548618
_cell_formula_units_Z   4
loop_
 _symmetry_equiv_pos_site_id
 _symmetry_equiv_pos_as_xyz
  1  'x, y, z'
loop_
 _atom_site_type_symbol
 _atom_site_label
 _atom_site_symmetry_multiplicity
 _atom_site_fract_x
 _atom_site_fract_y
 _atom_site_fract_z
 _atom_site_occupancy
  Na  Na0  1  0.082839  0.254937  0.878197  1
  Na  Na1  1  0.259788  0.998634  0.625778  1
  Na  Na2  1  0.261510  0.002127  0.126005  1
  Na  Na3  1  0.261738  0.501325  0.125329  1
  Na  Na4  1  0.740918  0.502846  0.874393  1
  Na  Na5  1  0.740023  0.995774  0.874256  1
  Na  Na6  1  0.737652  0.501716  0.376734  1
  Na  Na7  1  0.737535  0.999519  0.377319  1
  Li  Li8  1  0.087196  0.254612  0.377694  1
  Li  Li9  1  0.273223  0.480090  0.617341  1
  Li  Li10  1  0.908522  0.742062  0.622330  1
  Li  Li11  1  0.910483  0.750116  0.127443  1
  Fe  Fe12  1  0.353515  0.747079  0.888171  1
  Fe  Fe13  1  0.347128  0.747445  0.394326  1
  Fe  Fe14  1  0.647676  0.249369  0.614308  1
  Fe  Fe15  1  0.649721  0.251240  0.109858  1
  P  P16  1  0.409529  0.252467  0.850809  1
  P  P17  1  0.406267  0.250199  0.356996  1
  P  P18  1  0.592437  0.743696  0.648398  1
  P  P19  1  0.591914  0.751663  0.147939  1
  C  C20  1  0.052957  0.748595  0.861811  1
  C  C21  1  0.050034  0.749616  0.363022  1
  C  C22  1  0.954487  0.258849  0.627224  1
  C  C23  1  0.942722  0.250562  0.141445  1
  O  O24  1  0.097707  0.275240  0.648057  1
  O  O25  1  0.086883  0.248813  0.158195  1
  O  O26  1  0.090124  0.749899  0.984193  1
  O  O27  1  0.091194  0.750466  0.484384  1
  O  O28  1  0.158467  0.744396  0.769715  1
  O  O29  1  0.153638  0.746380  0.268878  1
  O  O30  1  0.314013  0.064659  0.889495  1
  O  O31  1  0.315880  0.434408  0.897386  1
  O  O32  1  0.308166  0.062541  0.393682  1
  O  O33  1  0.305393  0.429827  0.401243  1
  O  O34  1  0.429603  0.263805  0.697586  1
  O  O35  1  0.433952  0.729463  0.586115  1
  O  O36  1  0.434584  0.256246  0.205491  1
  O  O37  1  0.438537  0.754565  0.079184  1
  O  O38  1  0.568304  0.248138  0.911303  1
  O  O39  1  0.567787  0.744466  0.800219  1
  O  O40  1  0.561165  0.251091  0.423836  1
  O  O41  1  0.561435  0.750996  0.298795  1
  O  O42  1  0.697748  0.567259  0.608748  1
  O  O43  1  0.684713  0.932623  0.605428  1
  O  O44  1  0.690615  0.567648  0.108893  1
  O  O45  1  0.693316  0.935852  0.108897  1
  O  O46  1  0.856262  0.248727  0.726459  1
  O  O47  1  0.849148  0.251447  0.241999  1
  O  O48  1  0.904320  0.251166  0.509237  1
  O  O49  1  0.886374  0.251939  0.024294  1
  O  O50  1  0.912048  0.751755  0.828522  1
  O  O51  1  0.908808  0.751642  0.332638  1
