# generated using pymatgen
data_LiFe2(BO3)2
_symmetry_space_group_name_H-M   'P 1'
_cell_length_a   5.28834040
_cell_length_b   9.05949857
_cell_length_c   10.22247597
_cell_angle_alpha   90.92094287
_cell_angle_beta   91.29015908
_cell_angle_gamma   89.58674239
_symmetry_Int_Tables_number   1
_chemical_formula_structural   LiFe2(BO3)2
_chemical_formula_sum   'Li4 Fe8 B8 O24'
_cell_volume   489.55697894
_cell_formula_units_Z   4
loop_
 _symmetry_equiv_pos_site_id
 _symmetry_equiv_pos_as_xyz
  1  'x, y, z'
loop_
 _atom_site_type_symbol
 _atom_site_label
 _atom_site_symmetry_multiplicity
 _atom_site_fract_x
 _atom_site_fract_y
 _atom_site_fract_z
 _atom_site_occupancy
  Li  Li0  1  0.346046  0.014636  0.837574  1
  Li  Li1  1  0.658641  0.005945  0.097290  1
  Li  Li2  1  0.148891  0.498436  0.605091  1
  Li  Li3  1  0.348002  0.987707  0.335840  1
  Fe  Fe4  1  0.153243  0.168188  0.112030  1
  Fe  Fe5  1  0.841193  0.177972  0.366526  1
  Fe  Fe6  1  0.333130  0.347770  0.871629  1
  Fe  Fe7  1  0.657548  0.325908  0.627327  1
  Fe  Fe8  1  0.335648  0.647462  0.365896  1
  Fe  Fe9  1  0.155919  0.834538  0.618362  1
  Fe  Fe10  1  0.663158  0.664740  0.125592  1
  Fe  Fe11  1  0.850000  0.830410  0.871444  1
  B  B12  1  0.160350  0.171166  0.621313  1
  B  B13  1  0.320936  0.322183  0.385192  1
  B  B14  1  0.831411  0.157455  0.870282  1
  B  B15  1  0.650837  0.334919  0.124905  1
  B  B16  1  0.344601  0.678102  0.863700  1
  B  B17  1  0.663748  0.661825  0.618078  1
  B  B18  1  0.173484  0.828692  0.128834  1
  B  B19  1  0.838772  0.842585  0.367721  1
  O  O20  1  0.263708  0.035361  0.642810  1
  O  O21  1  0.088259  0.164220  0.901701  1
  O  O22  1  0.694264  0.032717  0.899160  1
  O  O23  1  0.205067  0.192710  0.335663  1
  O  O24  1  0.291478  0.300057  0.653115  1
  O  O25  1  0.779601  0.205957  0.172230  1
  O  O26  1  0.918578  0.187040  0.566365  1
  O  O27  1  0.416497  0.315871  0.068604  1
  O  O28  1  0.195545  0.451086  0.400047  1
  O  O29  1  0.574026  0.307091  0.426506  1
  O  O30  1  0.706178  0.276802  0.812757  1
  O  O31  1  0.233075  0.549334  0.832978  1
  O  O32  1  0.766586  0.467749  0.137236  1
  O  O33  1  0.301177  0.700194  0.163258  1
  O  O34  1  0.408064  0.679413  0.580779  1
  O  O35  1  0.773431  0.524517  0.619614  1
  O  O36  1  0.572443  0.693879  0.933678  1
  O  O37  1  0.091876  0.835857  0.416250  1
  O  O38  1  0.226989  0.811504  0.818460  1
  O  O39  1  0.709099  0.717729  0.327434  1
  O  O40  1  0.806464  0.785232  0.654539  1
  O  O41  1  0.296922  0.962614  0.136565  1
  O  O42  1  0.917922  0.823552  0.090128  1
  O  O43  1  0.720044  0.978873  0.357012  1
