# generated using pymatgen
data_KFe3P8(H11O18)2
_symmetry_space_group_name_H-M   'P 1'
_cell_length_a   9.81384060
_cell_length_b   9.81384060
_cell_length_c   18.00399560
_cell_angle_alpha   88.29715181
_cell_angle_beta   91.70284819
_cell_angle_gamma   120.44750852
_symmetry_Int_Tables_number   1
_chemical_formula_structural   KFe3P8(H11O18)2
_chemical_formula_sum   'K2 Fe6 P16 H44 O72'
_cell_volume   1493.98672799
_cell_formula_units_Z   2
loop_
 _symmetry_equiv_pos_site_id
 _symmetry_equiv_pos_as_xyz
  1  'x, y, z'
loop_
 _atom_site_type_symbol
 _atom_site_label
 _atom_site_symmetry_multiplicity
 _atom_site_fract_x
 _atom_site_fract_y
 _atom_site_fract_z
 _atom_site_occupancy
  K  K0  1  0.765147  0.765147  0.750000  1
  K  K1  1  0.234853  0.234853  0.250000  1
  Fe  Fe2  1  0.761207  0.184062  0.743019  1
  Fe  Fe3  1  0.184062  0.761207  0.756981  1
  Fe  Fe4  1  0.238793  0.815938  0.256981  1
  Fe  Fe5  1  0.815938  0.238793  0.243019  1
  Fe  Fe6  1  0.343251  0.343251  0.750000  1
  Fe  Fe7  1  0.656749  0.656749  0.250000  1
  P  P8  1  0.124530  0.007242  0.853980  1
  P  P9  1  0.007242  0.124530  0.646020  1
  P  P10  1  0.875470  0.992758  0.146020  1
  P  P11  1  0.992758  0.875470  0.353980  1
  P  P12  1  0.881811  0.527844  0.646009  1
  P  P13  1  0.527844  0.881811  0.853991  1
  P  P14  1  0.118189  0.472156  0.353991  1
  P  P15  1  0.472156  0.118189  0.146009  1
  P  P16  1  0.646737  0.391445  0.852108  1
  P  P17  1  0.391445  0.646737  0.647892  1
  P  P18  1  0.353263  0.608555  0.147892  1
  P  P19  1  0.608555  0.353263  0.352108  1
  P  P20  1  0.422331  0.101107  0.657579  1
  P  P21  1  0.101107  0.422331  0.842421  1
  P  P22  1  0.577669  0.898893  0.342421  1
  P  P23  1  0.898893  0.577669  0.157579  1
  H  H24  1  0.003304  0.348523  0.955152  1
  H  H25  1  0.348523  0.003304  0.544848  1
  H  H26  1  0.996696  0.651477  0.044848  1
  H  H27  1  0.651477  0.996696  0.455152  1
  H  H28  1  0.619300  0.422374  0.651524  1
  H  H29  1  0.422374  0.619300  0.848476  1
  H  H30  1  0.380700  0.577626  0.348476  1
  H  H31  1  0.577626  0.380700  0.151524  1
  H  H32  1  0.062153  0.652324  0.558441  1
  H  H33  1  0.652324  0.062153  0.941559  1
  H  H34  1  0.937847  0.347676  0.441559  1
  H  H35  1  0.347676  0.937847  0.058441  1
  H  H36  1  0.112770  0.968919  0.660015  1
  H  H37  1  0.968919  0.112770  0.839985  1
  H  H38  1  0.887230  0.031081  0.339985  1
  H  H39  1  0.031081  0.887230  0.160015  1
  H  H40  1  0.098937  0.222870  0.535622  1
  H  H41  1  0.222870  0.098937  0.964378  1
  H  H42  1  0.901063  0.777130  0.464378  1
  H  H43  1  0.777130  0.901063  0.035622  1
  H  H44  1  0.908382  0.551441  0.852401  1
  H  H45  1  0.551441  0.908382  0.647599  1
  H  H46  1  0.091618  0.448559  0.147599  1
  H  H47  1  0.448559  0.091618  0.352401  1
  H  H48  1  0.480875  0.315488  0.947352  1
  H  H49  1  0.315488  0.480875  0.552648  1
  H  H50  1  0.519125  0.684512  0.052648  1
  H  H51  1  0.684512  0.519125  0.447352  1
  H  H52  1  0.248726  0.710095  0.004548  1
  H  H53  1  0.710095  0.248726  0.495452  1
  H  H54  1  0.751274  0.289905  0.995452  1
  H  H55  1  0.289905  0.751274  0.504548  1
  H  H56  1  0.186563  0.821979  0.972246  1
  H  H57  1  0.821979  0.186563  0.527754  1
  H  H58  1  0.813437  0.178021  0.027754  1
  H  H59  1  0.178021  0.813437  0.472246  1
  H  H60  1  0.300799  0.349943  0.452705  1
  H  H61  1  0.349943  0.300799  0.047295  1
  H  H62  1  0.699201  0.650057  0.547295  1
  H  H63  1  0.650057  0.699201  0.952705  1
  H  H64  1  0.341235  0.258304  0.516934  1
  H  H65  1  0.258304  0.341235  0.983066  1
  H  H66  1  0.658765  0.741696  0.483066  1
  H  H67  1  0.741696  0.658765  0.016934  1
  O  O68  1  0.157401  0.255198  0.681860  1
  O  O69  1  0.255198  0.157401  0.818140  1
  O  O70  1  0.842599  0.744802  0.318140  1
  O  O71  1  0.744802  0.842599  0.181860  1
  O  O72  1  0.852238  0.082322  0.681171  1
  O  O73  1  0.082322  0.852238  0.818829  1
  O  O74  1  0.147762  0.917678  0.318829  1
  O  O75  1  0.917678  0.147762  0.181171  1
  O  O76  1  0.011665  0.966047  0.643132  1
  O  O77  1  0.966047  0.011665  0.856868  1
  O  O78  1  0.988335  0.033953  0.356868  1
  O  O79  1  0.033953  0.988335  0.143132  1
  O  O80  1  0.994922  0.172650  0.561931  1
  O  O81  1  0.172650  0.994922  0.938069  1
  O  O82  1  0.005078  0.827350  0.438069  1
  O  O83  1  0.827350  0.005078  0.061931  1
  O  O84  1  0.368326  0.854026  0.826653  1
  O  O85  1  0.854026  0.368326  0.673347  1
  O  O86  1  0.631674  0.145974  0.173347  1
  O  O87  1  0.145974  0.631674  0.326653  1
  O  O88  1  0.979423  0.665001  0.697761  1
  O  O89  1  0.665001  0.979423  0.802239  1
  O  O90  1  0.020577  0.334999  0.302239  1
  O  O91  1  0.334999  0.020577  0.197761  1
  O  O92  1  0.951014  0.565656  0.565340  1
  O  O93  1  0.565656  0.951014  0.934660  1
  O  O94  1  0.048986  0.434344  0.434660  1
  O  O95  1  0.434344  0.048986  0.065340  1
  O  O96  1  0.716100  0.518423  0.630499  1
  O  O97  1  0.518423  0.716100  0.869501  1
  O  O98  1  0.283900  0.481577  0.369501  1
  O  O99  1  0.481577  0.283900  0.130499  1
  O  O100  1  0.673648  0.274430  0.811670  1
  O  O101  1  0.274430  0.673648  0.688330  1
  O  O102  1  0.326352  0.725570  0.188330  1
  O  O103  1  0.725570  0.326352  0.311670  1
  O  O104  1  0.541986  0.445342  0.812667  1
  O  O105  1  0.445342  0.541986  0.687333  1
  O  O106  1  0.458014  0.554658  0.187333  1
  O  O107  1  0.554658  0.458014  0.312667  1
  O  O108  1  0.579493  0.318974  0.931840  1
  O  O109  1  0.318974  0.579493  0.568160  1
  O  O110  1  0.420507  0.681026  0.068160  1
  O  O111  1  0.681026  0.420507  0.431840  1
  O  O112  1  0.809102  0.547055  0.869571  1
  O  O113  1  0.547055  0.809102  0.630429  1
  O  O114  1  0.190898  0.452945  0.130429  1
  O  O115  1  0.452945  0.190898  0.369571  1
  O  O116  1  0.458063  0.264624  0.682949  1
  O  O117  1  0.264624  0.458063  0.817051  1
  O  O118  1  0.541937  0.735376  0.317051  1
  O  O119  1  0.735376  0.541937  0.182949  1
  O  O120  1  0.266442  0.962443  0.687763  1
  O  O121  1  0.962443  0.266442  0.812237  1
  O  O122  1  0.733558  0.037557  0.312237  1
  O  O123  1  0.037557  0.733558  0.187763  1
  O  O124  1  0.073379  0.561361  0.825850  1
  O  O125  1  0.561361  0.073379  0.674150  1
  O  O126  1  0.926621  0.438639  0.174150  1
  O  O127  1  0.438639  0.926621  0.325850  1
  O  O128  1  0.398809  0.109733  0.569032  1
  O  O129  1  0.109733  0.398809  0.930968  1
  O  O130  1  0.601191  0.890266  0.430968  1
  O  O131  1  0.890266  0.601191  0.069032  1
  O  O132  1  0.318343  0.287349  0.994499  1
  O  O133  1  0.287349  0.318343  0.505501  1
  O  O134  1  0.681657  0.712651  0.005501  1
  O  O135  1  0.712651  0.681657  0.494499  1
  O  O136  1  0.758654  0.185911  0.484138  1
  O  O137  1  0.185911  0.758654  0.015862  1
  O  O138  1  0.241346  0.814089  0.515862  1
  O  O139  1  0.814089  0.241346  0.984138  1
