# generated using pymatgen
data_KSmH4(N2O7)2
_symmetry_space_group_name_H-M   'P 1'
_cell_length_a   13.01281545
_cell_length_b   11.74866970
_cell_length_c   8.04395337
_cell_angle_alpha   90.00000000
_cell_angle_beta   90.00000000
_cell_angle_gamma   90.00000000
_symmetry_Int_Tables_number   1
_chemical_formula_structural   KSmH4(N2O7)2
_chemical_formula_sum   'K4 Sm4 H16 N16 O56'
_cell_volume   1229.78589967
_cell_formula_units_Z   4
loop_
 _symmetry_equiv_pos_site_id
 _symmetry_equiv_pos_as_xyz
  1  'x, y, z'
loop_
 _atom_site_type_symbol
 _atom_site_label
 _atom_site_symmetry_multiplicity
 _atom_site_fract_x
 _atom_site_fract_y
 _atom_site_fract_z
 _atom_site_occupancy
  K  K0  1  0.022450  0.833195  0.412044  1
  K  K1  1  0.477550  0.333195  0.912044  1
  K  K2  1  0.522450  0.666805  0.412044  1
  K  K3  1  0.977550  0.166805  0.912044  1
  Sm  Sm4  1  0.205815  0.667380  0.875009  1
  Sm  Sm5  1  0.294185  0.167380  0.375009  1
  Sm  Sm6  1  0.705815  0.832620  0.875009  1
  Sm  Sm7  1  0.794185  0.332620  0.375009  1
  H  H8  1  0.016894  0.432521  0.349461  1
  H  H9  1  0.032693  0.299805  0.336304  1
  H  H10  1  0.186617  0.418023  0.791458  1
  H  H11  1  0.193155  0.464043  0.609378  1
  H  H12  1  0.306845  0.964043  0.109378  1
  H  H13  1  0.313383  0.918023  0.291458  1
  H  H14  1  0.467307  0.799805  0.836304  1
  H  H15  1  0.483106  0.932521  0.849461  1
  H  H16  1  0.516894  0.067479  0.349461  1
  H  H17  1  0.532693  0.200195  0.336304  1
  H  H18  1  0.686617  0.081977  0.791458  1
  H  H19  1  0.693155  0.035957  0.609378  1
  H  H20  1  0.806845  0.535957  0.109378  1
  H  H21  1  0.813383  0.581977  0.291458  1
  H  H22  1  0.967307  0.700195  0.836304  1
  H  H23  1  0.983106  0.567479  0.849461  1
  N  N24  1  0.099193  0.088072  0.532768  1
  N  N25  1  0.111911  0.608954  0.196244  1
  N  N26  1  0.175914  0.921158  0.884376  1
  N  N27  1  0.204965  0.245202  0.053833  1
  N  N28  1  0.295035  0.745202  0.553833  1
  N  N29  1  0.324086  0.421158  0.384376  1
  N  N30  1  0.388089  0.108954  0.696244  1
  N  N31  1  0.400807  0.588072  0.032768  1
  N  N32  1  0.599193  0.411928  0.532768  1
  N  N33  1  0.611911  0.891046  0.196244  1
  N  N34  1  0.675914  0.578842  0.884376  1
  N  N35  1  0.704965  0.254798  0.053833  1
  N  N36  1  0.795035  0.754798  0.553833  1
  N  N37  1  0.824086  0.078842  0.384376  1
  N  N38  1  0.888089  0.391046  0.696244  1
  N  N39  1  0.900807  0.911928  0.032768  1
  O  O40  1  0.019618  0.640902  0.843374  1
  O  O41  1  0.021353  0.052243  0.604283  1
  O  O42  1  0.064001  0.586814  0.326498  1
  O  O43  1  0.104308  0.855432  0.836251  1
  O  O44  1  0.130836  0.712545  0.154758  1
  O  O45  1  0.132032  0.190300  0.551160  1
  O  O46  1  0.143629  0.531252  0.097728  1
  O  O47  1  0.147159  0.204437  0.169209  1
  O  O48  1  0.152091  0.023938  0.435391  1
  O  O49  1  0.167693  0.285653  0.924859  1
  O  O50  1  0.167256  0.026025  0.890459  1
  O  O51  1  0.180736  0.488122  0.724834  1
  O  O52  1  0.198115  0.740400  0.579052  1
  O  O53  1  0.238846  0.372095  0.428937  1
  O  O54  1  0.261154  0.872095  0.928937  1
  O  O55  1  0.301885  0.240400  0.079052  1
  O  O56  1  0.319264  0.988122  0.224834  1
  O  O57  1  0.332744  0.526025  0.390459  1
  O  O58  1  0.332307  0.785653  0.424859  1
  O  O59  1  0.347909  0.523938  0.935391  1
  O  O60  1  0.352841  0.704437  0.669209  1
  O  O61  1  0.356371  0.031252  0.597728  1
  O  O62  1  0.367968  0.690300  0.051160  1
  O  O63  1  0.369164  0.212545  0.654758  1
  O  O64  1  0.395692  0.355432  0.336251  1
  O  O65  1  0.435999  0.086814  0.826498  1
  O  O66  1  0.478647  0.552243  0.104283  1
  O  O67  1  0.480382  0.140902  0.343374  1
  O  O68  1  0.519618  0.859098  0.843374  1
  O  O69  1  0.521353  0.447757  0.604283  1
  O  O70  1  0.564001  0.913186  0.326498  1
  O  O71  1  0.604308  0.644568  0.836251  1
  O  O72  1  0.630836  0.787455  0.154758  1
  O  O73  1  0.632032  0.309700  0.551160  1
  O  O74  1  0.643629  0.968748  0.097728  1
  O  O75  1  0.647159  0.295563  0.169209  1
  O  O76  1  0.652091  0.476062  0.435391  1
  O  O77  1  0.667693  0.214347  0.924859  1
  O  O78  1  0.667256  0.473975  0.890459  1
  O  O79  1  0.680736  0.011878  0.724834  1
  O  O80  1  0.698115  0.759600  0.579052  1
  O  O81  1  0.738846  0.127905  0.428937  1
  O  O82  1  0.761154  0.627905  0.928937  1
  O  O83  1  0.801885  0.259600  0.079052  1
  O  O84  1  0.819264  0.511878  0.224834  1
  O  O85  1  0.832744  0.973975  0.390459  1
  O  O86  1  0.832307  0.714347  0.424859  1
  O  O87  1  0.847909  0.976062  0.935391  1
  O  O88  1  0.852841  0.795563  0.669209  1
  O  O89  1  0.856371  0.468748  0.597728  1
  O  O90  1  0.867968  0.809700  0.051160  1
  O  O91  1  0.869164  0.287455  0.654758  1
  O  O92  1  0.895692  0.144568  0.336251  1
  O  O93  1  0.935999  0.413186  0.826498  1
  O  O94  1  0.978647  0.947757  0.104283  1
  O  O95  1  0.980382  0.359098  0.343374  1
