# generated using pymatgen
data_Na5Ni2P2(CO7)2
_symmetry_space_group_name_H-M   'P 1'
_cell_length_a   10.18118135
_cell_length_b   10.44120725
_cell_length_c   8.40690116
_cell_angle_alpha   108.76071396
_cell_angle_beta   72.24667389
_cell_angle_gamma   60.76527281
_symmetry_Int_Tables_number   1
_chemical_formula_structural   Na5Ni2P2(CO7)2
_chemical_formula_sum   'Na10 Ni4 P4 C4 O28'
_cell_volume   612.20642733
_cell_formula_units_Z   2
loop_
 _symmetry_equiv_pos_site_id
 _symmetry_equiv_pos_as_xyz
  1  'x, y, z'
loop_
 _atom_site_type_symbol
 _atom_site_label
 _atom_site_symmetry_multiplicity
 _atom_site_fract_x
 _atom_site_fract_y
 _atom_site_fract_z
 _atom_site_occupancy
  Na  Na0  1  0.756999  0.973892  0.488093  1
  Na  Na1  1  0.992759  0.737718  0.012261  1
  Na  Na2  1  0.520265  0.750790  0.976685  1
  Na  Na3  1  0.288216  0.796537  0.740401  1
  Na  Na4  1  0.776323  0.309219  0.740663  1
  Na  Na5  1  0.719760  0.201346  0.259830  1
  Na  Na6  1  0.480476  0.252197  0.011454  1
  Na  Na7  1  0.240587  0.491438  0.487310  1
  Na  Na8  1  0.013715  0.256827  0.993679  1
  Na  Na9  1  0.250561  0.013997  0.504173  1
  Ni  Ni10  1  0.839225  0.814279  0.752094  1
  Ni  Ni11  1  0.660192  0.684354  0.254702  1
  Ni  Ni12  1  0.341179  0.311876  0.748549  1
  Ni  Ni13  1  0.152630  0.192190  0.254662  1
  P  P14  1  0.475827  0.945914  0.751173  1
  P  P15  1  0.978865  0.441039  0.750100  1
  P  P16  1  0.022085  0.554000  0.253001  1
  P  P17  1  0.524819  0.056853  0.248748  1
  C  C18  1  0.948678  0.987443  0.750259  1
  C  C19  1  0.554088  0.513030  0.249063  1
  C  C20  1  0.443673  0.488034  0.754563  1
  C  C21  1  0.052926  0.012502  0.245679  1
  O  O22  1  0.991349  0.932126  0.249094  1
  O  O23  1  0.703575  0.978670  0.063501  1
  O  O24  1  0.978260  0.588067  0.750595  1
  O  O25  1  0.854102  0.684464  0.250882  1
  O  O26  1  0.636548  0.823123  0.757412  1
  O  O27  1  0.524390  0.906595  0.246752  1
  O  O28  1  0.484052  0.838512  0.559824  1
  O  O29  1  0.797445  0.521257  0.941398  1
  O  O30  1  0.994741  0.323493  0.565224  1
  O  O31  1  0.196251  0.964521  0.246737  1
  O  O32  1  0.701788  0.458448  0.244769  1
  O  O33  1  0.473198  0.658624  0.255030  1
  O  O34  1  0.969742  0.153229  0.242891  1
  O  O35  1  0.500219  0.573141  0.761509  1
  O  O36  1  0.494905  0.429916  0.249565  1
  O  O37  1  0.032047  0.844618  0.749970  1
  O  O38  1  0.528972  0.341163  0.748677  1
  O  O39  1  0.301526  0.536802  0.746912  1
  O  O40  1  0.802694  0.041181  0.750853  1
  O  O41  1  0.007764  0.665443  0.440611  1
  O  O42  1  0.196023  0.478552  0.064470  1
  O  O43  1  0.517571  0.162226  0.434858  1
  O  O44  1  0.477898  0.091902  0.749499  1
  O  O45  1  0.359363  0.185681  0.250020  1
  O  O46  1  0.142304  0.314394  0.755678  1
  O  O47  1  0.023831  0.406374  0.248985  1
  O  O48  1  0.296688  0.021915  0.933257  1
  O  O49  1  0.006023  0.073297  0.754035  1
