# generated using pymatgen
data_U3P4
_symmetry_space_group_name_H-M   'P 1'
_cell_length_a   7.08167902
_cell_length_b   7.08167902
_cell_length_c   7.08167902
_cell_angle_alpha   109.47122060
_cell_angle_beta   109.47122061
_cell_angle_gamma   109.47122069
_symmetry_Int_Tables_number   1
_chemical_formula_structural   U3P4
_chemical_formula_sum   'U6 P8'
_cell_volume   273.39264354
_cell_formula_units_Z   2
loop_
 _symmetry_equiv_pos_site_id
 _symmetry_equiv_pos_as_xyz
  1  'x, y, z'
loop_
 _atom_site_type_symbol
 _atom_site_label
 _atom_site_symmetry_multiplicity
 _atom_site_fract_x
 _atom_site_fract_y
 _atom_site_fract_z
 _atom_site_occupancy
  P  P0  1  0.659548  0.659548  0.659548  1
  P  P1  1  0.340452  0.500000  0.000000  1
  P  P2  1  0.500000  0.000000  0.340452  1
  P  P3  1  0.000000  0.340452  0.500000  1
  P  P4  1  0.500000  0.000000  0.840452  1
  P  P5  1  0.000000  0.840452  0.500000  1
  P  P6  1  0.159548  0.159548  0.159548  1
  P  P7  1  0.840452  0.500000  0.000000  1
  U  U8  1  0.750000  0.875000  0.125000  1
  U  U9  1  0.625000  0.375000  0.250000  1
  U  U10  1  0.875000  0.125000  0.750000  1
  U  U11  1  0.125000  0.750000  0.875000  1
  U  U12  1  0.375000  0.250000  0.625000  1
  U  U13  1  0.250000  0.625000  0.375000  1
