# generated using pymatgen
data_LiSb(PO3)4
_symmetry_space_group_name_H-M   'P 1'
_cell_length_a   7.02380275
_cell_length_b   7.52704395
_cell_length_c   9.05751681
_cell_angle_alpha   90.00000000
_cell_angle_beta   90.00000000
_cell_angle_gamma   85.91345787
_symmetry_Int_Tables_number   1
_chemical_formula_structural   LiSb(PO3)4
_chemical_formula_sum   'Li2 Sb2 P8 O24'
_cell_volume   477.63960334
_cell_formula_units_Z   2
loop_
 _symmetry_equiv_pos_site_id
 _symmetry_equiv_pos_as_xyz
  1  'x, y, z'
loop_
 _atom_site_type_symbol
 _atom_site_label
 _atom_site_symmetry_multiplicity
 _atom_site_fract_x
 _atom_site_fract_y
 _atom_site_fract_z
 _atom_site_occupancy
  Li  Li0  1  0.204875  0.196402  0.018465  1
  Li  Li1  1  0.795125  0.803598  0.518465  1
  Sb  Sb2  1  0.251207  0.719318  0.372822  1
  Sb  Sb3  1  0.748793  0.280682  0.872822  1
  P  P4  1  0.003496  0.420851  0.365375  1
  P  P5  1  0.107839  0.117035  0.565213  1
  P  P6  1  0.385859  0.590689  0.734132  1
  P  P7  1  0.448750  0.086621  0.381158  1
  P  P8  1  0.551250  0.913379  0.881158  1
  P  P9  1  0.614141  0.409311  0.234132  1
  P  P10  1  0.892161  0.882965  0.065213  1
  P  P11  1  0.996504  0.579149  0.865375  1
  O  O12  1  0.017594  0.764761  0.943603  1
  O  O13  1  0.076520  0.923905  0.527294  1
  O  O14  1  0.025280  0.418460  0.967673  1
  O  O15  1  0.052512  0.184088  0.714652  1
  O  O16  1  0.159388  0.588987  0.746464  1
  O  O17  1  0.191537  0.431674  0.284907  1
  O  O18  1  0.323630  0.160599  0.526374  1
  O  O19  1  0.313535  0.047731  0.258391  1
  O  O20  1  0.470170  0.411651  0.783447  1
  O  O21  1  0.433222  0.740141  0.850041  1
  O  O22  1  0.414738  0.061068  0.931172  1
  O  O23  1  0.416284  0.646890  0.575525  1
  O  O24  1  0.583716  0.353110  0.075525  1
  O  O25  1  0.585262  0.938932  0.431172  1
  O  O26  1  0.566778  0.259859  0.350041  1
  O  O27  1  0.529830  0.588349  0.283447  1
  O  O28  1  0.686465  0.952269  0.758391  1
  O  O29  1  0.676370  0.839401  0.026374  1
  O  O30  1  0.808463  0.568326  0.784907  1
  O  O31  1  0.840612  0.411013  0.246464  1
  O  O32  1  0.947488  0.815912  0.214652  1
  O  O33  1  0.974720  0.581540  0.467673  1
  O  O34  1  0.923480  0.076095  0.027294  1
  O  O35  1  0.982407  0.235239  0.443603  1
