# generated using pymatgen
data_Li3MnO2F
_symmetry_space_group_name_H-M   'P 1'
_cell_length_a   5.32614411
_cell_length_b   5.51736202
_cell_length_c   5.98512327
_cell_angle_alpha   61.58989343
_cell_angle_beta   91.63123315
_cell_angle_gamma   95.79482564
_symmetry_Int_Tables_number   1
_chemical_formula_structural   Li3MnO2F
_chemical_formula_sum   'Li6 Mn2 O4 F2'
_cell_volume   153.86917071
_cell_formula_units_Z   2
loop_
 _symmetry_equiv_pos_site_id
 _symmetry_equiv_pos_as_xyz
  1  'x, y, z'
loop_
 _atom_site_type_symbol
 _atom_site_label
 _atom_site_symmetry_multiplicity
 _atom_site_fract_x
 _atom_site_fract_y
 _atom_site_fract_z
 _atom_site_occupancy
  Li  Li0  1  0.080794  0.688039  0.542063  1
  Li  Li1  1  0.150099  0.806101  0.008808  1
  Li  Li2  1  0.399076  0.275500  0.691007  1
  Li  Li3  1  0.600924  0.724500  0.308994  1
  Li  Li4  1  0.849901  0.193899  0.991192  1
  Li  Li5  1  0.919206  0.311961  0.457937  1
  Mn  Mn6  1  0.377094  0.229746  0.293547  1
  Mn  Mn7  1  0.622906  0.770254  0.706453  1
  O  O8  1  0.256508  0.536822  0.344487  1
  O  O9  1  0.276581  0.915946  0.668198  1
  O  O10  1  0.723419  0.084054  0.331802  1
  O  O11  1  0.743492  0.463178  0.655513  1
  F  F12  1  0.211519  0.185270  0.987871  1
  F  F13  1  0.788481  0.814730  0.012129  1
