# generated using pymatgen
data_Li4Ti3Co5O16
_symmetry_space_group_name_H-M   'P 1'
_cell_length_a   5.71028614
_cell_length_b   5.80403574
_cell_length_c   9.31004470
_cell_angle_alpha   89.87746241
_cell_angle_beta   89.74814629
_cell_angle_gamma   120.16504755
_symmetry_Int_Tables_number   1
_chemical_formula_structural   Li4Ti3Co5O16
_chemical_formula_sum   'Li4 Ti3 Co5 O16'
_cell_volume   266.76937285
_cell_formula_units_Z   1
loop_
 _symmetry_equiv_pos_site_id
 _symmetry_equiv_pos_as_xyz
  1  'x, y, z'
loop_
 _atom_site_type_symbol
 _atom_site_label
 _atom_site_symmetry_multiplicity
 _atom_site_fract_x
 _atom_site_fract_y
 _atom_site_fract_z
 _atom_site_occupancy
  Li  Li0  1  0.341641  0.673900  0.888427  1
  Li  Li1  1  0.975411  0.987221  0.994689  1
  Li  Li2  1  0.987270  0.996478  0.499110  1
  Li  Li3  1  0.673777  0.335785  0.395715  1
  Ti  Ti4  1  0.171487  0.832908  0.212011  1
  Ti  Ti5  1  0.169998  0.337648  0.211196  1
  Ti  Ti6  1  0.340408  0.171896  0.712701  1
  Co  Co7  1  0.333789  0.662368  0.484777  1
  Co  Co8  1  0.652633  0.825948  0.214071  1
  Co  Co9  1  0.672080  0.336345  0.979143  1
  Co  Co10  1  0.828283  0.661870  0.708931  1
  Co  Co11  1  0.827722  0.171648  0.713181  1
  O  O12  1  0.163978  0.828654  0.602833  1
  O  O13  1  0.047819  0.523844  0.345268  1
  O  O14  1  0.330047  0.664469  0.097757  1
  O  O15  1  0.990124  0.995348  0.310692  1
  O  O16  1  0.987844  0.993107  0.807239  1
  O  O17  1  0.170767  0.332580  0.600435  1
  O  O18  1  0.484250  0.958268  0.346799  1
  O  O19  1  0.485490  0.525338  0.345425  1
  O  O20  1  0.341063  0.170487  0.100815  1
  O  O21  1  0.666020  0.826422  0.608329  1
  O  O22  1  0.529025  0.484660  0.843195  1
  O  O23  1  0.525052  0.045549  0.845314  1
  O  O24  1  0.674273  0.338627  0.601996  1
  O  O25  1  0.835942  0.664908  0.102505  1
  O  O26  1  0.958480  0.482521  0.833144  1
  O  O27  1  0.835329  0.171505  0.102143  1
