# generated using pymatgen
data_Li4Nb3Cu3(TeO8)2
_symmetry_space_group_name_H-M   'P 1'
_cell_length_a   6.24021248
_cell_length_b   6.09617519
_cell_length_c   10.58476404
_cell_angle_alpha   89.99989350
_cell_angle_beta   89.33624865
_cell_angle_gamma   119.24060061
_symmetry_Int_Tables_number   1
_chemical_formula_structural   Li4Nb3Cu3(TeO8)2
_chemical_formula_sum   'Li4 Nb3 Cu3 Te2 O16'
_cell_volume   351.32014653
_cell_formula_units_Z   1
loop_
 _symmetry_equiv_pos_site_id
 _symmetry_equiv_pos_as_xyz
  1  'x, y, z'
loop_
 _atom_site_type_symbol
 _atom_site_label
 _atom_site_symmetry_multiplicity
 _atom_site_fract_x
 _atom_site_fract_y
 _atom_site_fract_z
 _atom_site_occupancy
  Li  Li0  1  0.331805  0.665920  0.904905  1
  Li  Li1  1  0.001233  0.000627  0.000525  1
  Li  Li2  1  0.015313  0.007663  0.477993  1
  Li  Li3  1  0.684089  0.342068  0.400877  1
  Nb  Nb4  1  0.638731  0.819388  0.236152  1
  Nb  Nb5  1  0.815601  0.657102  0.718856  1
  Nb  Nb6  1  0.815604  0.158495  0.718858  1
  Cu  Cu7  1  0.165581  0.827969  0.211502  1
  Cu  Cu8  1  0.165563  0.337603  0.211483  1
  Cu  Cu9  1  0.334151  0.167083  0.720331  1
  Te  Te10  1  0.277343  0.638682  0.492431  1
  Te  Te11  1  0.651011  0.325517  0.016893  1
  O  O12  1  0.128091  0.811981  0.584992  1
  O  O13  1  0.044463  0.522269  0.355656  1
  O  O14  1  0.338918  0.669493  0.119698  1
  O  O15  1  0.997539  0.998745  0.289966  1
  O  O16  1  0.002121  0.001066  0.811223  1
  O  O17  1  0.128085  0.316117  0.584980  1
  O  O18  1  0.531218  0.994609  0.340947  1
  O  O19  1  0.531224  0.536656  0.340950  1
  O  O20  1  0.327207  0.163596  0.095082  1
  O  O21  1  0.720647  0.860339  0.607975  1
  O  O22  1  0.535464  0.527106  0.822455  1
  O  O23  1  0.535463  0.008400  0.822450  1
  O  O24  1  0.687388  0.343711  0.610001  1
  O  O25  1  0.806940  0.655434  0.097852  1
  O  O26  1  0.982283  0.491143  0.814957  1
  O  O27  1  0.806924  0.151520  0.097845  1
