# generated using pymatgen
data_V9PO25
_symmetry_space_group_name_H-M   'P 1'
_cell_length_a   3.63186381
_cell_length_b   10.86291853
_cell_length_c   10.86291853
_cell_angle_alpha   91.60134713
_cell_angle_beta   99.62320141
_cell_angle_gamma   80.37679859
_symmetry_Int_Tables_number   1
_chemical_formula_structural   V9PO25
_chemical_formula_sum   'V9 P1 O25'
_cell_volume   416.59434911
_cell_formula_units_Z   1
loop_
 _symmetry_equiv_pos_site_id
 _symmetry_equiv_pos_as_xyz
  1  'x, y, z'
loop_
 _atom_site_type_symbol
 _atom_site_label
 _atom_site_symmetry_multiplicity
 _atom_site_fract_x
 _atom_site_fract_y
 _atom_site_fract_z
 _atom_site_occupancy
  V  V0  1  0.000000  0.000000  0.000000  1
  V  V1  1  0.114746  0.100633  0.326690  1
  V  V2  1  0.898617  0.448282  0.218174  1
  V  V3  1  0.653101  0.218174  0.551718  1
  V  V4  1  0.211944  0.673310  0.100633  1
  V  V5  1  0.784621  0.326690  0.899367  1
  V  V6  1  0.319557  0.781826  0.448282  1
  V  V7  1  0.128727  0.551718  0.781826  1
  V  V8  1  0.888690  0.899367  0.673310  1
  P  P9  1  0.750000  0.500000  0.500000  1
  O  O10  1  0.500000  0.000000  0.000000  1
  O  O11  1  0.055178  0.060251  0.169019  1
  O  O12  1  0.812020  0.397066  0.040243  1
  O  O13  1  0.613815  0.142013  0.356228  1
  O  O14  1  0.987549  0.301148  0.261659  1
  O  O15  1  0.790914  0.040243  0.602934  1
  O  O16  1  0.162622  0.196676  0.508739  1
  O  O17  1  0.346117  0.491261  0.196676  1
  O  O18  1  0.742411  0.643772  0.142013  1
  O  O19  1  0.570380  0.380093  0.478053  1
  O  O20  1  0.113840  0.830981  0.060251  1
  O  O21  1  0.907673  0.521947  0.380093  1
  O  O22  1  0.711304  0.261659  0.698852  1
  O  O23  1  0.274111  0.738341  0.301148  1
  O  O24  1  0.049527  0.478053  0.619907  1
  O  O25  1  0.884571  0.169019  0.939749  1
  O  O26  1  0.472420  0.619907  0.521947  1
  O  O27  1  0.244170  0.356228  0.857987  1
  O  O28  1  0.640702  0.508739  0.803324  1
  O  O29  1  0.850559  0.803324  0.491261  1
  O  O30  1  0.228224  0.959757  0.397066  1
  O  O31  1  0.027037  0.698852  0.738341  1
  O  O32  1  0.399602  0.857987  0.643772  1
  O  O33  1  0.168842  0.602934  0.959757  1
  O  O34  1  0.946411  0.939749  0.830981  1
