# generated using pymatgen
data_Li4Cr(PO4)3
_symmetry_space_group_name_H-M   'P 1'
_cell_length_a   7.62162668
_cell_length_b   6.99017352
_cell_length_c   13.49400358
_cell_angle_alpha   90.09581584
_cell_angle_beta   94.01607198
_cell_angle_gamma   103.57792282
_symmetry_Int_Tables_number   1
_chemical_formula_structural   Li4Cr(PO4)3
_chemical_formula_sum   'Li12 Cr3 P9 O36'
_cell_volume   696.98302118
_cell_formula_units_Z   3
loop_
 _symmetry_equiv_pos_site_id
 _symmetry_equiv_pos_as_xyz
  1  'x, y, z'
loop_
 _atom_site_type_symbol
 _atom_site_label
 _atom_site_symmetry_multiplicity
 _atom_site_fract_x
 _atom_site_fract_y
 _atom_site_fract_z
 _atom_site_occupancy
  Li  Li0  1  0.217405  0.945052  0.616394  1
  Li  Li1  1  0.197400  0.907393  0.110192  1
  Li  Li2  1  0.208661  0.414238  0.611428  1
  Li  Li3  1  0.182569  0.434992  0.106735  1
  Li  Li4  1  0.488940  0.752491  0.999407  1
  Li  Li5  1  0.484536  0.761905  0.500001  1
  Li  Li6  1  0.515898  0.233081  0.498966  1
  Li  Li7  1  0.528168  0.252396  0.999002  1
  Li  Li8  1  0.810401  0.582150  0.885517  1
  Li  Li9  1  0.816144  0.581682  0.375416  1
  Li  Li10  1  0.801232  0.077045  0.887136  1
  Li  Li11  1  0.802276  0.077701  0.387114  1
  Cr  Cr12  1  0.598917  0.268739  0.735127  1
  Cr  Cr13  1  0.602523  0.269020  0.230692  1
  Cr  Cr14  1  0.824821  0.603767  0.611922  1
  P  P15  1  0.166182  0.949591  0.887488  1
  P  P16  1  0.166882  0.950217  0.387331  1
  P  P17  1  0.176369  0.383291  0.886726  1
  P  P18  1  0.176026  0.383546  0.386694  1
  P  P19  1  0.382165  0.724120  0.774653  1
  P  P20  1  0.381257  0.722592  0.274114  1
  P  P21  1  0.824771  0.614930  0.113375  1
  P  P22  1  0.841809  0.061534  0.611700  1
  P  P23  1  0.840630  0.054810  0.112107  1
  O  O24  1  0.038389  0.602332  0.610061  1
  O  O25  1  0.023413  0.623947  0.109340  1
  O  O26  1  0.043139  0.137286  0.601450  1
  O  O27  1  0.041665  0.132231  0.105582  1
  O  O28  1  0.234646  0.857269  0.791193  1
  O  O29  1  0.291655  0.935781  0.977490  1
  O  O30  1  0.236483  0.857725  0.292040  1
  O  O31  1  0.293025  0.939788  0.477994  1
  O  O32  1  0.201480  0.172623  0.850362  1
  O  O33  1  0.301455  0.455518  0.977877  1
  O  O34  1  0.259141  0.501994  0.790006  1
  O  O35  1  0.201384  0.172594  0.350575  1
  O  O36  1  0.301706  0.455644  0.477439  1
  O  O37  1  0.257428  0.502008  0.290041  1
  O  O38  1  0.404921  0.737161  0.665260  1
  O  O39  1  0.401865  0.733013  0.164561  1
  O  O40  1  0.536778  0.773141  0.852413  1
  O  O41  1  0.537798  0.772162  0.350909  1
  O  O42  1  0.427264  0.217703  0.649423  1
  O  O43  1  0.431234  0.217303  0.147942  1
  O  O44  1  0.577650  0.236986  0.854619  1
  O  O45  1  0.580068  0.255260  0.350661  1
  O  O46  1  0.720691  0.517508  0.726402  1
  O  O47  1  0.692277  0.531825  0.509280  1
  O  O48  1  0.802143  0.843646  0.647167  1
  O  O49  1  0.746712  0.514537  0.211783  1
  O  O50  1  0.700607  0.536777  0.021918  1
  O  O51  1  0.801037  0.828343  0.140782  1
  O  O52  1  0.712701  0.075797  0.521517  1
  O  O53  1  0.786882  0.161790  0.706049  1
  O  O54  1  0.713039  0.071618  0.022638  1
  O  O55  1  0.776489  0.134286  0.209582  1
  O  O56  1  0.965531  0.869584  0.890504  1
  O  O57  1  0.966601  0.867468  0.390117  1
  O  O58  1  0.978673  0.375697  0.888444  1
  O  O59  1  0.978045  0.375371  0.387342  1
