# generated using pymatgen
data_FeOF
_symmetry_space_group_name_H-M   'P 1'
_cell_length_a   14.37287449
_cell_length_b   14.43294665
_cell_length_c   3.12946785
_cell_angle_alpha   90.00000000
_cell_angle_beta   90.00000000
_cell_angle_gamma   90.31756839
_symmetry_Int_Tables_number   1
_chemical_formula_structural   FeOF
_chemical_formula_sum   'Fe18 O18 F18'
_cell_volume   649.17601058
_cell_formula_units_Z   18
loop_
 _symmetry_equiv_pos_site_id
 _symmetry_equiv_pos_as_xyz
  1  'x, y, z'
loop_
 _atom_site_type_symbol
 _atom_site_label
 _atom_site_symmetry_multiplicity
 _atom_site_fract_x
 _atom_site_fract_y
 _atom_site_fract_z
 _atom_site_occupancy
  Fe  Fe0  1  0.013735  0.000048  0.000000  1
  Fe  Fe1  1  0.999348  0.336109  0.000000  1
  Fe  Fe2  1  0.014288  0.662918  0.000000  1
  Fe  Fe3  1  0.145719  0.172992  0.500000  1
  Fe  Fe4  1  0.149843  0.493835  0.500000  1
  Fe  Fe5  1  0.152892  0.831390  0.500000  1
  Fe  Fe6  1  0.336779  0.005464  0.000000  1
  Fe  Fe7  1  0.345830  0.331527  0.000000  1
  Fe  Fe8  1  0.344403  0.661311  0.000000  1
  Fe  Fe9  1  0.487333  0.496692  0.500000  1
  Fe  Fe10  1  0.483930  0.165716  0.500000  1
  Fe  Fe11  1  0.496615  0.815800  0.500000  1
  Fe  Fe12  1  0.677073  0.995060  0.000000  1
  Fe  Fe13  1  0.682800  0.332247  0.000000  1
  Fe  Fe14  1  0.666351  0.677580  0.000000  1
  Fe  Fe15  1  0.840086  0.187317  0.500000  1
  Fe  Fe16  1  0.835729  0.483820  0.500000  1
  Fe  Fe17  1  0.822086  0.829856  0.500000  1
  O  O18  1  0.062000  0.274197  0.500000  1
  O  O19  1  0.064398  0.601480  0.500000  1
  O  O20  1  0.066962  0.937548  0.500000  1
  O  O21  1  0.098128  0.107374  0.000000  1
  O  O22  1  0.101417  0.433922  0.000000  1
  O  O23  1  0.102510  0.769393  0.000000  1
  O  O24  1  0.397683  0.267655  0.500000  1
  O  O25  1  0.398814  0.601681  0.500000  1
  O  O26  1  0.436588  0.100301  0.000000  1
  O  O27  1  0.434558  0.435553  0.000000  1
  O  O28  1  0.432538  0.768977  0.000000  1
  O  O29  1  0.602707  0.730302  0.500000  1
  O  O30  1  0.730807  0.267319  0.500000  1
  O  O31  1  0.731804  0.936874  0.500000  1
  O  O32  1  0.769488  0.435038  0.000000  1
  O  O33  1  0.771280  0.767142  0.000000  1
  O  O34  1  0.900672  0.233500  0.000000  1
  O  O35  1  0.936749  0.398777  0.500000  1
  F  F36  1  0.230040  0.235425  0.000000  1
  F  F37  1  0.231661  0.564478  0.000000  1
  F  F38  1  0.235685  0.899767  0.000000  1
  F  F39  1  0.265015  0.067105  0.500000  1
  F  F40  1  0.267585  0.731164  0.500000  1
  F  F41  1  0.268637  0.397500  0.500000  1
  F  F42  1  0.399164  0.932497  0.500000  1
  F  F43  1  0.563958  0.230753  0.000000  1
  F  F44  1  0.568097  0.562387  0.000000  1
  F  F45  1  0.562882  0.901293  0.000000  1
  F  F46  1  0.605510  0.066325  0.500000  1
  F  F47  1  0.600829  0.398283  0.500000  1
  F  F48  1  0.731801  0.601360  0.500000  1
  F  F49  1  0.769606  0.102275  0.000000  1
  F  F50  1  0.897794  0.567794  0.000000  1
  F  F51  1  0.898874  0.898819  0.000000  1
  F  F52  1  0.932742  0.062385  0.500000  1
  F  F53  1  0.936180  0.733676  0.500000  1
