# generated using pymatgen
data_Li2VCr(P2O7)2
_symmetry_space_group_name_H-M   'P 1'
_cell_length_a   14.01517638
_cell_length_b   8.22183249
_cell_length_c   7.02079379
_cell_angle_alpha   89.88642049
_cell_angle_beta   80.46113511
_cell_angle_gamma   90.01238670
_symmetry_Int_Tables_number   1
_chemical_formula_structural   Li2VCr(P2O7)2
_chemical_formula_sum   'Li6 V3 Cr3 P12 O42'
_cell_volume   797.82158624
_cell_formula_units_Z   3
loop_
 _symmetry_equiv_pos_site_id
 _symmetry_equiv_pos_as_xyz
  1  'x, y, z'
loop_
 _atom_site_type_symbol
 _atom_site_label
 _atom_site_symmetry_multiplicity
 _atom_site_fract_x
 _atom_site_fract_y
 _atom_site_fract_z
 _atom_site_occupancy
  Li  Li0  1  0.058893  0.863182  0.618137  1
  Li  Li1  1  0.274476  0.363223  0.048641  1
  Li  Li2  1  0.392148  0.862865  0.284531  1
  Li  Li3  1  0.607884  0.362888  0.715447  1
  Li  Li4  1  0.725590  0.863295  0.951662  1
  Li  Li5  1  0.941251  0.362782  0.382377  1
  V  V6  1  0.072160  0.499566  0.656899  1
  V  V7  1  0.261195  0.999359  0.009367  1
  V  V8  1  0.738829  0.499455  0.990805  1
  Cr  Cr9  1  0.404882  0.499987  0.322295  1
  Cr  Cr10  1  0.595276  0.999804  0.677338  1
  Cr  Cr11  1  0.928527  0.999810  0.344558  1
  P  P12  1  0.133020  0.179863  0.388481  1
  P  P13  1  0.069905  0.784556  0.016250  1
  P  P14  1  0.263198  0.284644  0.650362  1
  P  P15  1  0.200236  0.679766  0.278097  1
  P  P16  1  0.404597  0.783356  0.680089  1
  P  P17  1  0.533102  0.680463  0.944317  1
  P  P18  1  0.466981  0.180533  0.055589  1
  P  P19  1  0.595354  0.283361  0.319898  1
  P  P20  1  0.799869  0.179540  0.720783  1
  P  P21  1  0.737152  0.785870  0.348867  1
  P  P22  1  0.929136  0.282064  0.985793  1
  P  P23  1  0.866518  0.680765  0.610053  1
  O  O24  1  0.017112  0.322450  0.835727  1
  O  O25  1  0.043022  0.696337  0.841899  1
  O  O26  1  0.132250  0.934711  0.949797  1
  O  O27  1  0.062177  0.036605  0.419633  1
  O  O28  1  0.082044  0.344268  0.422561  1
  O  O29  1  0.132293  0.678317  0.473638  1
  O  O30  1  0.200991  0.434778  0.716360  1
  O  O31  1  0.198145  0.152468  0.555172  1
  O  O32  1  0.135067  0.652284  0.111737  1
  O  O33  1  0.290101  0.196607  0.825044  1
  O  O34  1  0.316338  0.822582  0.830431  1
  O  O35  1  0.200990  0.178372  0.192995  1
  O  O36  1  0.251172  0.844160  0.243985  1
  O  O37  1  0.271181  0.536568  0.247232  1
  O  O38  1  0.351303  0.324292  0.500982  1
  O  O39  1  0.377101  0.693342  0.506164  1
  O  O40  1  0.468474  0.651505  0.777644  1
  O  O41  1  0.466356  0.933760  0.616042  1
  O  O42  1  0.533825  0.179556  0.859824  1
  O  O43  1  0.395406  0.038088  0.086881  1
  O  O44  1  0.416238  0.346068  0.093158  1
  O  O45  1  0.583826  0.845967  0.906764  1
  O  O46  1  0.604761  0.538074  0.913340  1
  O  O47  1  0.466226  0.679445  0.140092  1
  O  O48  1  0.533702  0.433771  0.383646  1
  O  O49  1  0.531643  0.151672  0.222480  1
  O  O50  1  0.622949  0.193482  0.493985  1
  O  O51  1  0.648839  0.824335  0.498612  1
  O  O52  1  0.728820  0.036531  0.753084  1
  O  O53  1  0.749176  0.344270  0.755859  1
  O  O54  1  0.799521  0.679361  0.806433  1
  O  O55  1  0.683693  0.322732  0.169470  1
  O  O56  1  0.709816  0.697021  0.174989  1
  O  O57  1  0.864673  0.151628  0.888670  1
  O  O58  1  0.801579  0.652283  0.444549  1
  O  O59  1  0.799890  0.935120  0.283945  1
  O  O60  1  0.867616  0.178460  0.525808  1
  O  O61  1  0.917463  0.846025  0.573324  1
  O  O62  1  0.937983  0.538222  0.580168  1
  O  O63  1  0.867870  0.433300  0.051122  1
  O  O64  1  0.956261  0.192843  0.160448  1
  O  O65  1  0.981929  0.824083  0.165670  1
