# generated using pymatgen
data_LiCrSiO4
_symmetry_space_group_name_H-M   'P 1'
_cell_length_a   5.74938790
_cell_length_b   5.74938790
_cell_length_c   5.54361387
_cell_angle_alpha   118.82294571
_cell_angle_beta   61.17705429
_cell_angle_gamma   117.86327909
_symmetry_Int_Tables_number   1
_chemical_formula_structural   LiCrSiO4
_chemical_formula_sum   'Li2 Cr2 Si2 O8'
_cell_volume   133.90502744
_cell_formula_units_Z   2
loop_
 _symmetry_equiv_pos_site_id
 _symmetry_equiv_pos_as_xyz
  1  'x, y, z'
loop_
 _atom_site_type_symbol
 _atom_site_label
 _atom_site_symmetry_multiplicity
 _atom_site_fract_x
 _atom_site_fract_y
 _atom_site_fract_z
 _atom_site_occupancy
  Li  Li0  1  0.996517  0.003483  0.003483  1
  Li  Li1  1  0.253483  0.746517  0.246517  1
  Cr  Cr2  1  0.625000  0.875000  0.625000  1
  Cr  Cr3  1  0.125000  0.375000  0.625000  1
  Si  Si4  1  0.625000  0.375000  0.625000  1
  Si  Si5  1  0.625000  0.375000  0.125000  1
  O  O6  1  0.843502  0.156499  0.894849  1
  O  O7  1  0.843502  0.156499  0.418148  1
  O  O8  1  0.420808  0.164947  0.872070  1
  O  O9  1  0.835053  0.579192  0.872070  1
  O  O10  1  0.414947  0.170808  0.377930  1
  O  O11  1  0.829192  0.585053  0.377930  1
  O  O12  1  0.406498  0.593502  0.355151  1
  O  O13  1  0.406498  0.593502  0.831852  1
