# generated using pymatgen
data_Mn12O5F19
_symmetry_space_group_name_H-M   'P 1'
_cell_length_a   4.82217781
_cell_length_b   5.86430504
_cell_length_c   16.05311890
_cell_angle_alpha   90.17774635
_cell_angle_beta   89.86317602
_cell_angle_gamma   88.30239751
_symmetry_Int_Tables_number   1
_chemical_formula_structural   Mn12O5F19
_chemical_formula_sum   'Mn12 O5 F19'
_cell_volume   453.75885720
_cell_formula_units_Z   1
loop_
 _symmetry_equiv_pos_site_id
 _symmetry_equiv_pos_as_xyz
  1  'x, y, z'
loop_
 _atom_site_type_symbol
 _atom_site_label
 _atom_site_symmetry_multiplicity
 _atom_site_fract_x
 _atom_site_fract_y
 _atom_site_fract_z
 _atom_site_occupancy
  Mn  Mn0  1  0.990912  0.178118  0.413431  1
  Mn  Mn1  1  0.983590  0.856705  0.250053  1
  Mn  Mn2  1  0.992712  0.165475  0.090967  1
  Mn  Mn3  1  0.990495  0.169816  0.741068  1
  Mn  Mn4  1  0.008158  0.855127  0.581916  1
  Mn  Mn5  1  0.024535  0.831927  0.918337  1
  Mn  Mn6  1  0.488829  0.323929  0.594968  1
  Mn  Mn7  1  0.488184  0.355512  0.918094  1
  Mn  Mn8  1  0.532388  0.338956  0.252437  1
  Mn  Mn9  1  0.491826  0.663679  0.077046  1
  Mn  Mn10  1  0.510303  0.639411  0.416702  1
  Mn  Mn11  1  0.508899  0.649877  0.747967  1
  O  O12  1  0.208871  0.123598  0.639034  1
  O  O13  1  0.287505  0.596068  0.969300  1
  O  O14  1  0.713328  0.388576  0.355137  1
  O  O15  1  0.706159  0.371012  0.695303  1
  O  O16  1  0.785239  0.120267  0.200928  1
  F  F17  1  0.239432  0.105078  0.307637  1
  F  F18  1  0.237873  0.112518  0.977217  1
  F  F19  1  0.223988  0.878997  0.141132  1
  F  F20  1  0.232047  0.879802  0.466620  1
  F  F21  1  0.226615  0.903800  0.801203  1
  F  F22  1  0.303427  0.370624  0.145805  1
  F  F23  1  0.262515  0.610710  0.298117  1
  F  F24  1  0.273294  0.380909  0.483073  1
  F  F25  1  0.258891  0.621185  0.642463  1
  F  F26  1  0.256728  0.393371  0.811013  1
  F  F27  1  0.737460  0.380374  0.022305  1
  F  F28  1  0.736978  0.625118  0.185668  1
  F  F29  1  0.726310  0.601225  0.532894  1
  F  F30  1  0.734185  0.617394  0.859642  1
  F  F31  1  0.755985  0.107228  0.522604  1
  F  F32  1  0.771788  0.879228  0.362370  1
  F  F33  1  0.778373  0.892971  0.026028  1
  F  F34  1  0.767383  0.129956  0.858899  1
  F  F35  1  0.764799  0.881454  0.692622  1
