# generated using pymatgen
data_Li4Ti4V5O18
_symmetry_space_group_name_H-M   'P 1'
_cell_length_a   9.14852880
_cell_length_b   25.37718514
_cell_length_c   2.97339330
_cell_angle_alpha   89.99997826
_cell_angle_beta   89.99993549
_cell_angle_gamma   90.00707405
_symmetry_Int_Tables_number   1
_chemical_formula_structural   Li4Ti4V5O18
_chemical_formula_sum   'Li8 Ti8 V10 O36'
_cell_volume   690.31460611
_cell_formula_units_Z   2
loop_
 _symmetry_equiv_pos_site_id
 _symmetry_equiv_pos_as_xyz
  1  'x, y, z'
loop_
 _atom_site_type_symbol
 _atom_site_label
 _atom_site_symmetry_multiplicity
 _atom_site_fract_x
 _atom_site_fract_y
 _atom_site_fract_z
 _atom_site_occupancy
  Li  Li0  1  0.192400  0.990336  0.000001  1
  Li  Li1  1  0.182103  0.201278  0.000000  1
  Li  Li2  1  0.318134  0.701208  0.000000  1
  Li  Li3  1  0.307431  0.490320  0.000001  1
  Li  Li4  1  0.692641  0.509619  0.000000  1
  Li  Li5  1  0.682102  0.298762  0.000001  1
  Li  Li6  1  0.818000  0.798798  0.000001  1
  Li  Li7  1  0.807563  0.009666  0.000001  1
  Ti  Ti8  1  0.002916  0.102128  0.000001  1
  Ti  Ti9  1  0.147464  0.805168  0.500000  1
  Ti  Ti10  1  0.352618  0.305089  0.500000  1
  Ti  Ti11  1  0.497047  0.602110  0.000000  1
  Ti  Ti12  1  0.502876  0.397893  0.000000  1
  Ti  Ti13  1  0.647486  0.694857  0.500001  1
  Ti  Ti14  1  0.852649  0.194883  0.500000  1
  Ti  Ti15  1  0.997047  0.897870  0.000000  1
  V  V16  1  -0.000028  0.499975  0.999992  1
  V  V17  1  0.017618  0.309768  0.999984  1
  V  V18  1  0.146176  0.585385  0.499988  1
  V  V19  1  0.353695  0.085360  0.500023  1
  V  V20  1  0.482492  0.809709  0.999999  1
  V  V21  1  0.499960  0.000023  0.000001  1
  V  V22  1  0.517580  0.190210  0.000002  1
  V  V23  1  0.646245  0.914626  0.499984  1
  V  V24  1  0.853682  0.414624  0.499999  1
  V  V25  1  0.982474  0.690316  0.000008  1
  O  O26  1  -0.000101  0.425216  0.000002  1
  O  O27  1  0.999997  0.574766  0.000000  1
  O  O28  1  0.058050  0.940445  0.499999  1
  O  O29  1  0.049889  0.158650  0.499999  1
  O  O30  1  0.103878  0.662495  0.500002  1
  O  O31  1  0.094787  0.757673  0.999999  1
  O  O32  1  0.148380  0.504035  0.500000  1
  O  O33  1  0.150701  0.282223  0.500000  1
  O  O34  1  0.185706  0.853896  0.999999  1
  O  O35  1  0.201409  0.082748  0.000002  1
  O  O36  1  0.298465  0.582809  0.000002  1
  O  O37  1  0.314305  0.353802  1.000000  1
  O  O38  1  0.349358  0.782224  0.499996  1
  O  O39  1  0.351665  0.004026  0.500000  1
  O  O40  1  0.405212  0.257585  0.000002  1
  O  O41  1  0.396024  0.162474  0.500004  1
  O  O42  1  0.450113  0.658669  0.500001  1
  O  O43  1  0.441886  0.440421  0.500001  1
  O  O44  1  0.499909  0.074782  0.999999  1
  O  O45  1  0.500064  0.925228  0.000001  1
  O  O46  1  0.558003  0.559573  0.500001  1
  O  O47  1  0.549859  0.341334  0.500001  1
  O  O48  1  0.603934  0.837523  0.499993  1
  O  O49  1  0.594868  0.742371  0.000000  1
  O  O50  1  0.648373  0.995977  0.500002  1
  O  O51  1  0.650687  0.217758  0.500001  1
  O  O52  1  0.685684  0.646142  0.000002  1
  O  O53  1  0.701367  0.417227  0.000000  1
  O  O54  1  0.798496  0.917232  0.000002  1
  O  O55  1  0.814314  0.146171  -0.000001  1
  O  O56  1  0.849354  0.717790  0.500002  1
  O  O57  1  0.851657  0.495949  0.499998  1
  O  O58  1  0.905315  0.242378  0.000002  1
  O  O59  1  0.896070  0.337506  0.500000  1
  O  O60  1  0.950087  0.841355  0.500000  1
  O  O61  1  0.941863  0.059568  0.500001  1
