# generated using pymatgen
data_LiCu3(CO3)3
_symmetry_space_group_name_H-M   'P 1'
_cell_length_a   8.07282754
_cell_length_b   8.05911813
_cell_length_c   6.17659878
_cell_angle_alpha   90.00000000
_cell_angle_beta   90.00000000
_cell_angle_gamma   119.33051879
_symmetry_Int_Tables_number   1
_chemical_formula_structural   LiCu3(CO3)3
_chemical_formula_sum   'Li2 Cu6 C6 O18'
_cell_volume   350.33511944
_cell_formula_units_Z   2
loop_
 _symmetry_equiv_pos_site_id
 _symmetry_equiv_pos_as_xyz
  1  'x, y, z'
loop_
 _atom_site_type_symbol
 _atom_site_label
 _atom_site_symmetry_multiplicity
 _atom_site_fract_x
 _atom_site_fract_y
 _atom_site_fract_z
 _atom_site_occupancy
  Li  Li0  1  0.348572  0.968790  0.000000  1
  Li  Li1  1  0.617757  0.655332  0.500000  1
  Cu  Cu2  1  0.313346  0.296288  0.255315  1
  Cu  Cu3  1  0.313346  0.296288  0.744685  1
  Cu  Cu4  1  0.976633  0.660020  0.751469  1
  Cu  Cu5  1  0.976633  0.660020  0.248531  1
  Cu  Cu6  1  0.717153  0.041358  0.250743  1
  Cu  Cu7  1  0.717153  0.041358  0.749257  1
  C  C8  1  0.336803  0.671016  0.249541  1
  C  C9  1  0.336803  0.671016  0.750459  1
  C  C10  1  0.006786  0.009681  0.000000  1
  C  C11  1  0.997920  0.991197  0.500000  1
  C  C12  1  0.666912  0.332015  0.000000  1
  C  C13  1  0.653960  0.329771  0.500000  1
  O  O14  1  0.075779  0.893439  0.000000  1
  O  O15  1  0.062787  0.873113  0.500000  1
  O  O16  1  0.155603  0.569049  0.753811  1
  O  O17  1  0.155603  0.569049  0.246189  1
  O  O18  1  0.419904  0.855170  0.235326  1
  O  O19  1  0.419904  0.855170  0.764674  1
  O  O20  1  0.121204  0.193753  0.000000  1
  O  O21  1  0.107237  0.173499  0.500000  1
  O  O22  1  0.437820  0.586186  0.267286  1
  O  O23  1  0.437820  0.586186  0.732714  1
  O  O24  1  0.823825  0.941972  0.000000  1
  O  O25  1  0.811174  0.926129  0.500000  1
  O  O26  1  0.483347  0.261345  0.000000  1
  O  O27  1  0.470747  0.258432  0.500000  1
  O  O28  1  0.781494  0.513417  0.000000  1
  O  O29  1  0.762518  0.514074  0.500000  1
  O  O30  1  0.735379  0.215168  0.000000  1
  O  O31  1  0.728922  0.219750  0.500000  1
