# generated using pymatgen
data_LiCrFeO4
_symmetry_space_group_name_H-M   'P 1'
_cell_length_a   5.87764761
_cell_length_b   5.87778398
_cell_length_c   8.38030616
_cell_angle_alpha   90.01993184
_cell_angle_beta   90.00529909
_cell_angle_gamma   89.97856883
_symmetry_Int_Tables_number   1
_chemical_formula_structural   LiCrFeO4
_chemical_formula_sum   'Li4 Cr4 Fe4 O16'
_cell_volume   289.51894798
_cell_formula_units_Z   4
loop_
 _symmetry_equiv_pos_site_id
 _symmetry_equiv_pos_as_xyz
  1  'x, y, z'
loop_
 _atom_site_type_symbol
 _atom_site_label
 _atom_site_symmetry_multiplicity
 _atom_site_fract_x
 _atom_site_fract_y
 _atom_site_fract_z
 _atom_site_occupancy
  Li  Li0  1  0.000243  0.231449  0.999746  1
  Li  Li1  1  0.000090  0.768362  0.500202  1
  Li  Li2  1  0.231609  0.999847  0.249767  1
  Li  Li3  1  0.768659  0.999983  0.749933  1
  Cr  Cr4  1  0.235243  0.499919  0.250115  1
  Cr  Cr5  1  0.499893  0.235391  0.000010  1
  Cr  Cr6  1  0.499968  0.764651  0.499860  1
  Cr  Cr7  1  0.764623  0.500187  0.750069  1
  Fe  Fe8  1  0.255884  0.255980  0.624851  1
  Fe  Fe9  1  0.256001  0.744018  0.875111  1
  Fe  Fe10  1  0.743936  0.255998  0.374945  1
  Fe  Fe11  1  0.743977  0.744127  0.125143  1
  O  O12  1  0.016515  0.268018  0.256742  1
  O  O13  1  0.016438  0.732164  0.243437  1
  O  O14  1  0.267762  0.016303  0.993553  1
  O  O15  1  0.267717  0.983489  0.506478  1
  O  O16  1  0.266678  0.480938  0.012455  1
  O  O17  1  0.266295  0.519052  0.487597  1
  O  O18  1  0.480857  0.266137  0.237626  1
  O  O19  1  0.480864  0.733591  0.262388  1
  O  O20  1  0.518792  0.266130  0.762470  1
  O  O21  1  0.518966  0.733723  0.737593  1
  O  O22  1  0.733893  0.519109  0.512420  1
  O  O23  1  0.734476  0.481056  0.987638  1
  O  O24  1  0.731866  0.016796  0.006818  1
  O  O25  1  0.731835  0.983432  0.493185  1
  O  O26  1  0.983288  0.268004  0.743258  1
  O  O27  1  0.983634  0.732149  0.756589  1
