# generated using pymatgen
data_LiMn3(FeO4)2
_symmetry_space_group_name_H-M   'P 1'
_cell_length_a   6.00053550
_cell_length_b   6.00053550
_cell_length_c   6.00053550
_cell_angle_alpha   60.67939998
_cell_angle_beta   60.67939998
_cell_angle_gamma   60.67939998
_symmetry_Int_Tables_number   1
_chemical_formula_structural   LiMn3(FeO4)2
_chemical_formula_sum   'Li1 Mn3 Fe2 O8'
_cell_volume   155.11897651
_cell_formula_units_Z   1
loop_
 _symmetry_equiv_pos_site_id
 _symmetry_equiv_pos_as_xyz
  1  'x, y, z'
loop_
 _atom_site_type_symbol
 _atom_site_label
 _atom_site_symmetry_multiplicity
 _atom_site_fract_x
 _atom_site_fract_y
 _atom_site_fract_z
 _atom_site_occupancy
  Li  Li0  1  0.123097  0.123097  0.123097  1
  Mn  Mn1  1  0.493923  0.493923  0.010920  1
  Mn  Mn2  1  0.010920  0.493923  0.493923  1
  Mn  Mn3  1  0.493923  0.010920  0.493923  1
  Fe  Fe4  1  0.497356  0.497356  0.497356  1
  Fe  Fe5  1  0.878803  0.878803  0.878803  1
  O  O6  1  0.705843  0.262110  0.262110  1
  O  O7  1  0.250986  0.250986  0.250986  1
  O  O8  1  0.262110  0.705843  0.262110  1
  O  O9  1  0.262110  0.262110  0.705843  1
  O  O10  1  0.743625  0.743625  0.280555  1
  O  O11  1  0.743625  0.280555  0.743625  1
  O  O12  1  0.280555  0.743625  0.743625  1
  O  O13  1  0.753125  0.753125  0.753125  1
