# generated using pymatgen
data_Na2CuAsCO7
_symmetry_space_group_name_H-M   'P 1'
_cell_length_a   9.19859537
_cell_length_b   6.65432599
_cell_length_c   5.29105695
_cell_angle_alpha   90.00000000
_cell_angle_beta   89.33511547
_cell_angle_gamma   90.00000000
_symmetry_Int_Tables_number   1
_chemical_formula_structural   Na2CuAsCO7
_chemical_formula_sum   'Na4 Cu2 As2 C2 O14'
_cell_volume   323.84618270
_cell_formula_units_Z   2
loop_
 _symmetry_equiv_pos_site_id
 _symmetry_equiv_pos_as_xyz
  1  'x, y, z'
loop_
 _atom_site_type_symbol
 _atom_site_label
 _atom_site_symmetry_multiplicity
 _atom_site_fract_x
 _atom_site_fract_y
 _atom_site_fract_z
 _atom_site_occupancy
  Na  Na0  1  0.234379  0.495743  0.230595  1
  Na  Na1  1  0.234379  0.004257  0.230595  1
  Na  Na2  1  0.765621  0.504257  0.769405  1
  Na  Na3  1  0.765621  0.995743  0.769405  1
  Cu  Cu4  1  0.350467  0.750000  0.782630  1
  Cu  Cu5  1  0.649533  0.250000  0.217370  1
  As  As6  1  0.425992  0.250000  0.703501  1
  As  As7  1  0.574008  0.750000  0.296499  1
  C  C8  1  0.073698  0.750000  0.726959  1
  C  C9  1  0.926302  0.250000  0.273041  1
  O  O10  1  0.063577  0.250000  0.283032  1
  O  O11  1  0.141745  0.750000  0.940847  1
  O  O12  1  0.157988  0.750000  0.527815  1
  O  O13  1  0.320807  0.047834  0.793731  1
  O  O14  1  0.320807  0.452166  0.793731  1
  O  O15  1  0.405718  0.750000  0.161715  1
  O  O16  1  0.447987  0.250000  0.376553  1
  O  O17  1  0.552013  0.750000  0.623447  1
  O  O18  1  0.594282  0.250000  0.838285  1
  O  O19  1  0.679193  0.547834  0.206269  1
  O  O20  1  0.679193  0.952166  0.206269  1
  O  O21  1  0.842012  0.250000  0.472185  1
  O  O22  1  0.858255  0.250000  0.059153  1
  O  O23  1  0.936423  0.750000  0.716968  1
