# generated using pymatgen
data_Li4V3P8O29
_symmetry_space_group_name_H-M   'P 1'
_cell_length_a   9.80168388
_cell_length_b   9.75913340
_cell_length_c   14.22878164
_cell_angle_alpha   89.77756523
_cell_angle_beta   89.89049750
_cell_angle_gamma   60.01122298
_symmetry_Int_Tables_number   1
_chemical_formula_structural   Li4V3P8O29
_chemical_formula_sum   'Li8 V6 P16 O58'
_cell_volume   1178.84341753
_cell_formula_units_Z   2
loop_
 _symmetry_equiv_pos_site_id
 _symmetry_equiv_pos_as_xyz
  1  'x, y, z'
loop_
 _atom_site_type_symbol
 _atom_site_label
 _atom_site_symmetry_multiplicity
 _atom_site_fract_x
 _atom_site_fract_y
 _atom_site_fract_z
 _atom_site_occupancy
  Li  Li0  1  0.913753  0.772256  0.061384  1
  Li  Li1  1  0.766292  0.906348  0.558918  1
  Li  Li2  1  0.906698  0.328296  0.556030  1
  Li  Li3  1  0.769211  0.316703  0.062230  1
  Li  Li4  1  0.330345  0.903590  0.059132  1
  Li  Li5  1  0.333835  0.764038  0.556805  1
  Li  Li6  1  0.086761  0.224379  0.941393  1
  Li  Li7  1  0.000890  0.000305  0.491112  1
  V  V8  1  0.563131  0.432984  0.253120  1
  V  V9  1  0.434823  0.566676  0.750157  1
  V  V10  1  0.566762  0.999320  0.749651  1
  V  V11  1  0.434440  0.002933  0.253306  1
  V  V12  1  0.001539  0.566860  0.250957  1
  V  V13  1  0.997089  0.436893  0.746918  1
  P  P14  1  0.912335  0.769017  0.842557  1
  P  P15  1  0.773995  0.914401  0.343087  1
  P  P16  1  0.913549  0.310011  0.341076  1
  P  P17  1  0.665344  0.667349  0.131256  1
  P  P18  1  0.663638  0.667962  0.628134  1
  P  P19  1  0.768886  0.318358  0.845012  1
  P  P20  1  0.693799  0.223354  0.662747  1
  P  P21  1  0.318497  0.911632  0.841991  1
  P  P22  1  0.686346  0.087292  0.161215  1
  P  P23  1  0.310685  0.774521  0.342426  1
  P  P24  1  0.227593  0.687707  0.160387  1
  P  P25  1  0.333064  0.334173  0.368627  1
  P  P26  1  0.332647  0.331943  0.865948  1
  P  P27  1  0.084741  0.695376  0.661447  1
  P  P28  1  0.223990  0.084305  0.660157  1
  P  P29  1  0.089000  0.228818  0.160334  1
  O  O30  1  0.993793  0.804096  0.582639  1
  O  O31  1  0.911283  0.744575  0.329114  1
  O  O32  1  0.775399  0.992932  0.078646  1
  O  O33  1  0.743710  0.914474  0.827283  1
  O  O34  1  0.901558  0.618646  0.818568  1
  O  O35  1  0.815752  0.666872  0.167086  1
  O  O36  1  0.914913  0.464565  0.330724  1
  O  O37  1  0.000669  0.238917  0.071812  1
  O  O38  1  0.917963  0.334191  0.836006  1
  O  O39  1  0.673483  0.813708  0.669181  1
  O  O40  1  0.616366  0.913783  0.328181  1
  O  O41  1  0.808757  0.512372  0.664261  1
  O  O42  1  0.654176  0.668824  0.026719  1
  O  O43  1  0.650373  0.676399  0.523734  1
  O  O44  1  0.664368  0.518162  0.174679  1
  O  O45  1  0.479475  0.901661  0.820884  1
  O  O46  1  0.517624  0.818795  0.174296  1
  O  O47  1  0.742139  0.340890  0.328061  1
  O  O48  1  0.783446  0.199857  0.761935  1
  O  O49  1  0.798764  0.210600  0.583384  1
  O  O50  1  0.755909  0.256931  0.937516  1
  O  O51  1  0.619081  0.480392  0.819425  1
  O  O52  1  0.509688  0.677050  0.672153  1
  O  O53  1  0.658252  0.258667  0.159913  1
  O  O54  1  0.468343  0.616585  0.329013  1
  O  O55  1  0.342682  0.914261  0.328742  1
  O  O56  1  0.786207  0.014980  0.257562  1
  O  O57  1  0.785722  0.981576  0.434540  1
  O  O58  1  0.212498  0.992345  0.580480  1
  O  O59  1  0.657974  0.084595  0.660265  1
  O  O60  1  0.537312  0.383632  0.671377  1
  O  O61  1  0.340308  0.744288  0.833743  1
  O  O62  1  0.484713  0.328693  0.322008  1
  O  O63  1  0.380657  0.527040  0.178846  1
  O  O64  1  0.237463  0.775558  0.078356  1
  O  O65  1  0.230553  0.788652  0.434046  1
  O  O66  1  0.199454  0.789511  0.256739  1
  O  O67  1  0.259208  0.661093  0.661784  1
  O  O68  1  0.477642  0.181878  0.817690  1
  O  O69  1  0.526867  0.092883  0.178013  1
  O  O70  1  0.339984  0.475881  0.818769  1
  O  O71  1  0.342448  0.326699  0.969543  1
  O  O72  1  0.345686  0.322134  0.472010  1
  O  O73  1  0.191472  0.481521  0.326395  1
  O  O74  1  0.383256  0.080576  0.670747  1
  O  O75  1  0.332559  0.184604  0.322458  1
  O  O76  1  0.084415  0.662180  0.158978  1
  O  O77  1  0.015736  0.786760  0.760936  1
  O  O78  1  0.981264  0.760381  0.935659  1
  O  O79  1  0.083397  0.539810  0.668597  1
  O  O80  1  0.183096  0.332169  0.828462  1
  O  O81  1  0.096217  0.380145  0.177674  1
  O  O82  1  0.257923  0.082744  0.159524  1
  O  O83  1  0.250022  0.994460  0.932836  1
  O  O84  1  0.200730  0.013219  0.758853  1
  O  O85  1  0.085556  0.257815  0.659996  1
  O  O86  1  0.981068  0.220327  0.430430  1
  O  O87  1  0.005869  0.200521  0.250692  1
