# generated using pymatgen
data_LiSnP2O7
_symmetry_space_group_name_H-M   'P 1'
_cell_length_a   5.06898100
_cell_length_b   8.95088233
_cell_length_c   7.19523130
_cell_angle_alpha   90.00000000
_cell_angle_beta   109.13039865
_cell_angle_gamma   90.00000000
_symmetry_Int_Tables_number   1
_chemical_formula_structural   LiSnP2O7
_chemical_formula_sum   'Li2 Sn2 P4 O14'
_cell_volume   308.43222159
_cell_formula_units_Z   2
loop_
 _symmetry_equiv_pos_site_id
 _symmetry_equiv_pos_as_xyz
  1  'x, y, z'
loop_
 _atom_site_type_symbol
 _atom_site_label
 _atom_site_symmetry_multiplicity
 _atom_site_fract_x
 _atom_site_fract_y
 _atom_site_fract_z
 _atom_site_occupancy
  Li  Li0  1  0.202059  0.794129  0.662141  1
  Li  Li1  1  0.797941  0.294129  0.337859  1
  Sn  Sn2  1  0.214228  0.440680  0.733666  1
  Sn  Sn3  1  0.785772  0.940680  0.266334  1
  P  P4  1  0.396056  0.124876  0.535576  1
  P  P5  1  0.211230  0.732204  0.076751  1
  P  P6  1  0.788770  0.232204  0.923249  1
  P  P7  1  0.603944  0.624876  0.464424  1
  O  O8  1  0.050276  0.258343  0.867355  1
  O  O9  1  0.147263  0.653873  0.876231  1
  O  O10  1  0.222329  0.980519  0.507296  1
  O  O11  1  0.216951  0.268133  0.507448  1
  O  O12  1  0.412109  0.630731  0.590719  1
  O  O13  1  0.625091  0.376737  0.927038  1
  O  O14  1  0.588023  0.116430  0.765803  1
  O  O15  1  0.411977  0.616430  0.234197  1
  O  O16  1  0.374909  0.876737  0.072962  1
  O  O17  1  0.587891  0.130731  0.409281  1
  O  O18  1  0.783049  0.768133  0.492552  1
  O  O19  1  0.777671  0.480519  0.492704  1
  O  O20  1  0.852737  0.153873  0.123770  1
  O  O21  1  0.949724  0.758343  0.132645  1
