# generated using pymatgen
data_Na3CrH10C6O17
_symmetry_space_group_name_H-M   'P 1'
_cell_length_a   10.86942748
_cell_length_b   10.86942748
_cell_length_c   15.31092728
_cell_angle_alpha   81.71951349
_cell_angle_beta   98.28048651
_cell_angle_gamma   108.30228331
_symmetry_Int_Tables_number   1
_chemical_formula_structural   Na3CrH10C6O17
_chemical_formula_sum   'Na12 Cr4 H40 C24 O68'
_cell_volume   1690.06830909
_cell_formula_units_Z   4
loop_
 _symmetry_equiv_pos_site_id
 _symmetry_equiv_pos_as_xyz
  1  'x, y, z'
loop_
 _atom_site_type_symbol
 _atom_site_label
 _atom_site_symmetry_multiplicity
 _atom_site_fract_x
 _atom_site_fract_y
 _atom_site_fract_z
 _atom_site_occupancy
  Na  Na0  1  0.502618  0.502618  0.750000  1
  Na  Na1  1  0.497383  0.497383  0.250000  1
  Na  Na2  1  0.229507  0.229507  0.750000  1
  Na  Na3  1  0.770493  0.770493  0.250000  1
  Na  Na4  1  0.842149  0.928046  0.000146  1
  Na  Na5  1  0.928046  0.842149  0.499854  1
  Na  Na6  1  0.157851  0.071954  0.999854  1
  Na  Na7  1  0.071954  0.157851  0.500146  1
  Na  Na8  1  0.508989  0.746152  0.985819  1
  Na  Na9  1  0.746152  0.508989  0.514181  1
  Na  Na10  1  0.491011  0.253848  0.014181  1
  Na  Na11  1  0.253848  0.491011  0.485819  1
  Cr  Cr12  1  0.673733  0.058203  0.768274  1
  Cr  Cr13  1  0.058203  0.673733  0.731726  1
  Cr  Cr14  1  0.326267  0.941797  0.231726  1
  Cr  Cr15  1  0.941797  0.326267  0.268274  1
  H  H16  1  0.272929  0.354013  0.945008  1
  H  H17  1  0.354013  0.272929  0.554992  1
  H  H18  1  0.727071  0.645987  0.054992  1
  H  H19  1  0.645987  0.727071  0.445008  1
  H  H20  1  0.281910  0.348838  0.050214  1
  H  H21  1  0.348838  0.281910  0.449786  1
  H  H22  1  0.718090  0.651162  0.949786  1
  H  H23  1  0.651162  0.718090  0.550214  1
  H  H24  1  0.009331  0.188275  0.092463  1
  H  H25  1  0.188275  0.009331  0.407537  1
  H  H26  1  0.990669  0.811725  0.907537  1
  H  H27  1  0.811725  0.990669  0.592463  1
  H  H28  1  0.968471  0.224405  0.993699  1
  H  H29  1  0.224405  0.968471  0.506301  1
  H  H30  1  0.031529  0.775595  0.006301  1
  H  H31  1  0.775595  0.031529  0.493699  1
  H  H32  1  0.657358  0.985244  0.082519  1
  H  H33  1  0.985244  0.657358  0.417481  1
  H  H34  1  0.342642  0.014756  0.917481  1
  H  H35  1  0.014756  0.342642  0.582519  1
  H  H36  1  0.618963  0.044683  0.986777  1
  H  H37  1  0.044683  0.618963  0.513223  1
  H  H38  1  0.381037  0.955317  0.013223  1
  H  H39  1  0.955317  0.381037  0.486777  1
  H  H40  1  0.781139  0.321021  0.996775  1
  H  H41  1  0.321021  0.781139  0.503225  1
  H  H42  1  0.218861  0.678979  0.003225  1
  H  H43  1  0.678979  0.218861  0.496775  1
  H  H44  1  0.744621  0.265773  0.093498  1
  H  H45  1  0.265773  0.744621  0.406502  1
  H  H46  1  0.255379  0.734227  0.906502  1
  H  H47  1  0.734227  0.255379  0.593498  1
  H  H48  1  0.981729  0.422846  0.890450  1
  H  H49  1  0.422846  0.981729  0.609550  1
  H  H50  1  0.018271  0.577154  0.109550  1
  H  H51  1  0.577154  0.018271  0.390450  1
  H  H52  1  0.858500  0.302782  0.872460  1
  H  H53  1  0.302782  0.858500  0.627540  1
  H  H54  1  0.141500  0.697218  0.127540  1
  H  H55  1  0.697218  0.141500  0.372460  1
  C  C56  1  0.546832  0.226360  0.811899  1
  C  C57  1  0.226360  0.546832  0.688101  1
  C  C58  1  0.453168  0.773640  0.188101  1
  C  C59  1  0.773640  0.453168  0.311899  1
  C  C60  1  0.491633  0.196497  0.714818  1
  C  C61  1  0.196497  0.491633  0.785182  1
  C  C62  1  0.508367  0.803503  0.285182  1
  C  C63  1  0.803503  0.508367  0.214818  1
  C  C64  1  0.609181  0.814609  0.702935  1
  C  C65  1  0.814609  0.609181  0.797065  1
  C  C66  1  0.390819  0.185391  0.297065  1
  C  C67  1  0.185391  0.390819  0.202935  1
  C  C68  1  0.539630  0.792003  0.788890  1
  C  C69  1  0.792003  0.539630  0.711110  1
  C  C70  1  0.460370  0.207997  0.211110  1
  C  C71  1  0.207997  0.460370  0.288890  1
  C  C72  1  0.926555  0.207384  0.730730  1
  C  C73  1  0.207384  0.926555  0.769270  1
  C  C74  1  0.073445  0.792616  0.269270  1
  C  C75  1  0.792616  0.073445  0.230730  1
  C  C76  1  0.945460  0.114810  0.815932  1
  C  C77  1  0.114810  0.945460  0.684068  1
  C  C78  1  0.054540  0.885190  0.184068  1
  C  C79  1  0.885190  0.054540  0.315932  1
  O  O80  1  0.637023  0.173747  0.846306  1
  O  O81  1  0.173747  0.637023  0.653694  1
  O  O82  1  0.362977  0.826253  0.153694  1
  O  O83  1  0.826253  0.362977  0.346306  1
  O  O84  1  0.529024  0.107930  0.687242  1
  O  O85  1  0.107930  0.529024  0.812758  1
  O  O86  1  0.470976  0.892069  0.312758  1
  O  O87  1  0.892069  0.470976  0.187242  1
  O  O88  1  0.501523  0.293308  0.850126  1
  O  O89  1  0.293308  0.501523  0.649874  1
  O  O90  1  0.498477  0.706692  0.149874  1
  O  O91  1  0.706692  0.498477  0.350126  1
  O  O92  1  0.416110  0.253810  0.671927  1
  O  O93  1  0.253810  0.416110  0.828073  1
  O  O94  1  0.583890  0.746190  0.328073  1
  O  O95  1  0.746190  0.583890  0.171927  1
  O  O96  1  0.683159  0.933207  0.685869  1
  O  O97  1  0.933207  0.683159  0.814131  1
  O  O98  1  0.316841  0.066793  0.314131  1
  O  O99  1  0.066793  0.316841  0.185869  1
  O  O100  1  0.557795  0.896374  0.827103  1
  O  O101  1  0.896374  0.557795  0.672897  1
  O  O102  1  0.442205  0.103626  0.172897  1
  O  O103  1  0.103626  0.442205  0.327103  1
  O  O104  1  0.593219  0.722940  0.658560  1
  O  O105  1  0.722940  0.593219  0.841440  1
  O  O106  1  0.406781  0.277060  0.341440  1
  O  O107  1  0.277060  0.406781  0.158560  1
  O  O108  1  0.475574  0.681567  0.817916  1
  O  O109  1  0.681567  0.475574  0.682084  1
  O  O110  1  0.524426  0.318433  0.182084  1
  O  O111  1  0.318433  0.524426  0.317916  1
  O  O112  1  0.807017  0.205039  0.706278  1
  O  O113  1  0.205039  0.807017  0.793722  1
  O  O114  1  0.192983  0.794961  0.293722  1
  O  O115  1  0.794961  0.192983  0.206278  1
  O  O116  1  0.837501  0.041499  0.846023  1
  O  O117  1  0.041499  0.837501  0.653977  1
  O  O118  1  0.162499  0.958501  0.153977  1
  O  O119  1  0.958501  0.162499  0.346023  1
  O  O120  1  0.022502  0.277186  0.693375  1
  O  O121  1  0.277186  0.022502  0.806625  1
  O  O122  1  0.977498  0.722814  0.306625  1
  O  O123  1  0.722814  0.977498  0.193375  1
  O  O124  1  0.056937  0.117759  0.849723  1
  O  O125  1  0.117759  0.056937  0.650277  1
  O  O126  1  0.943063  0.882241  0.150277  1
  O  O127  1  0.882241  0.943063  0.349723  1
  O  O128  1  0.295385  0.305412  0.001531  1
  O  O129  1  0.305412  0.295385  0.498469  1
  O  O130  1  0.704615  0.694588  0.998469  1
  O  O131  1  0.694588  0.704615  0.501531  1
  O  O132  1  0.981544  0.150453  0.035804  1
  O  O133  1  0.150453  0.981544  0.464196  1
  O  O134  1  0.018456  0.849547  0.964196  1
  O  O135  1  0.849547  0.018456  0.535804  1
  O  O136  1  0.632278  0.965295  0.020074  1
  O  O137  1  0.965295  0.632278  0.479926  1
  O  O138  1  0.367722  0.034705  0.979926  1
  O  O139  1  0.034705  0.367722  0.520074  1
  O  O140  1  0.708401  0.289277  0.033437  1
  O  O141  1  0.289277  0.708401  0.466563  1
  O  O142  1  0.291599  0.710723  0.966563  1
  O  O143  1  0.710723  0.291599  0.533437  1
  O  O144  1  0.915125  0.350649  0.919635  1
  O  O145  1  0.350649  0.915125  0.580365  1
  O  O146  1  0.084875  0.649351  0.080365  1
  O  O147  1  0.649351  0.084875  0.419635  1
