# generated using pymatgen
data_LiCrPO5
_symmetry_space_group_name_H-M   'P 1'
_cell_length_a   7.59855815
_cell_length_b   9.58103604
_cell_length_c   5.32279467
_cell_angle_alpha   90.00000000
_cell_angle_beta   112.26840459
_cell_angle_gamma   90.00000000
_symmetry_Int_Tables_number   1
_chemical_formula_structural   LiCrPO5
_chemical_formula_sum   'Li4 Cr4 P4 O20'
_cell_volume   358.60943270
_cell_formula_units_Z   4
loop_
 _symmetry_equiv_pos_site_id
 _symmetry_equiv_pos_as_xyz
  1  'x, y, z'
loop_
 _atom_site_type_symbol
 _atom_site_label
 _atom_site_symmetry_multiplicity
 _atom_site_fract_x
 _atom_site_fract_y
 _atom_site_fract_z
 _atom_site_occupancy
  Li  Li0  1  0.204289  0.904837  0.651860  1
  Li  Li1  1  0.295711  0.404837  0.848140  1
  Li  Li2  1  0.704289  0.595163  0.151860  1
  Li  Li3  1  0.795711  0.095163  0.348140  1
  Cr  Cr4  1  0.155796  0.083903  0.157750  1
  Cr  Cr5  1  0.344204  0.583903  0.342250  1
  Cr  Cr6  1  0.655796  0.416097  0.657750  1
  Cr  Cr7  1  0.844204  0.916097  0.842250  1
  P  P8  1  0.043875  0.348400  0.200954  1
  P  P9  1  0.543875  0.151600  0.700954  1
  P  P10  1  0.456125  0.848400  0.299046  1
  P  P11  1  0.956125  0.651600  0.799046  1
  O  O12  1  0.995023  0.788766  0.675924  1
  O  O13  1  0.160393  0.286537  0.037652  1
  O  O14  1  0.012404  0.951244  0.216052  1
  O  O15  1  0.145559  0.580404  0.967706  1
  O  O16  1  0.167177  0.453538  0.423908  1
  O  O17  1  0.354441  0.080404  0.532294  1
  O  O18  1  0.339607  0.786537  0.462348  1
  O  O19  1  0.504977  0.288766  0.824076  1
  O  O20  1  0.332823  0.953538  0.076092  1
  O  O21  1  0.512404  0.548756  0.716052  1
  O  O22  1  0.487596  0.451244  0.283948  1
  O  O23  1  0.667177  0.046462  0.923908  1
  O  O24  1  0.495023  0.711234  0.175924  1
  O  O25  1  0.660393  0.213463  0.537652  1
  O  O26  1  0.645559  0.919596  0.467706  1
  O  O27  1  0.832823  0.546462  0.576092  1
  O  O28  1  0.854441  0.419596  0.032294  1
  O  O29  1  0.987596  0.048756  0.783948  1
  O  O30  1  0.839607  0.713463  0.962348  1
  O  O31  1  0.004977  0.211234  0.324076  1
