# generated using pymatgen
data_BH5CSN2
_symmetry_space_group_name_H-M   'P 1'
_cell_length_a   9.32973618
_cell_length_b   6.94325843
_cell_length_c   7.16320962
_cell_angle_alpha   90.00000000
_cell_angle_beta   90.00000000
_cell_angle_gamma   90.00000000
_symmetry_Int_Tables_number   1
_chemical_formula_structural   BH5CSN2
_chemical_formula_sum   'B4 H20 C4 S4 N8'
_cell_volume   464.02390401
_cell_formula_units_Z   4
loop_
 _symmetry_equiv_pos_site_id
 _symmetry_equiv_pos_as_xyz
  1  'x, y, z'
loop_
 _atom_site_type_symbol
 _atom_site_label
 _atom_site_symmetry_multiplicity
 _atom_site_fract_x
 _atom_site_fract_y
 _atom_site_fract_z
 _atom_site_occupancy
  B  B0  1  0.737905  0.250000  0.819935  1
  B  B1  1  0.237905  0.250000  0.680065  1
  B  B2  1  0.262095  0.750000  0.180065  1
  B  B3  1  0.762095  0.750000  0.319935  1
  H  H4  1  0.765922  0.250000  0.509464  1
  H  H5  1  0.265922  0.250000  0.990536  1
  H  H6  1  0.234078  0.750000  0.490536  1
  H  H7  1  0.734078  0.750000  0.009464  1
  H  H8  1  0.893406  0.369751  0.622039  1
  H  H9  1  0.393406  0.130249  0.877961  1
  H  H10  1  0.106594  0.869751  0.377961  1
  H  H11  1  0.606594  0.630249  0.122039  1
  H  H12  1  0.106594  0.630249  0.377961  1
  H  H13  1  0.606594  0.869751  0.122039  1
  H  H14  1  0.893406  0.130249  0.622039  1
  H  H15  1  0.393406  0.369751  0.877961  1
  H  H16  1  0.664825  0.395107  0.828677  1
  H  H17  1  0.164825  0.104893  0.671323  1
  H  H18  1  0.335175  0.895107  0.171323  1
  H  H19  1  0.835175  0.604893  0.328677  1
  H  H20  1  0.335175  0.604893  0.171323  1
  H  H21  1  0.835175  0.895107  0.328677  1
  H  H22  1  0.664825  0.104893  0.828677  1
  H  H23  1  0.164825  0.395107  0.671323  1
  C  C24  1  0.941159  0.250000  0.085577  1
  C  C25  1  0.441159  0.250000  0.414423  1
  C  C26  1  0.058841  0.750000  0.914423  1
  C  C27  1  0.558841  0.750000  0.585577  1
  S  S28  1  0.066454  0.250000  0.240103  1
  S  S29  1  0.566454  0.250000  0.259897  1
  S  S30  1  0.933546  0.750000  0.759897  1
  S  S31  1  0.433546  0.750000  0.740103  1
  N  N32  1  0.849056  0.250000  0.972660  1
  N  N33  1  0.349056  0.250000  0.527340  1
  N  N34  1  0.150944  0.750000  0.027340  1
  N  N35  1  0.650944  0.750000  0.472660  1
  N  N36  1  0.828110  0.250000  0.628257  1
  N  N37  1  0.328110  0.250000  0.871743  1
  N  N38  1  0.171890  0.750000  0.371743  1
  N  N39  1  0.671890  0.750000  0.128257  1
