# generated using pymatgen
data_Sr(IO3)2
_symmetry_space_group_name_H-M   'P 1'
_cell_length_a   6.21067673
_cell_length_b   18.12898924
_cell_length_c   6.04189654
_cell_angle_alpha   90.00000000
_cell_angle_beta   90.00000000
_cell_angle_gamma   90.00000000
_symmetry_Int_Tables_number   1
_chemical_formula_structural   Sr(IO3)2
_chemical_formula_sum   'Sr4 I8 O24'
_cell_volume   680.27701901
_cell_formula_units_Z   4
loop_
 _symmetry_equiv_pos_site_id
 _symmetry_equiv_pos_as_xyz
  1  'x, y, z'
loop_
 _atom_site_type_symbol
 _atom_site_label
 _atom_site_symmetry_multiplicity
 _atom_site_fract_x
 _atom_site_fract_y
 _atom_site_fract_z
 _atom_site_occupancy
  Sr  Sr0  1  0.171713  0.095972  0.709513  1
  Sr  Sr1  1  0.328287  0.904028  0.209513  1
  Sr  Sr2  1  0.671713  0.404028  0.290487  1
  Sr  Sr3  1  0.828287  0.595972  0.790487  1
  I  I4  1  0.135594  0.421072  0.971042  1
  I  I5  1  0.211721  0.209790  0.253187  1
  I  I6  1  0.288279  0.790210  0.753187  1
  I  I7  1  0.364406  0.578928  0.471042  1
  I  I8  1  0.635594  0.078928  0.028958  1
  I  I9  1  0.711721  0.290210  0.746813  1
  I  I10  1  0.788279  0.709790  0.246813  1
  I  I11  1  0.864406  0.921072  0.528958  1
  O  O12  1  0.015187  0.339376  0.107250  1
  O  O13  1  0.026788  0.166427  0.052874  1
  O  O14  1  0.037352  0.211284  0.499203  1
  O  O15  1  0.091961  0.983450  0.469250  1
  O  O16  1  0.131545  0.872100  0.842411  1
  O  O17  1  0.194089  0.546878  0.701811  1
  O  O18  1  0.305911  0.453122  0.201811  1
  O  O19  1  0.368455  0.127900  0.342411  1
  O  O20  1  0.408039  0.016550  0.969250  1
  O  O21  1  0.462648  0.788716  0.999203  1
  O  O22  1  0.473212  0.833573  0.552874  1
  O  O23  1  0.484813  0.660624  0.607250  1
  O  O24  1  0.515187  0.160624  0.892750  1
  O  O25  1  0.526788  0.333573  0.947126  1
  O  O26  1  0.537352  0.288716  0.500797  1
  O  O27  1  0.591961  0.516550  0.530750  1
  O  O28  1  0.631545  0.627900  0.157589  1
  O  O29  1  0.694089  0.953122  0.298189  1
  O  O30  1  0.805911  0.046878  0.798189  1
  O  O31  1  0.868455  0.372100  0.657589  1
  O  O32  1  0.908039  0.483450  0.030750  1
  O  O33  1  0.962648  0.711284  0.000797  1
  O  O34  1  0.973212  0.666427  0.447126  1
  O  O35  1  0.984813  0.839376  0.392750  1
