# generated using pymatgen
data_Li3V3FeO8
_symmetry_space_group_name_H-M   'P 1'
_cell_length_a   10.34894809
_cell_length_b   10.41599382
_cell_length_c   14.71799426
_cell_angle_alpha   19.15928842
_cell_angle_beta   18.96248625
_cell_angle_gamma   32.78118123
_symmetry_Int_Tables_number   1
_chemical_formula_structural   Li3V3FeO8
_chemical_formula_sum   'Li3 V3 Fe1 O8'
_cell_volume   147.18330627
_cell_formula_units_Z   1
loop_
 _symmetry_equiv_pos_site_id
 _symmetry_equiv_pos_as_xyz
  1  'x, y, z'
loop_
 _atom_site_type_symbol
 _atom_site_label
 _atom_site_symmetry_multiplicity
 _atom_site_fract_x
 _atom_site_fract_y
 _atom_site_fract_z
 _atom_site_occupancy
  Li  Li0  1  0.000001  0.500013  0.499989  1
  Li  Li1  1  0.500014  0.000004  0.499987  1
  Li  Li2  1  0.499986  0.499991  0.500015  1
  V  V3  1  -0.000057  0.499960  0.000064  1
  V  V4  1  0.499958  -0.000045  0.000060  1
  V  V5  1  0.500069  0.500064  -0.000081  1
  Fe  Fe6  1  0.000074  0.000077  -0.000088  1
  O  O7  1  0.003177  0.016271  0.243547  1
  O  O8  1  0.993342  0.514351  0.257138  1
  O  O9  1  0.504571  0.994329  0.261936  1
  O  O10  1  0.996839  0.983745  0.756434  1
  O  O11  1  0.503713  0.477196  0.273761  1
  O  O12  1  0.006639  0.485611  0.742887  1
  O  O13  1  0.495402  0.005658  0.738081  1
  O  O14  1  0.496270  0.522775  0.726269  1
