# generated using pymatgen
data_H22C10O3
_symmetry_space_group_name_H-M   'P 1'
_cell_length_a   14.87340994
_cell_length_b   12.86942936
_cell_length_c   10.87598006
_cell_angle_alpha   77.05900124
_cell_angle_beta   57.48892121
_cell_angle_gamma   45.45207755
_symmetry_Int_Tables_number   1
_chemical_formula_structural   H22C10O3
_chemical_formula_sum   'H88 C40 O12'
_cell_volume   1209.84888533
_cell_formula_units_Z   4
loop_
 _symmetry_equiv_pos_site_id
 _symmetry_equiv_pos_as_xyz
  1  'x, y, z'
loop_
 _atom_site_type_symbol
 _atom_site_label
 _atom_site_symmetry_multiplicity
 _atom_site_fract_x
 _atom_site_fract_y
 _atom_site_fract_z
 _atom_site_occupancy
  H  H0  1  0.997607  0.895657  0.503553  1
  H  H1  1  0.603183  0.503553  0.895657  1
  H  H2  1  0.746447  0.646817  0.252393  1
  H  H3  1  0.354343  0.252393  0.646817  1
  H  H4  1  0.048157  0.036987  0.340669  1
  H  H5  1  0.574187  0.340669  0.036987  1
  H  H6  1  0.909331  0.675813  0.201843  1
  H  H7  1  0.213013  0.201843  0.675813  1
  H  H8  1  0.905013  0.196767  0.494345  1
  H  H9  1  0.403875  0.494345  0.196767  1
  H  H10  1  0.755655  0.846125  0.344987  1
  H  H11  1  0.053233  0.344987  0.846125  1
  H  H12  1  0.155079  0.048135  0.446997  1
  H  H13  1  0.349789  0.446997  0.048135  1
  H  H14  1  0.803003  0.900211  0.094921  1
  H  H15  1  0.201865  0.094921  0.900211  1
  H  H16  1  0.190350  0.884134  0.462463  1
  H  H17  1  0.463054  0.462463  0.884134  1
  H  H18  1  0.787537  0.786946  0.059650  1
  H  H19  1  0.365866  0.059650  0.786946  1
  H  H20  1  0.890361  0.027987  0.876822  1
  H  H21  1  0.204830  0.876822  0.027987  1
  H  H22  1  0.373178  0.045170  0.359639  1
  H  H23  1  0.222013  0.359639  0.045170  1
  H  H24  1  0.034061  0.870794  0.719931  1
  H  H25  1  0.375213  0.719931  0.870794  1
  H  H26  1  0.530069  0.874787  0.215939  1
  H  H27  1  0.379206  0.215939  0.874787  1
  H  H28  1  0.784261  0.014624  0.771752  1
  H  H29  1  0.429362  0.771752  0.014624  1
  H  H30  1  0.478248  0.820638  0.465739  1
  H  H31  1  0.235376  0.465739  0.820638  1
  H  H32  1  0.742090  0.182250  0.761073  1
  H  H33  1  0.314587  0.761073  0.182250  1
  H  H34  1  0.488927  0.935413  0.507910  1
  H  H35  1  0.067750  0.507910  0.935413  1
  H  H36  1  0.682638  0.019355  0.679830  1
  H  H37  1  0.618177  0.679830  0.019355  1
  H  H38  1  0.570170  0.631823  0.567362  1
  H  H39  1  0.230645  0.567362  0.631823  1
  H  H40  1  0.846819  0.872222  0.510977  1
  H  H41  1  0.769982  0.510977  0.872222  1
  H  H42  1  0.739023  0.480018  0.403181  1
  H  H43  1  0.377778  0.403181  0.480018  1
  H  H44  1  0.677924  0.030917  0.516847  1
  H  H45  1  0.774312  0.516847  0.030917  1
  H  H46  1  0.733153  0.475688  0.572076  1
  H  H47  1  0.219083  0.572076  0.475688  1
  H  H48  1  0.700022  0.304321  0.512917  1
  H  H49  1  0.482739  0.512917  0.304321  1
  H  H50  1  0.737083  0.767261  0.549978  1
  H  H51  1  0.945679  0.549978  0.767261  1
  H  H52  1  0.587127  0.287398  0.677050  1
  H  H53  1  0.448425  0.677050  0.287398  1
  H  H54  1  0.572950  0.801575  0.662873  1
  H  H55  1  0.962602  0.662873  0.801575  1
  H  H56  1  0.598899  0.279247  0.507425  1
  H  H57  1  0.614430  0.507425  0.279247  1
  H  H58  1  0.742575  0.635570  0.651101  1
  H  H59  1  0.970753  0.651101  0.635570  1
  H  H60  1  0.965614  0.932855  0.291873  1
  H  H61  1  0.809659  0.291873  0.932855  1
  H  H62  1  0.958127  0.440341  0.284386  1
  H  H63  1  0.317145  0.284386  0.440341  1
  H  H64  1  0.237798  0.849874  0.662534  1
  H  H65  1  0.249794  0.662534  0.849874  1
  H  H66  1  0.587466  0.000206  0.012202  1
  H  H67  1  0.400126  0.012202  0.000206  1
  H  H68  1  0.197665  0.017108  0.654476  1
  H  H69  1  0.130751  0.654476  0.017108  1
  H  H70  1  0.595524  0.119249  0.052335  1
  H  H71  1  0.232892  0.052335  0.119249  1
  H  H72  1  0.095182  0.999488  0.829545  1
  H  H73  1  0.075786  0.829545  0.999488  1
  H  H74  1  0.420455  0.174214  0.154818  1
  H  H75  1  0.250512  0.154818  0.174214  1
  H  H76  1  0.957299  0.247966  0.673023  1
  H  H77  1  0.121712  0.673023  0.247966  1
  H  H78  1  0.576977  0.128288  0.292701  1
  H  H79  1  0.002034  0.292701  0.128288  1
  H  H80  1  0.088396  0.334046  0.547431  1
  H  H81  1  0.030126  0.547431  0.334046  1
  H  H82  1  0.702569  0.219874  0.161604  1
  H  H83  1  0.915954  0.161604  0.219874  1
  H  H84  1  0.988440  0.380520  0.491457  1
  H  H85  1  0.139583  0.491457  0.380520  1
  H  H86  1  0.758543  0.110417  0.261560  1
  H  H87  1  0.869480  0.261560  0.110417  1
  C  C88  1  0.908700  0.020103  0.543604  1
  C  C89  1  0.527593  0.543604  0.020103  1
  C  C90  1  0.706396  0.722407  0.341300  1
  C  C91  1  0.229897  0.341300  0.722407  1
  C  C92  1  0.988062  0.072807  0.463547  1
  C  C93  1  0.475583  0.463547  0.072807  1
  C  C94  1  0.786453  0.774417  0.261938  1
  C  C95  1  0.177193  0.261938  0.774417  1
  C  C96  1  0.100279  0.008214  0.503586  1
  C  C97  1  0.387921  0.503586  0.008214  1
  C  C98  1  0.746414  0.862079  0.149721  1
  C  C99  1  0.241786  0.149721  0.862079  1
  C  C100  1  0.028401  0.045815  0.674587  1
  C  C101  1  0.251198  0.674587  0.045815  1
  C  C102  1  0.575413  0.998802  0.221599  1
  C  C103  1  0.204185  0.221599  0.998802  1
  C  C104  1  0.947481  0.995026  0.753835  1
  C  C105  1  0.303658  0.753835  0.995026  1
  C  C106  1  0.496165  0.946342  0.302519  1
  C  C107  1  0.254974  0.302519  0.946342  1
  C  C108  1  0.834432  0.059050  0.715008  1
  C  C109  1  0.391511  0.715008  0.059050  1
  C  C110  1  0.534992  0.858489  0.415568  1
  C  C111  1  0.190950  0.415568  0.858489  1
  C  C112  1  0.798444  0.076375  0.501046  1
  C  C113  1  0.624136  0.501046  0.076375  1
  C  C114  1  0.748954  0.625864  0.451556  1
  C  C115  1  0.173625  0.451556  0.625864  1
  C  C116  1  0.748382  0.994843  0.556294  1
  C  C117  1  0.700480  0.556294  0.994843  1
  C  C118  1  0.693706  0.549520  0.501618  1
  C  C119  1  0.255157  0.501618  0.549520  1
  C  C120  1  0.662912  0.247043  0.554058  1
  C  C121  1  0.535988  0.554058  0.247043  1
  C  C122  1  0.695942  0.714012  0.587088  1
  C  C123  1  0.002957  0.587088  0.714012  1
  C  C124  1  0.147129  0.972996  0.707441  1
  C  C125  1  0.172434  0.707441  0.972996  1
  C  C126  1  0.542559  0.077566  0.102871  1
  C  C127  1  0.277004  0.102871  0.077566  1
  O  O128  1  0.875247  0.043550  0.336307  1
  O  O129  1  0.744896  0.336307  0.043550  1
  O  O130  1  0.913693  0.505104  0.374753  1
  O  O131  1  0.206450  0.374753  0.505104  1
  O  O132  1  0.913219  0.208371  0.735940  1
  O  O133  1  0.142470  0.735940  0.208371  1
  O  O134  1  0.514060  0.107530  0.336781  1
  O  O135  1  0.041629  0.336781  0.107530  1
  O  O136  1  0.033587  0.315324  0.549591  1
  O  O137  1  0.101498  0.549591  0.315324  1
  O  O138  1  0.700409  0.148502  0.216413  1
  O  O139  1  0.934676  0.216413  0.148502  1
