# generated using pymatgen
data_Li2MnOF2
_symmetry_space_group_name_H-M   'P 1'
_cell_length_a   6.03987461
_cell_length_b   6.21235799
_cell_length_c   4.18661406
_cell_angle_alpha   90.00000000
_cell_angle_beta   90.00000000
_cell_angle_gamma   60.91426608
_symmetry_Int_Tables_number   1
_chemical_formula_structural   Li2MnOF2
_chemical_formula_sum   'Li4 Mn2 O2 F4'
_cell_volume   137.27951259
_cell_formula_units_Z   2
loop_
 _symmetry_equiv_pos_site_id
 _symmetry_equiv_pos_as_xyz
  1  'x, y, z'
loop_
 _atom_site_type_symbol
 _atom_site_label
 _atom_site_symmetry_multiplicity
 _atom_site_fract_x
 _atom_site_fract_y
 _atom_site_fract_z
 _atom_site_occupancy
  Li  Li0  1  0.498514  0.664974  0.945795  1
  Li  Li1  1  0.836512  0.664974  0.445795  1
  Li  Li2  1  0.501486  0.335026  0.445795  1
  Li  Li3  1  0.163488  0.335026  0.945795  1
  Mn  Mn4  1  0.827790  1.000000  0.945554  1
  Mn  Mn5  1  0.172210  0.000000  0.445554  1
  O  O6  1  0.814835  1.000000  0.445468  1
  O  O7  1  0.185165  0.000000  0.945468  1
  F  F8  1  0.836101  0.640862  0.944594  1
  F  F9  1  0.523037  0.640862  0.444594  1
  F  F10  1  0.476963  0.359138  0.944594  1
  F  F11  1  0.163899  0.359138  0.444594  1
