# generated using pymatgen
data_Li2VOF3
_symmetry_space_group_name_H-M   'P 1'
_cell_length_a   5.71533424
_cell_length_b   5.71533424
_cell_length_c   5.22754406
_cell_angle_alpha   89.79269887
_cell_angle_beta   90.20730113
_cell_angle_gamma   118.18164111
_symmetry_Int_Tables_number   1
_chemical_formula_structural   Li2VOF3
_chemical_formula_sum   'Li4 V2 O2 F6'
_cell_volume   150.51409281
_cell_formula_units_Z   2
loop_
 _symmetry_equiv_pos_site_id
 _symmetry_equiv_pos_as_xyz
  1  'x, y, z'
loop_
 _atom_site_type_symbol
 _atom_site_label
 _atom_site_symmetry_multiplicity
 _atom_site_fract_x
 _atom_site_fract_y
 _atom_site_fract_z
 _atom_site_occupancy
  Li  Li0  1  0.346323  0.959401  0.754411  1
  Li  Li1  1  0.062432  0.652814  0.267821  1
  Li  Li2  1  0.959401  0.346323  0.745589  1
  Li  Li3  1  0.652814  0.062432  0.232179  1
  V  V4  1  0.613857  0.613857  0.750000  1
  V  V5  1  0.352998  0.352998  0.250000  1
  O  O6  1  0.294511  0.512869  0.942180  1
  O  O7  1  0.512869  0.294511  0.557820  1
  F  F8  1  0.734001  0.995300  0.883998  1
  F  F9  1  0.997340  0.271667  0.386886  1
  F  F10  1  0.476076  0.730412  0.426401  1
  F  F11  1  0.730412  0.476076  0.073599  1
  F  F12  1  0.995300  0.734001  0.616002  1
  F  F13  1  0.271667  0.997340  0.113114  1
