# generated using pymatgen
data_Cs2BeO2
_symmetry_space_group_name_H-M   'P 1'
_cell_length_a   7.98043368
_cell_length_b   8.83528746
_cell_length_c   6.29741287
_cell_angle_alpha   90.00000000
_cell_angle_beta   90.00000000
_cell_angle_gamma   90.12918468
_symmetry_Int_Tables_number   1
_chemical_formula_structural   Cs2BeO2
_chemical_formula_sum   'Cs8 Be4 O8'
_cell_volume   444.02583585
_cell_formula_units_Z   4
loop_
 _symmetry_equiv_pos_site_id
 _symmetry_equiv_pos_as_xyz
  1  'x, y, z'
loop_
 _atom_site_type_symbol
 _atom_site_label
 _atom_site_symmetry_multiplicity
 _atom_site_fract_x
 _atom_site_fract_y
 _atom_site_fract_z
 _atom_site_occupancy
  Cs  Cs0  1  0.107097  0.253504  0.068060  1
  Cs  Cs1  1  0.155928  0.878213  0.360775  1
  Cs  Cs2  1  0.344072  0.621787  0.860775  1
  Cs  Cs3  1  0.392903  0.246496  0.568060  1
  Cs  Cs4  1  0.607097  0.753504  0.431939  1
  Cs  Cs5  1  0.655928  0.378213  0.139225  1
  Cs  Cs6  1  0.844072  0.121787  0.639225  1
  Cs  Cs7  1  0.892903  0.746496  0.931940  1
  Be  Be8  1  0.114549  0.520732  0.425643  1
  Be  Be9  1  0.385451  0.979268  0.925643  1
  Be  Be10  1  0.614549  0.020732  0.074357  1
  Be  Be11  1  0.885451  0.479268  0.574357  1
  O  O12  1  0.068468  0.409896  0.620859  1
  O  O13  1  0.217461  0.947221  0.822426  1
  O  O14  1  0.282539  0.552779  0.322427  1
  O  O15  1  0.431532  0.090104  0.120859  1
  O  O16  1  0.568468  0.909896  0.879141  1
  O  O17  1  0.717461  0.447221  0.677574  1
  O  O18  1  0.782539  0.052779  0.177573  1
  O  O19  1  0.931532  0.590104  0.379141  1
