# generated using pymatgen
data_V3CoSn2(PO4)6
_symmetry_space_group_name_H-M   'P 1'
_cell_length_a   8.94686144
_cell_length_b   8.56805031
_cell_length_c   8.56805141
_cell_angle_alpha   59.99999815
_cell_angle_beta   61.39098759
_cell_angle_gamma   61.39098994
_symmetry_Int_Tables_number   1
_chemical_formula_structural   V3CoSn2(PO4)6
_chemical_formula_sum   'V3 Co1 Sn2 P6 O24'
_cell_volume   473.95563896
_cell_formula_units_Z   1
loop_
 _symmetry_equiv_pos_site_id
 _symmetry_equiv_pos_as_xyz
  1  'x, y, z'
loop_
 _atom_site_type_symbol
 _atom_site_label
 _atom_site_symmetry_multiplicity
 _atom_site_fract_x
 _atom_site_fract_y
 _atom_site_fract_z
 _atom_site_occupancy
  V  V0  1  0.058031  0.647323  0.647323  1
  V  V1  1  0.436341  0.854553  0.854553  1
  V  V2  1  0.945985  0.351339  0.351339  1
  Co  Co3  1  0.554197  0.148601  0.148601  1
  Sn  Sn4  1  0.974284  0.008572  0.008572  1
  Sn  Sn5  1  0.500213  0.499929  0.499929  1
  P  P6  1  0.253920  0.248689  0.533574  1
  P  P7  1  0.253920  0.963817  0.248689  1
  P  P8  1  0.253920  0.533574  0.963817  1
  P  P9  1  0.749414  0.464641  0.036478  1
  P  P10  1  0.749414  0.036478  0.749467  1
  P  P11  1  0.749414  0.749467  0.464641  1
  O  O12  1  0.079384  0.129639  0.284146  1
  O  O13  1  0.079384  0.506831  0.129639  1
  O  O14  1  0.079384  0.284146  0.506831  1
  O  O15  1  0.266495  0.076530  0.720596  1
  O  O16  1  0.425705  0.220136  0.369040  1
  O  O17  1  0.231149  0.423696  0.565977  1
  O  O18  1  0.266495  0.936379  0.076530  1
  O  O19  1  0.231149  0.779178  0.423696  1
  O  O20  1  0.578226  0.630208  0.006961  1
  O  O21  1  0.231149  0.565977  0.779178  1
  O  O22  1  0.738366  0.278989  0.057942  1
  O  O23  1  0.578226  0.006961  0.784606  1
  O  O24  1  0.425705  0.985119  0.220136  1
  O  O25  1  0.266495  0.720596  0.936379  1
  O  O26  1  0.765931  0.439348  0.220997  1
  O  O27  1  0.425705  0.369040  0.985119  1
  O  O28  1  0.765931  0.220997  0.573723  1
  O  O29  1  0.738366  0.057942  0.924703  1
  O  O30  1  0.765931  0.573723  0.439348  1
  O  O31  1  0.578226  0.784606  0.630208  1
  O  O32  1  0.738366  0.924703  0.278989  1
  O  O33  1  0.921726  0.708152  0.497020  1
  O  O34  1  0.921726  0.497020  0.873102  1
  O  O35  1  0.921726  0.873102  0.708152  1
