# generated using pymatgen
data_Li4Fe2Si4O13
_symmetry_space_group_name_H-M   'P 1'
_cell_length_a   13.88048377
_cell_length_b   5.03408144
_cell_length_c   14.08061910
_cell_angle_alpha   90.00000000
_cell_angle_beta   90.00000000
_cell_angle_gamma   90.00000000
_symmetry_Int_Tables_number   1
_chemical_formula_structural   Li4Fe2Si4O13
_chemical_formula_sum   'Li16 Fe8 Si16 O52'
_cell_volume   983.89009892
_cell_formula_units_Z   4
loop_
 _symmetry_equiv_pos_site_id
 _symmetry_equiv_pos_as_xyz
  1  'x, y, z'
loop_
 _atom_site_type_symbol
 _atom_site_label
 _atom_site_symmetry_multiplicity
 _atom_site_fract_x
 _atom_site_fract_y
 _atom_site_fract_z
 _atom_site_occupancy
  Li  Li0  1  0.039371  0.181227  0.217489  1
  Li  Li1  1  0.110272  0.655511  0.921528  1
  Li  Li2  1  0.133384  0.642459  0.108886  1
  Li  Li3  1  0.212829  0.251579  0.840496  1
  Li  Li4  1  0.287171  0.751579  0.340496  1
  Li  Li5  1  0.366616  0.142459  0.608886  1
  Li  Li6  1  0.389728  0.155511  0.421528  1
  Li  Li7  1  0.460629  0.681227  0.717489  1
  Li  Li8  1  0.539371  0.318773  0.217489  1
  Li  Li9  1  0.610272  0.844489  0.921528  1
  Li  Li10  1  0.633384  0.857541  0.108886  1
  Li  Li11  1  0.712829  0.248421  0.840496  1
  Li  Li12  1  0.787171  0.748421  0.340496  1
  Li  Li13  1  0.866616  0.357541  0.608886  1
  Li  Li14  1  0.889728  0.344489  0.421528  1
  Li  Li15  1  0.960629  0.818773  0.717489  1
  Fe  Fe16  1  0.080988  0.356952  0.628704  1
  Fe  Fe17  1  0.169678  0.185384  0.419040  1
  Fe  Fe18  1  0.330322  0.685384  0.919040  1
  Fe  Fe19  1  0.419012  0.856952  0.128704  1
  Fe  Fe20  1  0.580988  0.143048  0.628704  1
  Fe  Fe21  1  0.669678  0.314616  0.419040  1
  Fe  Fe22  1  0.830322  0.814616  0.919040  1
  Fe  Fe23  1  0.919012  0.643048  0.128704  1
  Si  Si24  1  0.021072  0.148476  0.002184  1
  Si  Si25  1  0.060586  0.689208  0.316855  1
  Si  Si26  1  0.190489  0.850908  0.729005  1
  Si  Si27  1  0.225482  0.168976  0.044954  1
  Si  Si28  1  0.274518  0.668976  0.544954  1
  Si  Si29  1  0.309511  0.350908  0.229005  1
  Si  Si30  1  0.439414  0.189208  0.816855  1
  Si  Si31  1  0.478928  0.648476  0.502184  1
  Si  Si32  1  0.521072  0.351524  0.002184  1
  Si  Si33  1  0.560586  0.810792  0.316855  1
  Si  Si34  1  0.690489  0.649092  0.729005  1
  Si  Si35  1  0.725482  0.331024  0.044954  1
  Si  Si36  1  0.774518  0.831024  0.544954  1
  Si  Si37  1  0.809511  0.149092  0.229005  1
  Si  Si38  1  0.939414  0.310792  0.816855  1
  Si  Si39  1  0.978928  0.851524  0.502184  1
  O  O40  1  0.024917  0.420852  0.062743  1
  O  O41  1  0.034322  0.774126  0.206962  1
  O  O42  1  0.032385  0.222056  0.887399  1
  O  O43  1  0.065557  0.063403  0.520947  1
  O  O44  1  0.075424  0.371207  0.334054  1
  O  O45  1  0.094779  0.677441  0.707191  1
  O  O46  1  0.124949  0.983960  0.025743  1
  O  O47  1  0.154572  0.859642  0.346815  1
  O  O48  1  0.177031  0.166823  0.706688  1
  O  O49  1  0.183792  0.471778  0.524715  1
  O  O50  1  0.217791  0.248920  0.159402  1
  O  O51  1  0.216956  0.823973  0.842596  1
  O  O52  1  0.215937  0.439650  0.982462  1
  O  O53  1  0.284063  0.939650  0.482462  1
  O  O54  1  0.283044  0.323973  0.342596  1
  O  O55  1  0.282209  0.748920  0.659402  1
  O  O56  1  0.316208  0.971778  0.024715  1
  O  O57  1  0.322969  0.666823  0.206688  1
  O  O58  1  0.345428  0.359642  0.846815  1
  O  O59  1  0.375051  0.483960  0.525743  1
  O  O60  1  0.405221  0.177441  0.207191  1
  O  O61  1  0.424576  0.871207  0.834054  1
  O  O62  1  0.434443  0.563403  0.020947  1
  O  O63  1  0.467615  0.722056  0.387399  1
  O  O64  1  0.465678  0.274126  0.706962  1
  O  O65  1  0.475083  0.920852  0.562743  1
  O  O66  1  0.524917  0.079148  0.062743  1
  O  O67  1  0.534322  0.725874  0.206962  1
  O  O68  1  0.532385  0.277944  0.887399  1
  O  O69  1  0.565557  0.436597  0.520947  1
  O  O70  1  0.575424  0.128793  0.334054  1
  O  O71  1  0.594779  0.822559  0.707191  1
  O  O72  1  0.624949  0.516040  0.025743  1
  O  O73  1  0.654572  0.640358  0.346815  1
  O  O74  1  0.677031  0.333177  0.706688  1
  O  O75  1  0.683792  0.028222  0.524715  1
  O  O76  1  0.717791  0.251080  0.159402  1
  O  O77  1  0.716956  0.676027  0.842596  1
  O  O78  1  0.715937  0.060350  0.982462  1
  O  O79  1  0.784063  0.560350  0.482462  1
  O  O80  1  0.783044  0.176027  0.342596  1
  O  O81  1  0.782209  0.751080  0.659402  1
  O  O82  1  0.816208  0.528222  0.024715  1
  O  O83  1  0.822969  0.833177  0.206688  1
  O  O84  1  0.845428  0.140358  0.846815  1
  O  O85  1  0.875051  0.016040  0.525743  1
  O  O86  1  0.905221  0.322559  0.207191  1
  O  O87  1  0.924576  0.628793  0.834054  1
  O  O88  1  0.934443  0.936597  0.020947  1
  O  O89  1  0.967615  0.777944  0.387399  1
  O  O90  1  0.965678  0.225874  0.706962  1
  O  O91  1  0.975083  0.579148  0.562743  1
