# generated using pymatgen
data_LiCuPO4
_symmetry_space_group_name_H-M   'P 1'
_cell_length_a   9.95316242
_cell_length_b   9.95316239
_cell_length_c   22.81292316
_cell_angle_alpha   90.00000000
_cell_angle_beta   90.00000000
_cell_angle_gamma   120.00000233
_symmetry_Int_Tables_number   1
_chemical_formula_structural   LiCuPO4
_chemical_formula_sum   'Li24 Cu24 P24 O96'
_cell_volume   1957.19338885
_cell_formula_units_Z   24
loop_
 _symmetry_equiv_pos_site_id
 _symmetry_equiv_pos_as_xyz
  1  'x, y, z'
loop_
 _atom_site_type_symbol
 _atom_site_label
 _atom_site_symmetry_multiplicity
 _atom_site_fract_x
 _atom_site_fract_y
 _atom_site_fract_z
 _atom_site_occupancy
  Li  Li0  1  0.024110  0.940722  0.418012  1
  Li  Li1  1  0.062425  0.553873  0.917012  1
  Li  Li2  1  0.060978  0.510239  0.253395  1
  Li  Li3  1  0.019381  0.484287  0.587822  1
  Li  Li4  1  0.464906  0.980619  0.921156  1
  Li  Li5  1  0.449261  0.939022  0.586728  1
  Li  Li6  1  0.059278  0.083388  0.084679  1
  Li  Li7  1  0.491448  0.937575  0.250345  1
  Li  Li8  1  0.083388  0.024110  0.251345  1
  Li  Li9  1  0.446127  0.508552  0.583678  1
  Li  Li10  1  0.489761  0.550739  0.920062  1
  Li  Li11  1  0.515713  0.535094  0.254489  1
  Li  Li12  1  0.484287  0.464906  0.754489  1
  Li  Li13  1  0.510239  0.449261  0.420062  1
  Li  Li14  1  0.553873  0.491448  0.083678  1
  Li  Li15  1  0.916612  0.975890  0.751345  1
  Li  Li16  1  0.508552  0.062425  0.750345  1
  Li  Li17  1  0.940722  0.916612  0.584679  1
  Li  Li18  1  0.550739  0.060978  0.086728  1
  Li  Li19  1  0.535094  0.019381  0.421156  1
  Li  Li20  1  0.980619  0.515713  0.087822  1
  Li  Li21  1  0.939022  0.489761  0.753395  1
  Li  Li22  1  0.937575  0.446127  0.417012  1
  Li  Li23  1  0.975890  0.059278  0.918012  1
  Cu  Cu24  1  0.144557  0.832310  0.684013  1
  Cu  Cu25  1  0.192970  0.891854  0.009714  1
  Cu  Cu26  1  0.181194  0.783570  0.378880  1
  Cu  Cu27  1  0.108146  0.301115  0.676381  1
  Cu  Cu28  1  0.327694  0.675349  0.815341  1
  Cu  Cu29  1  0.324651  0.652345  0.482007  1
  Cu  Cu30  1  0.347655  0.672306  0.148674  1
  Cu  Cu31  1  0.167690  0.312247  0.350679  1
  Cu  Cu32  1  0.216430  0.397623  0.045546  1
  Cu  Cu33  1  0.602377  0.818806  0.712213  1
  Cu  Cu34  1  0.301115  0.192970  0.843048  1
  Cu  Cu35  1  0.312247  0.144557  0.517346  1
  Cu  Cu36  1  0.687753  0.855443  0.017346  1
  Cu  Cu37  1  0.698885  0.807030  0.343048  1
  Cu  Cu38  1  0.397623  0.181194  0.212213  1
  Cu  Cu39  1  0.783570  0.602377  0.545546  1
  Cu  Cu40  1  0.832310  0.687753  0.850679  1
  Cu  Cu41  1  0.652345  0.327694  0.648674  1
  Cu  Cu42  1  0.675349  0.347655  0.982007  1
  Cu  Cu43  1  0.672306  0.324651  0.315341  1
  Cu  Cu44  1  0.891854  0.698885  0.176381  1
  Cu  Cu45  1  0.818806  0.216430  0.878880  1
  Cu  Cu46  1  0.807030  0.108146  0.509714  1
  Cu  Cu47  1  0.855443  0.167690  0.184013  1
  P  P48  1  0.176855  0.853198  0.814764  1
  P  P49  1  0.127888  0.778935  0.507981  1
  P  P50  1  0.225960  0.887738  0.145658  1
  P  P51  1  0.112262  0.338222  0.812325  1
  P  P52  1  0.328198  0.688472  0.008162  1
  P  P53  1  0.146802  0.323658  0.481431  1
  P  P54  1  0.311528  0.639726  0.674829  1
  P  P55  1  0.360274  0.671802  0.341496  1
  P  P56  1  0.221065  0.348953  0.174647  1
  P  P57  1  0.651047  0.872112  0.841314  1
  P  P58  1  0.338222  0.225960  0.978992  1
  P  P59  1  0.323658  0.176855  0.648097  1
  P  P60  1  0.676342  0.823145  0.148097  1
  P  P61  1  0.661778  0.774040  0.478992  1
  P  P62  1  0.348953  0.127888  0.341314  1
  P  P63  1  0.778935  0.651047  0.674647  1
  P  P64  1  0.639726  0.328198  0.841496  1
  P  P65  1  0.688472  0.360274  0.174829  1
  P  P66  1  0.853198  0.676342  0.981431  1
  P  P67  1  0.671802  0.311528  0.508162  1
  P  P68  1  0.887738  0.661778  0.312325  1
  P  P69  1  0.774040  0.112262  0.645658  1
  P  P70  1  0.872112  0.221065  0.007981  1
  P  P71  1  0.823145  0.146802  0.314764  1
  O  O72  1  0.014660  0.713400  0.800702  1
  O  O73  1  0.152132  0.977058  0.846211  1
  O  O74  1  0.017143  0.688023  0.559044  1
  O  O75  1  0.131008  0.935591  0.495825  1
  O  O76  1  0.197255  0.996680  0.186284  1
  O  O77  1  0.075701  0.729673  0.134777  1
  O  O78  1  0.067392  0.672914  0.452591  1
  O  O79  1  0.268478  0.912719  0.755743  1
  O  O80  1  0.287620  0.970166  0.086188  1
  O  O81  1  0.154341  0.634015  0.681608  1
  O  O82  1  0.208660  0.714382  0.974380  1
  O  O83  1  0.277994  0.815781  0.856627  1
  O  O84  1  0.211383  0.651728  0.312851  1
  O  O85  1  0.293527  0.813584  0.523616  1
  O  O86  1  0.029834  0.317454  0.752854  1
  O  O87  1  0.353881  0.863148  0.174377  1
  O  O88  1  0.136852  0.490733  0.841043  1
  O  O89  1  0.003320  0.200574  0.852951  1
  O  O90  1  0.087281  0.355759  0.422410  1
  O  O91  1  0.022942  0.175073  0.512878  1
  O  O92  1  0.250180  0.612226  0.069660  1
  O  O93  1  0.064409  0.195416  0.162492  1
  O  O94  1  0.184219  0.462213  0.523294  1
  O  O95  1  0.186416  0.479943  0.190283  1
  O  O96  1  0.362046  0.749820  0.402993  1
  O  O97  1  0.285618  0.494277  0.641047  1
  O  O98  1  0.387774  0.637954  0.736326  1
  O  O99  1  0.348272  0.559654  0.979517  1
  O  O100  1  0.440346  0.788617  0.646184  1
  O  O101  1  0.479674  0.845659  0.014942  1
  O  O102  1  0.365985  0.520326  0.348276  1
  O  O103  1  0.175073  0.152132  0.679545  1
  O  O104  1  0.200574  0.197255  0.019618  1
  O  O105  1  0.270327  0.346028  0.801444  1
  O  O106  1  0.327086  0.394479  0.119258  1
  O  O107  1  0.505723  0.791340  0.307713  1
  O  O108  1  0.195416  0.131008  0.329158  1
  O  O109  1  0.286600  0.301259  0.467368  1
  O  O110  1  0.311977  0.329121  0.225711  1
  O  O111  1  0.520057  0.706473  0.856949  1
  O  O112  1  0.605521  0.932608  0.785924  1
  O  O113  1  0.537787  0.722006  0.189961  1
  O  O114  1  0.317454  0.287620  0.919521  1
  O  O115  1  0.670879  0.982857  0.892378  1
  O  O116  1  0.509267  0.646119  0.507710  1
  O  O117  1  0.355759  0.268478  0.589076  1
  O  O118  1  0.653972  0.924299  0.468111  1
  O  O119  1  0.698741  0.985340  0.134035  1
  O  O120  1  0.301259  0.014660  0.634035  1
  O  O121  1  0.346028  0.075701  0.968111  1
  O  O122  1  0.644241  0.731522  0.089076  1
  O  O123  1  0.490733  0.353881  0.007710  1
  O  O124  1  0.329121  0.017143  0.392378  1
  O  O125  1  0.682546  0.712380  0.419521  1
  O  O126  1  0.462213  0.277994  0.689961  1
  O  O127  1  0.394479  0.067392  0.285924  1
  O  O128  1  0.479943  0.293527  0.356949  1
  O  O129  1  0.688023  0.670879  0.725711  1
  O  O130  1  0.713400  0.698741  0.967368  1
  O  O131  1  0.804584  0.868992  0.829158  1
  O  O132  1  0.494277  0.208660  0.807713  1
  O  O133  1  0.672914  0.605521  0.619258  1
  O  O134  1  0.729673  0.653972  0.301444  1
  O  O135  1  0.799426  0.802745  0.519618  1
  O  O136  1  0.824927  0.847868  0.179545  1
  O  O137  1  0.634015  0.479674  0.848275  1
  O  O138  1  0.520326  0.154341  0.514942  1
  O  O139  1  0.559654  0.211383  0.146184  1
  O  O140  1  0.651728  0.440346  0.479517  1
  O  O141  1  0.612226  0.362046  0.236326  1
  O  O142  1  0.714382  0.505723  0.141047  1
  O  O143  1  0.637954  0.250180  0.902993  1
  O  O144  1  0.813584  0.520057  0.690283  1
  O  O145  1  0.815781  0.537787  0.023294  1
  O  O146  1  0.935591  0.804584  0.662492  1
  O  O147  1  0.749820  0.387774  0.569660  1
  O  O148  1  0.977058  0.824927  0.012878  1
  O  O149  1  0.912719  0.644241  0.922410  1
  O  O150  1  0.996680  0.799426  0.352951  1
  O  O151  1  0.863148  0.509267  0.341043  1
  O  O152  1  0.646119  0.136852  0.674377  1
  O  O153  1  0.970166  0.682546  0.252854  1
  O  O154  1  0.706473  0.186416  0.023616  1
  O  O155  1  0.788617  0.348272  0.812851  1
  O  O156  1  0.722006  0.184219  0.356627  1
  O  O157  1  0.791340  0.285618  0.474380  1
  O  O158  1  0.845659  0.365985  0.181609  1
  O  O159  1  0.712380  0.029834  0.586188  1
  O  O160  1  0.731522  0.087281  0.255743  1
  O  O161  1  0.932608  0.327086  0.952591  1
  O  O162  1  0.924299  0.270327  0.634777  1
  O  O163  1  0.802745  0.003320  0.686284  1
  O  O164  1  0.868992  0.064409  0.995825  1
  O  O165  1  0.982857  0.311977  0.059044  1
  O  O166  1  0.847868  0.022942  0.346211  1
  O  O167  1  0.985340  0.286600  0.300702  1
