# generated using pymatgen
data_Li2Mn2OF4
_symmetry_space_group_name_H-M   'P 1'
_cell_length_a   13.72188981
_cell_length_b   4.02027621
_cell_length_c   8.49156200
_cell_angle_alpha   89.98220157
_cell_angle_beta   98.39182608
_cell_angle_gamma   89.95570230
_symmetry_Int_Tables_number   1
_chemical_formula_structural   Li2Mn2OF4
_chemical_formula_sum   'Li8 Mn8 O4 F16'
_cell_volume   463.42797042
_cell_formula_units_Z   4
loop_
 _symmetry_equiv_pos_site_id
 _symmetry_equiv_pos_as_xyz
  1  'x, y, z'
loop_
 _atom_site_type_symbol
 _atom_site_label
 _atom_site_symmetry_multiplicity
 _atom_site_fract_x
 _atom_site_fract_y
 _atom_site_fract_z
 _atom_site_occupancy
  Li  Li0  1  0.010652  0.736955  0.789365  1
  Li  Li1  1  0.057390  0.244186  0.594288  1
  Li  Li2  1  0.445069  0.746572  0.411883  1
  Li  Li3  1  0.498647  0.766156  0.784879  1
  Li  Li4  1  0.488050  0.240598  0.206309  1
  Li  Li5  1  0.566684  0.254784  0.585417  1
  Li  Li6  1  0.952498  0.752455  0.415601  1
  Li  Li7  1  0.980558  0.258902  0.214955  1
  Mn  Mn8  1  0.239926  0.745428  0.605216  1
  Mn  Mn9  1  0.335492  0.737970  0.037231  1
  Mn  Mn10  1  0.157238  0.235140  0.994344  1
  Mn  Mn11  1  0.281420  0.245555  0.331903  1
  Mn  Mn12  1  0.730805  0.754280  0.632128  1
  Mn  Mn13  1  0.841476  0.763672  0.034334  1
  Mn  Mn14  1  0.665824  0.265087  0.979626  1
  Mn  Mn15  1  0.765544  0.254572  0.351939  1
  O  O16  1  0.308493  0.238520  0.085925  1
  O  O17  1  0.295818  0.745583  0.396055  1
  O  O18  1  0.811105  0.262815  0.097337  1
  O  O19  1  0.712671  0.254368  0.575696  1
  F  F20  1  0.032984  0.238929  0.817690  1
  F  F21  1  0.063546  0.745217  0.587104  1
  F  F22  1  0.201908  0.245559  0.611905  1
  F  F23  1  0.121226  0.251482  0.219706  1
  F  F24  1  0.359655  0.752623  0.795827  1
  F  F25  1  0.163832  0.735836  0.919505  1
  F  F26  1  0.453143  0.247519  0.414003  1
  F  F27  1  0.533495  0.260356  0.824806  1
  F  F28  1  0.472923  0.742579  0.180553  1
  F  F29  1  0.553396  0.753925  0.592505  1
  F  F30  1  0.624502  0.245936  0.203290  1
  F  F31  1  0.870823  0.748061  0.799916  1
  F  F32  1  0.806731  0.754361  0.393085  1
  F  F33  1  0.678380  0.764482  0.898256  1
  F  F34  1  0.945703  0.252116  0.425743  1
  F  F35  1  0.972390  0.757423  0.191675  1
