# generated using pymatgen
data_LiCr(PO3)4
_symmetry_space_group_name_H-M   'P 1'
_cell_length_a   7.59279234
_cell_length_b   9.03859567
_cell_length_c   13.91538430
_cell_angle_alpha   90.00000000
_cell_angle_beta   98.64837523
_cell_angle_gamma   90.00000000
_symmetry_Int_Tables_number   1
_chemical_formula_structural   LiCr(PO3)4
_chemical_formula_sum   'Li4 Cr4 P16 O48'
_cell_volume   944.12907555
_cell_formula_units_Z   4
loop_
 _symmetry_equiv_pos_site_id
 _symmetry_equiv_pos_as_xyz
  1  'x, y, z'
loop_
 _atom_site_type_symbol
 _atom_site_label
 _atom_site_symmetry_multiplicity
 _atom_site_fract_x
 _atom_site_fract_y
 _atom_site_fract_z
 _atom_site_occupancy
  Li  Li0  1  0.020694  0.578949  0.924559  1
  Li  Li1  1  0.479306  0.078949  0.575441  1
  Li  Li2  1  0.520694  0.921051  0.424559  1
  Li  Li3  1  0.979306  0.421051  0.075441  1
  Cr  Cr4  1  0.006319  0.635208  0.351280  1
  Cr  Cr5  1  0.506319  0.864792  0.851280  1
  Cr  Cr6  1  0.493681  0.135208  0.148720  1
  Cr  Cr7  1  0.993681  0.364792  0.648720  1
  P  P8  1  0.073320  0.293161  0.428758  1
  P  P9  1  0.121844  0.052014  0.774169  1
  P  P10  1  0.205080  0.239819  0.956072  1
  P  P11  1  0.235183  0.065778  0.305921  1
  P  P12  1  0.294920  0.739819  0.543928  1
  P  P13  1  0.378156  0.552014  0.725831  1
  P  P14  1  0.264817  0.565778  0.194079  1
  P  P15  1  0.573320  0.206839  0.928758  1
  P  P16  1  0.426680  0.793161  0.071242  1
  P  P17  1  0.735183  0.434222  0.805921  1
  P  P18  1  0.621844  0.447986  0.274169  1
  P  P19  1  0.705080  0.260181  0.456072  1
  P  P20  1  0.764817  0.934222  0.694079  1
  P  P21  1  0.794920  0.760181  0.043928  1
  P  P22  1  0.878156  0.947986  0.225831  1
  P  P23  1  0.926680  0.706839  0.571242  1
  O  O24  1  0.086635  0.371865  0.956480  1
  O  O25  1  0.106997  0.119397  0.880323  1
  O  O26  1  0.045723  0.058565  0.235939  1
  O  O27  1  0.126773  0.325112  0.535514  1
  O  O28  1  0.099018  0.165195  0.694252  1
  O  O29  1  0.121337  0.784879  0.591935  1
  O  O30  1  0.082131  0.421011  0.361081  1
  O  O31  1  0.215524  0.457198  0.723357  1
  O  O32  1  0.190234  0.159475  0.400353  1
  O  O33  1  0.146291  0.662656  0.244519  1
  O  O34  1  0.284476  0.957198  0.776643  1
  O  O35  1  0.301573  0.919981  0.342689  1
  O  O36  1  0.234226  0.663238  0.448707  1
  O  O37  1  0.378663  0.284879  0.908065  1
  O  O38  1  0.400982  0.665195  0.805748  1
  O  O39  1  0.373227  0.825112  0.964486  1
  O  O40  1  0.265774  0.163238  0.051293  1
  O  O41  1  0.198427  0.419981  0.157311  1
  O  O42  1  0.393003  0.619397  0.619677  1
  O  O43  1  0.353709  0.162656  0.255481  1
  O  O44  1  0.413365  0.871865  0.543520  1
  O  O45  1  0.309766  0.659475  0.099647  1
  O  O46  1  0.545723  0.441435  0.735939  1
  O  O47  1  0.417869  0.921011  0.138919  1
  O  O48  1  0.582131  0.078989  0.861081  1
  O  O49  1  0.454277  0.558565  0.264061  1
  O  O50  1  0.690234  0.340525  0.900353  1
  O  O51  1  0.586635  0.128135  0.456480  1
  O  O52  1  0.646291  0.837344  0.744519  1
  O  O53  1  0.606997  0.380603  0.380323  1
  O  O54  1  0.801573  0.580019  0.842689  1
  O  O55  1  0.734226  0.836762  0.948707  1
  O  O56  1  0.626773  0.174888  0.035514  1
  O  O57  1  0.599018  0.334805  0.194252  1
  O  O58  1  0.621337  0.715121  0.091935  1
  O  O59  1  0.765774  0.336762  0.551293  1
  O  O60  1  0.698427  0.080019  0.657311  1
  O  O61  1  0.715524  0.042802  0.223357  1
  O  O62  1  0.853709  0.337344  0.755481  1
  O  O63  1  0.809766  0.840525  0.599647  1
  O  O64  1  0.784476  0.542802  0.276643  1
  O  O65  1  0.917869  0.578989  0.638919  1
  O  O66  1  0.878663  0.215121  0.408065  1
  O  O67  1  0.900982  0.834805  0.305748  1
  O  O68  1  0.873227  0.674888  0.464486  1
  O  O69  1  0.954277  0.941435  0.764061  1
  O  O70  1  0.893003  0.880603  0.119677  1
  O  O71  1  0.913365  0.628135  0.043520  1
