# generated using pymatgen
data_Li32Mn3Cr13O48
_symmetry_space_group_name_H-M   'P 1'
_cell_length_a   5.01578913
_cell_length_b   8.71760180
_cell_length_c   19.45281311
_cell_angle_alpha   98.06877347
_cell_angle_beta   94.62709267
_cell_angle_gamma   89.57459974
_symmetry_Int_Tables_number   1
_chemical_formula_structural   Li32Mn3Cr13O48
_chemical_formula_sum   'Li32 Mn3 Cr13 O48'
_cell_volume   839.41508958
_cell_formula_units_Z   1
loop_
 _symmetry_equiv_pos_site_id
 _symmetry_equiv_pos_as_xyz
  1  'x, y, z'
loop_
 _atom_site_type_symbol
 _atom_site_label
 _atom_site_symmetry_multiplicity
 _atom_site_fract_x
 _atom_site_fract_y
 _atom_site_fract_z
 _atom_site_occupancy
  Li  Li0  1  0.989502  0.167827  0.249646  1
  Li  Li1  1  0.873676  0.374089  0.374990  1
  Li  Li2  1  0.748260  0.249690  0.999374  1
  Li  Li3  1  0.739527  0.918948  0.000108  1
  Li  Li4  1  0.996334  0.168822  0.749663  1
  Li  Li5  1  0.755866  0.580116  0.499747  1
  Li  Li6  1  0.874501  0.376209  0.874942  1
  Li  Li7  1  0.754486  0.249651  0.499967  1
  Li  Li8  1  0.739118  0.919786  0.500374  1
  Li  Li9  1  0.623376  0.123049  0.124985  1
  Li  Li10  1  0.758456  0.581253  0.000011  1
  Li  Li11  1  0.508349  0.330525  0.250616  1
  Li  Li12  1  0.623087  0.123271  0.625140  1
  Li  Li13  1  0.499242  0.000510  0.249942  1
  Li  Li14  1  0.490702  0.669302  0.250283  1
  Li  Li15  1  0.504173  0.330708  0.749843  1
  Li  Li16  1  0.374777  0.875132  0.375002  1
  Li  Li17  1  0.500578  0.000081  0.750126  1
  Li  Li18  1  0.250960  0.750306  0.000242  1
  Li  Li19  1  0.489499  0.668347  0.750007  1
  Li  Li20  1  0.244156  0.420797  0.999911  1
  Li  Li21  1  0.374748  0.874760  0.874911  1
  Li  Li22  1  0.259542  0.079747  0.500006  1
  Li  Li23  1  0.249448  0.751077  0.500149  1
  Li  Li24  1  0.125612  0.626389  0.124800  1
  Li  Li25  1  0.243645  0.420299  0.500215  1
  Li  Li26  1  0.011034  0.832255  0.250325  1
  Li  Li27  1  0.258283  0.078213  0.999443  1
  Li  Li28  1  0.124326  0.624866  0.624663  1
  Li  Li29  1  0.002599  0.500677  0.250666  1
  Li  Li30  1  0.010018  0.830665  0.750078  1
  Li  Li31  1  0.999570  0.501264  0.749699  1
  Mn  Mn32  1  0.374923  0.541902  0.374843  1
  Mn  Mn33  1  0.376241  0.208085  0.875627  1
  Mn  Mn34  1  0.128131  0.292655  0.625734  1
  Cr  Cr35  1  0.867404  0.705752  0.374468  1
  Cr  Cr36  1  0.880949  0.037962  0.375310  1
  Cr  Cr37  1  0.868669  0.712108  0.874252  1
  Cr  Cr38  1  0.882263  0.044914  0.875508  1
  Cr  Cr39  1  0.626939  0.786814  0.124598  1
  Cr  Cr40  1  0.625280  0.451895  0.124628  1
  Cr  Cr41  1  0.624833  0.786789  0.624352  1
  Cr  Cr42  1  0.624772  0.453569  0.624918  1
  Cr  Cr43  1  0.372065  0.212454  0.375277  1
  Cr  Cr44  1  0.374550  0.537348  0.874778  1
  Cr  Cr45  1  0.118322  0.962059  0.124813  1
  Cr  Cr46  1  0.129683  0.297689  0.126244  1
  Cr  Cr47  1  0.119536  0.961995  0.625001  1
  O  O48  1  0.968050  0.107251  0.069649  1
  O  O49  1  0.918821  0.784733  0.068318  1
  O  O50  1  0.936265  0.422734  0.067272  1
  O  O51  1  0.966176  0.107845  0.569449  1
  O  O52  1  0.829128  0.964346  0.181159  1
  O  O53  1  0.815892  0.326042  0.183218  1
  O  O54  1  0.919526  0.785762  0.568350  1
  O  O55  1  0.932602  0.426871  0.567765  1
  O  O56  1  0.782885  0.641420  0.180321  1
  O  O57  1  0.718555  0.852033  0.318578  1
  O  O58  1  0.829925  0.963910  0.681262  1
  O  O59  1  0.823858  0.322728  0.682067  1
  O  O60  1  0.675765  0.533600  0.318641  1
  O  O61  1  0.672929  0.176613  0.317758  1
  O  O62  1  0.780497  0.640628  0.680777  1
  O  O63  1  0.717460  0.856613  0.818869  1
  O  O64  1  0.464644  0.603300  0.069180  1
  O  O65  1  0.568323  0.713910  0.430389  1
  O  O66  1  0.576026  0.074008  0.432213  1
  O  O67  1  0.669397  0.534976  0.818468  1
  O  O68  1  0.676974  0.176193  0.818400  1
  O  O69  1  0.424195  0.927675  0.067446  1
  O  O70  1  0.438770  0.288681  0.068753  1
  O  O71  1  0.538836  0.396812  0.431194  1
  O  O72  1  0.466409  0.605043  0.568784  1
  O  O73  1  0.578434  0.712891  0.931037  1
  O  O74  1  0.567948  0.072258  0.932349  1
  O  O75  1  0.325721  0.824326  0.181950  1
  O  O76  1  0.312959  0.462785  0.181710  1
  O  O77  1  0.423170  0.928439  0.567359  1
  O  O78  1  0.429172  0.287233  0.569385  1
  O  O79  1  0.537897  0.390603  0.931147  1
  O  O80  1  0.285667  0.147540  0.181147  1
  O  O81  1  0.213912  0.358136  0.319302  1
  O  O82  1  0.326689  0.825078  0.681877  1
  O  O83  1  0.315709  0.464453  0.681145  1
  O  O84  1  0.181383  0.677793  0.317756  1
  O  O85  1  0.169763  0.035908  0.318575  1
  O  O86  1  0.290282  0.146716  0.681402  1
  O  O87  1  0.212583  0.354943  0.819468  1
  O  O88  1  0.073143  0.574061  0.431606  1
  O  O89  1  0.081386  0.214919  0.431475  1
  O  O90  1  0.172239  0.677127  0.817495  1
  O  O91  1  0.182512  0.036545  0.819342  1
  O  O92  1  0.032178  0.894520  0.431134  1
  O  O93  1  0.078653  0.574141  0.932247  1
  O  O94  1  0.073778  0.215663  0.931327  1
  O  O95  1  0.030903  0.897574  0.931259  1
