# generated using pymatgen
data_Mn6OF11
_symmetry_space_group_name_H-M   'P 1'
_cell_length_a   4.96780700
_cell_length_b   5.88859024
_cell_length_c   16.17940566
_cell_angle_alpha   90.33190495
_cell_angle_beta   89.81596436
_cell_angle_gamma   90.14044675
_symmetry_Int_Tables_number   1
_chemical_formula_structural   Mn6OF11
_chemical_formula_sum   'Mn12 O2 F22'
_cell_volume   473.29051609
_cell_formula_units_Z   2
loop_
 _symmetry_equiv_pos_site_id
 _symmetry_equiv_pos_as_xyz
  1  'x, y, z'
loop_
 _atom_site_type_symbol
 _atom_site_label
 _atom_site_symmetry_multiplicity
 _atom_site_fract_x
 _atom_site_fract_y
 _atom_site_fract_z
 _atom_site_occupancy
  Mn  Mn0  1  0.017519  0.163812  0.409069  1
  Mn  Mn1  1  0.023915  0.854638  0.246822  1
  Mn  Mn2  1  0.004355  0.150605  0.088136  1
  Mn  Mn3  1  0.000462  0.172489  0.750761  1
  Mn  Mn4  1  0.001254  0.831295  0.581895  1
  Mn  Mn5  1  0.000179  0.827116  0.918395  1
  Mn  Mn6  1  0.503341  0.327608  0.580281  1
  Mn  Mn7  1  0.506548  0.332555  0.921762  1
  Mn  Mn8  1  0.477429  0.316875  0.253149  1
  Mn  Mn9  1  0.485033  0.684386  0.092962  1
  Mn  Mn10  1  0.503508  0.669474  0.413302  1
  Mn  Mn11  1  0.499285  0.668937  0.749914  1
  O  O12  1  0.216030  0.092508  0.301263  1
  O  O13  1  0.202847  0.902561  0.141523  1
  F  F14  1  0.232296  0.104675  0.640086  1
  F  F15  1  0.221050  0.109518  0.977190  1
  F  F16  1  0.237237  0.894708  0.472911  1
  F  F17  1  0.228461  0.895635  0.808142  1
  F  F18  1  0.271514  0.396802  0.139218  1
  F  F19  1  0.265577  0.597906  0.305682  1
  F  F20  1  0.268216  0.394685  0.471893  1
  F  F21  1  0.268702  0.603144  0.640026  1
  F  F22  1  0.272583  0.395206  0.810114  1
  F  F23  1  0.280795  0.610212  0.976910  1
  F  F24  1  0.745500  0.385595  0.034177  1
  F  F25  1  0.742333  0.628799  0.199961  1
  F  F26  1  0.722195  0.382379  0.360182  1
  F  F27  1  0.726350  0.609231  0.524540  1
  F  F28  1  0.733142  0.601373  0.859901  1
  F  F29  1  0.730639  0.394659  0.691220  1
  F  F30  1  0.751638  0.122588  0.188387  1
  F  F31  1  0.780320  0.107972  0.519289  1
  F  F32  1  0.787260  0.875920  0.351186  1
  F  F33  1  0.755704  0.893189  0.026709  1
  F  F34  1  0.767820  0.103614  0.861075  1
  F  F35  1  0.768959  0.897331  0.691967  1
