# generated using pymatgen
data_Ca2Mn7Si10H12O35
_symmetry_space_group_name_H-M   'P 1'
_cell_length_a   8.97644688
_cell_length_b   9.03434059
_cell_length_c   18.83712472
_cell_angle_alpha   86.25001695
_cell_angle_beta   83.38641172
_cell_angle_gamma   84.58592922
_symmetry_Int_Tables_number   1
_chemical_formula_structural   Ca2Mn7Si10H12O35
_chemical_formula_sum   'Ca4 Mn14 Si20 H24 O70'
_cell_volume   1508.38657236
_cell_formula_units_Z   2
loop_
 _symmetry_equiv_pos_site_id
 _symmetry_equiv_pos_as_xyz
  1  'x, y, z'
loop_
 _atom_site_type_symbol
 _atom_site_label
 _atom_site_symmetry_multiplicity
 _atom_site_fract_x
 _atom_site_fract_y
 _atom_site_fract_z
 _atom_site_occupancy
  Ca  Ca0  1  0.288458  0.100229  0.369234  1
  Ca  Ca1  1  0.288786  0.100786  0.870046  1
  Ca  Ca2  1  0.711542  0.899771  0.130766  1
  Ca  Ca3  1  0.711214  0.899214  0.629954  1
  Mn  Mn4  1  0.000454  0.001580  0.000405  1
  Mn  Mn5  1  0.030481  0.664178  0.075337  1
  Mn  Mn6  1  0.999546  0.998420  0.499595  1
  Mn  Mn7  1  0.032453  0.663481  0.574747  1
  Mn  Mn8  1  0.352356  0.439975  0.052615  1
  Mn  Mn9  1  0.325981  0.775041  0.460462  1
  Mn  Mn10  1  0.351930  0.439522  0.552291  1
  Mn  Mn11  1  0.326640  0.775815  0.961573  1
  Mn  Mn12  1  0.674019  0.224959  0.039538  1
  Mn  Mn13  1  0.647644  0.560025  0.447385  1
  Mn  Mn14  1  0.673360  0.224185  0.538427  1
  Mn  Mn15  1  0.648070  0.560478  0.947709  1
  Mn  Mn16  1  0.969519  0.335822  0.424663  1
  Mn  Mn17  1  0.967547  0.336519  0.925253  1
  Si  Si18  1  0.036214  0.282810  0.095577  1
  Si  Si19  1  0.037043  0.279510  0.592955  1
  Si  Si20  1  0.322251  0.080830  0.057168  1
  Si  Si21  1  0.245861  0.734227  0.301009  1
  Si  Si22  1  0.321978  0.079490  0.557107  1
  Si  Si23  1  0.359342  0.772988  0.136518  1
  Si  Si24  1  0.343446  0.444236  0.377122  1
  Si  Si25  1  0.247703  0.734371  0.801504  1
  Si  Si26  1  0.359232  0.773073  0.636438  1
  Si  Si27  1  0.345590  0.444138  0.878159  1
  Si  Si28  1  0.656554  0.555764  0.122878  1
  Si  Si29  1  0.640658  0.227012  0.363482  1
  Si  Si30  1  0.754139  0.265773  0.198991  1
  Si  Si31  1  0.654410  0.555862  0.621841  1
  Si  Si32  1  0.640768  0.226927  0.863562  1
  Si  Si33  1  0.677749  0.919170  0.442832  1
  Si  Si34  1  0.752297  0.265629  0.698496  1
  Si  Si35  1  0.678022  0.920510  0.942893  1
  Si  Si36  1  0.963786  0.717190  0.404423  1
  Si  Si37  1  0.962957  0.720490  0.907045  1
  H  H38  1  0.034277  0.933415  0.138594  1
  H  H39  1  0.017740  0.651464  0.728669  1
  H  H40  1  0.024646  0.490922  0.807238  1
  H  H41  1  0.034421  0.937509  0.637477  1
  H  H42  1  0.229103  0.456390  0.190714  1
  H  H43  1  0.312399  0.044349  0.213982  1
  H  H44  1  0.321511  0.217011  0.214969  1
  H  H45  1  0.229862  0.468068  0.687781  1
  H  H46  1  0.312955  0.045546  0.714027  1
  H  H47  1  0.398308  0.454551  0.203226  1
  H  H48  1  0.323399  0.218515  0.714833  1
  H  H49  1  0.400140  0.451703  0.701752  1
  H  H50  1  0.601692  0.545449  0.296774  1
  H  H51  1  0.678489  0.782989  0.285031  1
  H  H52  1  0.599860  0.548297  0.798248  1
  H  H53  1  0.687601  0.955651  0.286018  1
  H  H54  1  0.770897  0.543610  0.309286  1
  H  H55  1  0.676601  0.781485  0.785167  1
  H  H56  1  0.687045  0.954454  0.785973  1
  H  H57  1  0.770138  0.531932  0.812219  1
  H  H58  1  0.965723  0.066585  0.361406  1
  H  H59  1  0.965579  0.062491  0.862523  1
  H  H60  1  0.975354  0.509078  0.692762  1
  H  H61  1  0.982260  0.348536  0.771331  1
  O  O62  1  0.024450  0.108867  0.394281  1
  O  O63  1  0.113490  0.438490  0.076283  1
  O  O64  1  0.171099  0.147638  0.108040  1
  O  O65  1  0.067063  0.712137  0.326079  1
  O  O66  1  0.026380  0.105612  0.894201  1
  O  O67  1  0.061207  0.762774  0.467211  1
  O  O68  1  0.052237  0.580010  0.691779  1
  O  O69  1  0.114698  0.432011  0.568937  1
  O  O70  1  0.169306  0.144054  0.608453  1
  O  O71  1  0.197358  0.353638  0.394937  1
  O  O72  1  0.066494  0.706912  0.826807  1
  O  O73  1  0.065057  0.766385  0.967449  1
  O  O74  1  0.280849  0.691966  0.077888  1
  O  O75  1  0.263524  0.006191  0.489476  1
  O  O76  1  0.256780  0.785989  0.214587  1
  O  O77  1  0.319655  0.124467  0.245557  1
  O  O78  1  0.329081  0.408310  0.176258  1
  O  O79  1  0.200024  0.353627  0.897463  1
  O  O80  1  0.337529  0.564876  0.306382  1
  O  O81  1  0.434469  0.211224  0.036808  1
  O  O82  1  0.310640  0.846443  0.350249  1
  O  O83  1  0.283646  0.693580  0.576567  1
  O  O84  1  0.264335  0.006452  0.989655  1
  O  O85  1  0.257634  0.788374  0.715368  1
  O  O86  1  0.317067  0.126319  0.745724  1
  O  O87  1  0.401724  0.944656  0.109712  1
  O  O88  1  0.327165  0.408240  0.675958  1
  O  O89  1  0.396852  0.530424  0.442760  1
  O  O90  1  0.336699  0.564867  0.807317  1
  O  O91  1  0.433818  0.210102  0.537102  1
  O  O92  1  0.477102  0.313577  0.347998  1
  O  O93  1  0.308857  0.847077  0.851084  1
  O  O94  1  0.522898  0.686423  0.152002  1
  O  O95  1  0.402591  0.944664  0.610029  1
  O  O96  1  0.603148  0.469576  0.057240  1
  O  O97  1  0.398494  0.531550  0.943377  1
  O  O98  1  0.598276  0.055344  0.390288  1
  O  O99  1  0.478524  0.315046  0.847049  1
  O  O100  1  0.689360  0.153557  0.149751  1
  O  O101  1  0.521476  0.684954  0.652951  1
  O  O102  1  0.565531  0.788776  0.463192  1
  O  O103  1  0.662471  0.435124  0.193618  1
  O  O104  1  0.601506  0.468450  0.556623  1
  O  O105  1  0.670919  0.591690  0.323742  1
  O  O106  1  0.597409  0.055336  0.889971  1
  O  O107  1  0.680345  0.875533  0.254443  1
  O  O108  1  0.743220  0.214011  0.285413  1
  O  O109  1  0.736476  0.993809  0.010524  1
  O  O110  1  0.719151  0.308034  0.422112  1
  O  O111  1  0.691143  0.152923  0.648916  1
  O  O112  1  0.566182  0.789898  0.962898  1
  O  O113  1  0.663301  0.435133  0.692683  1
  O  O114  1  0.802642  0.646362  0.105063  1
  O  O115  1  0.672835  0.591760  0.824042  1
  O  O116  1  0.682933  0.873681  0.754276  1
  O  O117  1  0.742366  0.211626  0.784632  1
  O  O118  1  0.735665  0.993548  0.510345  1
  O  O119  1  0.716354  0.306420  0.923433  1
  O  O120  1  0.938793  0.237226  0.032789  1
  O  O121  1  0.932937  0.287863  0.173921  1
  O  O122  1  0.799976  0.646373  0.602537  1
  O  O123  1  0.828901  0.852362  0.391960  1
  O  O124  1  0.886510  0.561510  0.423717  1
  O  O125  1  0.934943  0.233616  0.532551  1
  O  O126  1  0.975550  0.891133  0.105719  1
  O  O127  1  0.933506  0.293088  0.673193  1
  O  O128  1  0.830694  0.855947  0.891547  1
  O  O129  1  0.885302  0.567989  0.931063  1
  O  O130  1  0.947763  0.419990  0.808221  1
  O  O131  1  0.973620  0.894388  0.605799  1
