# generated using pymatgen
data_Li4Mn3Fe2Co3O16
_symmetry_space_group_name_H-M   'P 1'
_cell_length_a   5.74732675
_cell_length_b   5.77345862
_cell_length_c   9.44751375
_cell_angle_alpha   89.95776871
_cell_angle_beta   90.03437722
_cell_angle_gamma   119.99565423
_symmetry_Int_Tables_number   1
_chemical_formula_structural   Li4Mn3Fe2Co3O16
_chemical_formula_sum   'Li4 Mn3 Fe2 Co3 O16'
_cell_volume   271.49947468
_cell_formula_units_Z   1
loop_
 _symmetry_equiv_pos_site_id
 _symmetry_equiv_pos_as_xyz
  1  'x, y, z'
loop_
 _atom_site_type_symbol
 _atom_site_label
 _atom_site_symmetry_multiplicity
 _atom_site_fract_x
 _atom_site_fract_y
 _atom_site_fract_z
 _atom_site_occupancy
  Li  Li0  1  0.334860  0.668045  0.892633  1
  Li  Li1  1  0.005094  0.000419  0.998158  1
  Li  Li2  1  0.009890  0.006181  0.496560  1
  Li  Li3  1  0.665245  0.329655  0.388355  1
  Mn  Mn4  1  0.660993  0.830026  0.215209  1
  Mn  Mn5  1  0.830299  0.662094  0.714883  1
  Mn  Mn6  1  0.830473  0.169364  0.715118  1
  Fe  Fe7  1  0.326801  0.665182  0.490945  1
  Fe  Fe8  1  0.662315  0.335057  -0.006236  1
  Co  Co9  1  0.168924  0.829540  0.214243  1
  Co  Co10  1  0.168647  0.336833  0.213115  1
  Co  Co11  1  0.339801  0.170443  0.714440  1
  O  O12  1  0.160017  0.836070  0.602031  1
  O  O13  1  0.036447  0.513389  0.328560  1
  O  O14  1  0.332610  0.665989  0.108763  1
  O  O15  1  0.001437  0.000163  0.309138  1
  O  O16  1  0.001116  0.000505  0.811070  1
  O  O17  1  0.159725  0.324894  0.601852  1
  O  O18  1  0.481175  0.962267  0.335550  1
  O  O19  1  0.477318  0.512795  0.332981  1
  O  O20  1  0.320097  0.165163  0.107507  1
  O  O21  1  0.676980  0.838912  0.601762  1
  O  O22  1  0.517569  0.482547  0.835292  1
  O  O23  1  0.518823  0.036268  0.836591  1
  O  O24  1  0.667760  0.334662  0.607210  1
  O  O25  1  0.837149  0.677401  0.102505  1
  O  O26  1  0.965723  0.482946  0.834878  1
  O  O27  1  0.842712  0.163490  0.104726  1
