# generated using pymatgen
data_Li3Fe4P3H12O19
_symmetry_space_group_name_H-M   'P 1'
_cell_length_a   10.69050148
_cell_length_b   10.69050148
_cell_length_c   10.69050187
_cell_angle_alpha   60.90346349
_cell_angle_beta   60.90346349
_cell_angle_gamma   60.90346306
_symmetry_Int_Tables_number   1
_chemical_formula_structural   Li3Fe4P3H12O19
_chemical_formula_sum   'Li6 Fe8 P6 H24 O38'
_cell_volume   881.52418663
_cell_formula_units_Z   2
loop_
 _symmetry_equiv_pos_site_id
 _symmetry_equiv_pos_as_xyz
  1  'x, y, z'
loop_
 _atom_site_type_symbol
 _atom_site_label
 _atom_site_symmetry_multiplicity
 _atom_site_fract_x
 _atom_site_fract_y
 _atom_site_fract_z
 _atom_site_occupancy
  Li  Li0  1  0.063920  0.677773  0.940828  1
  Li  Li1  1  0.177773  0.563920  0.440828  1
  Li  Li2  1  0.677773  0.940828  0.063920  1
  Li  Li3  1  0.563920  0.440828  0.177773  1
  Li  Li4  1  0.440828  0.177773  0.563920  1
  Li  Li5  1  0.940828  0.063920  0.677773  1
  Fe  Fe6  1  0.007758  0.978000  0.305992  1
  Fe  Fe7  1  0.507758  0.805992  0.478000  1
  Fe  Fe8  1  0.478000  0.507758  0.805992  1
  Fe  Fe9  1  0.002857  0.002857  0.002857  1
  Fe  Fe10  1  0.502857  0.502857  0.502857  1
  Fe  Fe11  1  0.305992  0.007758  0.978000  1
  Fe  Fe12  1  0.805992  0.478000  0.507758  1
  Fe  Fe13  1  0.978000  0.305992  0.007758  1
  P  P14  1  0.301666  0.838019  0.806614  1
  P  P15  1  0.338019  0.801666  0.306614  1
  P  P16  1  0.306614  0.338019  0.801666  1
  P  P17  1  0.838019  0.806614  0.301666  1
  P  P18  1  0.806614  0.301666  0.838019  1
  P  P19  1  0.801666  0.306614  0.338019  1
  H  H20  1  0.002074  0.757450  0.690781  1
  H  H21  1  0.140864  0.807773  0.629060  1
  H  H22  1  0.032196  0.456338  0.220177  1
  H  H23  1  0.307773  0.640864  0.129060  1
  H  H24  1  0.720177  0.956338  0.532196  1
  H  H25  1  0.257450  0.502074  0.190781  1
  H  H26  1  0.129060  0.307773  0.640864  1
  H  H27  1  0.596227  0.896466  0.675012  1
  H  H28  1  0.175012  0.396466  0.096227  1
  H  H29  1  0.532196  0.720177  0.956338  1
  H  H30  1  0.190781  0.257450  0.502074  1
  H  H31  1  0.096227  0.175012  0.396466  1
  H  H32  1  0.675012  0.596227  0.896466  1
  H  H33  1  0.757450  0.690781  0.002074  1
  H  H34  1  0.220177  0.032196  0.456338  1
  H  H35  1  0.896466  0.675012  0.596227  1
  H  H36  1  0.396466  0.096227  0.175012  1
  H  H37  1  0.807773  0.629060  0.140864  1
  H  H38  1  0.456338  0.220177  0.032196  1
  H  H39  1  0.502074  0.190781  0.257450  1
  H  H40  1  0.956338  0.532196  0.720177  1
  H  H41  1  0.629060  0.140864  0.807773  1
  H  H42  1  0.640864  0.129060  0.307773  1
  H  H43  1  0.690781  0.002074  0.757450  1
  O  O44  1  0.145013  0.960329  0.807507  1
  O  O45  1  0.039407  0.816265  0.706077  1
  O  O46  1  0.182898  0.788375  0.345326  1
  O  O47  1  0.381632  0.923394  0.150827  1
  O  O48  1  0.321942  0.853775  0.429766  1
  O  O49  1  0.353775  0.821942  0.929766  1
  O  O50  1  0.423394  0.881632  0.650827  1
  O  O51  1  0.288375  0.682898  0.845326  1
  O  O52  1  0.131337  0.470355  0.148310  1
  O  O53  1  0.648310  0.970355  0.631337  1
  O  O54  1  0.150827  0.381632  0.923394  1
  O  O55  1  0.316265  0.539407  0.206077  1
  O  O56  1  0.682898  0.845326  0.288375  1
  O  O57  1  0.460329  0.645013  0.307507  1
  O  O58  1  0.307507  0.460329  0.645013  1
  O  O59  1  0.821942  0.929766  0.353775  1
  O  O60  1  0.206077  0.316265  0.539407  1
  O  O61  1  0.631337  0.648310  0.970355  1
  O  O62  1  0.079476  0.079476  0.079476  1
  O  O63  1  0.579476  0.579476  0.579476  1
  O  O64  1  0.148310  0.131337  0.470355  1
  O  O65  1  0.816265  0.706077  0.039407  1
  O  O66  1  0.429766  0.321942  0.853775  1
  O  O67  1  0.960329  0.807507  0.145013  1
  O  O68  1  0.345326  0.182898  0.788375  1
  O  O69  1  0.650827  0.423394  0.881632  1
  O  O70  1  0.881632  0.650827  0.423394  1
  O  O71  1  0.470355  0.148310  0.131337  1
  O  O72  1  0.970355  0.631337  0.648310  1
  O  O73  1  0.645013  0.307507  0.460329  1
  O  O74  1  0.539407  0.206077  0.316265  1
  O  O75  1  0.853775  0.429766  0.321942  1
  O  O76  1  0.788375  0.345326  0.182898  1
  O  O77  1  0.845326  0.288375  0.682898  1
  O  O78  1  0.929766  0.353775  0.821942  1
  O  O79  1  0.706077  0.039407  0.816265  1
  O  O80  1  0.807507  0.145013  0.960329  1
  O  O81  1  0.923394  0.150827  0.381632  1
