# generated using pymatgen
data_Li3V2P4(HO8)2
_symmetry_space_group_name_H-M   'P 1'
_cell_length_a   4.85610995
_cell_length_b   8.03441703
_cell_length_c   7.55388687
_cell_angle_alpha   90.64087252
_cell_angle_beta   104.64626671
_cell_angle_gamma   89.46518377
_symmetry_Int_Tables_number   1
_chemical_formula_structural   Li3V2P4(HO8)2
_chemical_formula_sum   'Li3 V2 P4 H2 O16'
_cell_volume   285.12134062
_cell_formula_units_Z   1
loop_
 _symmetry_equiv_pos_site_id
 _symmetry_equiv_pos_as_xyz
  1  'x, y, z'
loop_
 _atom_site_type_symbol
 _atom_site_label
 _atom_site_symmetry_multiplicity
 _atom_site_fract_x
 _atom_site_fract_y
 _atom_site_fract_z
 _atom_site_occupancy
  Li  Li0  1  0.384590  0.865763  0.844849  1
  Li  Li1  1  0.605830  0.134725  0.157562  1
  Li  Li2  1  0.903336  0.632604  0.350203  1
  V  V3  1  0.493561  0.497301  0.996935  1
  V  V4  1  0.000005  0.004797  0.500161  1
  P  P5  1  0.131897  0.350110  0.267621  1
  P  P6  1  0.367581  0.848388  0.231075  1
  P  P7  1  0.630697  0.155642  0.762373  1
  P  P8  1  0.871183  0.651612  0.737205  1
  H  H9  1  0.521194  0.506314  0.508416  1
  H  H10  1  0.967727  0.009708  0.987960  1
  O  O11  1  0.128464  0.550003  0.854914  1
  O  O12  1  0.019975  0.180545  0.307440  1
  O  O13  1  0.150269  0.826673  0.347999  1
  O  O14  1  0.260453  0.452004  0.439321  1
  O  O15  1  0.376849  0.047207  0.664124  1
  O  O16  1  0.539813  0.326957  0.821294  1
  O  O17  1  0.241188  0.940954  0.050810  1
  O  O18  1  0.342423  0.326918  0.141680  1
  O  O19  1  0.650464  0.671913  0.853783  1
  O  O20  1  0.754860  0.057714  0.947556  1
  O  O21  1  0.485382  0.676290  0.186014  1
  O  O22  1  0.618838  0.955311  0.340082  1
  O  O23  1  0.739217  0.560639  0.553751  1
  O  O24  1  0.845154  0.170067  0.647341  1
  O  O25  1  0.985057  0.817951  0.690082  1
  O  O26  1  0.868440  0.454855  0.154150  1
