# generated using pymatgen
data_LiCuPO4
_symmetry_space_group_name_H-M   'P 1'
_cell_length_a   10.97190349
_cell_length_b   6.09126602
_cell_length_c   4.95424878
_cell_angle_alpha   90.01001204
_cell_angle_beta   90.00050966
_cell_angle_gamma   89.99380707
_symmetry_Int_Tables_number   1
_chemical_formula_structural   LiCuPO4
_chemical_formula_sum   'Li4 Cu4 P4 O16'
_cell_volume   331.10622609
_cell_formula_units_Z   4
loop_
 _symmetry_equiv_pos_site_id
 _symmetry_equiv_pos_as_xyz
  1  'x, y, z'
loop_
 _atom_site_type_symbol
 _atom_site_label
 _atom_site_symmetry_multiplicity
 _atom_site_fract_x
 _atom_site_fract_y
 _atom_site_fract_z
 _atom_site_occupancy
  Li  Li0  1  0.070100  0.225354  0.991779  1
  Li  Li1  1  0.429879  0.725366  0.491793  1
  Li  Li2  1  0.570182  0.274654  0.991803  1
  Li  Li3  1  0.929826  0.774595  0.491823  1
  Cu  Cu4  1  0.172540  0.473575  0.485459  1
  Cu  Cu5  1  0.327397  0.973708  0.985421  1
  Cu  Cu6  1  0.672612  0.026346  0.485369  1
  Cu  Cu7  1  0.827389  0.526455  0.985401  1
  P  P8  1  0.085912  0.730857  0.997051  1
  P  P9  1  0.414109  0.230793  0.497147  1
  P  P10  1  0.585882  0.769193  0.997112  1
  P  P11  1  0.914073  0.269163  0.497148  1
  O  O12  1  0.047746  0.248346  0.393966  1
  O  O13  1  0.087605  0.717753  0.309799  1
  O  O14  1  0.153483  0.943024  0.908291  1
  O  O15  1  0.147382  0.519360  0.884577  1
  O  O16  1  0.352633  0.019543  0.384616  1
  O  O17  1  0.346534  0.443131  0.408231  1
  O  O18  1  0.412406  0.217847  0.809659  1
  O  O19  1  0.452338  0.748371  0.894004  1
  O  O20  1  0.547642  0.251687  0.394020  1
  O  O21  1  0.587600  0.782181  0.309660  1
  O  O22  1  0.653396  0.556872  0.908192  1
  O  O23  1  0.647363  0.980436  0.884656  1
  O  O24  1  0.852622  0.480581  0.384741  1
  O  O25  1  0.846557  0.056932  0.408161  1
  O  O26  1  0.912447  0.282113  0.809750  1
  O  O27  1  0.952345  0.751765  0.893928  1
