# generated using pymatgen
data_LiFeSiO4
_symmetry_space_group_name_H-M   'P 1'
_cell_length_a   11.39118093
_cell_length_b   6.06731749
_cell_length_c   5.07333124
_cell_angle_alpha   90.00000000
_cell_angle_beta   90.00000000
_cell_angle_gamma   90.00000000
_symmetry_Int_Tables_number   1
_chemical_formula_structural   LiFeSiO4
_chemical_formula_sum   'Li4 Fe4 Si4 O16'
_cell_volume   350.63776526
_cell_formula_units_Z   4
loop_
 _symmetry_equiv_pos_site_id
 _symmetry_equiv_pos_as_xyz
  1  'x, y, z'
loop_
 _atom_site_type_symbol
 _atom_site_label
 _atom_site_symmetry_multiplicity
 _atom_site_fract_x
 _atom_site_fract_y
 _atom_site_fract_z
 _atom_site_occupancy
  Li  Li0  1  0.081002  0.750774  0.745018  1
  Li  Li1  1  0.418998  0.250774  0.245018  1
  Li  Li2  1  0.581002  0.749226  0.745018  1
  Li  Li3  1  0.918998  0.249226  0.245018  1
  Fe  Fe4  1  0.173931  0.012418  0.246785  1
  Fe  Fe5  1  0.326069  0.512418  0.746785  1
  Fe  Fe6  1  0.673931  0.487582  0.246785  1
  Fe  Fe7  1  0.826069  0.987582  0.746785  1
  Si  Si8  1  0.165513  0.509040  0.248613  1
  Si  Si9  1  0.334487  0.009040  0.748613  1
  Si  Si10  1  0.665513  0.990960  0.248613  1
  Si  Si11  1  0.834487  0.490960  0.748613  1
  O  O12  1  0.089997  0.282691  0.182598  1
  O  O13  1  0.104450  0.738324  0.137046  1
  O  O14  1  0.180539  0.528837  0.569758  1
  O  O15  1  0.201900  0.988872  0.616032  1
  O  O16  1  0.298100  0.488872  0.116032  1
  O  O17  1  0.319461  0.028837  0.069758  1
  O  O18  1  0.395550  0.238324  0.637046  1
  O  O19  1  0.410003  0.782691  0.682598  1
  O  O20  1  0.589997  0.217309  0.182598  1
  O  O21  1  0.604450  0.761676  0.137046  1
  O  O22  1  0.680539  0.971163  0.569758  1
  O  O23  1  0.701900  0.511128  0.616032  1
  O  O24  1  0.798100  0.011128  0.116032  1
  O  O25  1  0.819461  0.471163  0.069758  1
  O  O26  1  0.895550  0.261676  0.637046  1
  O  O27  1  0.910003  0.717309  0.682598  1
