# generated using pymatgen
data_Na5CuO4
_symmetry_space_group_name_H-M   'P 1'
_cell_length_a   10.41431135
_cell_length_b   10.47530057
_cell_length_c   10.53772769
_cell_angle_alpha   90.00000000
_cell_angle_beta   90.00000000
_cell_angle_gamma   90.00000000
_symmetry_Int_Tables_number   1
_chemical_formula_structural   Na5CuO4
_chemical_formula_sum   'Na40 Cu8 O32'
_cell_volume   1149.59276547
_cell_formula_units_Z   8
loop_
 _symmetry_equiv_pos_site_id
 _symmetry_equiv_pos_as_xyz
  1  'x, y, z'
loop_
 _atom_site_type_symbol
 _atom_site_label
 _atom_site_symmetry_multiplicity
 _atom_site_fract_x
 _atom_site_fract_y
 _atom_site_fract_z
 _atom_site_occupancy
  Na  Na0  1  0.107357  0.837320  0.112853  1
  Na  Na1  1  0.107357  0.662680  0.612853  1
  Na  Na2  1  0.113211  0.145277  0.395184  1
  Na  Na3  1  0.113211  0.354723  0.895184  1
  Na  Na4  1  0.121250  0.395647  0.164139  1
  Na  Na5  1  0.121250  0.104353  0.664139  1
  Na  Na6  1  0.119396  0.591252  0.351022  1
  Na  Na7  1  0.119396  0.908748  0.851022  1
  Na  Na8  1  0.157898  0.865378  0.385366  1
  Na  Na9  1  0.157898  0.634622  0.885366  1
  Na  Na10  1  0.342102  0.134622  0.885366  1
  Na  Na11  1  0.342102  0.365378  0.385366  1
  Na  Na12  1  0.380604  0.091252  0.351022  1
  Na  Na13  1  0.380604  0.408748  0.851022  1
  Na  Na14  1  0.378750  0.604353  0.664139  1
  Na  Na15  1  0.378750  0.895647  0.164139  1
  Na  Na16  1  0.386789  0.645277  0.395184  1
  Na  Na17  1  0.386789  0.854723  0.895184  1
  Na  Na18  1  0.392643  0.162680  0.612853  1
  Na  Na19  1  0.392643  0.337320  0.112853  1
  Na  Na20  1  0.607357  0.662680  0.887147  1
  Na  Na21  1  0.607357  0.837320  0.387147  1
  Na  Na22  1  0.613211  0.145277  0.104816  1
  Na  Na23  1  0.613211  0.354723  0.604816  1
  Na  Na24  1  0.621250  0.395647  0.335861  1
  Na  Na25  1  0.621250  0.104353  0.835861  1
  Na  Na26  1  0.619396  0.591252  0.148978  1
  Na  Na27  1  0.619396  0.908748  0.648978  1
  Na  Na28  1  0.657898  0.634622  0.614634  1
  Na  Na29  1  0.657898  0.865378  0.114634  1
  Na  Na30  1  0.842102  0.134622  0.614634  1
  Na  Na31  1  0.842102  0.365378  0.114634  1
  Na  Na32  1  0.880604  0.091252  0.148978  1
  Na  Na33  1  0.880604  0.408748  0.648978  1
  Na  Na34  1  0.878750  0.604353  0.835861  1
  Na  Na35  1  0.878750  0.895647  0.335861  1
  Na  Na36  1  0.886789  0.645277  0.104816  1
  Na  Na37  1  0.886789  0.854723  0.604816  1
  Na  Na38  1  0.892643  0.162680  0.887147  1
  Na  Na39  1  0.892643  0.337320  0.387147  1
  Cu  Cu40  1  0.149130  0.115744  0.122365  1
  Cu  Cu41  1  0.149130  0.384256  0.622365  1
  Cu  Cu42  1  0.350870  0.884256  0.622365  1
  Cu  Cu43  1  0.350870  0.615744  0.122365  1
  Cu  Cu44  1  0.649130  0.115744  0.377635  1
  Cu  Cu45  1  0.649130  0.384256  0.877635  1
  Cu  Cu46  1  0.850870  0.615744  0.377635  1
  Cu  Cu47  1  0.850870  0.884256  0.877635  1
  O  O48  1  0.021541  0.234037  0.053789  1
  O  O49  1  0.021541  0.265963  0.553789  1
  O  O50  1  0.053452  0.001760  0.242514  1
  O  O51  1  0.053452  0.498240  0.742514  1
  O  O52  1  0.239260  0.996616  0.020409  1
  O  O53  1  0.239260  0.503384  0.520409  1
  O  O54  1  0.242610  0.226248  0.236872  1
  O  O55  1  0.242610  0.273752  0.736872  1
  O  O56  1  0.257390  0.726248  0.236872  1
  O  O57  1  0.257390  0.773752  0.736872  1
  O  O58  1  0.260740  0.003384  0.520409  1
  O  O59  1  0.260740  0.496616  0.020409  1
  O  O60  1  0.446548  0.501760  0.242514  1
  O  O61  1  0.446548  0.998240  0.742514  1
  O  O62  1  0.478459  0.765963  0.553789  1
  O  O63  1  0.478459  0.734037  0.053789  1
  O  O64  1  0.521541  0.265963  0.946211  1
  O  O65  1  0.521541  0.234037  0.446211  1
  O  O66  1  0.553452  0.001760  0.257486  1
  O  O67  1  0.553452  0.498240  0.757486  1
  O  O68  1  0.739260  0.503384  0.979591  1
  O  O69  1  0.739260  0.996616  0.479591  1
  O  O70  1  0.742610  0.226248  0.263128  1
  O  O71  1  0.742610  0.273752  0.763128  1
  O  O72  1  0.757390  0.726248  0.263128  1
  O  O73  1  0.757390  0.773752  0.763128  1
  O  O74  1  0.760740  0.003384  0.979591  1
  O  O75  1  0.760740  0.496616  0.479591  1
  O  O76  1  0.946548  0.998240  0.757486  1
  O  O77  1  0.946548  0.501760  0.257486  1
  O  O78  1  0.978459  0.765963  0.946211  1
  O  O79  1  0.978459  0.734037  0.446211  1
