# generated using pymatgen
data_Li6FeNiP2(CO7)2
_symmetry_space_group_name_H-M   'P 1'
_cell_length_a   8.41186496
_cell_length_b   4.96889569
_cell_length_c   6.50224070
_cell_angle_alpha   90.00000000
_cell_angle_beta   90.00000000
_cell_angle_gamma   85.41489497
_symmetry_Int_Tables_number   1
_chemical_formula_structural   Li6FeNiP2(CO7)2
_chemical_formula_sum   'Li6 Fe1 Ni1 P2 C2 O14'
_cell_volume   270.90879859
_cell_formula_units_Z   1
loop_
 _symmetry_equiv_pos_site_id
 _symmetry_equiv_pos_as_xyz
  1  'x, y, z'
loop_
 _atom_site_type_symbol
 _atom_site_label
 _atom_site_symmetry_multiplicity
 _atom_site_fract_x
 _atom_site_fract_y
 _atom_site_fract_z
 _atom_site_occupancy
  Li  Li0  1  0.095763  0.761530  0.250000  1
  Li  Li1  1  0.274911  0.245974  0.020910  1
  Li  Li2  1  0.274911  0.245974  0.479090  1
  Li  Li3  1  0.723723  0.755518  0.523863  1
  Li  Li4  1  0.723723  0.755518  0.976137  1
  Li  Li5  1  0.903538  0.236018  0.750000  1
  Fe  Fe6  1  0.661912  0.219425  0.250000  1
  Ni  Ni7  1  0.332765  0.792627  0.750000  1
  P  P8  1  0.411602  0.719803  0.250000  1
  P  P9  1  0.585680  0.278728  0.750000  1
  C  C10  1  0.039117  0.704269  0.750000  1
  C  C11  1  0.965862  0.294962  0.250000  1
  O  O12  1  0.075841  0.952636  0.750000  1
  O  O13  1  0.112674  0.356819  0.250000  1
  O  O14  1  0.155409  0.514235  0.750000  1
  O  O15  1  0.309249  0.825485  0.063277  1
  O  O16  1  0.309249  0.825485  0.436723  1
  O  O17  1  0.418617  0.169536  0.750000  1
  O  O18  1  0.428894  0.403521  0.250000  1
  O  O19  1  0.562848  0.594278  0.750000  1
  O  O20  1  0.581395  0.819214  0.250000  1
  O  O21  1  0.690379  0.175799  0.935207  1
  O  O22  1  0.690379  0.175799  0.564793  1
  O  O23  1  0.850731  0.487181  0.250000  1
  O  O24  1  0.892097  0.642211  0.750000  1
  O  O25  1  0.928730  0.047457  0.250000  1
