# generated using pymatgen
data_Mn3VSb2(PO4)6
_symmetry_space_group_name_H-M   'P 1'
_cell_length_a   8.90960243
_cell_length_b   8.75118293
_cell_length_c   8.75118221
_cell_angle_alpha   60.00000007
_cell_angle_beta   60.58646498
_cell_angle_gamma   60.58646690
_symmetry_Int_Tables_number   1
_chemical_formula_structural   Mn3VSb2(PO4)6
_chemical_formula_sum   'Mn3 V1 Sb2 P6 O24'
_cell_volume   486.70996962
_cell_formula_units_Z   1
loop_
 _symmetry_equiv_pos_site_id
 _symmetry_equiv_pos_as_xyz
  1  'x, y, z'
loop_
 _atom_site_type_symbol
 _atom_site_label
 _atom_site_symmetry_multiplicity
 _atom_site_fract_x
 _atom_site_fract_y
 _atom_site_fract_z
 _atom_site_occupancy
  Mn  Mn0  1  0.047787  0.650737  0.650737  1
  Mn  Mn1  1  0.463394  0.845536  0.845536  1
  Mn  Mn2  1  0.940616  0.353128  0.353128  1
  V  V3  1  0.563656  0.145448  0.145448  1
  Sb  Sb4  1  0.039359  0.986881  0.986881  1
  Sb  Sb5  1  0.498168  0.500611  0.500611  1
  P  P6  1  0.250379  0.249220  0.537075  1
  P  P7  1  0.250379  0.963326  0.249220  1
  P  P8  1  0.250379  0.537075  0.963326  1
  P  P9  1  0.746909  0.451685  0.048617  1
  P  P10  1  0.746909  0.048617  0.752789  1
  P  P11  1  0.746909  0.752789  0.451685  1
  O  O12  1  0.072862  0.110939  0.308346  1
  O  O13  1  0.072862  0.507854  0.110939  1
  O  O14  1  0.072862  0.308346  0.507854  1
  O  O15  1  0.242542  0.082105  0.732716  1
  O  O16  1  0.423072  0.179868  0.385429  1
  O  O17  1  0.270899  0.407261  0.552122  1
  O  O18  1  0.242542  0.942638  0.082105  1
  O  O19  1  0.270899  0.769718  0.407261  1
  O  O20  1  0.572369  0.612938  0.021795  1
  O  O21  1  0.270899  0.552122  0.769718  1
  O  O22  1  0.736406  0.264001  0.077986  1
  O  O23  1  0.572369  0.021795  0.792898  1
  O  O24  1  0.423072  0.011630  0.179868  1
  O  O25  1  0.242542  0.732716  0.942638  1
  O  O26  1  0.743135  0.426541  0.241688  1
  O  O27  1  0.423072  0.385429  0.011630  1
  O  O28  1  0.743135  0.241688  0.588635  1
  O  O29  1  0.736406  0.077986  0.921607  1
  O  O30  1  0.743135  0.588635  0.426541  1
  O  O31  1  0.572369  0.792898  0.612938  1
  O  O32  1  0.736406  0.921607  0.264001  1
  O  O33  1  0.923767  0.709253  0.472422  1
  O  O34  1  0.923767  0.472422  0.894558  1
  O  O35  1  0.923767  0.894558  0.709253  1
