# generated using pymatgen
data_LiY4Ti4(S2O5)2
_symmetry_space_group_name_H-M   'P 1'
_cell_length_a   11.62896883
_cell_length_b   11.62896883
_cell_length_c   23.25808328
_cell_angle_alpha   160.72271518
_cell_angle_beta   161.02159232
_cell_angle_gamma   27.17887307
_symmetry_Int_Tables_number   1
_chemical_formula_structural   LiY4Ti4(S2O5)2
_chemical_formula_sum   'Li1 Y4 Ti4 S4 O10'
_cell_volume   337.55716509
_cell_formula_units_Z   1
loop_
 _symmetry_equiv_pos_site_id
 _symmetry_equiv_pos_as_xyz
  1  'x, y, z'
loop_
 _atom_site_type_symbol
 _atom_site_label
 _atom_site_symmetry_multiplicity
 _atom_site_fract_x
 _atom_site_fract_y
 _atom_site_fract_z
 _atom_site_occupancy
  Li  Li0  1  0.000000  0.500000  0.750000  1
  Y  Y1  1  0.331353  0.333931  0.998501  1
  Y  Y2  1  0.663069  0.665648  0.998501  1
  Y  Y3  1  0.336931  0.334352  0.501499  1
  Y  Y4  1  0.668647  0.666069  0.501499  1
  Ti  Ti5  1  0.082372  0.092380  0.005105  1
  Ti  Ti6  1  0.917831  0.927838  0.005105  1
  Ti  Ti7  1  0.082169  0.072162  0.494895  1
  Ti  Ti8  1  0.917628  0.907620  0.494895  1
  S  S9  1  0.205071  0.202279  0.999001  1
  S  S10  1  0.795723  0.792931  0.999001  1
  S  S11  1  0.204277  0.207069  0.500999  1
  S  S12  1  0.794929  0.797721  0.500999  1
  O  O13  1  0.600553  0.100553  0.250000  1
  O  O14  1  0.999872  0.984045  0.991959  1
  O  O15  1  0.898971  0.398971  0.250000  1
  O  O16  1  0.905475  0.405475  0.750000  1
  O  O17  1  0.000128  0.015955  0.508041  1
  O  O18  1  0.600645  0.100645  0.750000  1
  O  O19  1  0.101029  0.601029  0.250000  1
  O  O20  1  0.399447  0.899447  0.250000  1
  O  O21  1  0.399355  0.899355  0.750000  1
  O  O22  1  0.094525  0.594525  0.750000  1
