# generated using pymatgen
data_Li3Mn2Fe(BO3)3
_symmetry_space_group_name_H-M   'P 1'
_cell_length_a   8.27919399
_cell_length_b   8.27033698
_cell_length_c   6.33997618
_cell_angle_alpha   90.00000000
_cell_angle_beta   90.00000000
_cell_angle_gamma   120.14153930
_symmetry_Int_Tables_number   1
_chemical_formula_structural   Li3Mn2Fe(BO3)3
_chemical_formula_sum   'Li6 Mn4 Fe2 B6 O18'
_cell_volume   375.41216685
_cell_formula_units_Z   2
loop_
 _symmetry_equiv_pos_site_id
 _symmetry_equiv_pos_as_xyz
  1  'x, y, z'
loop_
 _atom_site_type_symbol
 _atom_site_label
 _atom_site_symmetry_multiplicity
 _atom_site_fract_x
 _atom_site_fract_y
 _atom_site_fract_z
 _atom_site_occupancy
  Li  Li0  1  0.284017  0.982196  0.250601  1
  Li  Li1  1  0.284017  0.982196  0.749399  1
  Li  Li2  1  0.016746  0.301341  0.251050  1
  Li  Li3  1  0.016746  0.301341  0.748950  1
  Li  Li4  1  0.698525  0.715080  0.749821  1
  Li  Li5  1  0.698525  0.715080  0.250179  1
  Mn  Mn6  1  0.371113  0.359265  0.000000  1
  Mn  Mn7  1  0.373499  0.361414  0.500000  1
  Mn  Mn8  1  0.641360  0.012207  0.000000  1
  Mn  Mn9  1  0.987964  0.628996  0.000000  1
  Fe  Fe10  1  0.640666  0.007276  0.500000  1
  Fe  Fe11  1  0.992445  0.632430  0.500000  1
  B  B12  1  0.000119  0.000169  0.000000  1
  B  B13  1  0.997440  0.999489  0.500000  1
  B  B14  1  0.333362  0.667659  0.253658  1
  B  B15  1  0.333362  0.667659  0.746342  1
  B  B16  1  0.667638  0.333090  0.252824  1
  B  B17  1  0.667638  0.333090  0.747176  1
  O  O18  1  0.106570  0.914367  0.500000  1
  O  O19  1  0.115854  0.922687  0.000000  1
  O  O20  1  0.139615  0.581541  0.254161  1
  O  O21  1  0.139615  0.581541  0.745839  1
  O  O22  1  0.077919  0.193678  0.000000  1
  O  O23  1  0.081056  0.192617  0.500000  1
  O  O24  1  0.441310  0.861209  0.253891  1
  O  O25  1  0.441310  0.861209  0.746109  1
  O  O26  1  0.418812  0.560154  0.250025  1
  O  O27  1  0.418812  0.560154  0.749975  1
  O  O28  1  0.473957  0.251514  0.250670  1
  O  O29  1  0.473957  0.251514  0.749330  1
  O  O30  1  0.806764  0.884116  0.000000  1
  O  O31  1  0.803305  0.888647  0.500000  1
  O  O32  1  0.779871  0.526979  0.252764  1
  O  O33  1  0.779871  0.526979  0.747236  1
  O  O34  1  0.748111  0.220558  0.746504  1
  O  O35  1  0.748111  0.220558  0.253496  1
