# generated using pymatgen
data_Li2V(CO3)2
_symmetry_space_group_name_H-M   'P 1'
_cell_length_a   8.98384519
_cell_length_b   9.04893707
_cell_length_c   8.98385186
_cell_angle_alpha   106.89672256
_cell_angle_beta   65.50837201
_cell_angle_gamma   73.10681128
_symmetry_Int_Tables_number   1
_chemical_formula_structural   Li2V(CO3)2
_chemical_formula_sum   'Li8 V4 C8 O24'
_cell_volume   560.59882106
_cell_formula_units_Z   4
loop_
 _symmetry_equiv_pos_site_id
 _symmetry_equiv_pos_as_xyz
  1  'x, y, z'
loop_
 _atom_site_type_symbol
 _atom_site_label
 _atom_site_symmetry_multiplicity
 _atom_site_fract_x
 _atom_site_fract_y
 _atom_site_fract_z
 _atom_site_occupancy
  Li  Li0  1  0.621775  0.824282  0.696948  1
  Li  Li1  1  0.696062  0.675734  0.122670  1
  Li  Li2  1  0.553065  0.324265  0.628203  1
  Li  Li3  1  0.668818  0.221803  0.128109  1
  Li  Li4  1  0.121894  0.721806  0.581182  1
  Li  Li5  1  0.127335  0.175717  0.553943  1
  Li  Li6  1  0.093697  0.778194  0.109379  1
  Li  Li7  1  0.140626  0.278193  0.156298  1
  V  V8  1  0.842070  0.032375  0.625700  1
  V  V9  1  0.624330  0.532342  0.407926  1
  V  V10  1  0.406663  0.967631  0.125567  1
  V  V11  1  0.124422  0.467645  0.843322  1
  C  C12  1  0.847655  0.754028  0.815044  1
  C  C13  1  0.822966  0.331725  0.937553  1
  C  C14  1  0.851702  0.745972  0.311023  1
  C  C15  1  0.938984  0.245972  0.398318  1
  C  C16  1  0.394167  0.668278  0.845315  1
  C  C17  1  0.404633  0.168296  0.855839  1
  C  C18  1  0.312457  0.831702  0.427072  1
  C  C19  1  0.434949  0.254028  0.402327  1
  O  O20  1  0.948815  0.350892  0.818618  1
  O  O21  1  0.838231  0.826788  0.710282  1
  O  O22  1  0.919948  0.843092  0.363463  1
  O  O23  1  0.700541  0.774827  0.950873  1
  O  O24  1  0.785307  0.204850  0.886464  1
  O  O25  1  0.915025  0.673245  0.133522  1
  O  O26  1  0.886569  0.343079  0.330084  1
  O  O27  1  0.823955  0.225174  0.524629  1
  O  O28  1  0.725373  0.725191  0.426064  1
  O  O29  1  0.532272  0.649108  0.700293  1
  O  O30  1  0.727285  0.440925  0.113933  1
  O  O31  1  0.549667  0.149140  0.717735  1
  O  O32  1  0.326990  0.559078  0.831794  1
  O  O33  1  0.418184  0.059102  0.923001  1
  O  O34  1  0.539724  0.326756  0.411729  1
  O  O35  1  0.431404  0.850858  0.301193  1
  O  O36  1  0.363557  0.704828  0.464710  1
  O  O37  1  0.240117  0.295172  0.931616  1
  O  O38  1  0.479632  0.156908  0.236960  1
  O  O39  1  0.136100  0.940900  0.522717  1
  O  O40  1  0.299129  0.274811  0.549437  1
  O  O41  1  0.318385  0.795151  0.009843  1
  O  O42  1  0.012994  0.656920  0.770353  1
  O  O43  1  0.116508  0.173212  0.334980  1
