# generated using pymatgen
data_Li2Fe2P4H3O16
_symmetry_space_group_name_H-M   'P 1'
_cell_length_a   4.94432576
_cell_length_b   8.15759080
_cell_length_c   7.56725929
_cell_angle_alpha   89.55128049
_cell_angle_beta   103.68890540
_cell_angle_gamma   88.85950586
_symmetry_Int_Tables_number   1
_chemical_formula_structural   Li2Fe2P4H3O16
_chemical_formula_sum   'Li2 Fe2 P4 H3 O16'
_cell_volume   296.46308105
_cell_formula_units_Z   1
loop_
 _symmetry_equiv_pos_site_id
 _symmetry_equiv_pos_as_xyz
  1  'x, y, z'
loop_
 _atom_site_type_symbol
 _atom_site_label
 _atom_site_symmetry_multiplicity
 _atom_site_fract_x
 _atom_site_fract_y
 _atom_site_fract_z
 _atom_site_occupancy
  Li  Li0  1  0.388700  0.871190  0.846802  1
  Li  Li1  1  0.598732  0.126187  0.153238  1
  Fe  Fe2  1  0.498006  0.498252  0.998952  1
  Fe  Fe3  1  0.002270  -0.000071  0.500365  1
  P  P4  1  0.110524  0.336171  0.251656  1
  P  P5  1  0.372741  0.844150  0.236150  1
  P  P6  1  0.624887  0.158592  0.757233  1
  P  P7  1  0.884790  0.663437  0.750517  1
  H  H8  1  0.452518  0.395127  0.479667  1
  H  H9  1  0.549985  0.618718  0.514740  1
  H  H10  1  0.956695  0.014231  0.978798  1
  O  O11  1  0.988980  0.831484  0.700434  1
  O  O12  1  0.129898  0.554793  0.843300  1
  O  O13  1  0.179121  0.832611  0.368068  1
  O  O14  1  0.253302  0.422314  0.437268  1
  O  O15  1  0.368853  0.056351  0.668940  1
  O  O16  1  0.546873  0.327786  0.815788  1
  O  O17  1  0.252049  0.943817  0.058929  1
  O  O18  1  0.332362  0.316114  0.138924  1
  O  O19  1  0.663194  0.683861  0.863211  1
  O  O20  1  0.753174  0.056521  0.940982  1
  O  O21  1  0.449555  0.669111  0.186914  1
  O  O22  1  0.634032  0.939859  0.335331  1
  O  O23  1  0.740249  0.576501  0.564965  1
  O  O24  1  0.825372  0.168245  0.632199  1
  O  O25  1  0.864856  0.444482  0.158369  1
  O  O26  1  0.004444  0.168193  0.300247  1
