# generated using pymatgen
data_Mn12O5F19
_symmetry_space_group_name_H-M   'P 1'
_cell_length_a   4.87351268
_cell_length_b   5.86319965
_cell_length_c   15.90478177
_cell_angle_alpha   89.25831470
_cell_angle_beta   90.49400098
_cell_angle_gamma   90.63146949
_symmetry_Int_Tables_number   1
_chemical_formula_structural   Mn12O5F19
_chemical_formula_sum   'Mn12 O5 F19'
_cell_volume   454.38722730
_cell_formula_units_Z   1
loop_
 _symmetry_equiv_pos_site_id
 _symmetry_equiv_pos_as_xyz
  1  'x, y, z'
loop_
 _atom_site_type_symbol
 _atom_site_label
 _atom_site_symmetry_multiplicity
 _atom_site_fract_x
 _atom_site_fract_y
 _atom_site_fract_z
 _atom_site_occupancy
  Mn  Mn0  1  0.016390  0.175129  0.421367  1
  Mn  Mn1  1  0.994394  0.855560  0.246769  1
  Mn  Mn2  1  0.961082  0.169801  0.082815  1
  Mn  Mn3  1  0.042155  0.179202  0.748025  1
  Mn  Mn4  1  0.001277  0.858449  0.588362  1
  Mn  Mn5  1  0.002689  0.838932  0.915423  1
  Mn  Mn6  1  0.469729  0.335917  0.581655  1
  Mn  Mn7  1  0.502756  0.332113  0.917534  1
  Mn  Mn8  1  0.522928  0.317823  0.245734  1
  Mn  Mn9  1  0.505142  0.644084  0.081000  1
  Mn  Mn10  1  0.488900  0.648733  0.418561  1
  Mn  Mn11  1  0.496413  0.643072  0.752756  1
  O  O12  1  0.217360  0.130636  0.639447  1
  O  O13  1  0.282269  0.386219  0.477392  1
  O  O14  1  0.299960  0.380157  0.807733  1
  O  O15  1  0.704189  0.373777  0.026329  1
  O  O16  1  0.784857  0.106937  0.188941  1
  F  F17  1  0.238914  0.107570  0.308699  1
  F  F18  1  0.207460  0.126219  0.977173  1
  F  F19  1  0.226430  0.889685  0.130666  1
  F  F20  1  0.226823  0.885182  0.473489  1
  F  F21  1  0.248167  0.888235  0.808560  1
  F  F22  1  0.260066  0.389474  0.141746  1
  F  F23  1  0.266232  0.616533  0.301612  1
  F  F24  1  0.264591  0.623672  0.644212  1
  F  F25  1  0.270680  0.606745  0.969461  1
  F  F26  1  0.734711  0.610781  0.194681  1
  F  F27  1  0.739136  0.394945  0.359874  1
  F  F28  1  0.724708  0.608311  0.535371  1
  F  F29  1  0.734722  0.605422  0.860398  1
  F  F30  1  0.716364  0.376128  0.685481  1
  F  F31  1  0.758559  0.107329  0.525859  1
  F  F32  1  0.768224  0.892351  0.363623  1
  F  F33  1  0.753735  0.883684  0.020769  1
  F  F34  1  0.793810  0.128168  0.854737  1
  F  F35  1  0.774178  0.883026  0.703748  1
