# generated using pymatgen
data_LiCoPO4
_symmetry_space_group_name_H-M   'P 1'
_cell_length_a   5.36943511
_cell_length_b   10.19767883
_cell_length_c   6.19742227
_cell_angle_alpha   90.00000000
_cell_angle_beta   90.00000000
_cell_angle_gamma   80.62196382
_symmetry_Int_Tables_number   1
_chemical_formula_structural   LiCoPO4
_chemical_formula_sum   'Li4 Co4 P4 O16'
_cell_volume   334.80921391
_cell_formula_units_Z   4
loop_
 _symmetry_equiv_pos_site_id
 _symmetry_equiv_pos_as_xyz
  1  'x, y, z'
loop_
 _atom_site_type_symbol
 _atom_site_label
 _atom_site_symmetry_multiplicity
 _atom_site_fract_x
 _atom_site_fract_y
 _atom_site_fract_z
 _atom_site_occupancy
  Li  Li0  1  0.251643  0.298945  0.561790  1
  Li  Li1  1  0.248357  0.201055  0.061790  1
  Li  Li2  1  0.751643  0.798945  0.938210  1
  Li  Li3  1  0.748357  0.701055  0.438210  1
  Co  Co4  1  0.149469  0.906174  0.659314  1
  Co  Co5  1  0.350531  0.593826  0.159314  1
  Co  Co6  1  0.649469  0.406174  0.840686  1
  Co  Co7  1  0.850531  0.093826  0.340686  1
  P  P8  1  0.250305  0.638627  0.650039  1
  P  P9  1  0.249695  0.861373  0.150039  1
  P  P10  1  0.750305  0.138627  0.849961  1
  P  P11  1  0.749695  0.361373  0.349961  1
  O  O12  1  0.990672  0.734092  0.676156  1
  O  O13  1  0.049595  0.768018  0.139283  1
  O  O14  1  0.238402  0.550296  0.449398  1
  O  O15  1  0.306702  0.541618  0.848483  1
  O  O16  1  0.193298  0.958382  0.348483  1
  O  O17  1  0.261598  0.949704  0.949398  1
  O  O18  1  0.490672  0.234092  0.823844  1
  O  O19  1  0.549595  0.268018  0.360717  1
  O  O20  1  0.450405  0.731982  0.639283  1
  O  O21  1  0.509328  0.765908  0.176156  1
  O  O22  1  0.738402  0.050296  0.050602  1
  O  O23  1  0.806702  0.041618  0.651517  1
  O  O24  1  0.693298  0.458382  0.151517  1
  O  O25  1  0.761598  0.449704  0.550602  1
  O  O26  1  0.950405  0.231982  0.860717  1
  O  O27  1  0.009328  0.265908  0.323844  1
