# generated using pymatgen
data_Na4P2H20O17
_symmetry_space_group_name_H-M   'P 1'
_cell_length_a   10.17683381
_cell_length_b   10.17683381
_cell_length_c   18.97204106
_cell_angle_alpha   61.38412606
_cell_angle_beta   118.61587394
_cell_angle_gamma   145.02996181
_symmetry_Int_Tables_number   1
_chemical_formula_structural   Na4P2H20O17
_chemical_formula_sum   'Na8 P4 H40 O34'
_cell_volume   973.90408276
_cell_formula_units_Z   2
loop_
 _symmetry_equiv_pos_site_id
 _symmetry_equiv_pos_as_xyz
  1  'x, y, z'
loop_
 _atom_site_type_symbol
 _atom_site_label
 _atom_site_symmetry_multiplicity
 _atom_site_fract_x
 _atom_site_fract_y
 _atom_site_fract_z
 _atom_site_occupancy
  Na  Na0  1  0.825091  0.334376  0.596607  1
  Na  Na1  1  0.334376  0.825091  0.903393  1
  Na  Na2  1  0.174909  0.665624  0.403393  1
  Na  Na3  1  0.665624  0.174909  0.096607  1
  Na  Na4  1  0.350724  0.523870  0.880392  1
  Na  Na5  1  0.523870  0.350724  0.619608  1
  Na  Na6  1  0.649276  0.476130  0.119608  1
  Na  Na7  1  0.476130  0.649276  0.380392  1
  P  P8  1  0.765796  0.474756  0.881882  1
  P  P9  1  0.474756  0.765796  0.618118  1
  P  P10  1  0.234204  0.525244  0.118118  1
  P  P11  1  0.525244  0.234204  0.381882  1
  H  H12  1  0.739775  0.558605  0.502188  1
  H  H13  1  0.558605  0.739775  -0.002188  1
  H  H14  1  0.260225  0.441395  0.497812  1
  H  H15  1  0.441395  0.260225  0.002188  1
  H  H16  1  0.219578  0.788924  0.698672  1
  H  H17  1  0.788924  0.219578  0.801328  1
  H  H18  1  0.780422  0.211076  0.301328  1
  H  H19  1  0.211076  0.780422  0.198672  1
  H  H20  1  0.270461  0.801195  0.522765  1
  H  H21  1  0.801195  0.270461  0.977235  1
  H  H22  1  0.729539  0.198805  0.477235  1
  H  H23  1  0.198805  0.729539  0.022765  1
  H  H24  1  0.406328  0.778993  0.711418  1
  H  H25  1  0.778993  0.406328  0.788582  1
  H  H26  1  0.593672  0.221007  0.288582  1
  H  H27  1  0.221007  0.593672  0.211418  1
  H  H28  1  0.044063  0.792681  0.718677  1
  H  H29  1  0.792681  0.044063  0.781323  1
  H  H30  1  0.955937  0.207319  0.281323  1
  H  H31  1  0.207319  0.955937  0.218677  1
  H  H32  1  0.043549  0.837649  0.673289  1
  H  H33  1  0.837649  0.043549  0.826711  1
  H  H34  1  0.956451  0.162351  0.326711  1
  H  H35  1  0.162351  0.956451  0.173289  1
  H  H36  1  0.348579  0.441957  0.659049  1
  H  H37  1  0.441957  0.348579  0.840951  1
  H  H38  1  0.651421  0.558043  0.340951  1
  H  H39  1  0.558043  0.651421  0.159049  1
  H  H40  1  0.103454  0.140269  0.277257  1
  H  H41  1  0.140269  0.103454  0.222743  1
  H  H42  1  0.896546  0.859731  0.722743  1
  H  H43  1  0.859731  0.896546  0.777257  1
  H  H44  1  0.131874  0.965820  0.046118  1
  H  H45  1  0.965820  0.131874  0.453882  1
  H  H46  1  0.868126  0.034180  0.953882  1
  H  H47  1  0.034180  0.868126  0.546118  1
  H  H48  1  0.030815  0.296987  0.926266  1
  H  H49  1  0.296987  0.030815  0.573734  1
  H  H50  1  0.969185  0.703013  0.073734  1
  H  H51  1  0.703013  0.969185  0.426266  1
  O  O52  1  0.977075  0.977075  0.750000  1
  O  O53  1  0.022925  0.022925  0.250000  1
  O  O54  1  0.587947  0.456309  0.877021  1
  O  O55  1  0.456309  0.587947  0.622979  1
  O  O56  1  0.412053  0.543691  0.122979  1
  O  O57  1  0.543691  0.412053  0.377021  1
  O  O58  1  0.963443  0.807945  0.052173  1
  O  O59  1  0.807945  0.963443  0.447827  1
  O  O60  1  0.036557  0.192055  0.947827  1
  O  O61  1  0.192055  0.036557  0.552173  1
  O  O62  1  0.713555  0.454053  0.793932  1
  O  O63  1  0.454053  0.713555  0.706068  1
  O  O64  1  0.286445  0.545947  0.206068  1
  O  O65  1  0.545947  0.286445  0.293932  1
  O  O66  1  0.185994  0.427143  0.440908  1
  O  O67  1  0.427143  0.185994  0.059092  1
  O  O68  1  0.814006  0.572857  0.559092  1
  O  O69  1  0.572857  0.814006  0.940908  1
  O  O70  1  0.236356  0.668627  0.560615  1
  O  O71  1  0.668627  0.236356  0.939385  1
  O  O72  1  0.763644  0.331373  0.439385  1
  O  O73  1  0.331373  0.763644  0.060615  1
  O  O74  1  0.380125  0.872550  0.719265  1
  O  O75  1  0.872550  0.380125  0.780735  1
  O  O76  1  0.619875  0.127450  0.280735  1
  O  O77  1  0.127450  0.619875  0.219265  1
  O  O78  1  -0.005453  0.320281  0.081485  1
  O  O79  1  0.320281  -0.005453  0.418515  1
  O  O80  1  0.005453  0.679719  0.918515  1
  O  O81  1  0.679719  0.005453  0.581485  1
  O  O82  1  0.085878  0.517974  0.842685  1
  O  O83  1  0.517974  0.085878  0.657315  1
  O  O84  1  0.914122  0.482026  0.157315  1
  O  O85  1  0.482026  0.914122  0.342685  1
