# generated using pymatgen
data_LiCoPO4
_symmetry_space_group_name_H-M   'P 1'
_cell_length_a   4.29468055
_cell_length_b   14.62785191
_cell_length_c   4.76229812
_cell_angle_alpha   89.99960643
_cell_angle_beta   90.00010907
_cell_angle_gamma   89.99982077
_symmetry_Int_Tables_number   1
_chemical_formula_structural   LiCoPO4
_chemical_formula_sum   'Li4 Co4 P4 O16'
_cell_volume   299.17685955
_cell_formula_units_Z   4
loop_
 _symmetry_equiv_pos_site_id
 _symmetry_equiv_pos_as_xyz
  1  'x, y, z'
loop_
 _atom_site_type_symbol
 _atom_site_label
 _atom_site_symmetry_multiplicity
 _atom_site_fract_x
 _atom_site_fract_y
 _atom_site_fract_z
 _atom_site_occupancy
  Li  Li0  1  0.000000  0.248618  0.750000  1
  Li  Li1  1  -0.000000  0.751382  0.250000  1
  Li  Li2  1  0.500000  0.251381  0.250000  1
  Li  Li3  1  0.500000  0.748618  0.750000  1
  Co  Co4  1  -0.000001  0.062309  0.250000  1
  Co  Co5  1  0.000001  0.937691  0.750000  1
  Co  Co6  1  0.500000  0.562308  0.249999  1
  Co  Co7  1  0.499998  0.437692  0.750002  1
  P  P8  1  -0.000000  0.387059  0.250000  1
  P  P9  1  -0.000001  0.612941  0.750001  1
  P  P10  1  0.500000  0.112940  0.750000  1
  P  P11  1  0.500000  0.887058  0.249999  1
  O  O12  1  0.187209  0.328246  0.464219  1
  O  O13  1  0.187212  0.671754  0.964220  1
  O  O14  1  0.263824  0.052313  0.585965  1
  O  O15  1  0.263822  0.947687  0.085961  1
  O  O16  1  0.236177  0.447688  0.085963  1
  O  O17  1  0.236178  0.552312  0.585962  1
  O  O18  1  0.312788  0.171755  0.964221  1
  O  O19  1  0.312789  0.828245  0.464219  1
  O  O20  1  0.687211  0.171755  0.535780  1
  O  O21  1  0.687211  0.828245  0.035780  1
  O  O22  1  0.763824  0.552313  0.914038  1
  O  O23  1  0.763825  0.447687  0.414036  1
  O  O24  1  0.736177  0.052313  0.914036  1
  O  O25  1  0.736179  0.947687  0.414039  1
  O  O26  1  0.812788  0.328246  0.035778  1
  O  O27  1  0.812790  0.671754  0.535780  1
