# generated using pymatgen
data_Li2MnFe(BO3)2
_symmetry_space_group_name_H-M   'P 1'
_cell_length_a   8.25655425
_cell_length_b   8.26614999
_cell_length_c   6.32669338
_cell_angle_alpha   90.00000000
_cell_angle_beta   90.00000000
_cell_angle_gamma   120.07324616
_symmetry_Int_Tables_number   1
_chemical_formula_structural   Li2MnFe(BO3)2
_chemical_formula_sum   'Li6 Mn3 Fe3 B6 O18'
_cell_volume   373.67025020
_cell_formula_units_Z   3
loop_
 _symmetry_equiv_pos_site_id
 _symmetry_equiv_pos_as_xyz
  1  'x, y, z'
loop_
 _atom_site_type_symbol
 _atom_site_label
 _atom_site_symmetry_multiplicity
 _atom_site_fract_x
 _atom_site_fract_y
 _atom_site_fract_z
 _atom_site_occupancy
  Li  Li0  1  0.283945  0.982311  0.250633  1
  Li  Li1  1  0.283945  0.982311  0.749367  1
  Li  Li2  1  0.018139  0.301950  0.249190  1
  Li  Li3  1  0.018139  0.301950  0.750810  1
  Li  Li4  1  0.698898  0.714807  0.749330  1
  Li  Li5  1  0.698898  0.714807  0.250670  1
  Mn  Mn6  1  0.372436  0.359657  0.000000  1
  Mn  Mn7  1  0.640658  0.012096  0.000000  1
  Mn  Mn8  1  0.639296  0.012417  0.500000  1
  Fe  Fe9  1  0.365705  0.358930  0.500000  1
  Fe  Fe10  1  0.991919  0.632956  0.000000  1
  Fe  Fe11  1  0.991735  0.631784  0.500000  1
  B  B12  1  0.998166  0.997359  0.000000  1
  B  B13  1  0.000238  0.997604  0.500000  1
  B  B14  1  0.331255  0.666011  0.251629  1
  B  B15  1  0.331255  0.666011  0.748371  1
  B  B16  1  0.668691  0.335864  0.251616  1
  B  B17  1  0.668691  0.335864  0.748384  1
  O  O18  1  0.111550  0.915366  0.500000  1
  O  O19  1  0.111742  0.916732  0.000000  1
  O  O20  1  0.137037  0.580232  0.250049  1
  O  O21  1  0.137037  0.580232  0.749951  1
  O  O22  1  0.078650  0.191187  0.000000  1
  O  O23  1  0.084255  0.192951  0.500000  1
  O  O24  1  0.439443  0.859724  0.249949  1
  O  O25  1  0.439443  0.859724  0.750051  1
  O  O26  1  0.417126  0.558016  0.253537  1
  O  O27  1  0.417126  0.558016  0.746463  1
  O  O28  1  0.474436  0.253776  0.253625  1
  O  O29  1  0.474436  0.253776  0.746375  1
  O  O30  1  0.804520  0.883203  0.000000  1
  O  O31  1  0.806796  0.887196  0.500000  1
  O  O32  1  0.782274  0.529430  0.250365  1
  O  O33  1  0.782274  0.529430  0.749635  1
  O  O34  1  0.749924  0.223160  0.749965  1
  O  O35  1  0.749924  0.223160  0.250035  1
