# generated using pymatgen
data_Li2MnV(PO4)3
_symmetry_space_group_name_H-M   'P 1'
_cell_length_a   9.21058283
_cell_length_b   8.33707456
_cell_length_c   8.28971082
_cell_angle_alpha   60.88306624
_cell_angle_beta   61.90450447
_cell_angle_gamma   91.98576109
_symmetry_Int_Tables_number   1
_chemical_formula_structural   Li2MnV(PO4)3
_chemical_formula_sum   'Li4 Mn2 V2 P6 O24'
_cell_volume   460.95030939
_cell_formula_units_Z   2
loop_
 _symmetry_equiv_pos_site_id
 _symmetry_equiv_pos_as_xyz
  1  'x, y, z'
loop_
 _atom_site_type_symbol
 _atom_site_label
 _atom_site_symmetry_multiplicity
 _atom_site_fract_x
 _atom_site_fract_y
 _atom_site_fract_z
 _atom_site_occupancy
  Li  Li0  1  0.139501  0.742514  0.178337  1
  Li  Li1  1  0.126035  0.066575  0.608918  1
  Li  Li2  1  0.873965  0.933425  0.391082  1
  Li  Li3  1  0.860499  0.257486  0.821663  1
  Mn  Mn4  1  0.564987  0.849296  0.289831  1
  Mn  Mn5  1  0.435013  0.150704  0.710169  1
  V  V6  1  0.047598  0.354015  0.292124  1
  V  V7  1  0.952402  0.645985  0.707876  1
  P  P8  1  0.254009  0.045546  0.206397  1
  P  P9  1  0.242253  0.460987  0.497501  1
  P  P10  1  0.256186  0.751430  0.777840  1
  P  P11  1  0.743814  0.248570  0.222160  1
  P  P12  1  0.757747  0.539013  0.502499  1
  P  P13  1  0.745991  0.954454  0.793603  1
  O  O14  1  0.097733  0.839005  0.372194  1
  O  O15  1  0.270482  0.124713  0.985439  1
  O  O16  1  0.178205  0.171826  0.295987  1
  O  O17  1  0.191806  0.498165  0.327793  1
  O  O18  1  0.088813  0.475593  0.680451  1
  O  O19  1  0.119879  0.792542  0.712674  1
  O  O20  1  0.417294  0.027922  0.200778  1
  O  O21  1  0.246166  0.254486  0.612073  1
  O  O22  1  0.415206  0.617225  0.373110  1
  O  O23  1  0.186075  0.535971  0.980072  1
  O  O24  1  0.264634  0.884570  0.855195  1
  O  O25  1  0.432655  0.792278  0.585426  1
  O  O26  1  0.567345  0.207722  0.414574  1
  O  O27  1  0.735366  0.115430  0.144805  1
  O  O28  1  0.813925  0.464029  0.019928  1
  O  O29  1  0.584794  0.382775  0.626890  1
  O  O30  1  0.753834  0.745514  0.387927  1
  O  O31  1  0.582706  0.972078  0.799222  1
  O  O32  1  0.880121  0.207458  0.287326  1
  O  O33  1  0.911187  0.524407  0.319549  1
  O  O34  1  0.808194  0.501835  0.672207  1
  O  O35  1  0.821795  0.828174  0.704013  1
  O  O36  1  0.729518  0.875287  0.014561  1
  O  O37  1  0.902267  0.160995  0.627806  1
