# generated using pymatgen
data_Li5V3P8O29
_symmetry_space_group_name_H-M   'P 1'
_cell_length_a   9.80117286
_cell_length_b   9.80556135
_cell_length_c   13.88706187
_cell_angle_alpha   90.13508645
_cell_angle_beta   90.01722203
_cell_angle_gamma   59.99412399
_symmetry_Int_Tables_number   1
_chemical_formula_structural   Li5V3P8O29
_chemical_formula_sum   'Li10 V6 P16 O58'
_cell_volume   1155.75122805
_cell_formula_units_Z   2
loop_
 _symmetry_equiv_pos_site_id
 _symmetry_equiv_pos_as_xyz
  1  'x, y, z'
loop_
 _atom_site_type_symbol
 _atom_site_label
 _atom_site_symmetry_multiplicity
 _atom_site_fract_x
 _atom_site_fract_y
 _atom_site_fract_z
 _atom_site_occupancy
  Li  Li0  1  0.771354  0.903430  0.561122  1
  Li  Li1  1  0.904152  0.323606  0.560810  1
  Li  Li2  1  0.770683  0.318620  0.059951  1
  Li  Li3  1  0.323850  0.903630  0.059528  1
  Li  Li4  1  0.674845  0.229619  0.438699  1
  Li  Li5  1  0.324523  0.771347  0.561110  1
  Li  Li6  1  0.224838  0.678500  0.942070  1
  Li  Li7  1  0.095506  0.675949  0.438038  1
  Li  Li8  1  0.227781  0.095297  0.439938  1
  Li  Li9  1  0.093610  0.230301  0.939718  1
  V  V10  1  0.567395  0.432366  0.248146  1
  V  V11  1  0.433324  0.566657  0.751531  1
  V  V12  1  0.570145  0.001530  0.755874  1
  V  V13  1  0.436964  0.001530  0.248102  1
  V  V14  1  0.997892  0.570072  0.245880  1
  V  V15  1  0.997755  0.435183  0.749955  1
  P  P16  1  0.914913  0.769083  0.843331  1
  P  P17  1  0.770221  0.913725  0.342013  1
  P  P18  1  0.912309  0.320466  0.342077  1
  P  P19  1  0.666922  0.666314  0.126695  1
  P  P20  1  0.664630  0.669798  0.626612  1
  P  P21  1  0.769202  0.318235  0.843311  1
  P  P22  1  0.680634  0.230870  0.658566  1
  P  P23  1  0.317856  0.913184  0.842034  1
  P  P24  1  0.689303  0.083108  0.153787  1
  P  P25  1  0.320724  0.769576  0.342125  1
  P  P26  1  0.230023  0.681772  0.158571  1
  P  P27  1  0.332958  0.334288  0.372892  1
  P  P28  1  0.330911  0.334027  0.873823  1
  P  P29  1  0.087267  0.680771  0.657276  1
  P  P30  1  0.232962  0.087898  0.657964  1
  P  P31  1  0.088391  0.230709  0.158227  1
  O  O32  1  0.001239  0.757763  0.565663  1
  O  O33  1  0.916574  0.748696  0.342037  1
  O  O34  1  0.764945  0.993317  0.065927  1
  O  O35  1  0.744722  0.914586  0.836064  1
  O  O36  1  0.903207  0.619921  0.825771  1
  O  O37  1  0.809431  0.671573  0.171509  1
  O  O38  1  0.904920  0.478309  0.325114  1
  O  O39  1  0.000755  0.239187  0.067679  1
  O  O40  1  0.917171  0.337554  0.838884  1
  O  O41  1  0.670932  0.817753  0.669786  1
  O  O42  1  0.618267  0.903951  0.322463  1
  O  O43  1  0.811509  0.515142  0.666571  1
  O  O44  1  0.656361  0.670251  0.019629  1
  O  O45  1  0.666512  0.673219  0.518941  1
  O  O46  1  0.672545  0.512898  0.166970  1
  O  O47  1  0.479104  0.902692  0.823590  1
  O  O48  1  0.511316  0.817484  0.169904  1
  O  O49  1  0.746277  0.337623  0.340998  1
  O  O50  1  0.791101  0.209031  0.750324  1
  O  O51  1  0.761292  0.236887  0.567696  1
  O  O52  1  0.759430  0.246153  0.934746  1
  O  O53  1  0.618591  0.479279  0.822039  1
  O  O54  1  0.511266  0.676938  0.666497  1
  O  O55  1  0.663455  0.252438  0.159215  1
  O  O56  1  0.479357  0.621231  0.324950  1
  O  O57  1  0.337163  0.919461  0.340295  1
  O  O58  1  0.789908  0.004574  0.252446  1
  O  O59  1  0.753364  0.002313  0.433958  1
  O  O60  1  0.243083  0.998739  0.567448  1
  O  O61  1  0.664334  0.080691  0.660590  1
  O  O62  1  0.520940  0.378367  0.674745  1
  O  O63  1  0.335309  0.748271  0.842706  1
  O  O64  1  0.487078  0.324911  0.333523  1
  O  O65  1  0.381621  0.521663  0.176471  1
  O  O66  1  0.244374  0.757989  0.068421  1
  O  O67  1  0.239679  0.762392  0.432561  1
  O  O68  1  0.209073  0.792714  0.250359  1
  O  O69  1  0.253763  0.663353  0.659929  1
  O  O70  1  0.481947  0.184647  0.826163  1
  O  O71  1  0.525473  0.092914  0.177538  1
  O  O72  1  0.328027  0.485406  0.834088  1
  O  O73  1  0.336351  0.326991  0.980870  1
  O  O74  1  0.332962  0.325360  0.480469  1
  O  O75  1  0.185664  0.486080  0.333307  1
  O  O76  1  0.383919  0.094415  0.677381  1
  O  O77  1  0.328394  0.183175  0.329216  1
  O  O78  1  0.085930  0.660094  0.161470  1
  O  O79  1  0.995986  0.793241  0.746779  1
  O  O80  1  0.005801  0.764734  0.929155  1
  O  O81  1  0.098532  0.520827  0.674968  1
  O  O82  1  0.186041  0.325757  0.832969  1
  O  O83  1  0.103718  0.376178  0.175987  1
  O  O84  1  0.254607  0.079671  0.159903  1
  O  O85  1  0.242489  0.003531  0.932655  1
  O  O86  1  0.208512  0.000094  0.749964  1
  O  O87  1  0.084219  0.253076  0.658231  1
  O  O88  1  0.000406  0.240284  0.432607  1
  O  O89  1  0.999941  0.208279  0.250075  1
