# generated using pymatgen
data_Li3MnSiO5
_symmetry_space_group_name_H-M   'P 1'
_cell_length_a   5.00750815
_cell_length_b   5.48688723
_cell_length_c   15.88359764
_cell_angle_alpha   89.98841894
_cell_angle_beta   89.99876957
_cell_angle_gamma   89.99805351
_symmetry_Int_Tables_number   1
_chemical_formula_structural   Li3MnSiO5
_chemical_formula_sum   'Li12 Mn4 Si4 O20'
_cell_volume   436.41188267
_cell_formula_units_Z   4
loop_
 _symmetry_equiv_pos_site_id
 _symmetry_equiv_pos_as_xyz
  1  'x, y, z'
loop_
 _atom_site_type_symbol
 _atom_site_label
 _atom_site_symmetry_multiplicity
 _atom_site_fract_x
 _atom_site_fract_y
 _atom_site_fract_z
 _atom_site_occupancy
  Li  Li0  1  0.994257  0.663842  0.590556  1
  Li  Li1  1  0.994245  0.163854  0.909448  1
  Li  Li2  1  0.499226  0.335813  0.993552  1
  Li  Li3  1  0.499260  0.835786  0.506405  1
  Li  Li4  1  0.508572  0.326891  0.802695  1
  Li  Li5  1  0.508575  0.826925  0.697277  1
  Li  Li6  1  0.494248  0.336211  0.409467  1
  Li  Li7  1  0.494217  0.836141  0.090514  1
  Li  Li8  1  0.999241  0.664204  0.006416  1
  Li  Li9  1  0.999261  0.164194  0.493597  1
  Li  Li10  1  0.008553  0.173054  0.302751  1
  Li  Li11  1  0.008549  0.673168  0.197298  1
  Mn  Mn12  1  0.007546  0.171639  0.697292  1
  Mn  Mn13  1  0.007375  0.671605  0.802832  1
  Mn  Mn14  1  0.507319  0.328386  0.197176  1
  Mn  Mn15  1  0.507283  0.828352  0.302727  1
  Si  Si16  1  0.005893  0.163243  0.097974  1
  Si  Si17  1  0.005783  0.663191  0.402037  1
  Si  Si18  1  0.505888  0.336792  0.597976  1
  Si  Si19  1  0.505910  0.836775  0.902024  1
  O  O20  1  0.098544  0.340696  0.795801  1
  O  O21  1  0.098519  0.840608  0.704288  1
  O  O22  1  0.103353  0.380060  0.397801  1
  O  O23  1  0.103313  0.880077  0.102191  1
  O  O24  1  0.103945  0.313517  0.015216  1
  O  O25  1  0.104000  0.813502  0.484773  1
  O  O26  1  0.105141  0.310233  0.185711  1
  O  O27  1  0.104918  0.810249  0.314266  1
  O  O28  1  0.168805  0.329632  0.601517  1
  O  O29  1  0.168871  0.829639  0.898496  1
  O  O30  1  0.598418  0.659147  0.204198  1
  O  O31  1  0.598444  0.159447  0.295665  1
  O  O32  1  0.603372  0.619937  0.602208  1
  O  O33  1  0.603356  0.119931  0.897800  1
  O  O34  1  0.604010  0.186493  0.515230  1
  O  O35  1  0.603992  0.686482  0.984771  1
  O  O36  1  0.605083  0.189747  0.685740  1
  O  O37  1  0.605115  0.689760  0.814281  1
  O  O38  1  0.668849  0.170404  0.101537  1
  O  O39  1  0.668756  0.670375  0.398496  1
