# generated using pymatgen
data_Mg4Sc3(SiO3)8
_symmetry_space_group_name_H-M   'P 1'
_cell_length_a   9.45088408
_cell_length_b   8.97921673
_cell_length_c   5.44018470
_cell_angle_alpha   90.00000000
_cell_angle_beta   89.84924490
_cell_angle_gamma   90.00000000
_symmetry_Int_Tables_number   1
_chemical_formula_structural   Mg4Sc3(SiO3)8
_chemical_formula_sum   'Mg4 Sc3 Si8 O24'
_cell_volume   461.66083384
_cell_formula_units_Z   1
loop_
 _symmetry_equiv_pos_site_id
 _symmetry_equiv_pos_as_xyz
  1  'x, y, z'
loop_
 _atom_site_type_symbol
 _atom_site_label
 _atom_site_symmetry_multiplicity
 _atom_site_fract_x
 _atom_site_fract_y
 _atom_site_fract_z
 _atom_site_occupancy
  Mg  Mg0  1  0.000000  0.728876  0.750000  1
  Mg  Mg1  1  0.500000  0.236329  0.750000  1
  Mg  Mg2  1  0.500000  0.602701  0.750000  1
  Mg  Mg3  1  0.500000  0.764357  0.250000  1
  Sc  Sc4  1  0.000000  0.116928  0.750000  1
  Sc  Sc5  1  0.000000  0.911768  0.250000  1
  Sc  Sc6  1  0.500000  0.405072  0.250000  1
  Si  Si7  1  0.205700  0.588948  0.073029  1
  Si  Si8  1  0.208051  0.410797  0.572263  1
  Si  Si9  1  0.294812  0.086502  0.070613  1
  Si  Si10  1  0.297152  0.909081  0.575103  1
  Si  Si11  1  0.705188  0.086502  0.429386  1
  Si  Si12  1  0.702848  0.909081  0.924897  1
  Si  Si13  1  0.791949  0.410797  0.927737  1
  Si  Si14  1  0.794300  0.588948  0.426971  1
  O  O15  1  0.124166  0.079853  0.071429  1
  O  O16  1  0.123663  0.900482  0.588579  1
  O  O17  1  0.144598  0.247518  0.594556  1
  O  O18  1  0.120439  0.745845  0.064346  1
  O  O19  1  0.157824  0.493051  0.315340  1
  O  O20  1  0.150763  0.521340  0.801540  1
  O  O21  1  0.355145  0.016949  0.802059  1
  O  O22  1  0.350785  0.981236  0.304209  1
  O  O23  1  0.381413  0.242712  0.066699  1
  O  O24  1  0.382594  0.753681  0.564411  1
  O  O25  1  0.383773  0.409222  0.589684  1
  O  O26  1  0.380623  0.597819  0.073702  1
  O  O27  1  0.616227  0.409222  0.910316  1
  O  O28  1  0.619377  0.597819  0.426298  1
  O  O29  1  0.618587  0.242712  0.433301  1
  O  O30  1  0.617406  0.753681  0.935589  1
  O  O31  1  0.644855  0.016949  0.697941  1
  O  O32  1  0.649215  0.981236  0.195791  1
  O  O33  1  0.842176  0.493051  0.184660  1
  O  O34  1  0.849237  0.521340  0.698460  1
  O  O35  1  0.855402  0.247518  0.905444  1
  O  O36  1  0.879561  0.745845  0.435654  1
  O  O37  1  0.875834  0.079853  0.428571  1
  O  O38  1  0.876337  0.900482  0.911421  1
