# generated using pymatgen
data_ZnCrH28C6N12Cl5O8
_symmetry_space_group_name_H-M   'P 1'
_cell_length_a   10.73767182
_cell_length_b   11.00702517
_cell_length_c   13.41016733
_cell_angle_alpha   101.52490297
_cell_angle_beta   101.63142554
_cell_angle_gamma   108.61111448
_symmetry_Int_Tables_number   1
_chemical_formula_structural   ZnCrH28C6N12Cl5O8
_chemical_formula_sum   'Zn2 Cr2 H56 C12 N24 Cl10 O16'
_cell_volume   1410.39677699
_cell_formula_units_Z   2
loop_
 _symmetry_equiv_pos_site_id
 _symmetry_equiv_pos_as_xyz
  1  'x, y, z'
loop_
 _atom_site_type_symbol
 _atom_site_label
 _atom_site_symmetry_multiplicity
 _atom_site_fract_x
 _atom_site_fract_y
 _atom_site_fract_z
 _atom_site_occupancy
  Zn  Zn0  1  0.406524  0.698142  0.669578  1
  Zn  Zn1  1  0.593476  0.301858  0.330422  1
  Cr  Cr2  1  0.960059  0.957298  0.237903  1
  Cr  Cr3  1  0.039941  0.042702  0.762097  1
  H  H4  1  0.869481  0.290861  0.164160  1
  H  H5  1  0.130519  0.709139  0.835840  1
  H  H6  1  0.022540  0.393196  0.145668  1
  H  H7  1  0.977460  0.606804  0.854332  1
  H  H8  1  0.217478  0.323534  0.182103  1
  H  H9  1  0.782522  0.676466  0.817897  1
  H  H10  1  0.179084  0.156980  0.186808  1
  H  H11  1  0.820916  0.843020  0.813192  1
  H  H12  1  0.523624  0.833651  0.349921  1
  H  H13  1  0.476376  0.166349  0.650079  1
  H  H14  1  0.619592  0.002280  0.366023  1
  H  H15  1  0.380408  0.997720  0.633977  1
  H  H16  1  0.756497  0.713595  0.250232  1
  H  H17  1  0.243503  0.286405  0.749768  1
  H  H18  1  0.598287  0.667701  0.275473  1
  H  H19  1  0.401713  0.332299  0.724527  1
  H  H20  1  0.671955  0.617081  0.957677  1
  H  H21  1  0.328045  0.382919  0.042323  1
  H  H22  1  0.549408  0.683629  0.914897  1
  H  H23  1  0.450592  0.316371  0.085103  1
  H  H24  1  0.730881  0.001334  0.103642  1
  H  H25  1  0.269119  0.998666  0.896358  1
  H  H26  1  0.582639  0.901992  0.998078  1
  H  H27  1  0.417361  0.098008  0.001922  1
  H  H28  1  0.958380  0.726095  0.081684  1
  H  H29  1  0.041620  0.273905  0.918316  1
  H  H30  1  0.089434  0.662010  0.075505  1
  H  H31  1  0.910566  0.337990  0.924495  1
  H  H32  1  0.315955  0.816152  0.124740  1
  H  H33  1  0.684045  0.183848  0.875260  1
  H  H34  1  0.352991  0.977821  0.202096  1
  H  H35  1  0.647009  0.022179  0.797904  1
  H  H36  1  0.093045  0.606557  0.376228  1
  H  H37  1  0.906955  0.393443  0.623772  1
  H  H38  1  0.937856  0.575392  0.279655  1
  H  H39  1  0.062144  0.424608  0.720345  1
  H  H40  1  0.270804  0.823991  0.402818  1
  H  H41  1  0.729196  0.176009  0.597182  1
  H  H42  1  0.214550  0.955877  0.392929  1
  H  H43  1  0.785450  0.044123  0.607071  1
  H  H44  1  0.329791  0.259715  0.456340  1
  H  H45  1  0.670209  0.740285  0.543660  1
  H  H46  1  0.274005  0.381282  0.518032  1
  H  H47  1  0.725995  0.618718  0.481968  1
  H  H48  1  0.030093  0.332493  0.468374  1
  H  H49  1  0.969907  0.667507  0.531626  1
  H  H50  1  0.920850  0.167959  0.394464  1
  H  H51  1  0.079150  0.832041  0.605536  1
  H  H52  1  0.377243  0.625042  0.374111  1
  H  H53  1  0.622757  0.374958  0.625889  1
  H  H54  1  0.313829  0.631830  0.261069  1
  H  H55  1  0.686171  0.368170  0.738931  1
  H  H56  1  0.730197  0.407299  0.153241  1
  H  H57  1  0.269803  0.592701  0.846759  1
  H  H58  1  0.776898  0.494951  0.079130  1
  H  H59  1  0.223102  0.505049  0.920870  1
  C  C60  1  0.017783  0.215462  0.175996  1
  C  C61  1  0.982217  0.784538  0.824004  1
  C  C62  1  0.702407  0.870431  0.305580  1
  C  C63  1  0.297593  0.129569  0.694420  1
  C  C64  1  0.712919  0.808817  0.043322  1
  C  C65  1  0.287081  0.191183  0.956678  1
  C  C66  1  0.150658  0.865481  0.136994  1
  C  C67  1  0.849342  0.134519  0.863006  1
  C  C68  1  0.064421  0.769945  0.337663  1
  C  C69  1  0.935579  0.230055  0.662337  1
  C  C70  1  0.123695  0.201752  0.422973  1
  C  C71  1  0.876305  0.798248  0.577027  1
  N  N72  1  0.970006  0.312885  0.167730  1
  N  N73  1  0.029994  0.687115  0.832270  1
  N  N74  1  0.148508  0.234694  0.181051  1
  N  N75  1  0.851492  0.765306  0.818949  1
  N  N76  1  0.610243  0.905163  0.346132  1
  N  N77  1  0.389757  0.094837  0.653868  1
  N  N78  1  0.678822  0.740533  0.266557  1
  N  N79  1  0.321178  0.259467  0.733443  1
  N  N80  1  0.635608  0.692530  0.968569  1
  N  N81  1  0.364392  0.307470  0.031431  1
  N  N82  1  0.668098  0.910010  0.052315  1
  N  N83  1  0.331902  0.089990  0.947685  1
  N  N84  1  0.059228  0.741871  0.089153  1
  N  N85  1  0.940772  0.258129  0.910847  1
  N  N86  1  0.285027  0.893335  0.145173  1
  N  N87  1  0.714973  0.106665  0.854827  1
  N  N88  1  0.031036  0.639750  0.330599  1
  N  N89  1  0.968964  0.360250  0.669401  1
  N  N90  1  0.192490  0.857718  0.389073  1
  N  N91  1  0.807510  0.142282  0.610927  1
  N  N92  1  0.252671  0.286155  0.474808  1
  N  N93  1  0.747329  0.713845  0.525192  1
  N  N94  1  0.017267  0.237775  0.430228  1
  N  N95  1  0.982733  0.762225  0.569772  1
  Cl  Cl96  1  0.783396  0.468795  0.907889  1
  Cl  Cl97  1  0.216604  0.531205  0.092111  1
  Cl  Cl98  1  0.192946  0.577528  0.554501  1
  Cl  Cl99  1  0.807054  0.422472  0.445499  1
  Cl  Cl100  1  0.516482  0.554211  0.691222  1
  Cl  Cl101  1  0.483518  0.445789  0.308778  1
  Cl  Cl102  1  0.523967  0.859246  0.602880  1
  Cl  Cl103  1  0.476033  0.140754  0.397120  1
  Cl  Cl104  1  0.389916  0.804419  0.833672  1
  Cl  Cl105  1  0.610084  0.195581  0.166328  1
  O  O106  1  0.933465  0.104252  0.180004  1
  O  O107  1  0.066535  0.895748  0.819996  1
  O  O108  1  0.810356  0.964763  0.304062  1
  O  O109  1  0.189644  0.035237  0.695938  1
  O  O110  1  0.826199  0.817654  0.104572  1
  O  O111  1  0.173801  0.182346  0.895428  1
  O  O112  1  0.115211  0.962981  0.173356  1
  O  O113  1  0.884789  0.037019  0.826644  1
  O  O114  1  0.968610  0.805953  0.294720  1
  O  O115  1  0.031390  0.194047  0.705280  1
  O  O116  1  0.106149  0.084379  0.367528  1
  O  O117  1  0.893851  0.915621  0.632472  1
  O  O118  1  0.355682  0.686243  0.336333  1
  O  O119  1  0.644318  0.313757  0.663667  1
  O  O120  1  0.785662  0.497922  0.154319  1
  O  O121  1  0.214338  0.502078  0.845681  1
