# generated using pymatgen
data_Li2CoP2O7
_symmetry_space_group_name_H-M   'P 1'
_cell_length_a   4.85411137
_cell_length_b   5.23192941
_cell_length_c   12.19728816
_cell_angle_alpha   109.71774922
_cell_angle_beta   101.42998182
_cell_angle_gamma   62.41055452
_symmetry_Int_Tables_number   1
_chemical_formula_structural   Li2CoP2O7
_chemical_formula_sum   'Li4 Co2 P4 O14'
_cell_volume   258.11901227
_cell_formula_units_Z   2
loop_
 _symmetry_equiv_pos_site_id
 _symmetry_equiv_pos_as_xyz
  1  'x, y, z'
loop_
 _atom_site_type_symbol
 _atom_site_label
 _atom_site_symmetry_multiplicity
 _atom_site_fract_x
 _atom_site_fract_y
 _atom_site_fract_z
 _atom_site_occupancy
  Li  Li0  1  0.374611  0.865428  0.160497  1
  Li  Li1  1  0.079071  0.633349  0.337092  1
  Li  Li2  1  0.927125  0.366018  0.663044  1
  Li  Li3  1  0.621186  0.132499  0.830832  1
  Co  Co4  1  0.001633  0.500161  0.999636  1
  Co  Co5  1  0.500620  0.000800  0.499654  1
  P  P6  1  0.343785  0.769384  0.872382  1
  P  P7  1  0.239175  0.732134  0.628498  1
  P  P8  1  0.761903  0.268969  0.371333  1
  P  P9  1  0.656764  0.233398  0.127201  1
  O  O10  1  0.680484  0.915642  0.094890  1
  O  O11  1  0.348334  0.983721  0.660093  1
  O  O12  1  0.955292  0.789894  0.545252  1
  O  O13  1  0.499006  0.586105  0.403475  1
  O  O14  1  0.113015  0.747086  0.750213  1
  O  O15  1  0.201042  0.715704  0.957321  1
  O  O16  1  0.672436  0.518571  0.840079  1
  O  O17  1  0.326184  0.480257  0.159674  1
  O  O18  1  0.795306  0.296150  0.044369  1
  O  O19  1  0.887225  0.251054  0.249225  1
  O  O20  1  0.504572  0.416134  0.596583  1
  O  O21  1  0.046251  0.211072  0.454623  1
  O  O22  1  0.651126  0.018765  0.339984  1
  O  O23  1  0.322507  0.085343  0.901839  1
