# generated using pymatgen
data_Li9V12Cr7O48
_symmetry_space_group_name_H-M   'P 1'
_cell_length_a   5.03389548
_cell_length_b   10.21617030
_cell_length_c   17.13602165
_cell_angle_alpha   89.90253174
_cell_angle_beta   89.48523728
_cell_angle_gamma   89.91595379
_symmetry_Int_Tables_number   1
_chemical_formula_structural   Li9V12Cr7O48
_chemical_formula_sum   'Li9 V12 Cr7 O48'
_cell_volume   881.21870412
_cell_formula_units_Z   1
loop_
 _symmetry_equiv_pos_site_id
 _symmetry_equiv_pos_as_xyz
  1  'x, y, z'
loop_
 _atom_site_type_symbol
 _atom_site_label
 _atom_site_symmetry_multiplicity
 _atom_site_fract_x
 _atom_site_fract_y
 _atom_site_fract_z
 _atom_site_occupancy
  Li  Li0  1  0.097355  0.250509  0.250339  1
  Li  Li1  1  0.250233  0.418330  0.969571  1
  Li  Li2  1  0.252508  0.581602  0.471891  1
  Li  Li3  1  0.253714  0.918778  0.472338  1
  Li  Li4  1  0.243941  0.254108  0.803390  1
  Li  Li5  1  0.753103  0.751150  0.192748  1
  Li  Li6  1  0.752034  0.919170  0.028556  1
  Li  Li7  1  0.750216  0.251281  0.700732  1
  Li  Li8  1  0.901164  0.750478  0.748847  1
  V  V9  1  0.224033  0.749003  0.943965  1
  V  V10  1  0.224962  0.028669  0.654986  1
  V  V11  1  0.223644  0.471885  0.654665  1
  V  V12  1  0.286677  0.526618  0.154243  1
  V  V13  1  0.285541  0.973729  0.157471  1
  V  V14  1  0.287233  0.250698  0.443848  1
  V  V15  1  0.714705  0.750165  0.558298  1
  V  V16  1  0.715839  0.472988  0.842590  1
  V  V17  1  0.716053  0.025654  0.846127  1
  V  V18  1  0.772572  0.529190  0.343056  1
  V  V19  1  0.774227  0.970660  0.343724  1
  V  V20  1  0.775637  0.248906  0.056112  1
  Cr  Cr21  1  0.237471  0.753478  0.297753  1
  Cr  Cr22  1  0.244478  0.068865  0.974659  1
  Cr  Cr23  1  0.404333  0.749262  0.750725  1
  Cr  Cr24  1  0.597132  0.248926  0.248559  1
  Cr  Cr25  1  0.763024  0.067276  0.527115  1
  Cr  Cr26  1  0.760597  0.432826  0.527926  1
  Cr  Cr27  1  0.760133  0.568474  0.023100  1
  O  O28  1  0.065539  0.236010  0.996088  1
  O  O29  1  0.059981  0.616635  0.366200  1
  O  O30  1  0.060709  0.882816  0.368653  1
  O  O31  1  0.099222  0.627669  0.213224  1
  O  O32  1  0.084208  0.874334  0.217333  1
  O  O33  1  0.082168  0.118503  0.465644  1
  O  O34  1  0.080325  0.382016  0.465753  1
  O  O35  1  0.092445  0.009704  0.073817  1
  O  O36  1  0.073561  0.495928  0.076806  1
  O  O37  1  0.167007  0.747395  0.843498  1
  O  O38  1  0.171918  0.620848  0.704251  1
  O  O39  1  0.176126  0.878304  0.706019  1
  O  O40  1  0.369238  0.122812  0.207750  1
  O  O41  1  0.366019  0.381434  0.204012  1
  O  O42  1  0.365478  0.251061  0.344825  1
  O  O43  1  0.436926  0.496878  0.573707  1
  O  O44  1  0.436560  0.002934  0.574744  1
  O  O45  1  0.400350  0.891468  0.966316  1
  O  O46  1  0.440587  0.623054  0.966114  1
  O  O47  1  0.399320  0.125691  0.712277  1
  O  O48  1  0.408138  0.375515  0.709539  1
  O  O49  1  0.414087  0.110875  0.880744  1
  O  O50  1  0.451792  0.383441  0.871443  1
  O  O51  1  0.452878  0.750162  0.497919  1
  O  O52  1  0.581653  0.249603  0.507793  1
  O  O53  1  0.579740  0.609711  0.120463  1
  O  O54  1  0.554157  0.888341  0.130041  1
  O  O55  1  0.559801  0.626686  0.291285  1
  O  O56  1  0.553899  0.874611  0.293622  1
  O  O57  1  0.561107  0.123150  0.033674  1
  O  O58  1  0.601805  0.392592  0.034088  1
  O  O59  1  0.602686  0.014597  0.429852  1
  O  O60  1  0.602384  0.485528  0.428860  1
  O  O61  1  0.628738  0.751576  0.657550  1
  O  O62  1  0.628459  0.623728  0.792762  1
  O  O63  1  0.632882  0.881172  0.796737  1
  O  O64  1  0.829005  0.118740  0.292664  1
  O  O65  1  0.824940  0.379964  0.290908  1
  O  O66  1  0.831211  0.247466  0.157088  1
  O  O67  1  0.913547  0.511173  0.929274  1
  O  O68  1  0.928587  0.994238  0.925736  1
  O  O69  1  0.909779  0.607457  0.538035  1
  O  O70  1  0.910047  0.893289  0.537456  1
  O  O71  1  0.895105  0.121986  0.787577  1
  O  O72  1  0.915809  0.381487  0.785062  1
  O  O73  1  0.922210  0.113465  0.620530  1
  O  O74  1  0.921606  0.384754  0.619262  1
  O  O75  1  0.933705  0.736523  0.005667  1
