# generated using pymatgen
data_Li9V3P8O29
_symmetry_space_group_name_H-M   'P 1'
_cell_length_a   9.95583235
_cell_length_b   9.89118423
_cell_length_c   13.78026864
_cell_angle_alpha   90.18448004
_cell_angle_beta   89.91630157
_cell_angle_gamma   60.15183877
_symmetry_Int_Tables_number   1
_chemical_formula_structural   Li9V3P8O29
_chemical_formula_sum   'Li18 V6 P16 O58'
_cell_volume   1176.98701912
_cell_formula_units_Z   2
loop_
 _symmetry_equiv_pos_site_id
 _symmetry_equiv_pos_as_xyz
  1  'x, y, z'
loop_
 _atom_site_type_symbol
 _atom_site_label
 _atom_site_symmetry_multiplicity
 _atom_site_fract_x
 _atom_site_fract_y
 _atom_site_fract_z
 _atom_site_occupancy
  Li  Li0  1  0.904828  0.759858  0.062026  1
  Li  Li1  1  0.771049  0.897589  0.562489  1
  Li  Li2  1  0.902499  0.333488  0.573053  1
  Li  Li3  1  0.662510  0.666022  0.378397  1
  Li  Li4  1  0.687150  0.649134  0.877943  1
  Li  Li5  1  0.771027  0.333954  0.064551  1
  Li  Li6  1  0.346318  0.894328  0.065384  1
  Li  Li7  1  0.669043  0.234687  0.435930  1
  Li  Li8  1  0.332464  0.767738  0.565256  1
  Li  Li9  1  0.229687  0.673560  0.930551  1
  Li  Li10  1  0.303526  0.339038  0.619105  1
  Li  Li11  1  0.335291  0.332635  0.122542  1
  Li  Li12  1  0.095761  0.670605  0.438181  1
  Li  Li13  1  0.229265  0.099819  0.438446  1
  Li  Li14  1  0.987521  0.443869  0.743194  1
  Li  Li15  1  0.094344  0.230084  0.930497  1
  Li  Li16  1  0.067554  0.970749  0.999203  1
  Li  Li17  1  0.013119  0.991192  0.512398  1
  V  V18  1  0.565207  0.435850  0.249109  1
  V  V19  1  0.433097  0.569362  0.746642  1
  V  V20  1  0.639349  0.116625  0.937916  1
  V  V21  1  0.566337  0.992997  0.738853  1
  V  V22  1  0.431432  0.000531  0.253403  1
  V  V23  1  0.001510  0.562192  0.250240  1
  P  P24  1  0.909897  0.776086  0.847555  1
  P  P25  1  0.772801  0.908329  0.342584  1
  P  P26  1  0.909844  0.315615  0.344241  1
  P  P27  1  0.667444  0.667590  0.122777  1
  P  P28  1  0.660061  0.664425  0.619262  1
  P  P29  1  0.768456  0.320798  0.839716  1
  P  P30  1  0.680010  0.228163  0.652716  1
  P  P31  1  0.320012  0.909456  0.843247  1
  P  P32  1  0.673972  0.092997  0.157773  1
  P  P33  1  0.314841  0.773402  0.345764  1
  P  P34  1  0.226829  0.684348  0.156139  1
  P  P35  1  0.333458  0.333500  0.376696  1
  P  P36  1  0.349398  0.327449  0.881264  1
  P  P37  1  0.087623  0.686192  0.656317  1
  P  P38  1  0.221897  0.091617  0.655356  1
  P  P39  1  0.090723  0.222384  0.154066  1
  O  O40  1  0.997634  0.785001  0.568233  1
  O  O41  1  0.921620  0.749750  0.343828  1
  O  O42  1  0.746541  0.998392  0.063607  1
  O  O43  1  0.745920  0.933424  0.847373  1
  O  O44  1  0.885347  0.638293  0.843974  1
  O  O45  1  0.813504  0.671369  0.161314  1
  O  O46  1  0.891054  0.479745  0.333712  1
  O  O47  1  0.999711  0.218611  0.065748  1
  O  O48  1  0.917613  0.320633  0.852689  1
  O  O49  1  0.674093  0.809468  0.657977  1
  O  O50  1  0.629961  0.887887  0.331973  1
  O  O51  1  0.798362  0.515409  0.655221  1
  O  O52  1  0.663489  0.669761  0.013320  1
  O  O53  1  0.642638  0.681095  0.510163  1
  O  O54  1  0.673235  0.515284  0.161103  1
  O  O55  1  0.479855  0.896386  0.834745  1
  O  O56  1  0.517284  0.812515  0.163048  1
  O  O57  1  0.749463  0.329234  0.342101  1
  O  O58  1  0.781102  0.212326  0.749408  1
  O  O59  1  0.772055  0.231816  0.565458  1
  O  O60  1  0.742319  0.237825  0.930856  1
  O  O61  1  0.628782  0.484250  0.829024  1
  O  O62  1  0.503620  0.684379  0.662272  1
  O  O63  1  0.674305  0.247121  0.153044  1
  O  O64  1  0.477553  0.631003  0.332830  1
  O  O65  1  0.324640  0.923053  0.346117  1
  O  O66  1  0.786158  0.992567  0.243844  1
  O  O67  1  0.767731  0.006159  0.428913  1
  O  O68  1  0.226548  0.994990  0.566914  1
  O  O69  1  0.671387  0.077867  0.649856  1
  O  O70  1  0.518286  0.372340  0.665383  1
  O  O71  1  0.332872  0.748312  0.844795  1
  O  O72  1  0.483248  0.327458  0.335348  1
  O  O73  1  0.371215  0.521276  0.164636  1
  O  O74  1  0.230478  0.775623  0.067761  1
  O  O75  1  0.225702  0.769134  0.434138  1
  O  O76  1  0.212329  0.785981  0.250857  1
  O  O77  1  0.243961  0.683057  0.660277  1
  O  O78  1  0.490707  0.193568  0.822077  1
  O  O79  1  0.509784  0.121217  0.174052  1
  O  O80  1  0.333163  0.484394  0.849565  1
  O  O81  1  0.428238  0.278016  0.986225  1
  O  O82  1  0.336867  0.332586  0.485905  1
  O  O83  1  0.187957  0.484740  0.337704  1
  O  O84  1  0.370200  0.105766  0.664581  1
  O  O85  1  0.323044  0.188898  0.339000  1
  O  O86  1  0.081419  0.668017  0.153624  1
  O  O87  1  0.991577  0.791458  0.751268  1
  O  O88  1  0.000800  0.787097  0.934495  1
  O  O89  1  0.107365  0.525168  0.663358  1
  O  O90  1  0.202046  0.322280  0.875505  1
  O  O91  1  0.110087  0.367567  0.161154  1
  O  O92  1  0.250703  0.074488  0.155622  1
  O  O93  1  0.230414  0.998144  0.934423  1
  O  O94  1  0.215393  0.998355  0.751088  1
  O  O95  1  0.080617  0.250993  0.656333  1
  O  O96  1  0.000749  0.225715  0.432589  1
  O  O97  1  0.999808  0.214479  0.248788  1
