# generated using pymatgen
data_Na4Cu2C4SO16
_symmetry_space_group_name_H-M   'P 1'
_cell_length_a   9.89834767
_cell_length_b   9.63259150
_cell_length_c   9.89834780
_cell_angle_alpha   60.63064453
_cell_angle_beta   92.60554453
_cell_angle_gamma   60.63065046
_symmetry_Int_Tables_number   1
_chemical_formula_structural   Na4Cu2C4SO16
_chemical_formula_sum   'Na8 Cu4 C8 S2 O32'
_cell_volume   664.00903547
_cell_formula_units_Z   2
loop_
 _symmetry_equiv_pos_site_id
 _symmetry_equiv_pos_as_xyz
  1  'x, y, z'
loop_
 _atom_site_type_symbol
 _atom_site_label
 _atom_site_symmetry_multiplicity
 _atom_site_fract_x
 _atom_site_fract_y
 _atom_site_fract_z
 _atom_site_occupancy
  Na  Na0  1  0.086870  0.826261  0.836870  1
  Na  Na1  1  0.085330  0.250000  0.835330  1
  Na  Na2  1  0.335330  0.750000  0.585330  1
  Na  Na3  1  0.336870  0.326261  0.586870  1
  Na  Na4  1  0.663130  0.673739  0.413130  1
  Na  Na5  1  0.664670  0.250000  0.414670  1
  Na  Na6  1  0.914670  0.750000  0.164670  1
  Na  Na7  1  0.913130  0.173739  0.163130  1
  Cu  Cu8  1  0.000000  0.500000  0.000000  1
  Cu  Cu9  1  0.500000  0.000000  0.500000  1
  Cu  Cu10  1  0.500000  0.500000  0.000000  1
  Cu  Cu11  1  0.500000  0.000000  0.000000  1
  C  C12  1  0.354993  0.931089  0.777387  1
  C  C13  1  0.277387  0.431089  0.854993  1
  C  C14  1  0.713917  0.931089  0.791523  1
  C  C15  1  0.708477  0.568911  0.786083  1
  C  C16  1  0.291523  0.431089  0.213917  1
  C  C17  1  0.286083  0.068911  0.208477  1
  C  C18  1  0.722613  0.568911  0.145007  1
  C  C19  1  0.645007  0.068911  0.222613  1
  S  S20  1  0.125000  0.750000  0.375000  1
  S  S21  1  0.875000  0.250000  0.625000  1
  O  O22  1  0.349441  0.792522  0.893103  1
  O  O23  1  0.065620  0.878529  0.432958  1
  O  O24  1  0.361261  0.947462  0.641196  1
  O  O25  1  0.141196  0.447462  0.861261  1
  O  O26  1  0.691278  0.947462  0.911342  1
  O  O27  1  0.296671  0.559013  0.845571  1
  O  O28  1  0.055852  0.878529  0.188513  1
  O  O29  1  0.067042  0.621471  0.434380  1
  O  O30  1  0.404584  0.940987  0.355684  1
  O  O31  1  0.588658  0.552538  0.808722  1
  O  O32  1  0.393103  0.292522  0.849441  1
  O  O33  1  0.311487  0.621471  0.444148  1
  O  O34  1  0.858037  0.792522  0.814375  1
  O  O35  1  0.685625  0.707478  0.641963  1
  O  O36  1  0.345571  0.059013  0.796671  1
  O  O37  1  0.144316  0.559013  0.095416  1
  O  O38  1  0.855684  0.440987  0.904584  1
  O  O39  1  0.654429  0.940987  0.203329  1
  O  O40  1  0.314375  0.292522  0.358037  1
  O  O41  1  0.141963  0.207478  0.185625  1
  O  O42  1  0.688513  0.378529  0.555852  1
  O  O43  1  0.606897  0.707478  0.150559  1
  O  O44  1  0.411342  0.447462  0.191278  1
  O  O45  1  0.595416  0.059013  0.644316  1
  O  O46  1  0.932958  0.378529  0.565620  1
  O  O47  1  0.944148  0.121471  0.811487  1
  O  O48  1  0.703329  0.440987  0.154429  1
  O  O49  1  0.308722  0.052538  0.088658  1
  O  O50  1  0.858804  0.552538  0.138739  1
  O  O51  1  0.638739  0.052538  0.358804  1
  O  O52  1  0.934380  0.121471  0.567042  1
  O  O53  1  0.650559  0.207478  0.106897  1
