# generated using pymatgen
data_LiCoSiO4
_symmetry_space_group_name_H-M   'P 1'
_cell_length_a   5.00828515
_cell_length_b   5.59434269
_cell_length_c   6.04701197
_cell_angle_alpha   89.98563939
_cell_angle_beta   89.59790764
_cell_angle_gamma   89.99188285
_symmetry_Int_Tables_number   1
_chemical_formula_structural   LiCoSiO4
_chemical_formula_sum   'Li2 Co2 Si2 O8'
_cell_volume   169.42138594
_cell_formula_units_Z   2
loop_
 _symmetry_equiv_pos_site_id
 _symmetry_equiv_pos_as_xyz
  1  'x, y, z'
loop_
 _atom_site_type_symbol
 _atom_site_label
 _atom_site_symmetry_multiplicity
 _atom_site_fract_x
 _atom_site_fract_y
 _atom_site_fract_z
 _atom_site_occupancy
  Li  Li0  1  0.027621  0.338770  0.252440  1
  Li  Li1  1  0.527866  0.661399  0.753254  1
  Co  Co2  1  0.522578  0.165942  0.999361  1
  Co  Co3  1  0.021741  0.833956  0.500232  1
  Si  Si4  1  0.018425  0.844001  0.003307  1
  Si  Si5  1  0.517681  0.155936  0.502754  1
  O  O6  1  0.152781  0.112201  0.024241  1
  O  O7  1  0.692033  0.868322  0.985172  1
  O  O8  1  0.083067  0.684610  0.227236  1
  O  O9  1  0.629092  0.287179  0.275618  1
  O  O10  1  0.191381  0.131228  0.485185  1
  O  O11  1  0.652035  0.887804  0.524269  1
  O  O12  1  0.582307  0.315750  0.726447  1
  O  O13  1  0.129924  0.712900  0.776221  1
