# generated using pymatgen
data_Ti2Sn3O10
_symmetry_space_group_name_H-M   'P 1'
_cell_length_a   4.76039421
_cell_length_b   4.76039421
_cell_length_c   15.72266712
_cell_angle_alpha   90.00000000
_cell_angle_beta   90.00000000
_cell_angle_gamma   90.08814010
_symmetry_Int_Tables_number   1
_chemical_formula_structural   Ti2Sn3O10
_chemical_formula_sum   'Ti4 Sn6 O20'
_cell_volume   356.29648839
_cell_formula_units_Z   2
loop_
 _symmetry_equiv_pos_site_id
 _symmetry_equiv_pos_as_xyz
  1  'x, y, z'
loop_
 _atom_site_type_symbol
 _atom_site_label
 _atom_site_symmetry_multiplicity
 _atom_site_fract_x
 _atom_site_fract_y
 _atom_site_fract_z
 _atom_site_occupancy
  Ti  Ti0  1  0.000000  0.000000  0.004060  1
  Ti  Ti1  1  0.000000  0.000000  0.402992  1
  Ti  Ti2  1  0.000000  0.000000  0.596510  1
  Ti  Ti3  1  0.500000  0.500000  0.096873  1
  Sn  Sn4  1  0.000000  0.000000  0.198737  1
  Sn  Sn5  1  0.000000  0.000000  0.800039  1
  Sn  Sn6  1  0.500000  0.500000  0.698044  1
  Sn  Sn7  1  0.500000  0.500000  0.499217  1
  Sn  Sn8  1  0.500000  0.500000  0.299496  1
  Sn  Sn9  1  0.500000  0.500000  0.904394  1
  O  O10  1  0.185657  0.814343  0.499596  1
  O  O11  1  0.198345  0.801655  0.094619  1
  O  O12  1  0.190061  0.809939  0.304338  1
  O  O13  1  0.190049  0.809951  0.694222  1
  O  O14  1  0.190052  0.809948  0.905943  1
  O  O15  1  0.301300  0.301300  0.006779  1
  O  O16  1  0.309609  0.309609  0.194767  1
  O  O17  1  0.306091  0.306091  0.800919  1
  O  O18  1  0.296812  0.296812  0.400567  1
  O  O19  1  0.296765  0.296765  0.598069  1
  O  O20  1  0.698700  0.698700  0.006779  1
  O  O21  1  0.690391  0.690391  0.194767  1
  O  O22  1  0.703188  0.703188  0.400567  1
  O  O23  1  0.703235  0.703235  0.598069  1
  O  O24  1  0.693909  0.693909  0.800919  1
  O  O25  1  0.814343  0.185657  0.499596  1
  O  O26  1  0.801655  0.198345  0.094619  1
  O  O27  1  0.809939  0.190061  0.304338  1
  O  O28  1  0.809951  0.190049  0.694222  1
  O  O29  1  0.809948  0.190052  0.905943  1
