# generated using pymatgen
data_LiBiCSO7
_symmetry_space_group_name_H-M   'P 1'
_cell_length_a   9.20961849
_cell_length_b   6.97212418
_cell_length_c   5.44503182
_cell_angle_alpha   90.00000000
_cell_angle_beta   90.85177461
_cell_angle_gamma   90.00000000
_symmetry_Int_Tables_number   1
_chemical_formula_structural   LiBiCSO7
_chemical_formula_sum   'Li2 Bi2 C2 S2 O14'
_cell_volume   349.59014618
_cell_formula_units_Z   2
loop_
 _symmetry_equiv_pos_site_id
 _symmetry_equiv_pos_as_xyz
  1  'x, y, z'
loop_
 _atom_site_type_symbol
 _atom_site_label
 _atom_site_symmetry_multiplicity
 _atom_site_fract_x
 _atom_site_fract_y
 _atom_site_fract_z
 _atom_site_occupancy
  Li  Li0  1  0.174802  0.500330  0.268664  1
  Li  Li1  1  0.825198  0.000330  0.731336  1
  Bi  Bi2  1  0.353005  0.753189  0.777048  1
  Bi  Bi3  1  0.646995  0.253189  0.222952  1
  C  C4  1  0.064656  0.734620  0.720500  1
  C  C5  1  0.935344  0.234620  0.279500  1
  S  S6  1  0.407042  0.259716  0.724938  1
  S  S7  1  0.592958  0.759716  0.275062  1
  O  O8  1  0.065587  0.274455  0.307095  1
  O  O9  1  0.133422  0.737106  0.939950  1
  O  O10  1  0.153316  0.694075  0.534644  1
  O  O11  1  0.320734  0.088148  0.795516  1
  O  O12  1  0.352396  0.422604  0.878646  1
  O  O13  1  0.433550  0.729492  0.215098  1
  O  O14  1  0.392563  0.304115  0.461171  1
  O  O15  1  0.607437  0.804115  0.538829  1
  O  O16  1  0.566450  0.229492  0.784902  1
  O  O17  1  0.647604  0.922604  0.121354  1
  O  O18  1  0.679266  0.588148  0.204484  1
  O  O19  1  0.846684  0.194075  0.465356  1
  O  O20  1  0.866578  0.237106  0.060050  1
  O  O21  1  0.934413  0.774455  0.692905  1
