# generated using pymatgen
data_Mn6O7F5
_symmetry_space_group_name_H-M   'P 1'
_cell_length_a   7.35333895
_cell_length_b   5.58062034
_cell_length_c   5.55069669
_cell_angle_alpha   71.24878424
_cell_angle_beta   72.68222112
_cell_angle_gamma   73.82823086
_symmetry_Int_Tables_number   1
_chemical_formula_structural   Mn6O7F5
_chemical_formula_sum   'Mn6 O7 F5'
_cell_volume   201.65697219
_cell_formula_units_Z   1
loop_
 _symmetry_equiv_pos_site_id
 _symmetry_equiv_pos_as_xyz
  1  'x, y, z'
loop_
 _atom_site_type_symbol
 _atom_site_label
 _atom_site_symmetry_multiplicity
 _atom_site_fract_x
 _atom_site_fract_y
 _atom_site_fract_z
 _atom_site_occupancy
  Mn  Mn0  1  0.838133  0.679158  0.697902  1
  Mn  Mn1  1  0.675977  0.325892  0.346938  1
  Mn  Mn2  1  0.317688  0.662546  0.629612  1
  Mn  Mn3  1  0.164173  0.308292  0.354187  1
  Mn  Mn4  1  0.503842  0.976405  0.997682  1
  Mn  Mn5  1  0.997057  0.029257  0.990535  1
  O  O6  1  0.670523  0.018344  0.652812  1
  O  O7  1  0.962853  0.236272  0.234903  1
  O  O8  1  0.028264  0.791256  0.773621  1
  O  O9  1  0.375977  0.421752  0.426486  1
  O  O10  1  0.335988  0.952938  0.336821  1
  O  O11  1  0.676880  0.625964  0.038374  1
  O  O12  1  0.994941  0.332906  0.699419  1
  F  F13  1  0.331138  0.361010  0.951455  1
  F  F14  1  0.306833  0.882994  0.870316  1
  F  F15  1  0.636952  0.574227  0.582347  1
  F  F16  1  0.691467  0.100267  0.107131  1
  F  F17  1  0.991314  0.720524  0.309462  1
