# generated using pymatgen
data_Li3Ti2(NiO4)2
_symmetry_space_group_name_H-M   'P 1'
_cell_length_a   5.93477301
_cell_length_b   5.94330024
_cell_length_c   5.94761016
_cell_angle_alpha   120.83333968
_cell_angle_beta   59.13009376
_cell_angle_gamma   91.23384901
_symmetry_Int_Tables_number   1
_chemical_formula_structural   Li3Ti2(NiO4)2
_chemical_formula_sum   'Li3 Ti2 Ni2 O8'
_cell_volume   146.08325041
_cell_formula_units_Z   1
loop_
 _symmetry_equiv_pos_site_id
 _symmetry_equiv_pos_as_xyz
  1  'x, y, z'
loop_
 _atom_site_type_symbol
 _atom_site_label
 _atom_site_symmetry_multiplicity
 _atom_site_fract_x
 _atom_site_fract_y
 _atom_site_fract_z
 _atom_site_occupancy
  Li  Li0  1  0.500000  0.000000  0.000000  1
  Li  Li1  1  0.500000  0.500000  0.000000  1
  Li  Li2  1  0.500000  0.500000  0.500000  1
  Ti  Ti3  1  0.000000  0.000000  0.000000  1
  Ti  Ti4  1  0.500000  0.000000  0.500000  1
  Ni  Ni5  1  0.000000  0.500000  0.000000  1
  Ni  Ni6  1  0.000000  0.000000  0.500000  1
  O  O7  1  0.224595  0.763226  0.007363  1
  O  O8  1  0.248156  0.234195  0.523830  1
  O  O9  1  0.255689  0.774067  0.522336  1
  O  O10  1  0.255674  0.221810  0.971296  1
  O  O11  1  0.744326  0.778189  0.028704  1
  O  O12  1  0.744311  0.225933  0.477664  1
  O  O13  1  0.751844  0.765805  0.476170  1
  O  O14  1  0.775405  0.236774  0.992637  1
