# generated using pymatgen
data_Li4CrCo2Ni3(PO4)6
_symmetry_space_group_name_H-M   'P 1'
_cell_length_a   8.35417601
_cell_length_b   8.47245773
_cell_length_c   8.47199422
_cell_angle_alpha   62.99482117
_cell_angle_beta   63.19189418
_cell_angle_gamma   63.22503465
_symmetry_Int_Tables_number   1
_chemical_formula_structural   Li4CrCo2Ni3(PO4)6
_chemical_formula_sum   'Li4 Cr1 Co2 Ni3 P6 O24'
_cell_volume   453.51421078
_cell_formula_units_Z   1
loop_
 _symmetry_equiv_pos_site_id
 _symmetry_equiv_pos_as_xyz
  1  'x, y, z'
loop_
 _atom_site_type_symbol
 _atom_site_label
 _atom_site_symmetry_multiplicity
 _atom_site_fract_x
 _atom_site_fract_y
 _atom_site_fract_z
 _atom_site_occupancy
  Li  Li0  1  0.748113  0.146571  0.354474  1
  Li  Li1  1  0.270607  0.851340  0.645605  1
  Li  Li2  1  0.643603  0.269910  0.853664  1
  Li  Li3  1  0.853290  0.644419  0.272039  1
  Cr  Cr4  1  0.855943  0.852748  0.855848  1
  Co  Co5  1  0.013500  0.002544  0.996532  1
  Co  Co6  1  0.489490  0.504136  0.497923  1
  Ni  Ni7  1  0.142016  0.145988  0.145408  1
  Ni  Ni8  1  0.357553  0.355738  0.354682  1
  Ni  Ni9  1  0.645746  0.646252  0.649380  1
  P  P10  1  0.052733  0.747344  0.449547  1
  P  P11  1  0.446354  0.049200  0.750693  1
  P  P12  1  0.749083  0.449072  0.049721  1
  P  P13  1  0.248201  0.544721  0.953739  1
  P  P14  1  0.552334  0.955069  0.249617  1
  P  P15  1  0.946718  0.247012  0.544292  1
  O  O16  1  0.111064  0.305060  0.501284  1
  O  O17  1  0.313126  0.514104  0.108101  1
  O  O18  1  0.053530  0.911958  0.261897  1
  O  O19  1  0.544429  0.103974  0.309398  1
  O  O20  1  0.012354  0.811441  0.611993  1
  O  O21  1  0.249679  0.597728  0.433422  1
  O  O22  1  0.250880  0.071129  0.903998  1
  O  O23  1  0.451564  0.237105  0.589145  1
  O  O24  1  0.178742  0.393042  0.986537  1
  O  O25  1  0.601522  0.430104  0.249546  1
  O  O26  1  0.095357  0.748621  0.926234  1
  O  O27  1  0.389630  0.003562  0.186580  1
  O  O28  1  0.608338  0.006154  0.820726  1
  O  O29  1  0.899586  0.250466  0.073792  1
  O  O30  1  0.400965  0.568040  0.753190  1
  O  O31  1  0.815352  0.609229  0.011144  1
  O  O32  1  0.567521  0.756419  0.403481  1
  O  O33  1  0.755273  0.922555  0.092957  1
  O  O34  1  0.747160  0.403151  0.572077  1
  O  O35  1  0.959561  0.182635  0.396532  1
  O  O36  1  0.472838  0.894318  0.685720  1
  O  O37  1  0.926950  0.092371  0.746717  1
  O  O38  1  0.681056  0.475290  0.896861  1
  O  O39  1  0.898240  0.676479  0.478501  1
