# generated using pymatgen
data_NaCa2Mg2V3O12
_symmetry_space_group_name_H-M   'P 1'
_cell_length_a   10.89303426
_cell_length_b   10.89294752
_cell_length_c   10.89303489
_cell_angle_alpha   109.50266789
_cell_angle_beta   109.40823827
_cell_angle_gamma   109.50266173
_symmetry_Int_Tables_number   1
_chemical_formula_structural   NaCa2Mg2V3O12
_chemical_formula_sum   'Na4 Ca8 Mg8 V12 O48'
_cell_volume   994.99636371
_cell_formula_units_Z   4
loop_
 _symmetry_equiv_pos_site_id
 _symmetry_equiv_pos_as_xyz
  1  'x, y, z'
loop_
 _atom_site_type_symbol
 _atom_site_label
 _atom_site_symmetry_multiplicity
 _atom_site_fract_x
 _atom_site_fract_y
 _atom_site_fract_z
 _atom_site_occupancy
  Na  Na0  1  0.125001  0.250000  0.374999  1
  Na  Na1  1  0.374999  0.750000  0.125000  1
  Na  Na2  1  0.625000  0.250000  0.875000  1
  Na  Na3  1  0.874999  0.750000  0.625001  1
  Ca  Ca4  1  0.250000  0.876923  0.626927  1
  Ca  Ca5  1  0.126927  0.376923  0.750000  1
  Ca  Ca6  1  0.626920  0.876922  0.750001  1
  Ca  Ca7  1  0.250001  0.376922  0.126920  1
  Ca  Ca8  1  0.373080  0.123078  0.249999  1
  Ca  Ca9  1  0.749999  0.623078  0.873080  1
  Ca  Ca10  1  0.873073  0.623077  0.250000  1
  Ca  Ca11  1  0.750000  0.123077  0.373073  1
  Mg  Mg12  1  0.000000  0.000000  0.500000  1
  Mg  Mg13  1  0.000000  0.000000  0.000000  1
  Mg  Mg14  1  0.500000  0.000000  0.500000  1
  Mg  Mg15  1  0.500000  0.500000  0.500000  1
  Mg  Mg16  1  0.500000  0.500000  0.000000  1
  Mg  Mg17  1  0.500000  0.000000  0.000000  1
  Mg  Mg18  1  0.000000  0.500000  0.500000  1
  Mg  Mg19  1  0.000000  0.500000  0.000000  1
  V  V20  1  0.125002  0.750006  0.875004  1
  V  V21  1  0.124508  0.874508  0.249998  1
  V  V22  1  0.375510  0.625506  0.750000  1
  V  V23  1  0.250000  0.125506  0.875510  1
  V  V24  1  0.250002  0.625492  0.375492  1
  V  V25  1  0.375004  0.250006  0.625002  1
  V  V26  1  0.624996  0.749994  0.374998  1
  V  V27  1  0.750000  0.874494  0.124490  1
  V  V28  1  0.624490  0.374494  0.250000  1
  V  V29  1  0.749998  0.374508  0.624508  1
  V  V30  1  0.875492  0.125492  0.750002  1
  V  V31  1  0.874998  0.249994  0.124996  1
  O  O32  1  0.106593  0.989470  0.693456  1
  O  O33  1  0.113408  0.599475  0.905559  1
  O  O34  1  0.016565  0.309627  0.896405  1
  O  O35  1  0.094439  0.707847  0.693918  1
  O  O36  1  0.086774  0.879838  0.396403  1
  O  O37  1  0.103597  0.620162  0.413226  1
  O  O38  1  0.193456  0.489470  0.606593  1
  O  O39  1  0.413224  0.809627  0.793061  1
  O  O40  1  0.382879  0.586867  0.893407  1
  O  O41  1  0.293061  0.309627  0.913224  1
  O  O42  1  0.306534  0.913136  0.296009  1
  O  O43  1  0.013927  0.207850  0.113409  1
  O  O44  1  0.193918  0.207847  0.594439  1
  O  O45  1  0.203991  0.586864  0.193466  1
  O  O46  1  0.396405  0.809627  0.516565  1
  O  O47  1  0.306077  0.900516  0.013922  1
  O  O48  1  0.296008  0.489479  0.382874  1
  O  O49  1  0.117126  0.010521  0.203992  1
  O  O50  1  0.393407  0.086867  0.882879  1
  O  O51  1  0.516564  0.620162  0.706938  1
  O  O52  1  0.513922  0.400516  0.806077  1
  O  O53  1  0.386591  0.292150  0.486073  1
  O  O54  1  0.594441  0.900525  0.386592  1
  O  O55  1  0.206938  0.120162  0.016564  1
  O  O56  1  0.793062  0.879838  0.983436  1
  O  O57  1  0.405559  0.099475  0.613408  1
  O  O58  1  0.613409  0.707850  0.513927  1
  O  O59  1  0.486078  0.599484  0.193923  1
  O  O60  1  0.483436  0.379838  0.293062  1
  O  O61  1  0.606593  0.913133  0.117121  1
  O  O62  1  0.882874  0.989479  0.796008  1
  O  O63  1  0.703992  0.510521  0.617126  1
  O  O64  1  0.693923  0.099484  0.986078  1
  O  O65  1  0.603595  0.190373  0.483435  1
  O  O66  1  0.796009  0.413136  0.806534  1
  O  O67  1  0.806082  0.792153  0.405561  1
  O  O68  1  0.986073  0.792150  0.886591  1
  O  O69  1  0.693466  0.086864  0.703991  1
  O  O70  1  0.617121  0.413133  0.106593  1
  O  O71  1  0.706939  0.690373  0.086776  1
  O  O72  1  0.586776  0.190373  0.206939  1
  O  O73  1  0.806544  0.510530  0.393407  1
  O  O74  1  0.896403  0.379838  0.586774  1
  O  O75  1  0.913226  0.120162  0.603597  1
  O  O76  1  0.905561  0.292153  0.306082  1
  O  O77  1  0.983435  0.690373  0.103595  1
  O  O78  1  0.886592  0.400525  0.094441  1
  O  O79  1  0.893407  0.010530  0.306544  1
