# generated using pymatgen
data_Li3Cu4F9
_symmetry_space_group_name_H-M   'P 1'
_cell_length_a   5.25281229
_cell_length_b   8.09035951
_cell_length_c   5.26555706
_cell_angle_alpha   101.79319240
_cell_angle_beta   120.43472273
_cell_angle_gamma   94.48364940
_symmetry_Int_Tables_number   1
_chemical_formula_structural   Li3Cu4F9
_chemical_formula_sum   'Li3 Cu4 F9'
_cell_volume   184.43566021
_cell_formula_units_Z   1
loop_
 _symmetry_equiv_pos_site_id
 _symmetry_equiv_pos_as_xyz
  1  'x, y, z'
loop_
 _atom_site_type_symbol
 _atom_site_label
 _atom_site_symmetry_multiplicity
 _atom_site_fract_x
 _atom_site_fract_y
 _atom_site_fract_z
 _atom_site_occupancy
  Li  Li0  1  0.964300  0.004901  0.967636  1
  Li  Li1  1  0.205024  0.558193  0.400240  1
  Li  Li2  1  0.578348  0.712447  0.163211  1
  Cu  Cu3  1  0.305322  0.937927  0.607072  1
  Cu  Cu4  1  0.679664  0.247235  0.437179  1
  Cu  Cu5  1  0.419878  0.313225  0.938884  1
  Cu  Cu6  1  0.894141  0.627243  0.775805  1
  F  F7  1  0.263712  0.766760  0.811577  1
  F  F8  1  0.958441  0.783537  0.209037  1
  F  F9  1  0.649144  0.786474  0.566886  1
  F  F10  1  0.653901  0.094656  0.005237  1
  F  F11  1  0.210425  0.507111  0.024954  1
  F  F12  1  0.820889  0.455505  0.318044  1
  F  F13  1  0.339222  0.084828  0.365641  1
  F  F14  1  0.031378  0.142406  0.727129  1
  F  F15  1  0.517450  0.451271  0.663946  1
