# generated using pymatgen
data_Fe2OF3
_symmetry_space_group_name_H-M   'P 1'
_cell_length_a   7.63269832
_cell_length_b   5.77720249
_cell_length_c   5.77720249
_cell_angle_alpha   72.13089536
_cell_angle_beta   70.27819562
_cell_angle_gamma   70.27819562
_symmetry_Int_Tables_number   1
_chemical_formula_structural   Fe2OF3
_chemical_formula_sum   'Fe6 O3 F9'
_cell_volume   220.32233194
_cell_formula_units_Z   3
loop_
 _symmetry_equiv_pos_site_id
 _symmetry_equiv_pos_as_xyz
  1  'x, y, z'
loop_
 _atom_site_type_symbol
 _atom_site_label
 _atom_site_symmetry_multiplicity
 _atom_site_fract_x
 _atom_site_fract_y
 _atom_site_fract_z
 _atom_site_occupancy
  Fe  Fe0  1  0.832692  0.665217  0.668182  1
  Fe  Fe1  1  0.333000  0.689980  0.645821  1
  Fe  Fe2  1  0.667000  0.354179  0.310020  1
  Fe  Fe3  1  0.167308  0.331818  0.334783  1
  Fe  Fe4  1  0.500000  0.978585  0.021415  1
  Fe  Fe5  1  0.000000  0.968293  0.031707  1
  O  O6  1  0.670101  0.652715  0.007160  1
  O  O7  1  0.329899  0.992840  0.347285  1
  O  O8  1  0.000000  0.667020  0.332980  1
  F  F9  1  0.666233  0.035349  0.629384  1
  F  F10  1  0.333767  0.370616  0.964651  1
  F  F11  1  0.969237  0.231315  0.237632  1
  F  F12  1  0.303201  0.910858  0.896488  1
  F  F13  1  0.635915  0.566030  0.570221  1
  F  F14  1  0.030763  0.762368  0.768685  1
  F  F15  1  0.696799  0.103512  0.089142  1
  F  F16  1  0.364085  0.429779  0.433970  1
  F  F17  1  0.000000  0.289528  0.710472  1
