# generated using pymatgen
data_Dy2Ge2O7
_symmetry_space_group_name_H-M   'P 1'
_cell_length_a   6.87138671
_cell_length_b   6.87135108
_cell_length_c   12.51820717
_cell_angle_alpha   89.99985249
_cell_angle_beta   90.00021862
_cell_angle_gamma   90.00015543
_symmetry_Int_Tables_number   1
_chemical_formula_structural   Dy2Ge2O7
_chemical_formula_sum   'Dy8 Ge8 O28'
_cell_volume   591.05604560
_cell_formula_units_Z   4
loop_
 _symmetry_equiv_pos_site_id
 _symmetry_equiv_pos_as_xyz
  1  'x, y, z'
loop_
 _atom_site_type_symbol
 _atom_site_label
 _atom_site_symmetry_multiplicity
 _atom_site_fract_x
 _atom_site_fract_y
 _atom_site_fract_z
 _atom_site_occupancy
  Dy  Dy0  1  0.124613  0.646692  0.635405  1
  Dy  Dy1  1  0.146687  0.375364  0.385405  1
  Dy  Dy2  1  0.353305  0.875397  0.864597  1
  Dy  Dy3  1  0.375365  0.146688  0.614594  1
  Dy  Dy4  1  0.624630  0.853314  0.114594  1
  Dy  Dy5  1  0.646693  0.124604  0.364595  1
  Dy  Dy6  1  0.853311  0.624631  0.885406  1
  Dy  Dy7  1  0.875386  0.353304  0.135406  1
  Ge  Ge8  1  0.099295  0.848365  0.119017  1
  Ge  Ge9  1  0.151645  0.900711  0.380982  1
  Ge  Ge10  1  0.348371  0.400714  0.869015  1
  Ge  Ge11  1  0.400721  0.348362  0.130988  1
  Ge  Ge12  1  0.599277  0.651639  0.630987  1
  Ge  Ge13  1  0.651631  0.599285  0.369012  1
  Ge  Ge14  1  0.848364  0.099295  0.880983  1
  Ge  Ge15  1  0.900711  0.151646  0.619017  1
  O  O16  1  0.031545  0.921443  0.877166  1
  O  O17  1  0.063570  0.338109  0.570931  1
  O  O18  1  0.078553  0.968448  0.622832  1
  O  O19  1  0.143594  0.683568  0.455362  1
  O  O20  1  0.161908  0.563583  0.820930  1
  O  O21  1  0.183586  0.356398  0.205361  1
  O  O22  1  0.196724  0.803400  0.249995  1
  O  O23  1  0.303393  0.303289  0.999994  1
  O  O24  1  0.316431  0.856390  0.044632  1
  O  O25  1  0.338111  0.063569  0.429071  1
  O  O26  1  0.356391  0.183588  0.794628  1
  O  O27  1  0.421432  0.468441  0.627172  1
  O  O28  1  0.436413  0.838091  0.679076  1
  O  O29  1  0.468446  0.421432  0.372830  1
  O  O30  1  0.531558  0.578569  0.872829  1
  O  O31  1  0.563590  0.161907  0.179079  1
  O  O32  1  0.578569  0.531560  0.127171  1
  O  O33  1  0.643617  0.816410  0.294633  1
  O  O34  1  0.661900  0.936439  0.929060  1
  O  O35  1  0.683571  0.143602  0.544643  1
  O  O36  1  0.696604  0.696709  0.499999  1
  O  O37  1  0.803398  0.196722  0.750005  1
  O  O38  1  0.816410  0.643613  0.705359  1
  O  O39  1  0.838087  0.436417  0.320930  1
  O  O40  1  0.856398  0.316432  0.955368  1
  O  O41  1  0.921446  0.031545  0.122833  1
  O  O42  1  0.936444  0.661897  0.070940  1
  O  O43  1  0.968448  0.078555  0.377170  1
