# generated using pymatgen
data_Li4Ti2V7O18
_symmetry_space_group_name_H-M   'P 1'
_cell_length_a   9.11047770
_cell_length_b   25.12551821
_cell_length_c   2.96809114
_cell_angle_alpha   89.99774972
_cell_angle_beta   90.00087814
_cell_angle_gamma   89.95746948
_symmetry_Int_Tables_number   1
_chemical_formula_structural   Li4Ti2V7O18
_chemical_formula_sum   'Li8 Ti4 V14 O36'
_cell_volume   679.41211937
_cell_formula_units_Z   2
loop_
 _symmetry_equiv_pos_site_id
 _symmetry_equiv_pos_as_xyz
  1  'x, y, z'
loop_
 _atom_site_type_symbol
 _atom_site_label
 _atom_site_symmetry_multiplicity
 _atom_site_fract_x
 _atom_site_fract_y
 _atom_site_fract_z
 _atom_site_occupancy
  Li  Li0  1  0.192267  0.989010  -0.000000  1
  Li  Li1  1  0.183949  0.195228  0.000001  1
  Li  Li2  1  0.311940  0.695666  0.000001  1
  Li  Li3  1  0.307119  0.488633  0.000000  1
  Li  Li4  1  0.693783  0.510593  0.999997  1
  Li  Li5  1  0.689544  0.307910  -0.000000  1
  Li  Li6  1  0.811746  0.807304  0.000004  1
  Li  Li7  1  0.805864  0.011228  -0.000001  1
  Ti  Ti8  1  -0.010794  0.101893  0.999995  1
  Ti  Ti9  1  0.510240  0.601859  0.999996  1
  Ti  Ti10  1  0.495399  0.398739  0.000008  1
  Ti  Ti11  1  0.005420  0.898846  0.000029  1
  V  V12  1  0.000231  0.500276  -0.000002  1
  V  V13  1  0.012229  0.308540  -0.000001  1
  V  V14  1  0.155122  0.585525  0.499996  1
  V  V15  1  0.150302  0.804808  0.500240  1
  V  V16  1  0.349284  0.305628  0.500024  1
  V  V17  1  0.344803  0.085562  0.499998  1
  V  V18  1  0.487473  0.809071  -0.000003  1
  V  V19  1  0.500077  -0.000126  0.000001  1
  V  V20  1  0.513443  0.189940  -0.000002  1
  V  V21  1  0.652317  0.914347  0.500005  1
  V  V22  1  0.650303  0.695126  0.500000  1
  V  V23  1  0.848786  0.195125  0.500000  1
  V  V24  1  0.849433  0.414297  0.500001  1
  V  V25  1  0.985414  0.689405  0.999980  1
  O  O26  1  0.996901  0.424409  0.000003  1
  O  O27  1  0.005480  0.575539  0.999994  1
  O  O28  1  0.064501  0.941927  0.500012  1
  O  O29  1  0.041134  0.159145  0.500005  1
  O  O30  1  0.115669  0.663237  0.499988  1
  O  O31  1  0.101239  0.756064  0.999717  1
  O  O32  1  0.149321  0.503783  0.500002  1
  O  O33  1  0.143397  0.285054  0.499994  1
  O  O34  1  0.190424  0.854287  0.000156  1
  O  O35  1  0.195229  0.083877  0.000000  1
  O  O36  1  0.305882  0.584137  1.000000  1
  O  O37  1  0.308710  0.355442  0.000016  1
  O  O38  1  0.357382  0.785241  0.499903  1
  O  O39  1  0.351170  0.003612  0.500001  1
  O  O40  1  0.400064  0.256754  0.999973  1
  O  O41  1  0.383852  0.163207  0.499998  1
  O  O42  1  0.458993  0.659577  0.499999  1
  O  O43  1  0.435967  0.442302  0.499995  1
  O  O44  1  0.494364  0.075238  0.000000  1
  O  O45  1  0.503720  0.924310  0.000004  1
  O  O46  1  0.565074  0.558197  0.500008  1
  O  O47  1  0.544116  0.342356  0.500001  1
  O  O48  1  0.618329  0.836155  0.499995  1
  O  O49  1  0.599501  0.741512  -0.000009  1
  O  O50  1  0.648367  0.996320  0.500001  1
  O  O51  1  0.646136  0.214300  0.499996  1
  O  O52  1  0.691424  0.643945  0.000005  1
  O  O53  1  0.697095  0.417038  -0.000002  1
  O  O54  1  0.803610  0.917186  0.000005  1
  O  O55  1  0.808086  0.143838  0.000004  1
  O  O56  1  0.852253  0.714332  0.499984  1
  O  O57  1  0.852215  0.496467  0.499996  1
  O  O58  1  0.902646  0.241080  -0.000003  1
  O  O59  1  0.880439  0.335605  0.499997  1
  O  O60  1  0.955884  0.842190  0.499990  1
  O  O61  1  0.935734  0.057908  0.500007  1
