# generated using pymatgen
data_Na2Li4Ni2C4SO16
_symmetry_space_group_name_H-M   'P 1'
_cell_length_a   9.53182275
_cell_length_b   9.53180567
_cell_length_c   9.75896150
_cell_angle_alpha   120.60015722
_cell_angle_beta   120.59905919
_cell_angle_gamma   87.57340973
_symmetry_Int_Tables_number   1
_chemical_formula_structural   Na2Li4Ni2C4SO16
_chemical_formula_sum   'Na4 Li8 Ni4 C8 S2 O32'
_cell_volume   628.15918601
_cell_formula_units_Z   2
loop_
 _symmetry_equiv_pos_site_id
 _symmetry_equiv_pos_as_xyz
  1  'x, y, z'
loop_
 _atom_site_type_symbol
 _atom_site_label
 _atom_site_symmetry_multiplicity
 _atom_site_fract_x
 _atom_site_fract_y
 _atom_site_fract_z
 _atom_site_occupancy
  Na  Na0  1  0.650871  0.900865  0.801732  1
  Na  Na1  1  0.900873  0.650862  0.301733  1
  Na  Na2  1  0.099129  0.349134  0.698267  1
  Na  Na3  1  0.349131  0.099133  0.198265  1
  Li  Li4  1  0.025877  0.828510  0.014362  1
  Li  Li5  1  0.828509  0.025878  0.514359  1
  Li  Li6  1  0.814145  0.511515  0.485632  1
  Li  Li7  1  0.511512  0.814142  0.985627  1
  Li  Li8  1  0.488480  0.185849  0.014361  1
  Li  Li9  1  0.185852  0.488483  0.514364  1
  Li  Li10  1  0.171488  0.974118  0.485630  1
  Li  Li11  1  0.974120  0.171490  0.985635  1
  Ni  Ni12  1  0.500002  0.500000  0.500000  1
  Ni  Ni13  1  0.500000  0.499999  1.000000  1
  Ni  Ni14  1  0.500000  0.000000  0.499999  1
  Ni  Ni15  1  0.999999  0.499999  0.000000  1
  C  C16  1  0.712625  0.659240  0.933094  1
  C  C17  1  0.659247  0.712637  0.433093  1
  C  C18  1  0.720456  0.273844  0.933101  1
  C  C19  1  0.726150  0.279533  0.566896  1
  C  C20  1  0.273850  0.720466  0.433103  1
  C  C21  1  0.279542  0.726154  0.066899  1
  C  C22  1  0.340754  0.287366  0.566905  1
  C  C23  1  0.287374  0.340758  0.066905  1
  S  S24  1  0.125016  0.875024  0.750000  1
  S  S25  1  0.874984  0.124975  0.250000  1
  O  O26  1  0.856366  0.657116  0.952131  1
  O  O27  1  0.657101  0.856347  0.452124  1
  O  O28  1  0.658469  0.689431  0.552163  1
  O  O29  1  0.689435  0.658453  0.052142  1
  O  O30  1  0.589226  0.671950  0.798996  1
  O  O31  1  0.315974  0.935774  0.876669  1
  O  O32  1  0.393688  0.862704  0.552160  1
  O  O33  1  0.671970  0.589227  0.299013  1
  O  O34  1  0.935732  0.315968  0.376655  1
  O  O35  1  0.862731  0.393697  0.052181  1
  O  O36  1  0.872948  0.290224  0.701003  1
  O  O37  1  0.290203  0.872948  0.200984  1
  O  O38  1  0.704998  0.404236  0.547860  1
  O  O39  1  0.404219  0.704989  0.047866  1
  O  O40  1  0.060669  0.940919  0.876646  1
  O  O41  1  0.059102  0.939321  0.623337  1
  O  O42  1  0.940895  0.060677  0.376661  1
  O  O43  1  0.939330  0.059078  0.123353  1
  O  O44  1  0.595778  0.295007  0.952130  1
  O  O45  1  0.295003  0.595764  0.452140  1
  O  O46  1  0.709795  0.127051  0.799013  1
  O  O47  1  0.127052  0.709773  0.298994  1
  O  O48  1  0.137268  0.606300  0.947821  1
  O  O49  1  0.064270  0.684031  0.623345  1
  O  O50  1  0.328028  0.410774  0.700983  1
  O  O51  1  0.606311  0.137295  0.447838  1
  O  O52  1  0.684025  0.064228  0.123330  1
  O  O53  1  0.410773  0.328045  0.201001  1
  O  O54  1  0.310563  0.341546  0.947856  1
  O  O55  1  0.341537  0.310572  0.447837  1
  O  O56  1  0.342898  0.143654  0.547873  1
  O  O57  1  0.143635  0.342884  0.047871  1
