# generated using pymatgen
data_Li32Ti13Cr3O48
_symmetry_space_group_name_H-M   'P 1'
_cell_length_a   5.08462561
_cell_length_b   8.83329728
_cell_length_c   19.63116739
_cell_angle_alpha   98.32689571
_cell_angle_beta   94.70945267
_cell_angle_gamma   89.81915066
_symmetry_Int_Tables_number   1
_chemical_formula_structural   Li32Ti13Cr3O48
_chemical_formula_sum   'Li32 Ti13 Cr3 O48'
_cell_volume   869.43981650
_cell_formula_units_Z   1
loop_
 _symmetry_equiv_pos_site_id
 _symmetry_equiv_pos_as_xyz
  1  'x, y, z'
loop_
 _atom_site_type_symbol
 _atom_site_label
 _atom_site_symmetry_multiplicity
 _atom_site_fract_x
 _atom_site_fract_y
 _atom_site_fract_z
 _atom_site_occupancy
  Li  Li0  1  0.989481  0.167904  0.250345  1
  Li  Li1  1  0.874296  0.373399  0.374787  1
  Li  Li2  1  0.752179  0.248998  0.999399  1
  Li  Li3  1  0.743174  0.921065  0.999801  1
  Li  Li4  1  0.990362  0.168829  0.749990  1
  Li  Li5  1  0.756137  0.580295  0.499643  1
  Li  Li6  1  0.875677  0.373494  0.875116  1
  Li  Li7  1  0.755411  0.248434  0.499719  1
  Li  Li8  1  0.743127  0.920436  0.499649  1
  Li  Li9  1  0.624924  0.125043  0.124941  1
  Li  Li10  1  0.757353  0.580137  0.999547  1
  Li  Li11  1  0.509303  0.331682  0.250089  1
  Li  Li12  1  0.626406  0.125241  0.624788  1
  Li  Li13  1  0.503405  -0.000033  0.250027  1
  Li  Li14  1  0.489686  0.667511  0.249405  1
  Li  Li15  1  0.505330  0.331864  0.749947  1
  Li  Li16  1  0.373605  0.875489  0.375206  1
  Li  Li17  1  0.505642  0.998095  0.750644  1
  Li  Li18  1  0.251381  0.749304  0.000356  1
  Li  Li19  1  0.489545  0.669007  0.749749  1
  Li  Li20  1  0.242615  0.420673  0.000506  1
  Li  Li21  1  0.376041  0.875596  0.874879  1
  Li  Li22  1  0.252181  0.079718  0.499852  1
  Li  Li23  1  0.251498  0.750042  0.500155  1
  Li  Li24  1  0.124873  0.625056  0.125032  1
  Li  Li25  1  0.242818  0.420600  0.500762  1
  Li  Li26  1  0.008797  0.832682  0.250606  1
  Li  Li27  1  0.253704  0.079608  0.999486  1
  Li  Li28  1  0.125762  0.623852  0.625235  1
  Li  Li29  1  0.999532  0.500291  0.250186  1
  Li  Li30  1  0.007880  0.832914  0.750539  1
  Li  Li31  1  0.002296  0.499011  0.749464  1
  Ti  Ti32  1  0.879198  0.711132  0.376871  1
  Ti  Ti33  1  0.868371  0.709617  0.873316  1
  Ti  Ti34  1  0.626835  0.791076  0.124923  1
  Ti  Ti35  1  0.624093  0.458527  0.124814  1
  Ti  Ti36  1  0.622784  0.791318  0.625183  1
  Ti  Ti37  1  0.626759  0.458559  0.626675  1
  Ti  Ti38  1  0.379678  0.541168  0.374673  1
  Ti  Ti39  1  0.371637  0.207759  0.373451  1
  Ti  Ti40  1  0.372631  0.541300  0.875169  1
  Ti  Ti41  1  0.375429  0.208891  0.876616  1
  Ti  Ti42  1  0.124189  0.958828  0.125041  1
  Ti  Ti43  1  0.126577  0.291078  0.125063  1
  Ti  Ti44  1  0.118645  0.959555  0.623439  1
  Cr  Cr45  1  0.870887  0.040442  0.375134  1
  Cr  Cr46  1  0.880304  0.040565  0.874684  1
  Cr  Cr47  1  0.131308  0.290103  0.624930  1
  O  O48  1  0.962645  0.106537  0.068501  1
  O  O49  1  0.928970  0.784755  0.068265  1
  O  O50  1  0.927779  0.427344  0.067237  1
  O  O51  1  0.960277  0.105820  0.568417  1
  O  O52  1  0.821336  0.965446  0.181598  1
  O  O53  1  0.822335  0.322720  0.182741  1
  O  O54  1  0.929647  0.785326  0.568334  1
  O  O55  1  0.930276  0.424595  0.568211  1
  O  O56  1  0.786949  0.643667  0.181634  1
  O  O57  1  0.714892  0.862370  0.319328  1
  O  O58  1  0.821539  0.965642  0.681672  1
  O  O59  1  0.825361  0.320624  0.681936  1
  O  O60  1  0.677471  0.535985  0.318305  1
  O  O61  1  0.674403  0.178461  0.317149  1
  O  O62  1  0.786324  0.642969  0.681871  1
  O  O63  1  0.710107  0.856066  0.818288  1
  O  O64  1  0.462620  0.606520  0.068368  1
  O  O65  1  0.570886  0.715818  0.431618  1
  O  O66  1  0.580946  0.070991  0.432037  1
  O  O67  1  0.679116  0.535301  0.818169  1
  O  O68  1  0.680143  0.174946  0.818117  1
  O  O69  1  0.427403  0.927307  0.067120  1
  O  O70  1  0.428639  0.284569  0.068343  1
  O  O71  1  0.534599  0.392930  0.431897  1
  O  O72  1  0.465200  0.605965  0.568291  1
  O  O73  1  0.571640  0.715543  0.931629  1
  O  O74  1  0.575842  0.070628  0.931761  1
  O  O75  1  0.322779  0.822820  0.182881  1
  O  O76  1  0.321422  0.465470  0.181642  1
  O  O77  1  0.428000  0.927727  0.567241  1
  O  O78  1  0.420178  0.283330  0.568850  1
  O  O79  1  0.536523  0.393076  0.931897  1
  O  O80  1  0.287243  0.143372  0.181677  1
  O  O81  1  0.213323  0.356185  0.318158  1
  O  O82  1  0.323677  0.824235  0.682885  1
  O  O83  1  0.324063  0.465985  0.681592  1
  O  O84  1  0.177054  0.677478  0.317206  1
  O  O85  1  0.174346  0.033159  0.319329  1
  O  O86  1  0.284816  0.148519  0.681080  1
  O  O87  1  0.215074  0.356036  0.818458  1
  O  O88  1  0.071365  0.573400  0.432972  1
  O  O89  1  0.068294  0.212101  0.430548  1
  O  O90  1  0.177844  0.677667  0.817198  1
  O  O91  1  0.170968  0.033410  0.818827  1
  O  O92  1  0.040188  0.892524  0.431854  1
  O  O93  1  0.073205  0.574220  0.932780  1
  O  O94  1  0.073498  0.215785  0.931486  1
  O  O95  1  0.035058  0.898505  0.930770  1
