# generated using pymatgen
data_Li2VCr(P2O7)2
_symmetry_space_group_name_H-M   'P 1'
_cell_length_a   9.55738348
_cell_length_b   9.55914187
_cell_length_c   7.15166997
_cell_angle_alpha   79.27265645
_cell_angle_beta   79.29855681
_cell_angle_gamma   118.75547659
_symmetry_Int_Tables_number   1
_chemical_formula_structural   Li2VCr(P2O7)2
_chemical_formula_sum   'Li4 V2 Cr2 P8 O28'
_cell_volume   533.28966937
_cell_formula_units_Z   2
loop_
 _symmetry_equiv_pos_site_id
 _symmetry_equiv_pos_as_xyz
  1  'x, y, z'
loop_
 _atom_site_type_symbol
 _atom_site_label
 _atom_site_symmetry_multiplicity
 _atom_site_fract_x
 _atom_site_fract_y
 _atom_site_fract_z
 _atom_site_occupancy
  Li  Li0  1  0.067614  0.430486  0.323991  1
  Li  Li1  1  0.318768  0.181632  0.676442  1
  Li  Li2  1  0.569241  0.931996  0.323241  1
  Li  Li3  1  0.818721  0.681554  0.676519  1
  V  V4  1  0.756823  0.756516  0.270794  1
  V  V5  1  0.493820  0.993115  0.729171  1
  Cr  Cr6  1  0.256720  0.256631  0.272286  1
  Cr  Cr7  1  0.993143  0.493515  0.727909  1
  P  P8  1  0.347600  0.528221  0.523097  1
  P  P9  1  0.850034  0.029686  0.521335  1
  P  P10  1  0.671396  0.454303  0.085880  1
  P  P11  1  0.171697  0.956570  0.085921  1
  P  P12  1  0.293664  0.576762  0.914752  1
  P  P13  1  0.795676  0.080150  0.913250  1
  P  P14  1  0.220724  0.901268  0.477117  1
  P  P15  1  0.721339  0.401099  0.478392  1
  O  O16  1  0.190557  0.125400  0.084255  1
  O  O17  1  0.015759  0.193806  0.393211  1
  O  O18  1  0.207553  0.053565  0.490064  1
  O  O19  1  0.279295  0.472776  0.116178  1
  O  O20  1  0.488662  0.312090  0.145526  1
  O  O21  1  0.332817  0.371044  0.481385  1
  O  O22  1  0.196004  0.542456  0.509834  1
  O  O23  1  0.699364  0.043338  0.505054  1
  O  O24  1  0.556510  0.234595  0.605677  1
  O  O25  1  0.056576  0.736198  0.606643  1
  O  O26  1  0.625278  0.060048  0.917237  1
  O  O27  1  0.124901  0.558420  0.917126  1
  O  O28  1  0.344783  0.495916  0.753433  1
  O  O29  1  0.753623  0.405244  0.247123  1
  O  O30  1  0.253470  0.905207  0.246288  1
  O  O31  1  0.691081  0.624461  0.080966  1
  O  O32  1  0.513357  0.693084  0.394408  1
  O  O33  1  0.706683  0.551046  0.495051  1
  O  O34  1  0.879104  0.416113  0.518923  1
  O  O35  1  0.379014  0.917452  0.518061  1
  O  O36  1  0.938205  0.262815  0.852648  1
  O  O37  1  0.437324  0.759837  0.853147  1
  O  O38  1  0.274005  0.971325  0.884433  1
  O  O39  1  0.777384  0.470161  0.884744  1
  O  O40  1  0.779110  0.975615  0.114491  1
  O  O41  1  0.988634  0.812246  0.148810  1
  O  O42  1  0.833585  0.870783  0.482030  1
  O  O43  1  0.844803  0.997030  0.753152  1
