# generated using pymatgen
data_Li6V3P8O29
_symmetry_space_group_name_H-M   'P 1'
_cell_length_a   9.83129793
_cell_length_b   9.80819539
_cell_length_c   13.88227999
_cell_angle_alpha   89.98696212
_cell_angle_beta   89.70691356
_cell_angle_gamma   60.07079537
_symmetry_Int_Tables_number   1
_chemical_formula_structural   Li6V3P8O29
_chemical_formula_sum   'Li12 V6 P16 O58'
_cell_volume   1160.09492911
_cell_formula_units_Z   2
loop_
 _symmetry_equiv_pos_site_id
 _symmetry_equiv_pos_as_xyz
  1  'x, y, z'
loop_
 _atom_site_type_symbol
 _atom_site_label
 _atom_site_symmetry_multiplicity
 _atom_site_fract_x
 _atom_site_fract_y
 _atom_site_fract_z
 _atom_site_occupancy
  Li  Li0  1  0.910955  0.777086  0.057152  1
  Li  Li1  1  0.770695  0.904428  0.563745  1
  Li  Li2  1  0.904568  0.323380  0.562765  1
  Li  Li3  1  0.664139  0.670888  0.880977  1
  Li  Li4  1  0.773852  0.313919  0.058822  1
  Li  Li5  1  0.314178  0.908472  0.056279  1
  Li  Li6  1  0.677797  0.227660  0.442361  1
  Li  Li7  1  0.324939  0.770154  0.563519  1
  Li  Li8  1  0.335930  0.333707  0.113806  1
  Li  Li9  1  0.093798  0.678125  0.441702  1
  Li  Li10  1  0.228332  0.092275  0.442004  1
  Li  Li11  1  0.092131  0.226114  0.936221  1
  V  V12  1  0.567806  0.432133  0.250961  1
  V  V13  1  0.430498  0.565119  0.754555  1
  V  V14  1  0.568387  0.002609  0.753380  1
  V  V15  1  0.435810  0.998130  0.248809  1
  V  V16  1  0.000094  0.570500  0.250751  1
  V  V17  1  0.998891  0.434189  0.748110  1
  P  P18  1  0.909505  0.771212  0.844241  1
  P  P19  1  0.766519  0.914483  0.343654  1
  P  P20  1  0.913356  0.319041  0.341367  1
  P  P21  1  0.668972  0.666551  0.125543  1
  P  P22  1  0.664681  0.667597  0.626487  1
  P  P23  1  0.769860  0.319747  0.842627  1
  P  P24  1  0.681097  0.232594  0.657993  1
  P  P25  1  0.318906  0.909810  0.842031  1
  P  P26  1  0.684019  0.087270  0.157857  1
  P  P27  1  0.317022  0.768310  0.343588  1
  P  P28  1  0.231030  0.681742  0.157364  1
  P  P29  1  0.333057  0.332444  0.373602  1
  P  P30  1  0.331816  0.331625  0.873300  1
  P  P31  1  0.087188  0.682699  0.659134  1
  P  P32  1  0.234207  0.086815  0.657874  1
  P  P33  1  0.090461  0.229930  0.156075  1
  O  O34  1  0.997022  0.757702  0.568552  1
  O  O35  1  0.917493  0.750281  0.341478  1
  O  O36  1  0.768773  0.993594  0.072169  1
  O  O37  1  0.743177  0.916217  0.837981  1
  O  O38  1  0.888689  0.625367  0.825118  1
  O  O39  1  0.813927  0.673882  0.164405  1
  O  O40  1  0.904852  0.478504  0.321221  1
  O  O41  1  0.997721  0.245052  0.067080  1
  O  O42  1  0.920009  0.336541  0.838484  1
  O  O43  1  0.670099  0.814884  0.667608  1
  O  O44  1  0.620010  0.900482  0.325305  1
  O  O45  1  0.813904  0.512940  0.666379  1
  O  O46  1  0.663672  0.671123  0.017292  1
  O  O47  1  0.667038  0.665714  0.518891  1
  O  O48  1  0.671803  0.516010  0.164759  1
  O  O49  1  0.485143  0.889153  0.825947  1
  O  O50  1  0.515490  0.817848  0.166813  1
  O  O51  1  0.748594  0.335990  0.341815  1
  O  O52  1  0.790024  0.211955  0.750298  1
  O  O53  1  0.761480  0.242198  0.567552  1
  O  O54  1  0.760617  0.246515  0.933890  1
  O  O55  1  0.626441  0.487339  0.825520  1
  O  O56  1  0.513249  0.670364  0.668490  1
  O  O57  1  0.664220  0.255901  0.159803  1
  O  O58  1  0.476507  0.617286  0.321644  1
  O  O59  1  0.334675  0.915086  0.342393  1
  O  O60  1  0.786161  0.007704  0.254137  1
  O  O61  1  0.755410  0.001451  0.435196  1
  O  O62  1  0.243110  0.996747  0.567817  1
  O  O63  1  0.666869  0.083009  0.658515  1
  O  O64  1  0.522943  0.382083  0.674168  1
  O  O65  1  0.336443  0.746446  0.841021  1
  O  O66  1  0.487587  0.325707  0.333859  1
  O  O67  1  0.373672  0.514625  0.173313  1
  O  O68  1  0.238990  0.768558  0.072522  1
  O  O69  1  0.244419  0.752866  0.435401  1
  O  O70  1  0.206819  0.785489  0.254225  1
  O  O71  1  0.251637  0.663901  0.657976  1
  O  O72  1  0.479657  0.185634  0.830102  1
  O  O73  1  0.515983  0.111187  0.173136  1
  O  O74  1  0.334841  0.479170  0.830196  1
  O  O75  1  0.331970  0.330886  0.981014  1
  O  O76  1  0.330735  0.329884  0.480916  1
  O  O77  1  0.186450  0.486403  0.333410  1
  O  O78  1  0.383920  0.094580  0.674872  1
  O  O79  1  0.330131  0.183054  0.329958  1
  O  O80  1  0.082131  0.662402  0.159387  1
  O  O81  1  0.999786  0.789980  0.751217  1
  O  O82  1  0.995626  0.758906  0.933760  1
  O  O83  1  0.095449  0.522516  0.676834  1
  O  O84  1  0.182563  0.330388  0.835461  1
  O  O85  1  0.113573  0.372816  0.174059  1
  O  O86  1  0.252815  0.079682  0.155637  1
  O  O87  1  0.241914  0.004528  0.931180  1
  O  O88  1  0.210612  0.000750  0.750395  1
  O  O89  1  0.084641  0.251094  0.657649  1
  O  O90  1  0.002173  0.243509  0.431898  1
  O  O91  1  0.000691  0.210031  0.249019  1
