# generated using pymatgen
data_LiMn2(BO3)2
_symmetry_space_group_name_H-M   'P 1'
_cell_length_a   5.34945342
_cell_length_b   13.93197641
_cell_length_c   10.27205277
_cell_angle_alpha   89.42953399
_cell_angle_beta   91.95809781
_cell_angle_gamma   79.13409250
_symmetry_Int_Tables_number   1
_chemical_formula_structural   LiMn2(BO3)2
_chemical_formula_sum   'Li6 Mn12 B12 O36'
_cell_volume   751.29069645
_cell_formula_units_Z   6
loop_
 _symmetry_equiv_pos_site_id
 _symmetry_equiv_pos_as_xyz
  1  'x, y, z'
loop_
 _atom_site_type_symbol
 _atom_site_label
 _atom_site_symmetry_multiplicity
 _atom_site_fract_x
 _atom_site_fract_y
 _atom_site_fract_z
 _atom_site_occupancy
  Li  Li0  1  0.148117  0.997997  0.080319  1
  Li  Li1  1  0.446784  0.330015  0.669655  1
  Li  Li2  1  0.479729  0.341231  0.184664  1
  Li  Li3  1  0.803915  0.658558  0.678544  1
  Li  Li4  1  0.791601  0.676654  0.157926  1
  Li  Li5  1  0.868973  0.991137  0.413115  1
  Mn  Mn6  1  0.057600  0.230287  0.133705  1
  Mn  Mn7  1  0.296843  0.125490  0.876754  1
  Mn  Mn8  1  0.055367  0.567778  0.385986  1
  Mn  Mn9  1  0.256520  0.787493  0.630865  1
  Mn  Mn10  1  0.621013  0.092444  0.632005  1
  Mn  Mn11  1  0.365622  0.546654  0.130232  1
  Mn  Mn12  1  0.624046  0.430916  0.888389  1
  Mn  Mn13  1  0.399542  0.882850  0.367397  1
  Mn  Mn14  1  0.751775  0.213990  0.382988  1
  Mn  Mn15  1  0.902414  0.455662  0.632870  1
  Mn  Mn16  1  0.710318  0.900598  0.116359  1
  Mn  Mn17  1  0.957534  0.780623  0.877509  1
  B  B18  1  0.050378  0.227131  0.629205  1
  B  B19  1  0.062291  0.548708  0.876915  1
  B  B20  1  0.284514  0.108839  0.378608  1
  B  B21  1  0.373009  0.557570  0.638539  1
  B  B22  1  0.273682  0.774990  0.116691  1
  B  B23  1  0.624639  0.120085  0.130901  1
  B  B24  1  0.395518  0.895545  0.873457  1
  B  B25  1  0.732698  0.204927  0.870407  1
  B  B26  1  0.608670  0.448712  0.378890  1
  B  B27  1  0.740477  0.873781  0.622047  1
  B  B28  1  0.940471  0.450733  0.134693  1
  B  B29  1  0.933809  0.789926  0.368901  1
  O  O30  1  0.125692  0.196829  0.340785  1
  O  O31  1  0.197849  0.023469  0.377350  1
  O  O32  1  0.220656  0.147668  0.686897  1
  O  O33  1  0.103904  0.318009  0.628574  1
  O  O34  1  0.994952  0.542478  0.166598  1
  O  O35  1  0.126259  0.370142  0.135591  1
  O  O36  1  0.118016  0.557918  0.596958  1
  O  O37  1  0.016816  0.782591  0.067113  1
  O  O38  1  0.379576  0.127903  0.073219  1
  O  O39  1  0.295146  0.526188  0.946278  1
  O  O40  1  0.153276  0.797205  0.444176  1
  O  O41  1  0.539393  0.110612  0.419839  1
  O  O42  1  0.302171  0.815969  0.817935  1
  O  O43  1  0.653903  0.117638  0.835089  1
  O  O44  1  0.243184  0.981435  0.899129  1
  O  O45  1  0.577733  0.292428  0.846217  1
  O  O46  1  0.433352  0.526824  0.318814  1
  O  O47  1  0.577857  0.355715  0.365573  1
  O  O48  1  0.525861  0.465626  0.672972  1
  O  O49  1  0.462946  0.641560  0.641995  1
  O  O50  1  0.342358  0.862523  0.157676  1
  O  O51  1  0.678713  0.206533  0.190036  1
  O  O52  1  0.432307  0.687346  0.122734  1
  O  O53  1  0.800677  0.037141  0.131027  1
  O  O54  1  0.819274  0.207517  0.572787  1
  O  O55  1  0.506660  0.861413  0.572878  1
  O  O56  1  0.686701  0.444944  0.098351  1
  O  O57  1  0.970034  0.197953  0.932842  1
  O  O58  1  0.652024  0.879744  0.913010  1
  O  O59  1  0.811248  0.475837  0.449471  1
  O  O60  1  0.968339  0.469379  0.821230  1
  O  O61  1  0.929737  0.640489  0.860399  1
  O  O62  1  0.785393  0.878195  0.322326  1
  O  O63  1  0.870142  0.703913  0.338159  1
  O  O64  1  0.893603  0.788212  0.682689  1
  O  O65  1  0.831295  0.956252  0.604614  1
