# generated using pymatgen
data_Sr2Zn(HO)6
_symmetry_space_group_name_H-M   'P 1'
_cell_length_a   6.05119062
_cell_length_b   6.84253890
_cell_length_c   9.43116584
_cell_angle_alpha   90.00000000
_cell_angle_beta   97.79271512
_cell_angle_gamma   90.00000000
_symmetry_Int_Tables_number   1
_chemical_formula_structural   Sr2Zn(HO)6
_chemical_formula_sum   'Sr4 Zn2 H12 O12'
_cell_volume   386.89595137
_cell_formula_units_Z   2
loop_
 _symmetry_equiv_pos_site_id
 _symmetry_equiv_pos_as_xyz
  1  'x, y, z'
loop_
 _atom_site_type_symbol
 _atom_site_label
 _atom_site_symmetry_multiplicity
 _atom_site_fract_x
 _atom_site_fract_y
 _atom_site_fract_z
 _atom_site_occupancy
  Sr  Sr0  1  0.177248  0.576137  0.351538  1
  Sr  Sr1  1  0.677248  0.923863  0.851538  1
  Sr  Sr2  1  0.822752  0.423863  0.648462  1
  Sr  Sr3  1  0.322752  0.076137  0.148462  1
  Zn  Zn4  1  0.500000  0.500000  0.000000  1
  Zn  Zn5  1  0.000000  0.000000  0.500000  1
  H  H6  1  0.597777  0.677327  0.419410  1
  H  H7  1  0.097777  0.822673  0.919410  1
  H  H8  1  0.402223  0.322673  0.580590  1
  H  H9  1  0.902223  0.177327  0.080590  1
  H  H10  1  0.564496  0.740980  0.479007  1
  H  H11  1  0.064496  0.759020  0.979007  1
  H  H12  1  0.435504  0.259020  0.520993  1
  H  H13  1  0.935504  0.240980  0.020993  1
  H  H14  1  0.318281  0.222459  0.840018  1
  H  H15  1  0.818281  0.277541  0.340018  1
  H  H16  1  0.681719  0.777541  0.159982  1
  H  H17  1  0.181719  0.722459  0.659982  1
  O  O18  1  0.516574  0.609684  0.747275  1
  O  O19  1  0.016574  0.890316  0.247275  1
  O  O20  1  0.483426  0.390316  0.252725  1
  O  O21  1  0.983426  0.109684  0.752725  1
  O  O22  1  0.053853  0.708385  0.585601  1
  O  O23  1  0.553853  0.791615  0.085601  1
  O  O24  1  0.946147  0.291615  0.414399  1
  O  O25  1  0.446147  0.208385  0.914399  1
  O  O26  1  0.786513  0.063832  0.635176  1
  O  O27  1  0.286513  0.436168  0.135176  1
  O  O28  1  0.213487  0.936168  0.364824  1
  O  O29  1  0.713487  0.563832  0.864824  1
