# generated using pymatgen
data_Na3SiH11O9
_symmetry_space_group_name_H-M   'P 1'
_cell_length_a   11.89765123
_cell_length_b   10.98241728
_cell_length_c   13.01359593
_cell_angle_alpha   90.00000000
_cell_angle_beta   90.00000000
_cell_angle_gamma   90.00000000
_symmetry_Int_Tables_number   1
_chemical_formula_structural   Na3SiH11O9
_chemical_formula_sum   'Na24 Si8 H88 O72'
_cell_volume   1700.42112777
_cell_formula_units_Z   8
loop_
 _symmetry_equiv_pos_site_id
 _symmetry_equiv_pos_as_xyz
  1  'x, y, z'
loop_
 _atom_site_type_symbol
 _atom_site_label
 _atom_site_symmetry_multiplicity
 _atom_site_fract_x
 _atom_site_fract_y
 _atom_site_fract_z
 _atom_site_occupancy
  Na  Na0  1  0.826840  0.636749  0.130055  1
  Na  Na1  1  0.326840  0.863251  0.869945  1
  Na  Na2  1  0.173160  0.136749  0.369945  1
  Na  Na3  1  0.673160  0.363251  0.630055  1
  Na  Na4  1  0.173160  0.363251  0.869945  1
  Na  Na5  1  0.673160  0.136749  0.130055  1
  Na  Na6  1  0.826840  0.863251  0.630055  1
  Na  Na7  1  0.326840  0.636749  0.369945  1
  Na  Na8  1  0.682814  0.606640  0.917371  1
  Na  Na9  1  0.182814  0.893360  0.082629  1
  Na  Na10  1  0.317186  0.106640  0.582629  1
  Na  Na11  1  0.817186  0.393360  0.417371  1
  Na  Na12  1  0.317186  0.393360  0.082629  1
  Na  Na13  1  0.817186  0.106640  0.917371  1
  Na  Na14  1  0.682814  0.893360  0.417371  1
  Na  Na15  1  0.182814  0.606640  0.582629  1
  Na  Na16  1  0.842570  0.379007  0.812370  1
  Na  Na17  1  0.342570  0.120993  0.187630  1
  Na  Na18  1  0.157430  0.879007  0.687630  1
  Na  Na19  1  0.657430  0.620993  0.312370  1
  Na  Na20  1  0.157430  0.620993  0.187630  1
  Na  Na21  1  0.657430  0.879007  0.812370  1
  Na  Na22  1  0.842570  0.120993  0.312370  1
  Na  Na23  1  0.342570  0.379007  0.687630  1
  Si  Si24  1  0.975566  0.622329  0.870901  1
  Si  Si25  1  0.475566  0.877671  0.129099  1
  Si  Si26  1  0.024434  0.122329  0.629099  1
  Si  Si27  1  0.524434  0.377671  0.370901  1
  Si  Si28  1  0.024434  0.377671  0.129099  1
  Si  Si29  1  0.524434  0.122329  0.870901  1
  Si  Si30  1  0.975566  0.877671  0.370901  1
  Si  Si31  1  0.475566  0.622329  0.629099  1
  H  H32  1  0.922814  0.508733  0.276827  1
  H  H33  1  0.422814  0.991267  0.723173  1
  H  H34  1  0.077186  0.008733  0.223173  1
  H  H35  1  0.577186  0.491267  0.776827  1
  H  H36  1  0.077186  0.491267  0.723173  1
  H  H37  1  0.577186  0.008733  0.276827  1
  H  H38  1  0.922814  0.991267  0.776827  1
  H  H39  1  0.422814  0.508733  0.223173  1
  H  H40  1  0.907491  0.631554  0.343655  1
  H  H41  1  0.407491  0.868446  0.656345  1
  H  H42  1  0.092509  0.131554  0.156345  1
  H  H43  1  0.592509  0.368446  0.843655  1
  H  H44  1  0.092509  0.368446  0.656345  1
  H  H45  1  0.592509  0.131554  0.343655  1
  H  H46  1  0.907491  0.868446  0.843655  1
  H  H47  1  0.407491  0.631554  0.156345  1
  H  H48  1  0.811147  0.656688  0.743352  1
  H  H49  1  0.311147  0.843312  0.256648  1
  H  H50  1  0.188853  0.156688  0.756648  1
  H  H51  1  0.688853  0.343312  0.243352  1
  H  H52  1  0.188853  0.343312  0.256648  1
  H  H53  1  0.688853  0.156688  0.743352  1
  H  H54  1  0.811147  0.843312  0.243352  1
  H  H55  1  0.311147  0.656688  0.756648  1
  H  H56  1  0.689584  0.646772  0.688458  1
  H  H57  1  0.189584  0.853228  0.311542  1
  H  H58  1  0.310416  0.146772  0.811542  1
  H  H59  1  0.810416  0.353228  0.188458  1
  H  H60  1  0.310416  0.353228  0.311542  1
  H  H61  1  0.810416  0.146772  0.688458  1
  H  H62  1  0.689584  0.853228  0.188458  1
  H  H63  1  0.189584  0.646772  0.811542  1
  H  H64  1  0.829408  0.697984  0.463384  1
  H  H65  1  0.329408  0.802016  0.536616  1
  H  H66  1  0.170592  0.197984  0.036616  1
  H  H67  1  0.670592  0.302016  0.963384  1
  H  H68  1  0.170592  0.302016  0.536616  1
  H  H69  1  0.670592  0.197984  0.463384  1
  H  H70  1  0.829408  0.802016  0.963384  1
  H  H71  1  0.329408  0.697984  0.036616  1
  H  H72  1  0.716276  0.650042  0.526457  1
  H  H73  1  0.216276  0.849958  0.473543  1
  H  H74  1  0.283724  0.150042  0.973543  1
  H  H75  1  0.783724  0.349958  0.026457  1
  H  H76  1  0.283724  0.349958  0.473543  1
  H  H77  1  0.783724  0.150042  0.526457  1
  H  H78  1  0.716276  0.849958  0.026457  1
  H  H79  1  0.216276  0.650042  0.973543  1
  H  H80  1  0.983916  0.810223  0.162972  1
  H  H81  1  0.483916  0.689777  0.837028  1
  H  H82  1  0.016084  0.310223  0.337028  1
  H  H83  1  0.516084  0.189777  0.662972  1
  H  H84  1  0.016084  0.189777  0.837028  1
  H  H85  1  0.516084  0.310223  0.162972  1
  H  H86  1  0.983916  0.689777  0.662972  1
  H  H87  1  0.483916  0.810223  0.337028  1
  H  H88  1  0.993562  0.761031  0.041798  1
  H  H89  1  0.493562  0.738969  0.958202  1
  H  H90  1  0.006438  0.261031  0.458202  1
  H  H91  1  0.506438  0.238969  0.541798  1
  H  H92  1  0.006438  0.238969  0.958202  1
  H  H93  1  0.506438  0.261031  0.041798  1
  H  H94  1  0.993562  0.738969  0.541798  1
  H  H95  1  0.493562  0.761031  0.458202  1
  H  H96  1  0.928272  0.363695  0.602844  1
  H  H97  1  0.428272  0.136305  0.397156  1
  H  H98  1  0.071728  0.863695  0.897156  1
  H  H99  1  0.571728  0.636305  0.102844  1
  H  H100  1  0.071728  0.636305  0.397156  1
  H  H101  1  0.571728  0.863695  0.602844  1
  H  H102  1  0.928272  0.136305  0.102844  1
  H  H103  1  0.428272  0.363695  0.897156  1
  H  H104  1  0.896794  0.495914  0.648025  1
  H  H105  1  0.396794  0.004086  0.351975  1
  H  H106  1  0.103206  0.995914  0.851975  1
  H  H107  1  0.603206  0.504086  0.148025  1
  H  H108  1  0.103206  0.504086  0.351975  1
  H  H109  1  0.603206  0.995914  0.648025  1
  H  H110  1  0.896794  0.004086  0.148025  1
  H  H111  1  0.396794  0.495914  0.851975  1
  H  H112  1  0.893726  0.496511  0.001342  1
  H  H113  1  0.393726  0.003489  0.998658  1
  H  H114  1  0.106274  0.996511  0.498658  1
  H  H115  1  0.606274  0.503489  0.501342  1
  H  H116  1  0.106274  0.503489  0.998658  1
  H  H117  1  0.606274  0.996511  0.001342  1
  H  H118  1  0.893726  0.003489  0.501342  1
  H  H119  1  0.393726  0.496511  0.498658  1
  O  O120  1  0.875377  0.542801  0.934006  1
  O  O121  1  0.375377  0.957199  0.065994  1
  O  O122  1  0.124623  0.042801  0.565994  1
  O  O123  1  0.624623  0.457199  0.434006  1
  O  O124  1  0.124623  0.457199  0.065994  1
  O  O125  1  0.624623  0.042801  0.934006  1
  O  O126  1  0.875377  0.957199  0.434006  1
  O  O127  1  0.375377  0.542801  0.565994  1
  O  O128  1  0.965570  0.766312  0.907946  1
  O  O129  1  0.465570  0.733688  0.092054  1
  O  O130  1  0.034430  0.266312  0.592054  1
  O  O131  1  0.534430  0.233688  0.407946  1
  O  O132  1  0.034430  0.233688  0.092054  1
  O  O133  1  0.534430  0.266312  0.907946  1
  O  O134  1  0.965570  0.733688  0.407946  1
  O  O135  1  0.465570  0.766312  0.592054  1
  O  O136  1  0.100651  0.567670  0.895781  1
  O  O137  1  0.600651  0.932330  0.104219  1
  O  O138  1  0.899349  0.067670  0.604219  1
  O  O139  1  0.399349  0.432330  0.395781  1
  O  O140  1  0.899349  0.432330  0.104219  1
  O  O141  1  0.399349  0.067670  0.895781  1
  O  O142  1  0.100651  0.932330  0.395781  1
  O  O143  1  0.600651  0.567670  0.604219  1
  O  O144  1  0.941087  0.598974  0.749527  1
  O  O145  1  0.441087  0.901026  0.250473  1
  O  O146  1  0.058913  0.098974  0.750473  1
  O  O147  1  0.558913  0.401026  0.249527  1
  O  O148  1  0.058913  0.401026  0.250473  1
  O  O149  1  0.558913  0.098974  0.749527  1
  O  O150  1  0.941087  0.901026  0.249527  1
  O  O151  1  0.441087  0.598974  0.750473  1
  O  O152  1  0.864813  0.562031  0.308086  1
  O  O153  1  0.364813  0.937969  0.691914  1
  O  O154  1  0.135187  0.062031  0.191914  1
  O  O155  1  0.635187  0.437969  0.808086  1
  O  O156  1  0.135187  0.437969  0.691914  1
  O  O157  1  0.635187  0.062031  0.308086  1
  O  O158  1  0.864813  0.937969  0.808086  1
  O  O159  1  0.364813  0.562031  0.191914  1
  O  O160  1  0.734266  0.695757  0.739245  1
  O  O161  1  0.234266  0.804243  0.260755  1
  O  O162  1  0.265734  0.195757  0.760755  1
  O  O163  1  0.765734  0.304243  0.239245  1
  O  O164  1  0.265734  0.304243  0.260755  1
  O  O165  1  0.765734  0.195757  0.739245  1
  O  O166  1  0.734266  0.804243  0.239245  1
  O  O167  1  0.234266  0.695757  0.760755  1
  O  O168  1  0.752204  0.716683  0.487126  1
  O  O169  1  0.252204  0.783317  0.512874  1
  O  O170  1  0.247796  0.216683  0.012874  1
  O  O171  1  0.747796  0.283317  0.987126  1
  O  O172  1  0.247796  0.283317  0.512874  1
  O  O173  1  0.747796  0.216683  0.487126  1
  O  O174  1  0.752204  0.783317  0.987126  1
  O  O175  1  0.252204  0.716683  0.012874  1
  O  O176  1  0.013828  0.744151  0.115016  1
  O  O177  1  0.513828  0.755849  0.884984  1
  O  O178  1  0.986172  0.244151  0.384984  1
  O  O179  1  0.486172  0.255848  0.615016  1
  O  O180  1  0.986172  0.255848  0.884984  1
  O  O181  1  0.486172  0.244151  0.115016  1
  O  O182  1  0.013828  0.755849  0.615016  1
  O  O183  1  0.513828  0.744151  0.384984  1
  O  O184  1  0.865631  0.426240  0.608341  1
  O  O185  1  0.365631  0.073760  0.391659  1
  O  O186  1  0.134369  0.926240  0.891659  1
  O  O187  1  0.634369  0.573760  0.108341  1
  O  O188  1  0.134369  0.573760  0.391659  1
  O  O189  1  0.634369  0.926240  0.608341  1
  O  O190  1  0.865631  0.073760  0.108341  1
  O  O191  1  0.365631  0.426240  0.891659  1
