# generated using pymatgen
data_Na7(NiO2)10
_symmetry_space_group_name_H-M   'P 1'
_cell_length_a   2.94144098
_cell_length_b   12.69952539
_cell_length_c   10.99462800
_cell_angle_alpha   107.36966233
_cell_angle_beta   91.46479814
_cell_angle_gamma   91.45075637
_symmetry_Int_Tables_number   1
_chemical_formula_structural   Na7(NiO2)10
_chemical_formula_sum   'Na7 Ni10 O20'
_cell_volume   391.61277924
_cell_formula_units_Z   1
loop_
 _symmetry_equiv_pos_site_id
 _symmetry_equiv_pos_as_xyz
  1  'x, y, z'
loop_
 _atom_site_type_symbol
 _atom_site_label
 _atom_site_symmetry_multiplicity
 _atom_site_fract_x
 _atom_site_fract_y
 _atom_site_fract_z
 _atom_site_occupancy
  Na  Na0  1  0.987295  0.872356  0.688718  1
  Na  Na1  1  0.498030  0.931612  0.218516  1
  Na  Na2  1  0.000000  0.700000  0.100000  1
  Na  Na3  1  0.012705  0.527644  0.511282  1
  Na  Na4  1  0.501970  0.468388  0.981484  1
  Na  Na5  1  0.486240  0.277053  0.389778  1
  Na  Na6  1  0.513760  0.122947  0.810222  1
  Ni  Ni7  1  0.992213  0.800166  0.396920  1
  Ni  Ni8  1  0.007787  0.599834  0.803080  1
  Ni  Ni9  1  0.500525  0.799332  0.907107  1
  Ni  Ni10  1  0.499475  0.600668  0.292893  1
  Ni  Ni11  1  0.996381  0.399387  0.202452  1
  Ni  Ni12  1  0.000000  0.200000  0.600000  1
  Ni  Ni13  1  0.507539  0.401612  0.693968  1
  Ni  Ni14  1  0.500000  0.200000  0.100000  1
  Ni  Ni15  1  0.003619  0.000613  0.997548  1
  Ni  Ni16  1  0.492461  0.998388  0.506032  1
  O  O17  1  0.486753  0.943799  0.875921  1
  O  O18  1  0.971134  0.862895  0.032166  1
  O  O19  1  0.968877  0.658730  0.413179  1
  O  O20  1  0.482401  0.854977  0.522075  1
  O  O21  1  0.496692  0.652372  0.930727  1
  O  O22  1  0.986644  0.456594  0.818610  1
  O  O23  1  0.503308  0.747628  0.269273  1
  O  O24  1  0.013356  0.943406  0.381390  1
  O  O25  1  0.031123  0.741270  0.786821  1
  O  O26  1  0.517599  0.545023  0.677925  1
  O  O27  1  0.513247  0.456201  0.324079  1
  O  O28  1  0.965968  0.259353  0.226288  1
  O  O29  1  0.507169  0.258972  0.713098  1
  O  O30  1  0.972535  0.056217  0.634416  1
  O  O31  1  0.479492  0.342775  0.084892  1
  O  O32  1  0.028866  0.537105  0.167834  1
  O  O33  1  0.027465  0.343783  0.565584  1
  O  O34  1  0.492831  0.141028  0.486902  1
  O  O35  1  0.034032  0.140647  0.973712  1
  O  O36  1  0.520508  0.057225  0.115108  1
