# generated using pymatgen
data_Li4VCr3O8
_symmetry_space_group_name_H-M   'P 1'
_cell_length_a   5.13936850
_cell_length_b   5.96145746
_cell_length_c   10.71017105
_cell_angle_alpha   106.02028764
_cell_angle_beta   85.33285277
_cell_angle_gamma   73.08513769
_symmetry_Int_Tables_number   1
_chemical_formula_structural   Li4VCr3O8
_chemical_formula_sum   'Li8 V2 Cr6 O16'
_cell_volume   297.05182540
_cell_formula_units_Z   2
loop_
 _symmetry_equiv_pos_site_id
 _symmetry_equiv_pos_as_xyz
  1  'x, y, z'
loop_
 _atom_site_type_symbol
 _atom_site_label
 _atom_site_symmetry_multiplicity
 _atom_site_fract_x
 _atom_site_fract_y
 _atom_site_fract_z
 _atom_site_occupancy
  Li  Li0  1  0.003136  0.123455  0.749871  1
  Li  Li1  1  0.997156  0.001465  -0.000007  1
  Li  Li2  1  0.996874  0.251524  0.500131  1
  Li  Li3  1  0.002836  0.373522  0.249994  1
  Li  Li4  1  0.000742  0.625234  0.749692  1
  Li  Li5  1  0.998994  0.499783  0.000396  1
  Li  Li6  1  0.999279  0.749743  0.500327  1
  Li  Li7  1  0.000975  0.875220  0.249581  1
  V  V8  1  0.499971  0.562565  0.875135  1
  V  V9  1  0.500041  0.812433  0.374856  1
  Cr  Cr10  1  0.500072  0.062369  0.874892  1
  Cr  Cr11  1  0.500028  0.187516  0.625016  1
  Cr  Cr12  1  0.499918  0.312645  0.375123  1
  Cr  Cr13  1  0.499674  0.436829  0.124894  1
  Cr  Cr14  1  0.500005  0.687504  0.625014  1
  Cr  Cr15  1  0.500287  0.938166  0.125088  1
  O  O16  1  0.272980  0.089105  0.310636  1
  O  O17  1  0.728572  0.040963  0.440083  1
  O  O18  1  0.271505  0.334173  0.809982  1
  O  O19  1  0.727094  0.285787  0.939360  1
  O  O20  1  0.724633  0.163471  0.189490  1
  O  O21  1  0.275343  0.211508  0.060489  1
  O  O22  1  0.275083  0.462436  0.561080  1
  O  O23  1  0.726333  0.412438  0.688802  1
  O  O24  1  0.271532  0.583713  0.309691  1
  O  O25  1  0.726751  0.536347  0.439579  1
  O  O26  1  0.273198  0.838742  0.810401  1
  O  O27  1  0.728373  0.791166  0.940261  1
  O  O28  1  0.273375  0.713550  0.061803  1
  O  O29  1  0.273761  0.962579  0.561211  1
  O  O30  1  0.726539  0.661485  0.188168  1
  O  O31  1  0.724936  0.912559  0.688959  1
