# generated using pymatgen
data_Na2SnAsCO7
_symmetry_space_group_name_H-M   'P 1'
_cell_length_a   9.28934849
_cell_length_b   7.12103122
_cell_length_c   5.41863879
_cell_angle_alpha   90.00000000
_cell_angle_beta   90.78424504
_cell_angle_gamma   90.00000000
_symmetry_Int_Tables_number   1
_chemical_formula_structural   Na2SnAsCO7
_chemical_formula_sum   'Na4 Sn2 As2 C2 O14'
_cell_volume   358.40797371
_cell_formula_units_Z   2
loop_
 _symmetry_equiv_pos_site_id
 _symmetry_equiv_pos_as_xyz
  1  'x, y, z'
loop_
 _atom_site_type_symbol
 _atom_site_label
 _atom_site_symmetry_multiplicity
 _atom_site_fract_x
 _atom_site_fract_y
 _atom_site_fract_z
 _atom_site_occupancy
  Na  Na0  1  0.213351  0.500181  0.231587  1
  Na  Na1  1  0.213351  0.999819  0.231587  1
  Na  Na2  1  0.786649  0.499819  0.768413  1
  Na  Na3  1  0.786649  0.000181  0.768413  1
  Sn  Sn4  1  0.357067  0.750000  0.782911  1
  Sn  Sn5  1  0.642933  0.250000  0.217089  1
  As  As6  1  0.413615  0.250000  0.710152  1
  As  As7  1  0.586385  0.750000  0.289848  1
  C  C8  1  0.067579  0.750000  0.727667  1
  C  C9  1  0.932421  0.250000  0.272333  1
  O  O10  1  0.067719  0.250000  0.293257  1
  O  O11  1  0.134641  0.750000  0.945019  1
  O  O12  1  0.153640  0.750000  0.534395  1
  O  O13  1  0.325638  0.054289  0.821689  1
  O  O14  1  0.325638  0.445711  0.821689  1
  O  O15  1  0.406652  0.750000  0.190608  1
  O  O16  1  0.414561  0.250000  0.389372  1
  O  O17  1  0.585439  0.750000  0.610628  1
  O  O18  1  0.593348  0.250000  0.809392  1
  O  O19  1  0.674362  0.554289  0.178311  1
  O  O20  1  0.674362  0.945711  0.178311  1
  O  O21  1  0.846360  0.250000  0.465605  1
  O  O22  1  0.865359  0.250000  0.054981  1
  O  O23  1  0.932281  0.750000  0.706743  1
