# generated using pymatgen
data_LiMn2(PO4)3
_symmetry_space_group_name_H-M   'P 1'
_cell_length_a   8.44919881
_cell_length_b   11.74528469
_cell_length_c   8.53561951
_cell_angle_alpha   90.00000000
_cell_angle_beta   90.00000000
_cell_angle_gamma   90.44498631
_symmetry_Int_Tables_number   1
_chemical_formula_structural   LiMn2(PO4)3
_chemical_formula_sum   'Li4 Mn8 P12 O48'
_cell_volume   847.03435752
_cell_formula_units_Z   4
loop_
 _symmetry_equiv_pos_site_id
 _symmetry_equiv_pos_as_xyz
  1  'x, y, z'
loop_
 _atom_site_type_symbol
 _atom_site_label
 _atom_site_symmetry_multiplicity
 _atom_site_fract_x
 _atom_site_fract_y
 _atom_site_fract_z
 _atom_site_occupancy
  Li  Li0  1  0.208814  0.178287  0.779015  1
  Li  Li1  1  0.291186  0.321713  0.279015  1
  Li  Li2  1  0.708814  0.678287  0.720985  1
  Li  Li3  1  0.791186  0.821713  0.220985  1
  Mn  Mn4  1  0.252835  0.113964  0.462513  1
  Mn  Mn5  1  0.249616  0.878550  0.038717  1
  Mn  Mn6  1  0.250384  0.621450  0.538717  1
  Mn  Mn7  1  0.247165  0.386036  0.962513  1
  Mn  Mn8  1  0.752835  0.613964  0.037487  1
  Mn  Mn9  1  0.749616  0.378550  0.461283  1
  Mn  Mn10  1  0.750384  0.121450  0.961283  1
  Mn  Mn11  1  0.747165  0.886036  0.537487  1
  P  P12  1  0.031146  0.499497  0.250691  1
  P  P13  1  0.105829  0.851948  0.388208  1
  P  P14  1  0.100363  0.143430  0.110025  1
  P  P15  1  0.399637  0.356570  0.610025  1
  P  P16  1  0.394171  0.648052  0.888208  1
  P  P17  1  0.468854  0.000503  0.750691  1
  P  P18  1  0.531146  0.999497  0.249309  1
  P  P19  1  0.605829  0.351948  0.111792  1
  P  P20  1  0.600363  0.643430  0.389975  1
  P  P21  1  0.899637  0.856570  0.889975  1
  P  P22  1  0.894171  0.148052  0.611792  1
  P  P23  1  0.968854  0.500503  0.749309  1
  O  O24  1  0.053741  0.418816  0.862313  1
  O  O25  1  0.077194  0.593783  0.680759  1
  O  O26  1  0.080914  0.848781  0.888365  1
  O  O27  1  0.077009  0.161224  0.594971  1
  O  O28  1  0.112595  0.574917  0.372246  1
  O  O29  1  0.131965  0.819092  0.214649  1
  O  O30  1  0.162966  0.431729  0.163448  1
  O  O31  1  0.152666  0.975937  0.419996  1
  O  O32  1  0.160881  0.026518  0.063344  1
  O  O33  1  0.160721  0.181395  0.274130  1
  O  O34  1  0.172659  0.228018  0.988103  1
  O  O35  1  0.190062  0.777427  0.509595  1
  O  O36  1  0.309938  0.722573  0.009595  1
  O  O37  1  0.327341  0.271982  0.488103  1
  O  O38  1  0.339279  0.318605  0.774130  1
  O  O39  1  0.339119  0.473482  0.563344  1
  O  O40  1  0.347334  0.524063  0.919996  1
  O  O41  1  0.337034  0.068271  0.663448  1
  O  O42  1  0.368035  0.680908  0.714649  1
  O  O43  1  0.387405  0.925083  0.872246  1
  O  O44  1  0.422991  0.338776  0.094971  1
  O  O45  1  0.419086  0.651219  0.388365  1
  O  O46  1  0.422806  0.906217  0.180759  1
  O  O47  1  0.446259  0.081184  0.362312  1
  O  O48  1  0.553741  0.918816  0.637687  1
  O  O49  1  0.577194  0.093783  0.819241  1
  O  O50  1  0.580914  0.348781  0.611635  1
  O  O51  1  0.577009  0.661224  0.905029  1
  O  O52  1  0.612595  0.074917  0.127754  1
  O  O53  1  0.631965  0.319092  0.285351  1
  O  O54  1  0.662966  0.931729  0.336552  1
  O  O55  1  0.652666  0.475937  0.080004  1
  O  O56  1  0.660881  0.526518  0.436656  1
  O  O57  1  0.660721  0.681395  0.225870  1
  O  O58  1  0.672659  0.728018  0.511897  1
  O  O59  1  0.690062  0.277427  0.990405  1
  O  O60  1  0.809938  0.222573  0.490405  1
  O  O61  1  0.827341  0.771982  0.011897  1
  O  O62  1  0.839279  0.818605  0.725870  1
  O  O63  1  0.839119  0.973482  0.936656  1
  O  O64  1  0.847334  0.024063  0.580004  1
  O  O65  1  0.837034  0.568271  0.836552  1
  O  O66  1  0.868035  0.180908  0.785351  1
  O  O67  1  0.887405  0.425083  0.627754  1
  O  O68  1  0.922991  0.838776  0.405029  1
  O  O69  1  0.919086  0.151219  0.111635  1
  O  O70  1  0.922806  0.406217  0.319241  1
  O  O71  1  0.946259  0.581184  0.137687  1
