# generated using pymatgen
data_Na3SiH3O5
_symmetry_space_group_name_H-M   'P 1'
_cell_length_a   7.98679355
_cell_length_b   6.00616454
_cell_length_c   11.26152146
_cell_angle_alpha   90.00000000
_cell_angle_beta   105.23979215
_cell_angle_gamma   90.00000000
_symmetry_Int_Tables_number   1
_chemical_formula_structural   Na3SiH3O5
_chemical_formula_sum   'Na12 Si4 H12 O20'
_cell_volume   521.21802828
_cell_formula_units_Z   4
loop_
 _symmetry_equiv_pos_site_id
 _symmetry_equiv_pos_as_xyz
  1  'x, y, z'
loop_
 _atom_site_type_symbol
 _atom_site_label
 _atom_site_symmetry_multiplicity
 _atom_site_fract_x
 _atom_site_fract_y
 _atom_site_fract_z
 _atom_site_occupancy
  Na  Na0  1  0.251228  0.489605  0.834930  1
  Na  Na1  1  0.748772  0.989605  0.665070  1
  Na  Na2  1  0.748772  0.510395  0.165070  1
  Na  Na3  1  0.251228  0.010395  0.334930  1
  Na  Na4  1  0.398423  0.193729  0.068046  1
  Na  Na5  1  0.601577  0.693729  0.431954  1
  Na  Na6  1  0.601577  0.806271  0.931954  1
  Na  Na7  1  0.398423  0.306271  0.568046  1
  Na  Na8  1  0.978094  0.743996  0.940552  1
  Na  Na9  1  0.021906  0.243996  0.559448  1
  Na  Na10  1  0.021906  0.256004  0.059448  1
  Na  Na11  1  0.978094  0.756004  0.440552  1
  Si  Si12  1  0.692561  0.293468  0.864117  1
  Si  Si13  1  0.307439  0.793468  0.635883  1
  Si  Si14  1  0.307439  0.706532  0.135883  1
  Si  Si15  1  0.692561  0.206532  0.364117  1
  H  H16  1  0.570086  0.598977  0.666568  1
  H  H17  1  0.429914  0.098977  0.833432  1
  H  H18  1  0.429914  0.401023  0.333432  1
  H  H19  1  0.570086  0.901023  0.166568  1
  H  H20  1  0.987323  0.114601  0.824882  1
  H  H21  1  0.012677  0.614601  0.675118  1
  H  H22  1  0.012677  0.885399  0.175118  1
  H  H23  1  0.987323  0.385399  0.324882  1
  H  H24  1  0.160818  0.027268  0.783981  1
  H  H25  1  0.839182  0.527268  0.716019  1
  H  H26  1  0.839182  0.972732  0.216019  1
  H  H27  1  0.160818  0.472732  0.283981  1
  O  O28  1  0.492771  0.229334  0.885118  1
  O  O29  1  0.507229  0.729334  0.614882  1
  O  O30  1  0.507229  0.770666  0.114882  1
  O  O31  1  0.492771  0.270666  0.385118  1
  O  O32  1  0.771576  0.488198  0.963647  1
  O  O33  1  0.228424  0.988198  0.536353  1
  O  O34  1  0.228424  0.511802  0.036353  1
  O  O35  1  0.771576  0.011802  0.463647  1
  O  O36  1  0.811120  0.065634  0.888397  1
  O  O37  1  0.188880  0.565634  0.611603  1
  O  O38  1  0.188880  0.934366  0.111603  1
  O  O39  1  0.811120  0.434366  0.388397  1
  O  O40  1  0.662440  0.370212  0.719140  1
  O  O41  1  0.337560  0.870212  0.780860  1
  O  O42  1  0.337560  0.629788  0.280859  1
  O  O43  1  0.662440  0.129788  0.219140  1
  O  O44  1  0.072806  0.151379  0.776306  1
  O  O45  1  0.927194  0.651379  0.723694  1
  O  O46  1  0.927194  0.848621  0.223694  1
  O  O47  1  0.072806  0.348621  0.276306  1
