# generated using pymatgen
data_Li24MnCr11O36
_symmetry_space_group_name_H-M   'P 1'
_cell_length_a   8.72800716
_cell_length_b   8.71443862
_cell_length_c   10.59817435
_cell_angle_alpha   114.05543138
_cell_angle_beta   97.17774429
_cell_angle_gamma   60.31288562
_symmetry_Int_Tables_number   1
_chemical_formula_structural   Li24MnCr11O36
_chemical_formula_sum   'Li24 Mn1 Cr11 O36'
_cell_volume   636.45521798
_cell_formula_units_Z   1
loop_
 _symmetry_equiv_pos_site_id
 _symmetry_equiv_pos_as_xyz
  1  'x, y, z'
loop_
 _atom_site_type_symbol
 _atom_site_label
 _atom_site_symmetry_multiplicity
 _atom_site_fract_x
 _atom_site_fract_y
 _atom_site_fract_z
 _atom_site_occupancy
  Li  Li0  1  0.165318  0.006839  0.997555  1
  Li  Li1  1  0.081396  0.084856  0.750824  1
  Li  Li2  1  0.996831  0.502289  0.500491  1
  Li  Li3  1  0.333318  0.170379  0.497788  1
  Li  Li4  1  0.249519  0.252121  0.249607  1
  Li  Li5  1  0.503014  0.333914  0.000620  1
  Li  Li6  1  0.168788  0.329309  0.003871  1
  Li  Li7  1  0.502925  0.998337  0.998172  1
  Li  Li8  1  0.417545  0.414367  0.749002  1
  Li  Li9  1  0.333906  0.492973  0.501258  1
  Li  Li10  1  0.667082  0.169408  0.499459  1
  Li  Li11  1  0.999486  0.836389  0.497248  1
  Li  Li12  1  0.169110  0.662439  0.997257  1
  Li  Li13  1  0.000812  0.159138  0.500481  1
  Li  Li14  1  0.330855  0.833951  0.499552  1
  Li  Li15  1  0.666725  0.510289  0.501709  1
  Li  Li16  1  0.585639  0.584605  0.250777  1
  Li  Li17  1  0.836006  0.671086  0.001746  1
  Li  Li18  1  0.502445  0.658123  0.998399  1
  Li  Li19  1  0.831623  0.334884  0.002245  1
  Li  Li20  1  0.748828  0.751772  0.750240  1
  Li  Li21  1  0.661860  0.829386  0.497786  1
  Li  Li22  1  0.920052  0.914270  0.249404  1
  Li  Li23  1  0.836726  0.993638  0.999136  1
  Mn  Mn24  1  0.918141  0.580840  0.248792  1
  Cr  Cr25  1  0.089608  0.417748  0.749670  1
  Cr  Cr26  1  0.411835  0.079515  0.749906  1
  Cr  Cr27  1  0.077116  0.758456  0.749901  1
  Cr  Cr28  1  0.742326  0.088804  0.750068  1
  Cr  Cr29  1  0.251864  0.585895  0.250330  1
  Cr  Cr30  1  0.576748  0.252008  0.247637  1
  Cr  Cr31  1  0.418937  0.740843  0.748274  1
  Cr  Cr32  1  0.756945  0.415972  0.749354  1
  Cr  Cr33  1  0.250787  0.923899  0.251977  1
  Cr  Cr34  1  0.915356  0.246041  0.250213  1
  Cr  Cr35  1  0.591541  0.911351  0.249562  1
  O  O36  1  0.310201  0.025896  0.863681  1
  O  O37  1  0.222031  0.135403  0.637579  1
  O  O38  1  0.122926  0.188457  0.363444  1
  O  O39  1  0.278070  0.363915  0.862644  1
  O  O40  1  0.025493  0.306775  0.136533  1
  O  O41  1  0.611692  0.051874  0.861656  1
  O  O42  1  0.189922  0.470368  0.634984  1
  O  O43  1  0.550580  0.114276  0.638564  1
  O  O44  1  0.116143  0.550406  0.360476  1
  O  O45  1  0.479365  0.196510  0.364542  1
  O  O46  1  0.949257  0.028735  0.861232  1
  O  O47  1  0.048688  0.615985  0.137773  1
  O  O48  1  0.286096  0.719856  0.862080  1
  O  O49  1  0.643143  0.356991  0.864620  1
  O  O50  1  0.385177  0.301308  0.136637  1
  O  O51  1  0.213402  0.778009  0.636399  1
  O  O52  1  0.853877  0.145809  0.634346  1
  O  O53  1  0.548160  0.475102  0.636782  1
  O  O54  1  0.443451  0.529921  0.361368  1
  O  O55  1  0.140568  0.865063  0.364329  1
  O  O56  1  0.784611  0.222322  0.362317  1
  O  O57  1  0.619905  0.687694  0.861632  1
  O  O58  1  0.353384  0.639957  0.136395  1
  O  O59  1  0.712734  0.279783  0.136969  1
  O  O60  1  0.950321  0.386218  0.860312  1
  O  O61  1  0.046116  0.981214  0.137410  1
  O  O62  1  0.522886  0.801752  0.634237  1
  O  O63  1  0.886433  0.449214  0.637566  1
  O  O64  1  0.455702  0.884703  0.362926  1
  O  O65  1  0.809493  0.527631  0.363439  1
  O  O66  1  0.384598  0.943381  0.138299  1
  O  O67  1  0.978592  0.698680  0.865367  1
  O  O68  1  0.719304  0.634389  0.137199  1
  O  O69  1  0.880663  0.812120  0.638695  1
  O  O70  1  0.784601  0.858635  0.360644  1
  O  O71  1  0.690010  0.968493  0.134879  1
