# generated using pymatgen
data_Li4Ti2V3Sn3O16
_symmetry_space_group_name_H-M   'P 1'
_cell_length_a   6.17194820
_cell_length_b   6.10616589
_cell_length_c   9.68195154
_cell_angle_alpha   90.00323714
_cell_angle_beta   89.47903857
_cell_angle_gamma   119.64490986
_symmetry_Int_Tables_number   1
_chemical_formula_structural   Li4Ti2V3Sn3O16
_chemical_formula_sum   'Li4 Ti2 V3 Sn3 O16'
_cell_volume   317.10540937
_cell_formula_units_Z   1
loop_
 _symmetry_equiv_pos_site_id
 _symmetry_equiv_pos_as_xyz
  1  'x, y, z'
loop_
 _atom_site_type_symbol
 _atom_site_label
 _atom_site_symmetry_multiplicity
 _atom_site_fract_x
 _atom_site_fract_y
 _atom_site_fract_z
 _atom_site_occupancy
  Li  Li0  1  0.345515  0.672784  0.892643  1
  Li  Li1  1  0.981405  0.990694  0.988720  1
  Li  Li2  1  0.989379  0.994745  0.501131  1
  Li  Li3  1  0.666212  0.333098  0.397146  1
  Ti  Ti4  1  0.356292  0.678154  0.501651  1
  Ti  Ti5  1  0.688501  0.344245  0.977638  1
  V  V6  1  0.657329  0.828678  0.213965  1
  V  V7  1  0.834404  0.651665  0.713157  1
  V  V8  1  0.834397  0.182737  0.713154  1
  Sn  Sn9  1  0.167467  0.829488  0.214570  1
  Sn  Sn10  1  0.167473  0.338026  0.214566  1
  Sn  Sn11  1  0.340231  0.170129  0.713855  1
  O  O12  1  0.177213  0.831432  0.591179  1
  O  O13  1  0.031539  0.515813  0.343943  1
  O  O14  1  0.332837  0.666414  0.097671  1
  O  O15  1  0.992675  0.996389  0.316041  1
  O  O16  1  0.996443  0.998245  0.803698  1
  O  O17  1  0.177204  0.345800  0.591169  1
  O  O18  1  0.480750  0.955818  0.342722  1
  O  O19  1  0.480777  0.524975  0.342700  1
  O  O20  1  0.320783  0.160384  0.093972  1
  O  O21  1  0.657306  0.828659  0.594688  1
  O  O22  1  0.523755  0.477719  0.850530  1
  O  O23  1  0.523776  0.046059  0.850521  1
  O  O24  1  0.662387  0.331168  0.599873  1
  O  O25  1  0.825775  0.665556  0.097225  1
  O  O26  1  0.962441  0.481191  0.852473  1
  O  O27  1  0.825735  0.160237  0.097236  1
