# generated using pymatgen
data_Li2TlPCO7
_symmetry_space_group_name_H-M   'P 1'
_cell_length_a   9.00212747
_cell_length_b   6.71180521
_cell_length_c   5.08010842
_cell_angle_alpha   90.00000000
_cell_angle_beta   87.22308079
_cell_angle_gamma   90.00000000
_symmetry_Int_Tables_number   1
_chemical_formula_structural   Li2TlPCO7
_chemical_formula_sum   'Li4 Tl2 P2 C2 O14'
_cell_volume   306.58239070
_cell_formula_units_Z   2
loop_
 _symmetry_equiv_pos_site_id
 _symmetry_equiv_pos_as_xyz
  1  'x, y, z'
loop_
 _atom_site_type_symbol
 _atom_site_label
 _atom_site_symmetry_multiplicity
 _atom_site_fract_x
 _atom_site_fract_y
 _atom_site_fract_z
 _atom_site_occupancy
  Li  Li0  1  0.202898  0.004286  0.206205  1
  Li  Li1  1  0.202898  0.495714  0.206205  1
  Li  Li2  1  0.797102  0.504286  0.793795  1
  Li  Li3  1  0.797102  0.995714  0.793795  1
  Tl  Tl4  1  0.365785  0.750000  0.753142  1
  Tl  Tl5  1  0.634215  0.250000  0.246858  1
  P  P6  1  0.409867  0.250000  0.736079  1
  P  P7  1  0.590133  0.750000  0.263921  1
  C  C8  1  0.059877  0.750000  0.740124  1
  C  C9  1  0.940123  0.250000  0.259876  1
  O  O10  1  0.079858  0.250000  0.290887  1
  O  O11  1  0.117874  0.750000  0.971046  1
  O  O12  1  0.154703  0.750000  0.529766  1
  O  O13  1  0.326273  0.067847  0.855926  1
  O  O14  1  0.326273  0.432153  0.855926  1
  O  O15  1  0.422272  0.750000  0.201623  1
  O  O16  1  0.405093  0.250000  0.426609  1
  O  O17  1  0.594907  0.750000  0.573391  1
  O  O18  1  0.577728  0.250000  0.798377  1
  O  O19  1  0.673727  0.567847  0.144074  1
  O  O20  1  0.673727  0.932153  0.144074  1
  O  O21  1  0.845297  0.250000  0.470234  1
  O  O22  1  0.882126  0.250000  0.028954  1
  O  O23  1  0.920142  0.750000  0.709113  1
