# generated using pymatgen
data_LiMoH6NO5
_symmetry_space_group_name_H-M   'P 1'
_cell_length_a   8.17452070
_cell_length_b   11.23366307
_cell_length_c   14.20895283
_cell_angle_alpha   90.00000000
_cell_angle_beta   90.00000000
_cell_angle_gamma   90.00000000
_symmetry_Int_Tables_number   1
_chemical_formula_structural   LiMoH6NO5
_chemical_formula_sum   'Li8 Mo8 H48 N8 O40'
_cell_volume   1304.80545719
_cell_formula_units_Z   8
loop_
 _symmetry_equiv_pos_site_id
 _symmetry_equiv_pos_as_xyz
  1  'x, y, z'
loop_
 _atom_site_type_symbol
 _atom_site_label
 _atom_site_symmetry_multiplicity
 _atom_site_fract_x
 _atom_site_fract_y
 _atom_site_fract_z
 _atom_site_occupancy
  Li  Li0  1  0.015808  0.073317  0.180466  1
  Li  Li1  1  0.515808  0.926683  0.319534  1
  Li  Li2  1  0.984192  0.426683  0.680466  1
  Li  Li3  1  0.484192  0.573317  0.819534  1
  Li  Li4  1  0.984192  0.926683  0.819534  1
  Li  Li5  1  0.484192  0.073317  0.680466  1
  Li  Li6  1  0.015808  0.573317  0.319534  1
  Li  Li7  1  0.515808  0.426683  0.180466  1
  Mo  Mo8  1  0.932099  0.375422  0.129933  1
  Mo  Mo9  1  0.432099  0.624578  0.370067  1
  Mo  Mo10  1  0.067901  0.124578  0.629933  1
  Mo  Mo11  1  0.567901  0.875422  0.870067  1
  Mo  Mo12  1  0.067901  0.624578  0.870067  1
  Mo  Mo13  1  0.567901  0.375422  0.629933  1
  Mo  Mo14  1  0.932099  0.875422  0.370067  1
  Mo  Mo15  1  0.432099  0.124578  0.129933  1
  H  H16  1  0.839170  0.966261  0.036092  1
  H  H17  1  0.339170  0.033739  0.463908  1
  H  H18  1  0.160830  0.533739  0.536092  1
  H  H19  1  0.660830  0.466261  0.963908  1
  H  H20  1  0.160830  0.033739  0.963908  1
  H  H21  1  0.660830  0.966261  0.536092  1
  H  H22  1  0.839170  0.466261  0.463908  1
  H  H23  1  0.339170  0.533739  0.036092  1
  H  H24  1  0.745492  0.974873  0.130945  1
  H  H25  1  0.245492  0.025127  0.369055  1
  H  H26  1  0.254508  0.525127  0.630945  1
  H  H27  1  0.754508  0.474873  0.869055  1
  H  H28  1  0.254508  0.025127  0.869055  1
  H  H29  1  0.754508  0.974873  0.630945  1
  H  H30  1  0.745492  0.474873  0.369055  1
  H  H31  1  0.245492  0.525127  0.130945  1
  H  H32  1  0.085108  0.272235  0.000570  1
  H  H33  1  0.585108  0.727765  0.499430  1
  H  H34  1  0.914892  0.227765  0.500570  1
  H  H35  1  0.414892  0.772235  0.999430  1
  H  H36  1  0.914892  0.727765  0.999430  1
  H  H37  1  0.414892  0.272235  0.500570  1
  H  H38  1  0.085108  0.772235  0.499430  1
  H  H39  1  0.585108  0.227765  0.000570  1
  H  H40  1  0.663562  0.185468  0.312328  1
  H  H41  1  0.163562  0.814532  0.187672  1
  H  H42  1  0.336438  0.314532  0.812328  1
  H  H43  1  0.836438  0.685468  0.687672  1
  H  H44  1  0.336438  0.814532  0.687672  1
  H  H45  1  0.836438  0.185468  0.812328  1
  H  H46  1  0.663562  0.685468  0.187672  1
  H  H47  1  0.163562  0.314532  0.312328  1
  H  H48  1  0.740381  0.140626  0.906401  1
  H  H49  1  0.240381  0.859374  0.593599  1
  H  H50  1  0.259619  0.359374  0.406401  1
  H  H51  1  0.759619  0.640626  0.093599  1
  H  H52  1  0.259619  0.859374  0.093599  1
  H  H53  1  0.759619  0.140626  0.406401  1
  H  H54  1  0.740381  0.640626  0.593599  1
  H  H55  1  0.240381  0.359374  0.906401  1
  H  H56  1  0.344033  0.263112  0.335960  1
  H  H57  1  0.844033  0.736888  0.164040  1
  H  H58  1  0.655967  0.236888  0.835960  1
  H  H59  1  0.155967  0.763112  0.664040  1
  H  H60  1  0.655967  0.736888  0.664040  1
  H  H61  1  0.155967  0.263112  0.835960  1
  H  H62  1  0.344033  0.763112  0.164040  1
  H  H63  1  0.844033  0.236888  0.335960  1
  N  N64  1  0.735308  0.214431  0.366751  1
  N  N65  1  0.235308  0.785569  0.133249  1
  N  N66  1  0.264692  0.285569  0.866751  1
  N  N67  1  0.764692  0.714431  0.633249  1
  N  N68  1  0.264692  0.785569  0.633249  1
  N  N69  1  0.764692  0.214431  0.866751  1
  N  N70  1  0.735308  0.714431  0.133249  1
  N  N71  1  0.235308  0.285569  0.366751  1
  O  O72  1  0.029502  0.489496  0.196081  1
  O  O73  1  0.529502  0.510504  0.303919  1
  O  O74  1  0.970498  0.010504  0.696081  1
  O  O75  1  0.470498  0.989496  0.803919  1
  O  O76  1  0.970498  0.510504  0.803919  1
  O  O77  1  0.470498  0.489496  0.696081  1
  O  O78  1  0.029502  0.989496  0.303919  1
  O  O79  1  0.529502  0.010504  0.196081  1
  O  O80  1  0.946621  0.241572  0.192660  1
  O  O81  1  0.446621  0.758428  0.307340  1
  O  O82  1  0.053379  0.258428  0.692660  1
  O  O83  1  0.553379  0.741572  0.807340  1
  O  O84  1  0.053379  0.758428  0.807340  1
  O  O85  1  0.553379  0.241572  0.692660  1
  O  O86  1  0.946621  0.741572  0.307340  1
  O  O87  1  0.446621  0.258428  0.192660  1
  O  O88  1  0.722449  0.410344  0.107159  1
  O  O89  1  0.222449  0.589656  0.392841  1
  O  O90  1  0.277551  0.089656  0.607159  1
  O  O91  1  0.777551  0.910344  0.892841  1
  O  O92  1  0.277551  0.589656  0.892841  1
  O  O93  1  0.777551  0.410344  0.607159  1
  O  O94  1  0.722449  0.910344  0.392841  1
  O  O95  1  0.222449  0.089656  0.107159  1
  O  O96  1  0.044845  0.352527  0.014606  1
  O  O97  1  0.544845  0.647473  0.485394  1
  O  O98  1  0.955155  0.147473  0.514606  1
  O  O99  1  0.455155  0.852527  0.985394  1
  O  O100  1  0.955155  0.647473  0.985394  1
  O  O101  1  0.455155  0.352527  0.514606  1
  O  O102  1  0.044845  0.852527  0.485394  1
  O  O103  1  0.544845  0.147473  0.014606  1
  O  O104  1  0.851405  0.992811  0.100967  1
  O  O105  1  0.351405  0.007189  0.399033  1
  O  O106  1  0.148595  0.507189  0.600967  1
  O  O107  1  0.648595  0.492811  0.899033  1
  O  O108  1  0.148595  0.007189  0.899033  1
  O  O109  1  0.648595  0.992811  0.600967  1
  O  O110  1  0.851405  0.492811  0.399033  1
  O  O111  1  0.351405  0.507189  0.100967  1
