# generated using pymatgen
data_LiV(TeO4)3
_symmetry_space_group_name_H-M   'P 1'
_cell_length_a   5.17350847
_cell_length_b   4.90711369
_cell_length_c   8.45453334
_cell_angle_alpha   90.00000000
_cell_angle_beta   90.00000000
_cell_angle_gamma   91.02774800
_symmetry_Int_Tables_number   1
_chemical_formula_structural   LiV(TeO4)3
_chemical_formula_sum   'Li1 V1 Te3 O12'
_cell_volume   214.60065978
_cell_formula_units_Z   1
loop_
 _symmetry_equiv_pos_site_id
 _symmetry_equiv_pos_as_xyz
  1  'x, y, z'
loop_
 _atom_site_type_symbol
 _atom_site_label
 _atom_site_symmetry_multiplicity
 _atom_site_fract_x
 _atom_site_fract_y
 _atom_site_fract_z
 _atom_site_occupancy
  Li  Li0  1  0.500000  0.000000  0.293675  1
  V  V1  1  0.000000  0.000000  0.091472  1
  Te  Te2  1  0.000000  0.500000  0.406015  1
  Te  Te3  1  0.500000  0.000000  0.918904  1
  Te  Te4  1  0.500000  0.500000  0.604644  1
  O  O5  1  0.123722  0.245185  0.254118  1
  O  O6  1  0.181166  0.288599  0.575715  1
  O  O7  1  0.183170  0.200696  0.936278  1
  O  O8  1  0.324520  0.715970  0.433649  1
  O  O9  1  0.313056  0.798138  0.086491  1
  O  O10  1  0.358141  0.749607  0.757933  1
  O  O11  1  0.641859  0.250393  0.757933  1
  O  O12  1  0.686944  0.201862  0.086491  1
  O  O13  1  0.675480  0.284030  0.433649  1
  O  O14  1  0.816830  0.799304  0.936278  1
  O  O15  1  0.818834  0.711401  0.575715  1
  O  O16  1  0.876278  0.754815  0.254118  1
