# generated using pymatgen
data_Li2Mn3WO8
_symmetry_space_group_name_H-M   'P 1'
_cell_length_a   6.05140153
_cell_length_b   6.05101796
_cell_length_c   9.89045026
_cell_angle_alpha   89.97998542
_cell_angle_beta   90.01000473
_cell_angle_gamma   119.99790106
_symmetry_Int_Tables_number   1
_chemical_formula_structural   Li2Mn3WO8
_chemical_formula_sum   'Li4 Mn6 W2 O16'
_cell_volume   313.64637006
_cell_formula_units_Z   2
loop_
 _symmetry_equiv_pos_site_id
 _symmetry_equiv_pos_as_xyz
  1  'x, y, z'
loop_
 _atom_site_type_symbol
 _atom_site_label
 _atom_site_symmetry_multiplicity
 _atom_site_fract_x
 _atom_site_fract_y
 _atom_site_fract_z
 _atom_site_occupancy
  Li  Li0  1  0.333305  0.666760  0.906456  1
  Li  Li1  1  0.999943  0.999852  0.985309  1
  Li  Li2  1  0.000057  0.999910  0.485309  1
  Li  Li3  1  0.666695  0.333455  0.406456  1
  Mn  Mn4  1  0.170379  0.829608  0.213328  1
  Mn  Mn5  1  0.170334  0.340709  0.213386  1
  Mn  Mn6  1  0.659250  0.829579  0.213357  1
  Mn  Mn7  1  0.340750  0.170328  0.713357  1
  Mn  Mn8  1  0.829621  0.659230  0.713328  1
  Mn  Mn9  1  0.829666  0.170376  0.713386  1
  W  W10  1  0.333350  0.666671  0.485973  1
  W  W11  1  0.666650  0.333322  0.985973  1
  O  O12  1  0.173424  0.826436  0.586126  1
  O  O13  1  0.039550  0.520030  0.355939  1
  O  O14  1  0.333183  0.666978  0.114733  1
  O  O15  1  0.000089  0.999701  0.295289  1
  O  O16  1  0.999911  0.999612  0.795289  1
  O  O17  1  0.173393  0.346875  0.585985  1
  O  O18  1  0.480157  0.960538  0.355967  1
  O  O19  1  0.480171  0.519800  0.356019  1
  O  O20  1  0.346910  0.173330  0.086053  1
  O  O21  1  0.653090  0.826420  0.586053  1
  O  O22  1  0.519843  0.480381  0.855967  1
  O  O23  1  0.519829  0.039629  0.856019  1
  O  O24  1  0.666817  0.333795  0.614733  1
  O  O25  1  0.826576  0.653012  0.086126  1
  O  O26  1  0.960450  0.480480  0.855939  1
  O  O27  1  0.826607  0.173483  0.085985  1
