# generated using pymatgen
data_Na2SnO3
_symmetry_space_group_name_H-M   'P 1'
_cell_length_a   5.59418211
_cell_length_b   5.59396566
_cell_length_c   11.18420238
_cell_angle_alpha   90.00013303
_cell_angle_beta   90.00038057
_cell_angle_gamma   60.00160764
_symmetry_Int_Tables_number   1
_chemical_formula_structural   Na2SnO3
_chemical_formula_sum   'Na8 Sn4 O12'
_cell_volume   303.10917328
_cell_formula_units_Z   4
loop_
 _symmetry_equiv_pos_site_id
 _symmetry_equiv_pos_as_xyz
  1  'x, y, z'
loop_
 _atom_site_type_symbol
 _atom_site_label
 _atom_site_symmetry_multiplicity
 _atom_site_fract_x
 _atom_site_fract_y
 _atom_site_fract_z
 _atom_site_occupancy
  Na  Na0  1  1.000000  0.677863  0.250000  1
  Na  Na1  1  0.322151  0.677861  0.749997  1
  Na  Na2  1  0.999995  0.322140  0.750000  1
  Na  Na3  1  0.999964  0.000027  0.000000  1
  Na  Na4  1  0.000037  0.999988  0.499999  1
  Na  Na5  1  0.322156  0.999975  0.250004  1
  Na  Na6  1  0.677845  0.322138  0.249995  1
  Na  Na7  1  0.677850  0.000013  0.750004  1
  Sn  Sn8  1  0.333308  0.333353  0.000005  1
  Sn  Sn9  1  0.666640  0.666685  0.000003  1
  Sn  Sn10  1  0.666692  0.666658  0.499996  1
  Sn  Sn11  1  0.333360  0.333325  0.499995  1
  O  O12  1  0.000028  0.631489  0.605463  1
  O  O13  1  0.999974  0.631518  0.894538  1
  O  O14  1  0.999975  0.368524  0.105458  1
  O  O15  1  0.000023  0.368497  0.394542  1
  O  O16  1  0.368488  0.631510  0.105453  1
  O  O17  1  0.368545  0.631479  0.394548  1
  O  O18  1  0.631518  0.368499  0.605455  1
  O  O19  1  0.631454  0.368532  0.894548  1
  O  O20  1  0.368541  0.999990  0.605455  1
  O  O21  1  0.368478  0.000017  0.894544  1
  O  O22  1  0.631461  0.000023  0.105452  1
  O  O23  1  0.631515  0.999997  0.394548  1
