# generated using pymatgen
data_Li2Co(SiO3)2
_symmetry_space_group_name_H-M   'P 1'
_cell_length_a   11.97912212
_cell_length_b   11.14388775
_cell_length_c   6.34861375
_cell_angle_alpha   73.45027863
_cell_angle_beta   74.63384576
_cell_angle_gamma   85.67115691
_symmetry_Int_Tables_number   1
_chemical_formula_structural   Li2Co(SiO3)2
_chemical_formula_sum   'Li12 Co6 Si12 O36'
_cell_volume   783.35094398
_cell_formula_units_Z   6
loop_
 _symmetry_equiv_pos_site_id
 _symmetry_equiv_pos_as_xyz
  1  'x, y, z'
loop_
 _atom_site_type_symbol
 _atom_site_label
 _atom_site_symmetry_multiplicity
 _atom_site_fract_x
 _atom_site_fract_y
 _atom_site_fract_z
 _atom_site_occupancy
  Li  Li0  1  0.022325  0.000000  0.488838  1
  Li  Li1  1  0.709937  0.000000  0.145032  1
  Li  Li2  1  0.438453  0.143283  0.955116  1
  Li  Li3  1  0.140988  0.221014  0.562541  1
  Li  Li4  1  0.640988  0.278986  0.533556  1
  Li  Li5  1  0.938453  0.356717  0.848399  1
  Li  Li6  1  0.522325  0.500000  0.238838  1
  Li  Li7  1  0.209937  0.500000  0.895032  1
  Li  Li8  1  0.938453  0.643283  0.213148  1
  Li  Li9  1  0.640988  0.721014  0.825457  1
  Li  Li10  1  0.140988  0.778986  0.296471  1
  Li  Li11  1  0.438453  0.856717  0.606431  1
  Co  Co12  1  0.263469  0.000000  0.368265  1
  Co  Co13  1  0.859789  0.167857  0.716938  1
  Co  Co14  1  0.359789  0.332143  0.634795  1
  Co  Co15  1  0.763468  0.500000  0.118265  1
  Co  Co16  1  0.359789  0.667857  0.005417  1
  Co  Co17  1  0.859789  0.832143  0.423273  1
  Si  Si18  1  0.682542  0.000000  0.658729  1
  Si  Si19  1  0.030087  0.000000  0.984956  1
  Si  Si20  1  0.487390  0.110764  0.452038  1
  Si  Si21  1  0.139088  0.216685  0.073642  1
  Si  Si22  1  0.639088  0.283315  0.040326  1
  Si  Si23  1  0.987390  0.389236  0.312802  1
  Si  Si24  1  0.530087  0.500000  0.734956  1
  Si  Si25  1  0.182542  0.500000  0.408729  1
  Si  Si26  1  0.987390  0.610764  0.699808  1
  Si  Si27  1  0.639088  0.716685  0.320585  1
  Si  Si28  1  0.139088  0.783315  0.787270  1
  Si  Si29  1  0.487390  0.889236  0.060572  1
  O  O30  1  0.958798  0.021850  0.794136  1
  O  O31  1  0.374419  0.023506  0.523882  1
  O  O32  1  0.144989  0.131711  0.326009  1
  O  O33  1  0.114252  0.128468  0.915501  1
  O  O34  1  0.749953  0.132275  0.568956  1
  O  O35  1  0.520183  0.190974  0.175091  1
  O  O36  1  0.598981  0.011621  0.477637  1
  O  O37  1  0.752323  0.197099  0.990885  1
  O  O38  1  0.481595  0.200261  0.617177  1
  O  O39  1  0.981595  0.299739  0.567438  1
  O  O40  1  0.252323  0.302901  0.937983  1
  O  O41  1  0.098981  0.488379  0.239258  1
  O  O42  1  0.020183  0.309026  0.116065  1
  O  O43  1  0.249953  0.367725  0.451231  1
  O  O44  1  0.614252  0.371532  0.793967  1
  O  O45  1  0.644989  0.368289  0.207719  1
  O  O46  1  0.874419  0.476494  0.297389  1
  O  O47  1  0.458798  0.478150  0.565986  1
  O  O48  1  0.458798  0.521850  0.975216  1
  O  O49  1  0.874419  0.523506  0.828192  1
  O  O50  1  0.644989  0.631710  0.147292  1
  O  O51  1  0.614252  0.628468  0.591780  1
  O  O52  1  0.249953  0.632275  0.298816  1
  O  O53  1  0.020183  0.690974  0.863751  1
  O  O54  1  0.098981  0.511621  0.661762  1
  O  O55  1  0.252323  0.697099  0.809693  1
  O  O56  1  0.981595  0.700261  0.450967  1
  O  O57  1  0.481595  0.799739  0.901228  1
  O  O58  1  0.752323  0.802901  0.256792  1
  O  O59  1  0.598981  0.988379  0.923382  1
  O  O60  1  0.520183  0.809026  0.304726  1
  O  O61  1  0.749953  0.867725  0.681091  1
  O  O62  1  0.114252  0.871532  0.970247  1
  O  O63  1  0.144989  0.868290  0.529002  1
  O  O64  1  0.374419  0.976494  0.101699  1
  O  O65  1  0.958798  0.978150  0.247066  1
