# generated using pymatgen
data_Ti3NiSn2(PO4)6
_symmetry_space_group_name_H-M   'P 1'
_cell_length_a   9.02905757
_cell_length_b   9.02905735
_cell_length_c   9.02905738
_cell_angle_alpha   57.00993479
_cell_angle_beta   57.00993573
_cell_angle_gamma   57.00993316
_symmetry_Int_Tables_number   1
_chemical_formula_structural   Ti3NiSn2(PO4)6
_chemical_formula_sum   'Ti3 Ni1 Sn2 P6 O24'
_cell_volume   484.60692142
_cell_formula_units_Z   1
loop_
 _symmetry_equiv_pos_site_id
 _symmetry_equiv_pos_as_xyz
  1  'x, y, z'
loop_
 _atom_site_type_symbol
 _atom_site_label
 _atom_site_symmetry_multiplicity
 _atom_site_fract_x
 _atom_site_fract_y
 _atom_site_fract_z
 _atom_site_occupancy
  Ti  Ti0  1  0.144402  0.144402  0.144402  1
  Ti  Ti1  1  0.352036  0.352036  0.352036  1
  Ti  Ti2  1  0.651975  0.651975  0.651975  1
  Ni  Ni3  1  0.849721  0.849721  0.849721  1
  Sn  Sn4  1  0.985900  0.985900  0.985900  1
  Sn  Sn5  1  0.503424  0.503424  0.503424  1
  P  P6  1  0.041995  0.750164  0.464582  1
  P  P7  1  0.464582  0.041995  0.750164  1
  P  P8  1  0.252903  0.534006  0.961939  1
  P  P9  1  0.534006  0.961939  0.252903  1
  P  P10  1  0.961939  0.252903  0.534006  1
  P  P11  1  0.750164  0.464582  0.041995  1
  O  O12  1  0.124839  0.296521  0.496251  1
  O  O13  1  0.296521  0.496251  0.124839  1
  O  O14  1  0.063269  0.926240  0.282389  1
  O  O15  1  0.496251  0.124839  0.296521  1
  O  O16  1  0.026094  0.767353  0.629353  1
  O  O17  1  0.221866  0.578132  0.422465  1
  O  O18  1  0.282389  0.063269  0.926240  1
  O  O19  1  0.422465  0.221866  0.578132  1
  O  O20  1  0.216531  0.369304  0.993992  1
  O  O21  1  0.578132  0.422465  0.221866  1
  O  O22  1  0.080998  0.718501  0.942255  1
  O  O23  1  0.369304  0.993992  0.216531  1
  O  O24  1  0.629353  0.026094  0.767353  1
  O  O25  1  0.926240  0.282389  0.063269  1
  O  O26  1  0.428931  0.558028  0.777682  1
  O  O27  1  0.767353  0.629353  0.026094  1
  O  O28  1  0.558028  0.777682  0.428931  1
  O  O29  1  0.718501  0.942255  0.080998  1
  O  O30  1  0.777682  0.428931  0.558028  1
  O  O31  1  0.993992  0.216531  0.369304  1
  O  O32  1  0.497056  0.868636  0.720270  1
  O  O33  1  0.942255  0.080998  0.718501  1
  O  O34  1  0.720270  0.497056  0.868636  1
  O  O35  1  0.868636  0.720270  0.497056  1
