# generated using pymatgen
data_LiV4(PO4)3
_symmetry_space_group_name_H-M   'P 1'
_cell_length_a   6.47823478
_cell_length_b   16.47960704
_cell_length_c   9.83055533
_cell_angle_alpha   90.00000000
_cell_angle_beta   90.00000000
_cell_angle_gamma   90.00000000
_symmetry_Int_Tables_number   1
_chemical_formula_structural   LiV4(PO4)3
_chemical_formula_sum   'Li4 V16 P12 O48'
_cell_volume   1049.49793142
_cell_formula_units_Z   4
loop_
 _symmetry_equiv_pos_site_id
 _symmetry_equiv_pos_as_xyz
  1  'x, y, z'
loop_
 _atom_site_type_symbol
 _atom_site_label
 _atom_site_symmetry_multiplicity
 _atom_site_fract_x
 _atom_site_fract_y
 _atom_site_fract_z
 _atom_site_occupancy
  Li  Li0  1  0.000000  0.444896  0.244902  1
  Li  Li1  1  0.000000  0.555104  0.755098  1
  Li  Li2  1  0.500000  0.055104  0.744902  1
  Li  Li3  1  0.500000  0.944896  0.255098  1
  V  V4  1  0.000000  0.093286  0.548788  1
  V  V5  1  0.000000  0.140121  0.991570  1
  V  V6  1  0.000000  0.859879  0.008430  1
  V  V7  1  0.000000  0.906714  0.451212  1
  V  V8  1  0.250983  0.294175  0.758327  1
  V  V9  1  0.250983  0.705825  0.241673  1
  V  V10  1  0.249017  0.205825  0.258327  1
  V  V11  1  0.249017  0.794175  0.741673  1
  V  V12  1  0.500000  0.593286  0.951212  1
  V  V13  1  0.500000  0.359879  0.491570  1
  V  V14  1  0.500000  0.406714  0.048788  1
  V  V15  1  0.500000  0.640121  0.508430  1
  V  V16  1  0.750983  0.794175  0.741673  1
  V  V17  1  0.750983  0.205825  0.258327  1
  V  V18  1  0.749017  0.294175  0.758327  1
  V  V19  1  0.749017  0.705825  0.241673  1
  P  P20  1  0.000000  0.037354  0.210348  1
  P  P21  1  0.000000  0.341332  0.049643  1
  P  P22  1  0.000000  0.284948  0.458075  1
  P  P23  1  0.000000  0.715052  0.541925  1
  P  P24  1  0.000000  0.658668  0.950357  1
  P  P25  1  0.000000  0.962646  0.789652  1
  P  P26  1  0.500000  0.537354  0.289652  1
  P  P27  1  0.500000  0.215052  0.958075  1
  P  P28  1  0.500000  0.158668  0.549643  1
  P  P29  1  0.500000  0.462646  0.710348  1
  P  P30  1  0.500000  0.784948  0.041925  1
  P  P31  1  0.500000  0.841332  0.450357  1
  O  O32  1  0.000000  0.025880  0.366366  1
  O  O33  1  0.000000  0.252686  0.118022  1
  O  O34  1  0.000000  0.193391  0.404975  1
  O  O35  1  0.000000  0.046753  0.852173  1
  O  O36  1  0.000000  0.281951  0.614948  1
  O  O37  1  0.000000  0.670037  0.107532  1
  O  O38  1  0.000000  0.329963  0.892468  1
  O  O39  1  0.000000  0.718049  0.385052  1
  O  O40  1  0.000000  0.953247  0.147827  1
  O  O41  1  0.000000  0.806609  0.595025  1
  O  O42  1  0.000000  0.747314  0.881978  1
  O  O43  1  0.000000  0.974120  0.633634  1
  O  O44  1  0.191773  0.089283  0.162598  1
  O  O45  1  0.191773  0.910717  0.837403  1
  O  O46  1  0.187465  0.610725  0.898882  1
  O  O47  1  0.187465  0.389275  0.101118  1
  O  O48  1  0.199704  0.320637  0.395396  1
  O  O49  1  0.199704  0.679363  0.604604  1
  O  O50  1  0.300296  0.179363  0.895396  1
  O  O51  1  0.300296  0.820637  0.104604  1
  O  O52  1  0.312535  0.889275  0.398882  1
  O  O53  1  0.312535  0.110725  0.601118  1
  O  O54  1  0.308227  0.589283  0.337402  1
  O  O55  1  0.308227  0.410717  0.662597  1
  O  O56  1  0.500000  0.170037  0.392468  1
  O  O57  1  0.500000  0.453247  0.352173  1
  O  O58  1  0.500000  0.525880  0.133634  1
  O  O59  1  0.500000  0.218049  0.114948  1
  O  O60  1  0.500000  0.474120  0.866366  1
  O  O61  1  0.500000  0.546753  0.647827  1
  O  O62  1  0.500000  0.247314  0.618022  1
  O  O63  1  0.500000  0.306609  0.904975  1
  O  O64  1  0.500000  0.693391  0.095025  1
  O  O65  1  0.500000  0.781951  0.885052  1
  O  O66  1  0.500000  0.829963  0.607532  1
  O  O67  1  0.500000  0.752686  0.381978  1
  O  O68  1  0.691773  0.410717  0.662597  1
  O  O69  1  0.691773  0.589283  0.337402  1
  O  O70  1  0.687465  0.110725  0.601118  1
  O  O71  1  0.687465  0.889275  0.398882  1
  O  O72  1  0.699704  0.179363  0.895396  1
  O  O73  1  0.699704  0.820637  0.104604  1
  O  O74  1  0.800296  0.320637  0.395396  1
  O  O75  1  0.800296  0.679363  0.604604  1
  O  O76  1  0.812535  0.389275  0.101118  1
  O  O77  1  0.812535  0.610725  0.898882  1
  O  O78  1  0.808227  0.089283  0.162598  1
  O  O79  1  0.808227  0.910717  0.837403  1
