# generated using pymatgen
data_Ba2Ta2O7
_symmetry_space_group_name_H-M   'P 1'
_cell_length_a   4.08371815
_cell_length_b   14.13814345
_cell_length_c   5.92934063
_cell_angle_alpha   90.00000000
_cell_angle_beta   90.00000000
_cell_angle_gamma   98.30381249
_symmetry_Int_Tables_number   1
_chemical_formula_structural   Ba2Ta2O7
_chemical_formula_sum   'Ba4 Ta4 O14'
_cell_volume   338.74855026
_cell_formula_units_Z   2
loop_
 _symmetry_equiv_pos_site_id
 _symmetry_equiv_pos_as_xyz
  1  'x, y, z'
loop_
 _atom_site_type_symbol
 _atom_site_label
 _atom_site_symmetry_multiplicity
 _atom_site_fract_x
 _atom_site_fract_y
 _atom_site_fract_z
 _atom_site_occupancy
  Ba  Ba0  1  0.291950  0.583900  0.250000  1
  Ba  Ba1  1  0.447184  0.894367  0.750000  1
  Ba  Ba2  1  0.708050  0.416100  0.750000  1
  Ba  Ba3  1  0.552816  0.105633  0.250000  1
  Ta  Ta4  1  0.159081  0.318161  0.250000  1
  Ta  Ta5  1  0.055461  0.110922  0.750000  1
  Ta  Ta6  1  0.840919  0.681839  0.750000  1
  Ta  Ta7  1  0.944539  0.889078  0.250000  1
  O  O8  1  0.000000  0.000000  0.000000  1
  O  O9  1  0.099906  0.199814  0.998562  1
  O  O10  1  0.000000  0.000000  0.500000  1
  O  O11  1  0.099906  0.199814  0.501438  1
  O  O12  1  0.204990  0.409980  0.022142  1
  O  O13  1  0.204990  0.409980  0.477858  1
  O  O14  1  0.450610  0.901221  0.250000  1
  O  O15  1  0.349135  0.698270  0.750000  1
  O  O16  1  0.549390  0.098779  0.750000  1
  O  O17  1  0.795010  0.590020  0.522142  1
  O  O18  1  0.795010  0.590020  0.977858  1
  O  O19  1  0.900094  0.800186  0.001438  1
  O  O20  1  0.650865  0.301730  0.250000  1
  O  O21  1  0.900094  0.800186  0.498562  1
