# generated using pymatgen
data_Fe5(OF4)2
_symmetry_space_group_name_H-M   'P 1'
_cell_length_a   4.82949324
_cell_length_b   7.99048149
_cell_length_c   10.13046031
_cell_angle_alpha   108.44675019
_cell_angle_beta   91.07944610
_cell_angle_gamma   89.22670570
_symmetry_Int_Tables_number   1
_chemical_formula_structural   Fe5(OF4)2
_chemical_formula_sum   'Fe10 O4 F16'
_cell_volume   370.76978340
_cell_formula_units_Z   2
loop_
 _symmetry_equiv_pos_site_id
 _symmetry_equiv_pos_as_xyz
  1  'x, y, z'
loop_
 _atom_site_type_symbol
 _atom_site_label
 _atom_site_symmetry_multiplicity
 _atom_site_fract_x
 _atom_site_fract_y
 _atom_site_fract_z
 _atom_site_occupancy
  Fe  Fe0  1  0.499103  0.300488  0.899538  1
  Fe  Fe1  1  0.516475  0.109261  0.293798  1
  Fe  Fe2  1  0.496828  0.902014  0.704637  1
  Fe  Fe3  1  0.501084  0.683291  0.096907  1
  Fe  Fe4  1  0.519854  0.507903  0.511499  1
  Fe  Fe5  1  0.971133  0.609787  0.791852  1
  Fe  Fe6  1  0.037244  0.194878  0.612864  1
  Fe  Fe7  1  -0.000358  0.799243  0.394723  1
  Fe  Fe8  1  0.952457  0.386340  0.185052  1
  Fe  Fe9  1  0.995290  0.003333  0.014546  1
  O  O10  1  0.823495  0.173615  0.190215  1
  O  O11  1  0.684017  0.658886  0.666328  1
  O  O12  1  0.693994  0.445371  0.059712  1
  O  O13  1  0.309683  0.150199  0.729624  1
  F  F14  1  0.799811  0.759684  0.981080  1
  F  F15  1  0.815556  0.975977  0.579926  1
  F  F16  1  0.792388  0.549757  0.371892  1
  F  F17  1  0.802873  0.348515  0.768217  1
  F  F18  1  0.706754  0.073147  0.883700  1
  F  F19  1  0.688636  0.857621  0.284655  1
  F  F20  1  0.708922  0.272634  0.492929  1
  F  F21  1  0.294578  0.728801  0.510766  1
  F  F22  1  0.313064  0.360926  0.335565  1
  F  F23  1  0.307734  0.928118  0.126113  1
  F  F24  1  0.288832  0.526203  0.904068  1
  F  F25  1  0.199619  0.427919  0.610047  1
  F  F26  1  0.197064  0.053588  0.428948  1
  F  F27  1  0.195933  0.844328  0.829787  1
  F  F28  1  0.213300  0.247681  0.026583  1
  F  F29  1  0.174638  0.620492  0.214425  1
