# generated using pymatgen
data_Ti17(NO4)6
_symmetry_space_group_name_H-M   'P 1'
_cell_length_a   10.39368921
_cell_length_b   10.71132286
_cell_length_c   11.29538055
_cell_angle_alpha   110.09137162
_cell_angle_beta   70.41000661
_cell_angle_gamma   95.24100631
_symmetry_Int_Tables_number   1
_chemical_formula_structural   Ti17(NO4)6
_chemical_formula_sum   'Ti34 N12 O48'
_cell_volume   1112.22744012
_cell_formula_units_Z   2
loop_
 _symmetry_equiv_pos_site_id
 _symmetry_equiv_pos_as_xyz
  1  'x, y, z'
loop_
 _atom_site_type_symbol
 _atom_site_label
 _atom_site_symmetry_multiplicity
 _atom_site_fract_x
 _atom_site_fract_y
 _atom_site_fract_z
 _atom_site_occupancy
  Ti  Ti0  1  0.841229  0.978352  0.570711  1
  Ti  Ti1  1  0.999117  0.851567  0.251028  1
  Ti  Ti2  1  0.775590  0.904932  0.074175  1
  Ti  Ti3  1  0.836393  0.816526  0.749506  1
  Ti  Ti4  1  0.345603  0.982179  0.577842  1
  Ti  Ti5  1  0.987730  0.684491  0.422152  1
  Ti  Ti6  1  0.496935  0.850138  0.250493  1
  Ti  Ti7  1  0.276824  0.904272  0.070915  1
  Ti  Ti8  1  0.678580  0.639569  0.555681  1
  Ti  Ti9  1  0.334225  0.815101  0.748972  1
  Ti  Ti10  1  0.557752  0.761729  0.925818  1
  Ti  Ti11  1  0.492105  0.688309  0.429297  1
  Ti  Ti12  1  0.612761  0.568446  0.070181  1
  Ti  Ti13  1  0.883095  0.434663  0.942746  1
  Ti  Ti14  1  0.330257  0.516783  0.248604  1
  Ti  Ti15  1  0.056499  0.762403  0.929096  1
  Ti  Ti16  1  0.173875  0.644065  0.570616  1
  Ti  Ti17  1  0.825413  0.360157  0.423031  1
  Ti  Ti18  1  0.669286  0.484925  0.749388  1
  Ti  Ti19  1  0.104306  0.567518  0.076920  1
  Ti  Ti20  1  0.941303  0.243713  0.077730  1
  Ti  Ti21  1  0.392036  0.422954  0.922268  1
  Ti  Ti22  1  0.664043  0.181749  0.250616  1
  Ti  Ti23  1  0.326577  0.354655  0.425696  1
  Ti  Ti24  1  0.169151  0.478903  0.750469  1
  Ti  Ti25  1  0.507920  0.306518  0.576974  1
  Ti  Ti26  1  0.450228  0.232006  0.057259  1
  Ti  Ti27  1  0.006752  0.312007  0.574300  1
  Ti  Ti28  1  0.164184  0.187759  0.249531  1
  Ti  Ti29  1  0.720575  0.098211  0.929808  1
  Ti  Ti30  1  0.654757  0.027101  0.444323  1
  Ti  Ti31  1  0.229031  0.099152  0.923080  1
  Ti  Ti32  1  0.159458  0.022605  0.429374  1
  Ti  Ti33  1  0.003072  0.149880  0.751398  1
  N  N34  1  0.641737  0.992182  0.250085  1
  N  N35  1  0.987175  0.668293  0.249971  1
  N  N36  1  0.142995  0.994050  0.249624  1
  N  N37  1  0.691591  0.674480  0.749917  1
  N  N38  1  0.472398  0.661385  0.249989  1
  N  N39  1  0.190339  0.672613  0.750374  1
  N  N40  1  0.809490  0.312005  0.250511  1
  N  N41  1  0.523839  0.354653  0.749485  1
  N  N42  1  0.306558  0.327082  0.249217  1
  N  N43  1  0.860940  0.005293  0.750015  1
  N  N44  1  0.026780  0.339590  0.750782  1
  N  N45  1  0.346155  0.998368  0.750037  1
  O  O46  1  0.831553  0.942702  0.377363  1
  O  O47  1  0.917571  0.856538  0.117434  1
  O  O48  1  0.916581  0.809595  0.881242  1
  O  O49  1  0.803332  0.790884  0.563155  1
  O  O50  1  0.679097  0.914476  0.934838  1
  O  O51  1  0.328477  0.942012  0.378759  1
  O  O52  1  0.529990  0.875778  0.436831  1
  O  O53  1  0.654216  0.752202  0.065182  1
  O  O54  1  0.416753  0.857075  0.118775  1
  O  O55  1  0.032948  0.875566  0.434788  1
  O  O56  1  0.001883  0.409382  0.051530  1
  O  O57  1  0.300388  0.791091  0.565215  1
  O  O58  1  0.869489  0.542545  0.448928  1
  O  O59  1  0.154510  0.751906  0.063548  1
  O  O60  1  0.749847  0.522150  0.109497  1
  O  O61  1  0.178807  0.914753  0.936439  1
  O  O62  1  0.655933  0.615668  0.390360  1
  O  O63  1  0.501761  0.723973  0.622643  1
  O  O64  1  0.415746  0.810132  0.882561  1
  O  O65  1  0.162273  0.610848  0.382703  1
  O  O66  1  0.997166  0.278781  0.381716  1
  O  O67  1  0.512214  0.583746  0.934213  1
  O  O68  1  0.004870  0.724644  0.621238  1
  O  O69  1  0.249895  0.525849  0.120654  1
  O  O70  1  0.638450  0.458275  0.561578  1
  O  O71  1  0.364317  0.540407  0.434990  1
  O  O72  1  0.488237  0.417064  0.062633  1
  O  O73  1  0.836920  0.386952  0.619622  1
  O  O74  1  0.750140  0.476105  0.877862  1
  O  O75  1  0.336163  0.387893  0.618289  1
  O  O76  1  0.821118  0.082920  0.065799  1
  O  O77  1  0.496431  0.279710  0.380367  1
  O  O78  1  0.694889  0.208377  0.438415  1
  O  O79  1  0.845106  0.249613  0.937371  1
  O  O80  1  0.250632  0.477348  0.880271  1
  O  O81  1  0.011185  0.583011  0.937116  1
  O  O82  1  0.969012  0.126274  0.565013  1
  O  O83  1  0.134524  0.459203  0.565196  1
  O  O84  1  0.583207  0.190556  0.122138  1
  O  O85  1  0.331448  0.257279  0.948468  1
  O  O86  1  0.583492  0.144519  0.890497  1
  O  O87  1  0.677387  0.051003  0.609634  1
  O  O88  1  0.463855  0.124116  0.551067  1
  O  O89  1  0.322161  0.083648  0.062864  1
  O  O90  1  0.198815  0.207474  0.434822  1
  O  O91  1  0.082698  0.189319  0.119716  1
  O  O92  1  0.083447  0.140818  0.879349  1
  O  O93  1  0.171068  0.055822  0.617308  1
