# generated using pymatgen
data_Li6MnVP2(CO7)2
_symmetry_space_group_name_H-M   'P 1'
_cell_length_a   8.53347037
_cell_length_b   5.01147242
_cell_length_c   6.63481438
_cell_angle_alpha   90.00000000
_cell_angle_beta   90.00000000
_cell_angle_gamma   85.15958923
_symmetry_Int_Tables_number   1
_chemical_formula_structural   Li6MnVP2(CO7)2
_chemical_formula_sum   'Li6 Mn1 V1 P2 C2 O14'
_cell_volume   282.72757450
_cell_formula_units_Z   1
loop_
 _symmetry_equiv_pos_site_id
 _symmetry_equiv_pos_as_xyz
  1  'x, y, z'
loop_
 _atom_site_type_symbol
 _atom_site_label
 _atom_site_symmetry_multiplicity
 _atom_site_fract_x
 _atom_site_fract_y
 _atom_site_fract_z
 _atom_site_occupancy
  Li  Li0  1  0.094832  0.761020  0.250000  1
  Li  Li1  1  0.275517  0.248067  0.026912  1
  Li  Li2  1  0.275517  0.248067  0.473087  1
  Li  Li3  1  0.723898  0.753465  0.526304  1
  Li  Li4  1  0.723898  0.753465  0.973696  1
  Li  Li5  1  0.905632  0.235230  0.750000  1
  Mn  Mn6  1  0.660282  0.221061  0.250000  1
  V  V7  1  0.330387  0.792144  0.750000  1
  P  P8  1  0.410013  0.721386  0.250000  1
  P  P9  1  0.588959  0.279326  0.750000  1
  C  C10  1  0.035939  0.699417  0.750000  1
  C  C11  1  0.966774  0.296835  0.250000  1
  O  O12  1  0.075576  0.944126  0.750000  1
  O  O13  1  0.112472  0.356231  0.250000  1
  O  O14  1  0.148128  0.506168  0.750000  1
  O  O15  1  0.310129  0.828774  0.067337  1
  O  O16  1  0.310129  0.828774  0.432663  1
  O  O17  1  0.422390  0.179093  0.750000  1
  O  O18  1  0.424139  0.407649  0.250000  1
  O  O19  1  0.570161  0.592482  0.750000  1
  O  O20  1  0.579648  0.812188  0.250000  1
  O  O21  1  0.690392  0.174150  0.933160  1
  O  O22  1  0.690392  0.174150  0.566840  1
  O  O23  1  0.854397  0.490286  0.250000  1
  O  O24  1  0.889802  0.645005  0.750000  1
  O  O25  1  0.930598  0.051440  0.250000  1
