# generated using pymatgen
data_LiNi4(PO4)3
_symmetry_space_group_name_H-M   'P 1'
_cell_length_a   12.99434683
_cell_length_b   7.68368652
_cell_length_c   10.21527657
_cell_angle_alpha   90.00000000
_cell_angle_beta   90.00000000
_cell_angle_gamma   90.00000000
_symmetry_Int_Tables_number   1
_chemical_formula_structural   LiNi4(PO4)3
_chemical_formula_sum   'Li4 Ni16 P12 O48'
_cell_volume   1019.93905456
_cell_formula_units_Z   4
loop_
 _symmetry_equiv_pos_site_id
 _symmetry_equiv_pos_as_xyz
  1  'x, y, z'
loop_
 _atom_site_type_symbol
 _atom_site_label
 _atom_site_symmetry_multiplicity
 _atom_site_fract_x
 _atom_site_fract_y
 _atom_site_fract_z
 _atom_site_occupancy
  Li  Li0  1  0.250000  0.750000  0.725472  1
  Li  Li1  1  0.250000  0.750000  0.225472  1
  Li  Li2  1  0.750000  0.250000  0.274528  1
  Li  Li3  1  0.750000  0.250000  0.774528  1
  Ni  Ni4  1  0.029277  0.112223  0.202212  1
  Ni  Ni5  1  0.029277  0.387777  0.702212  1
  Ni  Ni6  1  0.160514  0.399984  0.993314  1
  Ni  Ni7  1  0.160514  0.100016  0.493314  1
  Ni  Ni8  1  0.339486  0.399984  0.493314  1
  Ni  Ni9  1  0.339486  0.100016  0.993314  1
  Ni  Ni10  1  0.470723  0.112223  0.702212  1
  Ni  Ni11  1  0.470723  0.387777  0.202212  1
  Ni  Ni12  1  0.529277  0.887777  0.297788  1
  Ni  Ni13  1  0.529277  0.612223  0.797788  1
  Ni  Ni14  1  0.660514  0.600016  0.506686  1
  Ni  Ni15  1  0.660514  0.899984  0.006686  1
  Ni  Ni16  1  0.839486  0.600016  0.006686  1
  Ni  Ni17  1  0.839486  0.899984  0.506686  1
  Ni  Ni18  1  0.970723  0.612223  0.297788  1
  Ni  Ni19  1  0.970723  0.887777  0.797788  1
  P  P20  1  0.070734  0.745906  0.571208  1
  P  P21  1  0.070734  0.754094  0.071208  1
  P  P22  1  0.250000  0.250000  0.751140  1
  P  P23  1  0.250000  0.250000  0.251140  1
  P  P24  1  0.429266  0.745906  0.071208  1
  P  P25  1  0.429266  0.754094  0.571208  1
  P  P26  1  0.570734  0.245906  0.428792  1
  P  P27  1  0.570734  0.254094  0.928792  1
  P  P28  1  0.750000  0.750000  0.248860  1
  P  P29  1  0.750000  0.750000  0.748860  1
  P  P30  1  0.929266  0.245906  0.928792  1
  P  P31  1  0.929266  0.254094  0.428792  1
  O  O32  1  0.031289  0.146819  0.398791  1
  O  O33  1  0.031289  0.353181  0.898791  1
  O  O34  1  0.062685  0.650042  0.441873  1
  O  O35  1  0.062685  0.849958  0.941873  1
  O  O36  1  0.087272  0.874237  0.191812  1
  O  O37  1  0.087272  0.625763  0.691812  1
  O  O38  1  0.162840  0.625997  0.076530  1
  O  O39  1  0.162840  0.874003  0.576530  1
  O  O40  1  0.154303  0.252037  0.156347  1
  O  O41  1  0.154303  0.247963  0.656347  1
  O  O42  1  0.248386  0.084449  0.336286  1
  O  O43  1  0.248386  0.415551  0.836286  1
  O  O44  1  0.251614  0.084449  0.836286  1
  O  O45  1  0.251614  0.415551  0.336286  1
  O  O46  1  0.345697  0.252037  0.656347  1
  O  O47  1  0.345697  0.247963  0.156347  1
  O  O48  1  0.337160  0.874003  0.076530  1
  O  O49  1  0.337160  0.625997  0.576530  1
  O  O50  1  0.412728  0.874237  0.691812  1
  O  O51  1  0.412728  0.625763  0.191812  1
  O  O52  1  0.437315  0.849958  0.441873  1
  O  O53  1  0.437315  0.650042  0.941873  1
  O  O54  1  0.468711  0.353181  0.398791  1
  O  O55  1  0.468711  0.146819  0.898791  1
  O  O56  1  0.531289  0.646819  0.601209  1
  O  O57  1  0.531289  0.853181  0.101209  1
  O  O58  1  0.562685  0.150042  0.558127  1
  O  O59  1  0.562685  0.349958  0.058127  1
  O  O60  1  0.587272  0.125763  0.308188  1
  O  O61  1  0.587272  0.374237  0.808188  1
  O  O62  1  0.662840  0.125997  0.923470  1
  O  O63  1  0.662840  0.374003  0.423470  1
  O  O64  1  0.654303  0.747963  0.343653  1
  O  O65  1  0.654303  0.752037  0.843653  1
  O  O66  1  0.748386  0.584449  0.663714  1
  O  O67  1  0.748386  0.915551  0.163714  1
  O  O68  1  0.751614  0.584449  0.163714  1
  O  O69  1  0.751614  0.915551  0.663714  1
  O  O70  1  0.845697  0.747963  0.843653  1
  O  O71  1  0.845697  0.752037  0.343653  1
  O  O72  1  0.837160  0.125997  0.423470  1
  O  O73  1  0.837160  0.374003  0.923470  1
  O  O74  1  0.912728  0.125763  0.808188  1
  O  O75  1  0.912728  0.374237  0.308188  1
  O  O76  1  0.937315  0.150042  0.058127  1
  O  O77  1  0.937315  0.349958  0.558127  1
  O  O78  1  0.968711  0.646819  0.101209  1
  O  O79  1  0.968711  0.853181  0.601209  1
