# generated using pymatgen
data_InCuPO5
_symmetry_space_group_name_H-M   'P 1'
_cell_length_a   6.71456215
_cell_length_b   7.38048406
_cell_length_c   7.93096737
_cell_angle_alpha   90.03267359
_cell_angle_beta   90.02132815
_cell_angle_gamma   89.99266420
_symmetry_Int_Tables_number   1
_chemical_formula_structural   InCuPO5
_chemical_formula_sum   'In4 Cu4 P4 O20'
_cell_volume   393.03262658
_cell_formula_units_Z   4
loop_
 _symmetry_equiv_pos_site_id
 _symmetry_equiv_pos_as_xyz
  1  'x, y, z'
loop_
 _atom_site_type_symbol
 _atom_site_label
 _atom_site_symmetry_multiplicity
 _atom_site_fract_x
 _atom_site_fract_y
 _atom_site_fract_z
 _atom_site_occupancy
  In  In0  1  0.250027  0.211165  0.174033  1
  In  In1  1  0.749979  0.711120  0.326109  1
  In  In2  1  0.749973  0.788822  0.825978  1
  In  In3  1  0.250036  0.288885  0.673900  1
  Cu  Cu4  1  0.999982  0.999988  0.499990  1
  Cu  Cu5  1  0.499997  0.500010  0.999990  1
  Cu  Cu6  1  0.999995  0.500000  0.999981  1
  Cu  Cu7  1  0.500015  0.999989  0.500000  1
  P  P8  1  0.249986  0.641875  0.391555  1
  P  P9  1  0.750021  0.141813  0.108196  1
  P  P10  1  0.750021  0.358163  0.608432  1
  P  P11  1  0.249975  0.858150  0.891728  1
  O  O12  1  0.749991  0.048421  0.936473  1
  O  O13  1  0.063245  0.769262  0.376912  1
  O  O14  1  0.436730  0.769224  0.376965  1
  O  O15  1  0.249952  0.989208  0.740674  1
  O  O16  1  0.563273  0.230777  0.623038  1
  O  O17  1  0.750047  0.010811  0.259351  1
  O  O18  1  0.436732  0.730759  0.876859  1
  O  O19  1  0.563242  0.269251  0.123122  1
  O  O20  1  0.936757  0.269247  0.123138  1
  O  O21  1  0.063255  0.730770  0.876853  1
  O  O22  1  0.750103  0.875431  0.570022  1
  O  O23  1  0.249973  0.375127  0.929951  1
  O  O24  1  0.249898  0.124526  0.429990  1
  O  O25  1  0.749988  0.451629  0.436382  1
  O  O26  1  0.249968  0.510899  0.240655  1
  O  O27  1  0.250013  0.951598  0.063597  1
  O  O28  1  0.250000  0.548376  0.563642  1
  O  O29  1  0.750029  0.624851  0.070065  1
  O  O30  1  0.750030  0.489116  0.759332  1
  O  O31  1  0.936769  0.230739  0.623087  1
