# generated using pymatgen
data_Li2Mn3(Si3O8)2
_symmetry_space_group_name_H-M   'P 1'
_cell_length_a   9.86129192
_cell_length_b   10.39167187
_cell_length_c   7.07773881
_cell_angle_alpha   69.73336155
_cell_angle_beta   98.36250079
_cell_angle_gamma   84.68526412
_symmetry_Int_Tables_number   1
_chemical_formula_structural   Li2Mn3(Si3O8)2
_chemical_formula_sum   'Li4 Mn6 Si12 O32'
_cell_volume   665.11846198
_cell_formula_units_Z   2
loop_
 _symmetry_equiv_pos_site_id
 _symmetry_equiv_pos_as_xyz
  1  'x, y, z'
loop_
 _atom_site_type_symbol
 _atom_site_label
 _atom_site_symmetry_multiplicity
 _atom_site_fract_x
 _atom_site_fract_y
 _atom_site_fract_z
 _atom_site_occupancy
  Li  Li0  1  0.114540  0.532541  0.375079  1
  Li  Li1  1  0.415835  0.181172  0.648814  1
  Li  Li2  1  0.584165  0.818828  0.351186  1
  Li  Li3  1  0.885460  0.467459  0.624921  1
  Mn  Mn4  1  0.140619  0.527210  0.894472  1
  Mn  Mn5  1  0.116432  0.884889  0.959327  1
  Mn  Mn6  1  0.125135  0.888678  0.460332  1
  Mn  Mn7  1  0.874865  0.111322  0.539668  1
  Mn  Mn8  1  0.883568  0.115111  0.040673  1
  Mn  Mn9  1  0.859381  0.472790  0.105528  1
  Si  Si10  1  0.136227  0.236274  0.751628  1
  Si  Si11  1  0.133871  0.232226  0.316435  1
  Si  Si12  1  0.319209  0.062221  0.155466  1
  Si  Si13  1  0.393443  0.644125  0.612937  1
  Si  Si14  1  0.405155  0.864856  0.784565  1
  Si  Si15  1  0.396859  0.625458  0.180499  1
  Si  Si16  1  0.603141  0.374542  0.819501  1
  Si  Si17  1  0.594845  0.135144  0.215435  1
  Si  Si18  1  0.606557  0.355875  0.387063  1
  Si  Si19  1  0.680791  0.937779  0.844534  1
  Si  Si20  1  0.866129  0.767774  0.683565  1
  Si  Si21  1  0.863773  0.763726  0.248372  1
  O  O22  1  0.020415  0.132047  0.807517  1
  O  O23  1  0.021440  0.124801  0.326267  1
  O  O24  1  0.083761  0.394532  0.725057  1
  O  O25  1  0.072754  0.388408  0.160484  1
  O  O26  1  0.193049  0.244411  0.539004  1
  O  O27  1  0.286624  0.159600  0.910291  1
  O  O28  1  0.229695  0.644274  0.619180  1
  O  O29  1  0.278129  0.167102  0.271512  1
  O  O30  1  0.242848  0.925213  0.724852  1
  O  O31  1  0.233190  0.623680  0.112814  1
  O  O32  1  0.238840  0.930188  0.206288  1
  O  O33  1  0.490972  0.015328  0.230653  1
  O  O34  1  0.548394  0.242716  0.978798  1
  O  O35  1  0.440152  0.651790  0.396499  1
  O  O36  1  0.445750  0.787337  0.629211  1
  O  O37  1  0.497485  0.513898  0.793922  1
  O  O38  1  0.502515  0.486102  0.206078  1
  O  O39  1  0.554250  0.212663  0.370789  1
  O  O40  1  0.559848  0.348210  0.603501  1
  O  O41  1  0.451606  0.757284  0.021202  1
  O  O42  1  0.509028  0.984672  0.769347  1
  O  O43  1  0.761160  0.069812  0.793712  1
  O  O44  1  0.766810  0.376320  0.887186  1
  O  O45  1  0.757152  0.074787  0.275148  1
  O  O46  1  0.721871  0.832898  0.728488  1
  O  O47  1  0.770305  0.355726  0.380820  1
  O  O48  1  0.713376  0.840400  0.089709  1
  O  O49  1  0.806951  0.755589  0.460996  1
  O  O50  1  0.927246  0.611592  0.839516  1
  O  O51  1  0.916239  0.605468  0.274943  1
  O  O52  1  0.978560  0.875199  0.673733  1
  O  O53  1  0.979585  0.867953  0.192483  1
