# generated using pymatgen
data_Li4Ti2Mn3O10
_symmetry_space_group_name_H-M   'P 1'
_cell_length_a   8.02225020
_cell_length_b   6.62693194
_cell_length_c   8.09186248
_cell_angle_alpha   113.25476474
_cell_angle_beta   81.77999739
_cell_angle_gamma   90.86881821
_symmetry_Int_Tables_number   1
_chemical_formula_structural   Li4Ti2Mn3O10
_chemical_formula_sum   'Li8 Ti4 Mn6 O20'
_cell_volume   390.77391309
_cell_formula_units_Z   2
loop_
 _symmetry_equiv_pos_site_id
 _symmetry_equiv_pos_as_xyz
  1  'x, y, z'
loop_
 _atom_site_type_symbol
 _atom_site_label
 _atom_site_symmetry_multiplicity
 _atom_site_fract_x
 _atom_site_fract_y
 _atom_site_fract_z
 _atom_site_occupancy
  Li  Li0  1  0.041791  0.348500  0.769072  1
  Li  Li1  1  0.157206  0.058613  0.403730  1
  Li  Li2  1  0.992962  0.499939  0.484938  1
  Li  Li3  1  0.507038  0.000061  0.515062  1
  Li  Li4  1  0.342794  0.441387  0.596270  1
  Li  Li5  1  0.458209  0.151500  0.230928  1
  Li  Li6  1  0.676555  0.566822  0.399285  1
  Li  Li7  1  0.823445  0.933178  0.600715  1
  Ti  Ti8  1  0.304390  0.595301  0.317868  1
  Ti  Ti9  1  0.195610  0.904699  0.682132  1
  Ti  Ti10  1  0.816750  0.084410  0.320228  1
  Ti  Ti11  1  0.683250  0.415590  0.679772  1
  Mn  Mn12  1  0.098128  0.214286  0.108219  1
  Mn  Mn13  1  0.401872  0.285714  0.891781  1
  Mn  Mn14  1  0.250000  0.750000  0.000000  1
  Mn  Mn15  1  0.750000  0.250000  0.000000  1
  Mn  Mn16  1  0.605445  0.710302  0.112327  1
  Mn  Mn17  1  0.894555  0.789698  0.887673  1
  O  O18  1  0.298992  0.036885  0.937167  1
  O  O19  1  0.261781  0.159667  0.652365  1
  O  O20  1  0.238219  0.340333  0.347635  1
  O  O21  1  0.116750  0.650240  0.766170  1
  O  O22  1  0.104185  0.775980  0.461552  1
  O  O23  1  0.201008  0.463115  0.062833  1
  O  O24  1  0.621752  0.160869  0.763490  1
  O  O25  1  0.029641  0.961104  0.165362  1
  O  O26  1  0.598093  0.277233  0.457676  1
  O  O27  1  0.470359  0.538896  0.834638  1
  O  O28  1  0.527616  0.454633  0.163783  1
  O  O29  1  0.395815  0.724020  0.538448  1
  O  O30  1  0.972384  0.045367  0.836217  1
  O  O31  1  0.383250  0.849760  0.233830  1
  O  O32  1  0.804483  0.532519  0.926787  1
  O  O33  1  0.901907  0.222767  0.542324  1
  O  O34  1  0.878248  0.339131  0.236510  1
  O  O35  1  0.776175  0.652839  0.643613  1
  O  O36  1  0.723825  0.847161  0.356387  1
  O  O37  1  0.695517  0.967481  0.073213  1
