# generated using pymatgen
data_Li4Mn3Co3(WO8)2
_symmetry_space_group_name_H-M   'P 1'
_cell_length_a   5.99594021
_cell_length_b   5.90025363
_cell_length_c   9.86266793
_cell_angle_alpha   89.94953192
_cell_angle_beta   91.49896669
_cell_angle_gamma   119.48617059
_symmetry_Int_Tables_number   1
_chemical_formula_structural   Li4Mn3Co3(WO8)2
_chemical_formula_sum   'Li4 Mn3 Co3 W2 O16'
_cell_volume   303.59075647
_cell_formula_units_Z   1
loop_
 _symmetry_equiv_pos_site_id
 _symmetry_equiv_pos_as_xyz
  1  'x, y, z'
loop_
 _atom_site_type_symbol
 _atom_site_label
 _atom_site_symmetry_multiplicity
 _atom_site_fract_x
 _atom_site_fract_y
 _atom_site_fract_z
 _atom_site_occupancy
  Li  Li0  1  0.325661  0.662632  0.907201  1
  Li  Li1  1  0.997135  0.998698  0.989999  1
  Li  Li2  1  0.004475  0.002249  0.484407  1
  Li  Li3  1  0.666032  0.333059  0.407160  1
  Mn  Mn4  1  0.665689  0.832907  0.210650  1
  Mn  Mn5  1  0.827787  0.659589  0.714382  1
  Mn  Mn6  1  0.828255  0.168505  0.714351  1
  Co  Co7  1  0.165524  0.814670  0.216608  1
  Co  Co8  1  0.165433  0.350996  0.216745  1
  Co  Co9  1  0.339692  0.169911  0.713202  1
  W  W10  1  0.334488  0.667922  0.485832  1
  W  W11  1  0.642120  0.321532  0.987312  1
  O  O12  1  0.186964  0.835201  0.582729  1
  O  O13  1  0.035970  0.517795  0.355211  1
  O  O14  1  0.338734  0.669102  0.113012  1
  O  O15  1  0.998898  0.999618  0.295475  1
  O  O16  1  0.994789  0.997526  0.801046  1
  O  O17  1  0.186721  0.350935  0.583201  1
  O  O18  1  0.483512  0.961538  0.352242  1
  O  O19  1  0.483355  0.521911  0.352179  1
  O  O20  1  0.343661  0.171621  0.088781  1
  O  O21  1  0.668618  0.834306  0.592025  1
  O  O22  1  0.513920  0.481095  0.857364  1
  O  O23  1  0.513365  0.032332  0.856862  1
  O  O24  1  0.677353  0.338792  0.614230  1
  O  O25  1  0.828742  0.653340  0.086383  1
  O  O26  1  0.954461  0.477386  0.842851  1
  O  O27  1  0.828647  0.175134  0.086401  1
