# generated using pymatgen
data_Li4Mn5(Fe2O9)2
_symmetry_space_group_name_H-M   'P 1'
_cell_length_a   9.11755028
_cell_length_b   24.90984092
_cell_length_c   2.90992625
_cell_angle_alpha   89.99958488
_cell_angle_beta   89.99993798
_cell_angle_gamma   89.81858012
_symmetry_Int_Tables_number   1
_chemical_formula_structural   Li4Mn5(Fe2O9)2
_chemical_formula_sum   'Li8 Mn10 Fe8 O36'
_cell_volume   660.88961255
_cell_formula_units_Z   2
loop_
 _symmetry_equiv_pos_site_id
 _symmetry_equiv_pos_as_xyz
  1  'x, y, z'
loop_
 _atom_site_type_symbol
 _atom_site_label
 _atom_site_symmetry_multiplicity
 _atom_site_fract_x
 _atom_site_fract_y
 _atom_site_fract_z
 _atom_site_occupancy
  Li  Li0  1  0.178370  0.993152  0.000015  1
  Li  Li1  1  0.205938  0.203642  0.999999  1
  Li  Li2  1  0.291641  0.704393  0.999999  1
  Li  Li3  1  0.321282  0.493362  0.000002  1
  Li  Li4  1  0.678630  0.506086  0.999997  1
  Li  Li5  1  0.711540  0.293832  0.999998  1
  Li  Li6  1  0.793716  0.796416  0.000003  1
  Li  Li7  1  0.823017  0.006150  0.000001  1
  Mn  Mn8  1  0.999336  0.500012  0.000000  1
  Mn  Mn9  1  0.005869  0.104932  0.000017  1
  Mn  Mn10  1  0.149417  0.809294  0.499969  1
  Mn  Mn11  1  0.349204  0.309028  0.500000  1
  Mn  Mn12  1  0.494205  0.604650  0.000001  1
  Mn  Mn13  1  0.497981  0.998956  0.000032  1
  Mn  Mn14  1  0.506191  0.395089  0.999996  1
  Mn  Mn15  1  0.647318  0.691870  0.499996  1
  Mn  Mn16  1  0.851184  0.191650  0.500005  1
  Mn  Mn17  1  0.992086  0.895345  0.999963  1
  Fe  Fe18  1  0.019286  0.308238  0.000003  1
  Fe  Fe19  1  0.147520  0.588356  0.499996  1
  Fe  Fe20  1  0.351033  0.088451  0.500022  1
  Fe  Fe21  1  0.486508  0.807851  0.999992  1
  Fe  Fe22  1  0.514082  0.194619  0.000003  1
  Fe  Fe23  1  0.648216  0.911531  0.500005  1
  Fe  Fe24  1  0.853674  0.410790  0.500003  1
  Fe  Fe25  1  0.986645  0.693903  0.999996  1
  O  O26  1  -0.002099  0.422863  0.000003  1
  O  O27  1  0.002947  0.578279  0.999997  1
  O  O28  1  0.041912  0.941618  0.499954  1
  O  O29  1  0.048773  0.158462  0.500012  1
  O  O30  1  0.118234  0.668365  0.499995  1
  O  O31  1  0.102469  0.761230  0.999974  1
  O  O32  1  0.142149  0.503560  0.500000  1
  O  O33  1  0.152166  0.282712  0.500001  1
  O  O34  1  0.185140  0.858453  0.999962  1
  O  O35  1  0.203637  0.081047  0.000022  1
  O  O36  1  0.298046  0.581500  0.999998  1
  O  O37  1  0.312163  0.358611  0.999997  1
  O  O38  1  0.348431  0.785153  0.499986  1
  O  O39  1  0.355614  0.001915  0.500032  1
  O  O40  1  0.393320  0.261079  0.000002  1
  O  O41  1  0.386744  0.166422  0.500009  1
  O  O42  1  0.452652  0.658793  0.499998  1
  O  O43  1  0.455130  0.441840  0.499993  1
  O  O44  1  0.494645  0.076030  0.000024  1
  O  O45  1  0.503268  0.920996  0.000016  1
  O  O46  1  0.547289  0.558660  0.500004  1
  O  O47  1  0.545844  0.341530  0.499999  1
  O  O48  1  0.617271  0.833006  0.499995  1
  O  O49  1  0.602487  0.739690  0.999994  1
  O  O50  1  0.640911  0.996045  0.500026  1
  O  O51  1  0.651037  0.216996  0.500001  1
  O  O52  1  0.686085  0.642604  -0.000001  1
  O  O53  1  0.704192  0.417262  0.000001  1
  O  O54  1  0.796597  0.918538  0.999995  1
  O  O55  1  0.815364  0.141495  0.000010  1
  O  O56  1  0.848992  0.716727  0.499994  1
  O  O57  1  0.857059  0.496445  0.500000  1
  O  O58  1  0.895706  0.238323  0.000002  1
  O  O59  1  0.883743  0.332688  0.500002  1
  O  O60  1  0.952135  0.841213  0.499963  1
  O  O61  1  0.956058  0.058256  0.500023  1
