# generated using pymatgen
data_Sr2CoCO3F5
_symmetry_space_group_name_H-M   'P 1'
_cell_length_a   5.57440845
_cell_length_b   8.92027398
_cell_length_c   13.46586956
_cell_angle_alpha   90.00000000
_cell_angle_beta   98.64918952
_cell_angle_gamma   90.00000000
_symmetry_Int_Tables_number   1
_chemical_formula_structural   Sr2CoCO3F5
_chemical_formula_sum   'Sr8 Co4 C4 O12 F20'
_cell_volume   661.97887694
_cell_formula_units_Z   4
loop_
 _symmetry_equiv_pos_site_id
 _symmetry_equiv_pos_as_xyz
  1  'x, y, z'
loop_
 _atom_site_type_symbol
 _atom_site_label
 _atom_site_symmetry_multiplicity
 _atom_site_fract_x
 _atom_site_fract_y
 _atom_site_fract_z
 _atom_site_occupancy
  Sr  Sr0  1  0.211190  0.888386  0.902694  1
  Sr  Sr1  1  0.224792  0.361530  0.916082  1
  Sr  Sr2  1  0.275208  0.861530  0.583918  1
  Sr  Sr3  1  0.288810  0.388386  0.597306  1
  Sr  Sr4  1  0.711190  0.611614  0.402694  1
  Sr  Sr5  1  0.724792  0.138470  0.416082  1
  Sr  Sr6  1  0.775208  0.638470  0.083918  1
  Sr  Sr7  1  0.788810  0.111614  0.097306  1
  Co  Co8  1  0.135387  0.872176  0.326591  1
  Co  Co9  1  0.364613  0.372176  0.173409  1
  Co  Co10  1  0.635387  0.627824  0.826591  1
  Co  Co11  1  0.864613  0.127824  0.673409  1
  C  C12  1  0.184187  0.375893  0.363336  1
  C  C13  1  0.315813  0.875893  0.136664  1
  C  C14  1  0.684187  0.124107  0.863336  1
  C  C15  1  0.815813  0.624107  0.636664  1
  O  O16  1  0.004357  0.381080  0.414533  1
  O  O17  1  0.130609  0.368729  0.265740  1
  O  O18  1  0.095022  0.877286  0.091053  1
  O  O19  1  0.504357  0.118920  0.914533  1
  O  O20  1  0.404978  0.377286  0.408947  1
  O  O21  1  0.369391  0.868729  0.234260  1
  O  O22  1  0.630609  0.131271  0.765740  1
  O  O23  1  0.595022  0.622714  0.591053  1
  O  O24  1  0.495643  0.881080  0.085467  1
  O  O25  1  0.904978  0.122714  0.908947  1
  O  O26  1  0.869391  0.631271  0.734260  1
  O  O27  1  0.995643  0.618920  0.585467  1
  F  F28  1  0.055529  0.961192  0.727090  1
  F  F29  1  0.066012  0.282788  0.735764  1
  F  F30  1  0.094037  0.130283  0.565585  1
  F  F31  1  0.405963  0.630283  0.934415  1
  F  F32  1  0.169821  0.512297  0.086364  1
  F  F33  1  0.307886  0.717217  0.414190  1
  F  F34  1  0.433988  0.782788  0.764236  1
  F  F35  1  0.444471  0.461192  0.772910  1
  F  F36  1  0.192114  0.217217  0.085810  1
  F  F37  1  0.330179  0.012297  0.413636  1
  F  F38  1  0.669821  0.987703  0.586364  1
  F  F39  1  0.807886  0.782783  0.914190  1
  F  F40  1  0.555529  0.538808  0.227090  1
  F  F41  1  0.566012  0.217212  0.235764  1
  F  F42  1  0.692114  0.282783  0.585810  1
  F  F43  1  0.830179  0.487703  0.913636  1
  F  F44  1  0.594037  0.369717  0.065585  1
  F  F45  1  0.905963  0.869717  0.434415  1
  F  F46  1  0.933988  0.717212  0.264236  1
  F  F47  1  0.944471  0.038808  0.272910  1
