# generated using pymatgen
data_LiCoPO4
_symmetry_space_group_name_H-M   'P 1'
_cell_length_a   8.47563142
_cell_length_b   8.48058864
_cell_length_c   7.48655769
_cell_angle_alpha   90.23211593
_cell_angle_beta   89.80174322
_cell_angle_gamma   119.91716242
_symmetry_Int_Tables_number   1
_chemical_formula_structural   LiCoPO4
_chemical_formula_sum   'Li6 Co6 P6 O24'
_cell_volume   466.41081944
_cell_formula_units_Z   6
loop_
 _symmetry_equiv_pos_site_id
 _symmetry_equiv_pos_as_xyz
  1  'x, y, z'
loop_
 _atom_site_type_symbol
 _atom_site_label
 _atom_site_symmetry_multiplicity
 _atom_site_fract_x
 _atom_site_fract_y
 _atom_site_fract_z
 _atom_site_occupancy
  Li  Li0  1  0.015207  0.683592  0.407437  1
  Li  Li1  1  0.319223  0.334516  0.402805  1
  Li  Li2  1  0.666495  0.983435  0.406489  1
  Li  Li3  1  0.333021  0.014498  0.904732  1
  Li  Li4  1  0.683301  0.668473  0.906948  1
  Li  Li5  1  0.984676  0.316763  0.905626  1
  Co  Co6  1  0.334888  0.667273  0.297057  1
  Co  Co7  1  0.331826  0.665112  0.699656  1
  Co  Co8  1  0.000727  0.002337  0.139579  1
  Co  Co9  1  0.999140  0.003748  0.638011  1
  Co  Co10  1  0.667521  0.332117  0.798148  1
  Co  Co11  1  0.665863  0.332530  0.199477  1
  P  P12  1  0.038635  0.677336  0.005648  1
  P  P13  1  0.323152  0.361344  0.002757  1
  P  P14  1  0.638022  0.961288  0.003322  1
  P  P15  1  0.361524  0.039233  0.504470  1
  P  P16  1  0.676910  0.637589  0.505267  1
  P  P17  1  0.961171  0.322994  0.501973  1
  O  O18  1  0.148267  0.931400  0.503612  1
  O  O19  1  0.145995  0.723466  0.182701  1
  O  O20  1  0.175071  0.744460  0.848496  1
  O  O21  1  0.107723  0.529331  0.496350  1
  O  O22  1  0.419652  0.891154  0.494447  1
  O  O23  1  0.070196  0.218369  0.493721  1
  O  O24  1  0.254805  0.428245  0.845392  1
  O  O25  1  0.277480  0.424385  0.179869  1
  O  O26  1  0.219029  0.148276  0.000382  1
  O  O27  1  0.577956  0.854570  0.180907  1
  O  O28  1  0.566884  0.824537  0.846684  1
  O  O29  1  0.470446  0.579367  0.496229  1
  O  O30  1  0.529578  0.420731  0.994408  1
  O  O31  1  0.429408  0.174424  0.347124  1
  O  O32  1  0.425243  0.147050  0.681658  1
  O  O33  1  0.782053  0.850919  0.500173  1
  O  O34  1  0.724510  0.577667  0.682022  1
  O  O35  1  0.742516  0.566855  0.348013  1
  O  O36  1  0.929957  0.782174  0.003927  1
  O  O37  1  0.579805  0.109296  0.996115  1
  O  O38  1  0.891724  0.471120  0.994659  1
  O  O39  1  0.824892  0.256364  0.345683  1
  O  O40  1  0.853911  0.273700  0.680186  1
  O  O41  1  0.851399  0.067965  0.996577  1
