# generated using pymatgen
data_CaPbI4
_symmetry_space_group_name_H-M   'P 1'
_cell_length_a   8.85526696
_cell_length_b   4.61322833
_cell_length_c   8.06402781
_cell_angle_alpha   90.02740687
_cell_angle_beta   117.07216126
_cell_angle_gamma   104.66302340
_symmetry_Int_Tables_number   1
_chemical_formula_structural   CaPbI4
_chemical_formula_sum   'Ca1 Pb1 I4'
_cell_volume   281.20869515
_cell_formula_units_Z   1
loop_
 _symmetry_equiv_pos_site_id
 _symmetry_equiv_pos_as_xyz
  1  'x, y, z'
loop_
 _atom_site_type_symbol
 _atom_site_label
 _atom_site_symmetry_multiplicity
 _atom_site_fract_x
 _atom_site_fract_y
 _atom_site_fract_z
 _atom_site_occupancy
  Ca  Ca0  1  0.001401  0.503981  0.497822  1
  Pb  Pb1  1  0.995973  0.998273  0.995979  1
  I  I2  1  0.239550  0.615491  0.941952  1
  I  I3  1  0.235967  0.118853  0.455376  1
  I  I4  1  0.755069  0.380921  0.055159  1
  I  I5  1  0.764599  0.887290  0.536807  1
