# generated using pymatgen
data_Ni3OF5
_symmetry_space_group_name_H-M   'P 1'
_cell_length_a   7.27361807
_cell_length_b   5.62510562
_cell_length_c   5.62510562
_cell_angle_alpha   73.32117241
_cell_angle_beta   72.81612091
_cell_angle_gamma   72.81612091
_symmetry_Int_Tables_number   1
_chemical_formula_structural   Ni3OF5
_chemical_formula_sum   'Ni6 O2 F10'
_cell_volume   204.97103823
_cell_formula_units_Z   2
loop_
 _symmetry_equiv_pos_site_id
 _symmetry_equiv_pos_as_xyz
  1  'x, y, z'
loop_
 _atom_site_type_symbol
 _atom_site_label
 _atom_site_symmetry_multiplicity
 _atom_site_fract_x
 _atom_site_fract_y
 _atom_site_fract_z
 _atom_site_occupancy
  Ni  Ni0  1  0.838914  0.671873  0.671873  1
  Ni  Ni1  1  0.325621  0.666227  0.666227  1
  Ni  Ni2  1  0.674379  0.333773  0.333773  1
  Ni  Ni3  1  0.161086  0.328127  0.328127  1
  Ni  Ni4  1  0.500000  0.000000  0.000000  1
  Ni  Ni5  1  0.000000  0.000000  0.000000  1
  O  O6  1  0.964758  0.228996  0.228996  1
  O  O7  1  0.035242  0.771004  0.771004  1
  F  F8  1  0.666522  0.031515  0.636213  1
  F  F9  1  0.333478  0.363787  0.968485  1
  F  F10  1  0.299521  0.898609  0.898609  1
  F  F11  1  0.629970  0.570059  0.570059  1
  F  F12  1  0.700479  0.101391  0.101391  1
  F  F13  1  0.370030  0.429941  0.429941  1
  F  F14  1  0.000000  0.305101  0.694899  1
  F  F15  1  0.333478  0.968485  0.363787  1
  F  F16  1  0.666522  0.636213  0.031515  1
  F  F17  1  0.000000  0.694899  0.305101  1
