# generated using pymatgen
data_Li6Ag3F10
_symmetry_space_group_name_H-M   'P 1'
_cell_length_a   19.81348327
_cell_length_b   9.20392093
_cell_length_c   5.56233901
_cell_angle_alpha   90.00000000
_cell_angle_beta   90.00000000
_cell_angle_gamma   90.00000000
_symmetry_Int_Tables_number   1
_chemical_formula_structural   Li6Ag3F10
_chemical_formula_sum   'Li24 Ag12 F40'
_cell_volume   1014.35778343
_cell_formula_units_Z   4
loop_
 _symmetry_equiv_pos_site_id
 _symmetry_equiv_pos_as_xyz
  1  'x, y, z'
loop_
 _atom_site_type_symbol
 _atom_site_label
 _atom_site_symmetry_multiplicity
 _atom_site_fract_x
 _atom_site_fract_y
 _atom_site_fract_z
 _atom_site_occupancy
  Li  Li0  1  0.017494  0.723540  0.236130  1
  Li  Li1  1  0.044728  0.987139  0.376630  1
  Li  Li2  1  0.105361  0.544600  0.827533  1
  Li  Li3  1  0.147072  0.730308  0.368013  1
  Li  Li4  1  0.202300  0.273138  0.755445  1
  Li  Li5  1  0.234074  0.420287  0.187480  1
  Li  Li6  1  0.265926  0.920287  0.687480  1
  Li  Li7  1  0.297700  0.773138  0.255445  1
  Li  Li8  1  0.352928  0.230308  0.868013  1
  Li  Li9  1  0.394639  0.044600  0.327533  1
  Li  Li10  1  0.455272  0.487139  0.876630  1
  Li  Li11  1  0.482506  0.223540  0.736130  1
  Li  Li12  1  0.517494  0.776460  0.236130  1
  Li  Li13  1  0.544728  0.512861  0.376630  1
  Li  Li14  1  0.605361  0.955400  0.827533  1
  Li  Li15  1  0.647072  0.769692  0.368013  1
  Li  Li16  1  0.702300  0.226862  0.755445  1
  Li  Li17  1  0.734074  0.079713  0.187480  1
  Li  Li18  1  0.765926  0.579713  0.687480  1
  Li  Li19  1  0.797700  0.726862  0.255445  1
  Li  Li20  1  0.852928  0.269692  0.868013  1
  Li  Li21  1  0.894639  0.455400  0.327533  1
  Li  Li22  1  0.955272  0.012861  0.876630  1
  Li  Li23  1  0.982506  0.276460  0.736130  1
  Ag  Ag24  1  0.079598  0.400678  0.320945  1
  Ag  Ag25  1  0.103375  0.924579  0.855134  1
  Ag  Ag26  1  0.225864  0.082669  0.199328  1
  Ag  Ag27  1  0.274136  0.582669  0.699328  1
  Ag  Ag28  1  0.396625  0.424579  0.355134  1
  Ag  Ag29  1  0.420402  0.900678  0.820945  1
  Ag  Ag30  1  0.579598  0.099322  0.320945  1
  Ag  Ag31  1  0.603375  0.575421  0.855134  1
  Ag  Ag32  1  0.725864  0.417331  0.199328  1
  Ag  Ag33  1  0.774136  0.917331  0.699328  1
  Ag  Ag34  1  0.896625  0.075421  0.355134  1
  Ag  Ag35  1  0.920402  0.599322  0.820945  1
  F  F36  1  0.015084  0.092336  0.640837  1
  F  F37  1  0.030898  0.447288  0.673213  1
  F  F38  1  0.066036  0.800989  0.517372  1
  F  F39  1  0.101162  0.693409  0.067763  1
  F  F40  1  0.115352  0.065707  0.199572  1
  F  F41  1  0.148079  0.390776  0.006085  1
  F  F42  1  0.168100  0.566730  0.570414  1
  F  F43  1  0.203810  0.066048  0.789934  1
  F  F44  1  0.220147  0.851276  0.410880  1
  F  F45  1  0.226713  0.283093  0.430267  1
  F  F46  1  0.273287  0.783093  0.930267  1
  F  F47  1  0.279853  0.351276  0.910880  1
  F  F48  1  0.296190  0.566048  0.289934  1
  F  F49  1  0.331900  0.066730  0.070414  1
  F  F50  1  0.351921  0.890776  0.506085  1
  F  F51  1  0.384648  0.565707  0.699572  1
  F  F52  1  0.398838  0.193409  0.567763  1
  F  F53  1  0.433964  0.300989  0.017372  1
  F  F54  1  0.469102  0.947288  0.173213  1
  F  F55  1  0.484916  0.592336  0.140837  1
  F  F56  1  0.515084  0.407664  0.640837  1
  F  F57  1  0.530898  0.052712  0.673213  1
  F  F58  1  0.566036  0.699011  0.517372  1
  F  F59  1  0.601162  0.806591  0.067763  1
  F  F60  1  0.615352  0.434293  0.199572  1
  F  F61  1  0.648079  0.109224  0.006085  1
  F  F62  1  0.668100  0.933270  0.570414  1
  F  F63  1  0.703810  0.433952  0.789934  1
  F  F64  1  0.720147  0.648724  0.410880  1
  F  F65  1  0.726713  0.216907  0.430267  1
  F  F66  1  0.773287  0.716907  0.930267  1
  F  F67  1  0.779853  0.148724  0.910880  1
  F  F68  1  0.796190  0.933952  0.289934  1
  F  F69  1  0.831900  0.433270  0.070414  1
  F  F70  1  0.851921  0.609224  0.506085  1
  F  F71  1  0.884648  0.934293  0.699572  1
  F  F72  1  0.898838  0.306591  0.567763  1
  F  F73  1  0.933964  0.199011  0.017372  1
  F  F74  1  0.969102  0.552712  0.173213  1
  F  F75  1  0.984916  0.907664  0.140837  1
