# generated using pymatgen
data_Ba2Y5Cl19
_symmetry_space_group_name_H-M   'P 1'
_cell_length_a   7.44765487
_cell_length_b   9.39336990
_cell_length_c   30.35127123
_cell_angle_alpha   90.00000000
_cell_angle_beta   91.02353530
_cell_angle_gamma   90.00000000
_symmetry_Int_Tables_number   1
_chemical_formula_structural   Ba2Y5Cl19
_chemical_formula_sum   'Ba4 Y10 Cl38'
_cell_volume   2122.99295399
_cell_formula_units_Z   2
loop_
 _symmetry_equiv_pos_site_id
 _symmetry_equiv_pos_as_xyz
  1  'x, y, z'
loop_
 _atom_site_type_symbol
 _atom_site_label
 _atom_site_symmetry_multiplicity
 _atom_site_fract_x
 _atom_site_fract_y
 _atom_site_fract_z
 _atom_site_occupancy
  Ba  Ba0  1  0.019616  0.480832  0.706687  1
  Ba  Ba1  1  0.480384  0.980832  0.793313  1
  Ba  Ba2  1  0.519616  0.019168  0.206687  1
  Ba  Ba3  1  0.980384  0.519168  0.293313  1
  Y  Y4  1  0.998007  0.832492  0.569135  1
  Y  Y5  1  0.012232  0.359317  0.135911  1
  Y  Y6  1  0.000000  0.000000  0.000000  1
  Y  Y7  1  0.501993  0.332492  0.930865  1
  Y  Y8  1  0.512232  0.140683  0.635911  1
  Y  Y9  1  0.500000  0.500000  0.500000  1
  Y  Y10  1  0.487768  0.859317  0.364089  1
  Y  Y11  1  0.498007  0.667508  0.069135  1
  Y  Y12  1  0.987768  0.640683  0.864089  1
  Y  Y13  1  0.001993  0.167508  0.430865  1
  Cl  Cl14  1  0.000000  0.000000  0.500000  1
  Cl  Cl15  1  0.010826  0.268334  0.351165  1
  Cl  Cl16  1  0.994446  0.162493  0.071349  1
  Cl  Cl17  1  0.016553  0.558605  0.196940  1
  Cl  Cl18  1  0.184594  0.756486  0.332426  1
  Cl  Cl19  1  0.222357  0.178031  0.958193  1
  Cl  Cl20  1  0.212402  0.371033  0.465507  1
  Cl  Cl21  1  0.145618  0.815172  0.807062  1
  Cl  Cl22  1  0.205553  0.035888  0.603976  1
  Cl  Cl23  1  0.191074  0.532406  0.084284  1
  Cl  Cl24  1  0.294447  0.535888  0.896024  1
  Cl  Cl25  1  0.354382  0.315172  0.692938  1
  Cl  Cl26  1  0.277643  0.678031  0.541807  1
  Cl  Cl27  1  0.308926  0.032406  0.415716  1
  Cl  Cl28  1  0.287598  0.871033  0.034493  1
  Cl  Cl29  1  0.315406  0.256486  0.167574  1
  Cl  Cl30  1  0.483447  0.058605  0.303060  1
  Cl  Cl31  1  0.510826  0.231666  0.851165  1
  Cl  Cl32  1  0.494446  0.337507  0.571349  1
  Cl  Cl33  1  0.505554  0.662493  0.428651  1
  Cl  Cl34  1  0.489173  0.768334  0.148835  1
  Cl  Cl35  1  0.516553  0.941395  0.696940  1
  Cl  Cl36  1  0.500000  0.500000  0.000000  1
  Cl  Cl37  1  0.684594  0.743514  0.832426  1
  Cl  Cl38  1  0.712402  0.128967  0.965507  1
  Cl  Cl39  1  0.691074  0.967594  0.584284  1
  Cl  Cl40  1  0.722357  0.321969  0.458193  1
  Cl  Cl41  1  0.645618  0.684828  0.307062  1
  Cl  Cl42  1  0.705553  0.464112  0.103976  1
  Cl  Cl43  1  0.808926  0.467594  0.915716  1
  Cl  Cl44  1  0.794447  0.964112  0.396024  1
  Cl  Cl45  1  0.854382  0.184828  0.192938  1
  Cl  Cl46  1  0.787598  0.628967  0.534493  1
  Cl  Cl47  1  0.777643  0.821969  0.041807  1
  Cl  Cl48  1  0.815406  0.243514  0.667574  1
  Cl  Cl49  1  0.983447  0.441395  0.803060  1
  Cl  Cl50  1  0.005554  0.837507  0.928651  1
  Cl  Cl51  1  0.989174  0.731666  0.648835  1
