# generated using pymatgen
data_Mn6O7F5
_symmetry_space_group_name_H-M   'P 1'
_cell_length_a   4.56245232
_cell_length_b   5.64424543
_cell_length_c   15.29040579
_cell_angle_alpha   89.79260654
_cell_angle_beta   89.64903171
_cell_angle_gamma   89.37962466
_symmetry_Int_Tables_number   1
_chemical_formula_structural   Mn6O7F5
_chemical_formula_sum   'Mn12 O14 F10'
_cell_volume   393.71947036
_cell_formula_units_Z   2
loop_
 _symmetry_equiv_pos_site_id
 _symmetry_equiv_pos_as_xyz
  1  'x, y, z'
loop_
 _atom_site_type_symbol
 _atom_site_label
 _atom_site_symmetry_multiplicity
 _atom_site_fract_x
 _atom_site_fract_y
 _atom_site_fract_z
 _atom_site_occupancy
  Mn  Mn0  1  0.014931  0.151533  0.405575  1
  Mn  Mn1  1  0.022550  0.836144  0.242768  1
  Mn  Mn2  1  0.996747  0.154709  0.079540  1
  Mn  Mn3  1  0.023688  0.165558  0.746189  1
  Mn  Mn4  1  0.993760  0.848263  0.575291  1
  Mn  Mn5  1  0.051471  0.853793  0.913636  1
  Mn  Mn6  1  0.506161  0.347409  0.590150  1
  Mn  Mn7  1  0.487728  0.353994  0.925382  1
  Mn  Mn8  1  0.502042  0.366770  0.259708  1
  Mn  Mn9  1  0.502845  0.648167  0.086422  1
  Mn  Mn10  1  0.497384  0.651959  0.420266  1
  Mn  Mn11  1  0.494593  0.638081  0.755420  1
  O  O12  1  0.237828  0.113259  0.300083  1
  O  O13  1  0.216053  0.110978  0.635558  1
  O  O14  1  0.237089  0.115970  0.971701  1
  O  O15  1  0.214046  0.884891  0.133788  1
  O  O16  1  0.219431  0.889234  0.466370  1
  O  O17  1  0.237974  0.890138  0.805133  1
  O  O18  1  0.278062  0.603221  0.313010  1
  O  O19  1  0.287501  0.397284  0.817320  1
  O  O20  1  0.285244  0.611187  0.978137  1
  O  O21  1  0.721003  0.377521  0.030152  1
  O  O22  1  0.724555  0.611992  0.194824  1
  O  O23  1  0.724958  0.382739  0.361624  1
  O  O24  1  0.713002  0.618805  0.529806  1
  O  O25  1  0.724483  0.383230  0.696615  1
  F  F26  1  0.255355  0.381230  0.153220  1
  F  F27  1  0.254790  0.379668  0.484844  1
  F  F28  1  0.236688  0.611355  0.645461  1
  F  F29  1  0.763854  0.617800  0.867919  1
  F  F30  1  0.747506  0.127538  0.190883  1
  F  F31  1  0.755337  0.119187  0.511959  1
  F  F32  1  0.774069  0.875577  0.347184  1
  F  F33  1  0.778040  0.879489  0.014196  1
  F  F34  1  0.770594  0.126993  0.858893  1
  F  F35  1  0.748635  0.874335  0.690972  1
