# generated using pymatgen
data_Li4CrFe3O8
_symmetry_space_group_name_H-M   'P 1'
_cell_length_a   5.16863782
_cell_length_b   5.98940081
_cell_length_c   5.96335514
_cell_angle_alpha   60.13326607
_cell_angle_beta   90.00458877
_cell_angle_gamma   73.24530782
_symmetry_Int_Tables_number   1
_chemical_formula_structural   Li4CrFe3O8
_chemical_formula_sum   'Li4 Cr1 Fe3 O8'
_cell_volume   150.98239319
_cell_formula_units_Z   1
loop_
 _symmetry_equiv_pos_site_id
 _symmetry_equiv_pos_as_xyz
  1  'x, y, z'
loop_
 _atom_site_type_symbol
 _atom_site_label
 _atom_site_symmetry_multiplicity
 _atom_site_fract_x
 _atom_site_fract_y
 _atom_site_fract_z
 _atom_site_occupancy
  Li  Li0  1  0.000000  0.000000  0.000000  1
  Li  Li1  1  0.000000  0.000000  0.500000  1
  Li  Li2  1  0.497883  0.001104  0.249465  1
  Li  Li3  1  0.502117  0.998896  0.750535  1
  Cr  Cr4  1  0.000000  0.499999  0.000001  1
  Fe  Fe5  1  0.000000  0.500000  0.500000  1
  Fe  Fe6  1  0.499995  0.499994  0.249848  1
  Fe  Fe7  1  0.500005  0.500006  0.750151  1
  O  O8  1  0.241873  0.272411  0.362758  1
  O  O9  1  0.241867  0.272420  0.864936  1
  O  O10  1  0.744550  0.273075  0.113501  1
  O  O11  1  0.257853  0.729344  0.385284  1
  O  O12  1  0.255451  0.726925  0.886499  1
  O  O13  1  0.758133  0.727581  0.135064  1
  O  O14  1  0.742146  0.270657  0.614715  1
  O  O15  1  0.758127  0.727589  0.637242  1
