# generated using pymatgen
data_Fe4OF7
_symmetry_space_group_name_H-M   'P 1'
_cell_length_a   4.81686415
_cell_length_b   10.81932401
_cell_length_c   5.83132302
_cell_angle_alpha   82.42741698
_cell_angle_beta   89.70267476
_cell_angle_gamma   89.70061987
_symmetry_Int_Tables_number   1
_chemical_formula_structural   Fe4OF7
_chemical_formula_sum   'Fe8 O2 F14'
_cell_volume   301.24302452
_cell_formula_units_Z   2
loop_
 _symmetry_equiv_pos_site_id
 _symmetry_equiv_pos_as_xyz
  1  'x, y, z'
loop_
 _atom_site_type_symbol
 _atom_site_label
 _atom_site_symmetry_multiplicity
 _atom_site_fract_x
 _atom_site_fract_y
 _atom_site_fract_z
 _atom_site_occupancy
  Fe  Fe0  1  0.524017  0.499978  0.021956  1
  Fe  Fe1  1  0.487203  0.008053  0.496996  1
  Fe  Fe2  1  0.475983  0.250022  0.728044  1
  Fe  Fe3  1  0.512797  0.741947  0.253004  1
  Fe  Fe4  1  0.995247  0.750469  0.747507  1
  Fe  Fe5  1  0.988509  0.504279  0.487784  1
  Fe  Fe6  1  0.011491  0.245721  0.262216  1
  Fe  Fe7  1  0.004753  -0.000469  0.002493  1
  O  O8  1  0.691188  0.566572  0.259160  1
  O  O9  1  0.308812  0.183428  0.490840  1
  F  F10  1  0.804905  0.325741  0.536207  1
  F  F11  1  0.793179  0.571721  0.771102  1
  F  F12  1  0.803960  0.076736  0.273813  1
  F  F13  1  0.796699  0.826243  0.019710  1
  F  F14  1  0.696248  0.828647  0.524767  1
  F  F15  1  0.700403  0.087324  0.790499  1
  F  F16  1  0.689500  0.328159  0.017968  1
  F  F17  1  0.303752  0.921353  0.225233  1
  F  F18  1  0.310500  0.421841  0.732032  1
  F  F19  1  0.299597  0.662676  0.959501  1
  F  F20  1  0.206821  0.178279  0.978898  1
  F  F21  1  0.203301  0.923757  0.730290  1
  F  F22  1  0.196040  0.673264  0.476187  1
  F  F23  1  0.195095  0.424259  0.213793  1
