# generated using pymatgen
data_Al2H18SO15
_symmetry_space_group_name_H-M   'P 1'
_cell_length_a   7.93183593
_cell_length_b   16.32025748
_cell_length_c   12.51082345
_cell_angle_alpha   90.00000000
_cell_angle_beta   111.40224408
_cell_angle_gamma   90.00000000
_symmetry_Int_Tables_number   1
_chemical_formula_structural   Al2H18SO15
_chemical_formula_sum   'Al8 H72 S4 O60'
_cell_volume   1507.84143935
_cell_formula_units_Z   4
loop_
 _symmetry_equiv_pos_site_id
 _symmetry_equiv_pos_as_xyz
  1  'x, y, z'
loop_
 _atom_site_type_symbol
 _atom_site_label
 _atom_site_symmetry_multiplicity
 _atom_site_fract_x
 _atom_site_fract_y
 _atom_site_fract_z
 _atom_site_occupancy
  Al  Al0  1  0.760290  0.083501  0.956311  1
  Al  Al1  1  0.239710  0.583501  0.543689  1
  Al  Al2  1  0.239710  0.916499  0.043689  1
  Al  Al3  1  0.760290  0.416499  0.456311  1
  Al  Al4  1  0.095954  0.046729  0.189310  1
  Al  Al5  1  0.904046  0.546729  0.310690  1
  Al  Al6  1  0.904046  0.953271  0.810690  1
  Al  Al7  1  0.095954  0.453271  0.689310  1
  H  H8  1  0.822354  0.841389  0.114455  1
  H  H9  1  0.177646  0.341389  0.385545  1
  H  H10  1  0.177646  0.158611  0.885545  1
  H  H11  1  0.822354  0.658611  0.614455  1
  H  H12  1  0.467133  0.085054  0.678156  1
  H  H13  1  0.532867  0.585054  0.821844  1
  H  H14  1  0.532867  0.914946  0.321844  1
  H  H15  1  0.467133  0.414946  0.178156  1
  H  H16  1  0.896535  0.205641  0.183863  1
  H  H17  1  0.103465  0.705641  0.316137  1
  H  H18  1  0.103465  0.794359  0.816137  1
  H  H19  1  0.896535  0.294359  0.683863  1
  H  H20  1  0.377003  0.930916  0.763108  1
  H  H21  1  0.622997  0.430916  0.736892  1
  H  H22  1  0.622997  0.069084  0.236892  1
  H  H23  1  0.377003  0.569084  0.263108  1
  H  H24  1  0.465079  0.171074  0.902852  1
  H  H25  1  0.534921  0.671074  0.597148  1
  H  H26  1  0.534921  0.828926  0.097148  1
  H  H27  1  0.465079  0.328926  0.402852  1
  H  H28  1  0.656208  0.225851  0.913210  1
  H  H29  1  0.343792  0.725851  0.586790  1
  H  H30  1  0.343792  0.774149  0.086790  1
  H  H31  1  0.656208  0.274149  0.413210  1
  H  H32  1  0.253248  0.180031  0.187112  1
  H  H33  1  0.746752  0.680031  0.312888  1
  H  H34  1  0.746752  0.819969  0.812888  1
  H  H35  1  0.253248  0.319969  0.687112  1
  H  H36  1  0.378158  0.124396  0.306445  1
  H  H37  1  0.621842  0.624396  0.193555  1
  H  H38  1  0.621842  0.875604  0.693555  1
  H  H39  1  0.378158  0.375604  0.806445  1
  H  H40  1  0.970075  0.038765  0.349383  1
  H  H41  1  0.029925  0.538765  0.150617  1
  H  H42  1  0.029925  0.961235  0.650617  1
  H  H43  1  0.970075  0.461235  0.849383  1
  H  H44  1  0.111299  0.960297  0.360225  1
  H  H45  1  0.888701  0.460297  0.139775  1
  H  H46  1  0.888701  0.039703  0.639775  1
  H  H47  1  0.111299  0.539703  0.860225  1
  H  H48  1  0.848780  0.216166  0.297823  1
  H  H49  1  0.151220  0.716166  0.202177  1
  H  H50  1  0.151220  0.783834  0.702177  1
  H  H51  1  0.848780  0.283834  0.797823  1
  H  H52  1  0.601092  0.299269  0.125197  1
  H  H53  1  0.398908  0.799269  0.374803  1
  H  H54  1  0.398908  0.700731  0.874803  1
  H  H55  1  0.601092  0.200731  0.625197  1
  H  H56  1  0.546703  0.262365  0.128590  1
  H  H57  1  0.453297  0.762365  0.371410  1
  H  H58  1  0.453297  0.737635  0.871410  1
  H  H59  1  0.546703  0.237635  0.628590  1
  H  H60  1  0.254052  0.308403  0.128816  1
  H  H61  1  0.745948  0.808403  0.371184  1
  H  H62  1  0.745948  0.691597  0.871184  1
  H  H63  1  0.254052  0.191597  0.628816  1
  H  H64  1  0.136361  0.243138  0.829812  1
  H  H65  1  0.863639  0.743138  0.670188  1
  H  H66  1  0.863639  0.756862  0.170188  1
  H  H67  1  0.136361  0.256862  0.329812  1
  H  H68  1  0.234678  0.246025  0.029245  1
  H  H69  1  0.765322  0.746025  0.470755  1
  H  H70  1  0.765322  0.753975  0.970755  1
  H  H71  1  0.234678  0.253975  0.529245  1
  H  H72  1  0.717307  0.097966  0.155605  1
  H  H73  1  0.282693  0.597966  0.344395  1
  H  H74  1  0.282693  0.902034  0.844395  1
  H  H75  1  0.717307  0.402034  0.655605  1
  H  H76  1  0.387873  0.057780  0.646730  1
  H  H77  1  0.612127  0.557780  0.853270  1
  H  H78  1  0.612127  0.942220  0.353270  1
  H  H79  1  0.387873  0.442220  0.146730  1
  S  S80  1  0.727117  0.124486  0.451019  1
  S  S81  1  0.272883  0.624486  0.048981  1
  S  S82  1  0.272883  0.875514  0.548981  1
  S  S83  1  0.727117  0.375514  0.951019  1
  O  O84  1  0.752734  0.210196  0.410292  1
  O  O85  1  0.247266  0.710196  0.089708  1
  O  O86  1  0.247266  0.789804  0.589708  1
  O  O87  1  0.752734  0.289804  0.910292  1
  O  O88  1  0.531221  0.108817  0.418746  1
  O  O89  1  0.468779  0.608817  0.081254  1
  O  O90  1  0.468779  0.891183  0.581254  1
  O  O91  1  0.531221  0.391183  0.918746  1
  O  O92  1  0.806062  0.065389  0.391904  1
  O  O93  1  0.193938  0.565389  0.108096  1
  O  O94  1  0.193938  0.934611  0.608096  1
  O  O95  1  0.806062  0.434611  0.891904  1
  O  O96  1  0.821222  0.119510  0.577138  1
  O  O97  1  0.178778  0.619510  0.922862  1
  O  O98  1  0.178778  0.880490  0.422862  1
  O  O99  1  0.821222  0.380490  0.077138  1
  O  O100  1  0.765584  0.921267  0.998885  1
  O  O101  1  0.234416  0.421267  0.501115  1
  O  O102  1  0.234416  0.078733  0.001115  1
  O  O103  1  0.765584  0.578733  0.498885  1
  O  O104  1  0.826339  0.040511  0.855135  1
  O  O105  1  0.173661  0.540511  0.644865  1
  O  O106  1  0.173661  0.959489  0.144865  1
  O  O107  1  0.826339  0.459489  0.355135  1
  O  O108  1  0.902048  0.096861  0.096734  1
  O  O109  1  0.097952  0.596861  0.403266  1
  O  O110  1  0.097952  0.903139  0.903266  1
  O  O111  1  0.902048  0.403139  0.596734  1
  O  O112  1  0.596348  0.092835  0.160543  1
  O  O113  1  0.403652  0.592835  0.339457  1
  O  O114  1  0.403652  0.907165  0.839457  1
  O  O115  1  0.596348  0.407165  0.660543  1
  O  O116  1  0.593969  0.162968  0.911249  1
  O  O117  1  0.406031  0.662968  0.588751  1
  O  O118  1  0.406031  0.837032  0.088751  1
  O  O119  1  0.593969  0.337032  0.411249  1
  O  O120  1  0.261205  0.128284  0.235122  1
  O  O121  1  0.738795  0.628284  0.264879  1
  O  O122  1  0.738795  0.871716  0.764879  1
  O  O123  1  0.261205  0.371716  0.735121  1
  O  O124  1  0.055964  0.013374  0.316346  1
  O  O125  1  0.944036  0.513374  0.183654  1
  O  O126  1  0.944036  0.986626  0.683654  1
  O  O127  1  0.055964  0.486626  0.816346  1
  O  O128  1  0.940945  0.224793  0.263106  1
  O  O129  1  0.059055  0.724793  0.236894  1
  O  O130  1  0.059055  0.775207  0.736894  1
  O  O131  1  0.940945  0.275207  0.763106  1
  O  O132  1  0.209986  0.254041  0.100822  1
  O  O133  1  0.790014  0.754041  0.399178  1
  O  O134  1  0.790014  0.745959  0.899178  1
  O  O135  1  0.209986  0.245959  0.600822  1
  O  O136  1  0.241200  0.209552  0.884445  1
  O  O137  1  0.758800  0.709552  0.615555  1
  O  O138  1  0.758800  0.790448  0.115555  1
  O  O139  1  0.241200  0.290448  0.384445  1
  O  O140  1  0.342933  0.022555  0.999317  1
  O  O141  1  0.657067  0.522555  0.500683  1
  O  O142  1  0.657067  0.977445  0.000683  1
  O  O143  1  0.342933  0.477445  0.499317  1
