# generated using pymatgen
data_LiCo2(CO3)4
_symmetry_space_group_name_H-M   'P 1'
_cell_length_a   6.73962615
_cell_length_b   7.53051094
_cell_length_c   5.29135491
_cell_angle_alpha   89.74493521
_cell_angle_beta   113.66473204
_cell_angle_gamma   91.45446170
_symmetry_Int_Tables_number   1
_chemical_formula_structural   LiCo2(CO3)4
_chemical_formula_sum   'Li1 Co2 C4 O12'
_cell_volume   245.88463802
_cell_formula_units_Z   1
loop_
 _symmetry_equiv_pos_site_id
 _symmetry_equiv_pos_as_xyz
  1  'x, y, z'
loop_
 _atom_site_type_symbol
 _atom_site_label
 _atom_site_symmetry_multiplicity
 _atom_site_fract_x
 _atom_site_fract_y
 _atom_site_fract_z
 _atom_site_occupancy
  Li  Li0  1  0.810509  0.563065  0.603221  1
  Co  Co1  1  0.003403  0.996508  0.000324  1
  Co  Co2  1  0.479375  0.497838  0.977025  1
  C  C3  1  0.122785  0.262255  0.880552  1
  C  C4  1  0.629486  0.242108  0.872444  1
  C  C5  1  0.379032  0.762195  0.124029  1
  C  C6  1  0.875134  0.734498  0.136390  1
  O  O7  1  0.077712  0.122149  0.725929  1
  O  O8  1  0.177550  0.414025  0.805632  1
  O  O9  1  0.387645  0.736309  0.880936  1
  O  O10  1  0.099229  0.241444  0.110271  1
  O  O11  1  0.319297  0.900549  0.198192  1
  O  O12  1  0.441550  0.619519  0.279014  1
  O  O13  1  0.601026  0.393067  0.732213  1
  O  O14  1  0.685755  0.100241  0.805039  1
  O  O15  1  0.896394  0.745717  0.900405  1
  O  O16  1  0.582233  0.263678  0.090298  1
  O  O17  1  0.807071  0.594763  0.218390  1
  O  O18  1  0.931087  0.880227  0.279681  1
