# generated using pymatgen
data_Na3Li3Fe2P2(CO7)2
_symmetry_space_group_name_H-M   'P 1'
_cell_length_a   8.81815498
_cell_length_b   6.50194011
_cell_length_c   5.12572334
_cell_angle_alpha   89.86099313
_cell_angle_beta   88.75685089
_cell_angle_gamma   90.71612304
_symmetry_Int_Tables_number   1
_chemical_formula_structural   Na3Li3Fe2P2(CO7)2
_chemical_formula_sum   'Na3 Li3 Fe2 P2 C2 O14'
_cell_volume   293.79074945
_cell_formula_units_Z   1
loop_
 _symmetry_equiv_pos_site_id
 _symmetry_equiv_pos_as_xyz
  1  'x, y, z'
loop_
 _atom_site_type_symbol
 _atom_site_label
 _atom_site_symmetry_multiplicity
 _atom_site_fract_x
 _atom_site_fract_y
 _atom_site_fract_z
 _atom_site_occupancy
  Na  Na0  1  0.081981  0.253895  0.760128  1
  Na  Na1  1  0.258624  0.000911  0.247106  1
  Na  Na2  1  0.916172  0.748333  0.239851  1
  Li  Li3  1  0.267647  0.494248  0.243964  1
  Li  Li4  1  0.733352  0.504835  0.757850  1
  Li  Li5  1  0.733022  0.995502  0.757078  1
  Fe  Fe6  1  0.356093  0.747722  0.786822  1
  Fe  Fe7  1  0.646014  0.249285  0.212219  1
  P  P8  1  0.416842  0.253938  0.697066  1
  P  P9  1  0.588104  0.745592  0.300652  1
  C  C10  1  0.052240  0.746491  0.731313  1
  C  C11  1  0.943128  0.255583  0.271203  1
  O  O12  1  0.090368  0.268293  0.284848  1
  O  O13  1  0.118801  0.748356  0.956677  1
  O  O14  1  0.137195  0.741258  0.519571  1
  O  O15  1  0.322894  0.058999  0.781366  1
  O  O16  1  0.321514  0.436699  0.804855  1
  O  O17  1  0.425412  0.266542  0.393007  1
  O  O18  1  0.425438  0.734668  0.192967  1
  O  O19  1  0.579375  0.252011  0.805387  1
  O  O20  1  0.580919  0.750378  0.606687  1
  O  O21  1  0.684302  0.560368  0.205603  1
  O  O22  1  0.677647  0.938009  0.197614  1
  O  O23  1  0.858107  0.248129  0.482404  1
  O  O24  1  0.879470  0.249834  0.044197  1
  O  O25  1  0.905339  0.750121  0.719565  1
