# generated using pymatgen
data_KP(HO2)2
_symmetry_space_group_name_H-M   'P 1'
_cell_length_a   7.73261945
_cell_length_b   7.73261945
_cell_length_c   14.51333812
_cell_angle_alpha   88.36061200
_cell_angle_beta   91.63938800
_cell_angle_gamma   107.81240900
_symmetry_Int_Tables_number   1
_chemical_formula_structural   KP(HO2)2
_chemical_formula_sum   'K8 P8 H16 O32'
_cell_volume   825.68422789
_cell_formula_units_Z   8
loop_
 _symmetry_equiv_pos_site_id
 _symmetry_equiv_pos_as_xyz
  1  'x, y, z'
loop_
 _atom_site_type_symbol
 _atom_site_label
 _atom_site_symmetry_multiplicity
 _atom_site_fract_x
 _atom_site_fract_y
 _atom_site_fract_z
 _atom_site_occupancy
  K  K0  1  0.140769  0.638607  0.710596  1
  K  K1  1  0.361393  0.859231  0.210596  1
  K  K2  1  0.607763  0.648942  0.960874  1
  K  K3  1  0.101665  0.140618  0.953570  1
  K  K4  1  0.351058  0.392237  0.460874  1
  K  K5  1  0.859382  0.898335  0.453570  1
  K  K6  1  0.638840  0.145243  0.727149  1
  K  K7  1  0.854757  0.361160  0.227149  1
  P  P8  1  0.125371  0.676424  0.960866  1
  P  P9  1  0.323576  0.874629  0.460866  1
  P  P10  1  0.638010  0.648745  0.712136  1
  P  P11  1  0.153354  0.160080  0.714710  1
  P  P12  1  0.351255  0.361990  0.212136  1
  P  P13  1  0.839920  0.846646  0.214710  1
  P  P14  1  0.624484  0.156530  0.964186  1
  P  P15  1  0.843470  0.375516  0.464186  1
  H  H16  1  0.365394  0.887487  0.896035  1
  H  H17  1  0.112513  0.634606  0.396035  1
  H  H18  1  0.511772  0.779473  0.597899  1
  H  H19  1  0.220527  0.488228  0.097899  1
  H  H20  1  0.883592  0.879034  0.765894  1
  H  H21  1  0.378153  0.388955  0.779615  1
  H  H22  1  0.120966  0.116408  0.265894  1
  H  H23  1  0.611045  0.621847  0.279615  1
  H  H24  1  0.238253  0.019267  0.596882  1
  H  H25  1  0.757103  0.520447  0.579521  1
  H  H26  1  0.980733  0.761747  0.096882  1
  H  H27  1  0.479553  0.242897  0.079521  1
  H  H28  1  0.898490  0.434350  0.908711  1
  H  H29  1  0.565650  0.101510  0.408711  1
  H  H30  1  0.974399  0.259083  0.581688  1
  H  H31  1  0.740917  0.025601  0.081688  1
  O  O32  1  0.227040  0.823344  0.886099  1
  O  O33  1  0.176656  0.772960  0.386099  1
  O  O34  1  0.039709  0.498815  0.902613  1
  O  O35  1  0.501185  0.960291  0.402613  1
  O  O36  1  0.566367  0.986938  0.905303  1
  O  O37  1  0.013062  0.433633  0.405303  1
  O  O38  1  0.355918  0.737426  0.532160  1
  O  O39  1  0.262574  0.644082  0.032160  1
  O  O40  1  0.624069  0.810034  0.643662  1
  O  O41  1  0.138917  0.301889  0.641412  1
  O  O42  1  0.189966  0.375931  0.143662  1
  O  O43  1  0.477160  0.590698  0.776748  1
  O  O44  1  0.698111  0.861083  0.141412  1
  O  O45  1  0.409302  0.522840  0.276748  1
  O  O46  1  0.309795  0.250809  0.787907  1
  O  O47  1  0.749191  0.690205  0.287907  1
  O  O48  1  0.821855  0.736662  0.767147  1
  O  O49  1  0.263338  0.178145  0.267147  1
  O  O50  1  0.655667  0.487709  0.657878  1
  O  O51  1  0.512291  0.344333  0.157878  1
  O  O52  1  0.217441  0.005588  0.669823  1
  O  O53  1  0.973674  0.738811  0.001283  1
  O  O54  1  0.994412  0.782559  0.169823  1
  O  O55  1  0.261189  0.026326  0.501283  1
  O  O56  1  0.837655  0.549087  0.518142  1
  O  O57  1  0.450913  0.162345  0.018142  1
  O  O58  1  0.707764  0.333843  0.910491  1
  O  O59  1  0.666157  0.292236  0.410492  1
  O  O60  1  0.856206  0.225178  0.540109  1
  O  O61  1  0.774822  0.143794  0.040109  1
  O  O62  1  0.979515  0.072424  0.768113  1
  O  O63  1  0.927576  0.020485  0.268113  1
