# generated using pymatgen
data_TiGa2O5
_symmetry_space_group_name_H-M   'P 1'
_cell_length_a   5.03568837
_cell_length_b   5.65316307
_cell_length_c   7.05864246
_cell_angle_alpha   71.53929166
_cell_angle_beta   89.76620540
_cell_angle_gamma   63.37983108
_symmetry_Int_Tables_number   1
_chemical_formula_structural   TiGa2O5
_chemical_formula_sum   'Ti2 Ga4 O10'
_cell_volume   168.13261067
_cell_formula_units_Z   2
loop_
 _symmetry_equiv_pos_site_id
 _symmetry_equiv_pos_as_xyz
  1  'x, y, z'
loop_
 _atom_site_type_symbol
 _atom_site_label
 _atom_site_symmetry_multiplicity
 _atom_site_fract_x
 _atom_site_fract_y
 _atom_site_fract_z
 _atom_site_occupancy
  Ti  Ti0  1  0.000637  0.001444  0.497031  1
  Ti  Ti1  1  0.999819  0.001773  0.997066  1
  Ga  Ga2  1  0.637680  0.732823  0.725440  1
  Ga  Ga3  1  0.632135  0.729378  0.225028  1
  Ga  Ga4  1  0.366484  0.278375  0.772453  1
  Ga  Ga5  1  0.360344  0.275706  0.271609  1
  O  O6  1  0.753231  0.832626  0.949222  1
  O  O7  1  0.417209  0.833471  0.447937  1
  O  O8  1  0.030794  0.633301  0.647998  1
  O  O9  1  0.664592  0.372626  0.847073  1
  O  O10  1  0.337857  0.632479  0.149144  1
  O  O11  1  0.967140  0.371493  0.347056  1
  O  O12  1  0.580258  0.168995  0.550760  1
  O  O13  1  0.197178  0.999618  0.749180  1
  O  O14  1  0.252912  0.168745  0.048947  1
  O  O15  1  0.803185  0.002489  0.249143  1
