# generated using pymatgen
data_K5H3S4N2O15
_symmetry_space_group_name_H-M   'P 1'
_cell_length_a   14.16708814
_cell_length_b   16.31798631
_cell_length_c   12.02018645
_cell_angle_alpha   102.92378531
_cell_angle_beta   106.30653986
_cell_angle_gamma   86.25180518
_symmetry_Int_Tables_number   1
_chemical_formula_structural   K5H3S4N2O15
_chemical_formula_sum   'K30 H18 S24 N12 O90'
_cell_volume   2599.45474572
_cell_formula_units_Z   6
loop_
 _symmetry_equiv_pos_site_id
 _symmetry_equiv_pos_as_xyz
  1  'x, y, z'
loop_
 _atom_site_type_symbol
 _atom_site_label
 _atom_site_symmetry_multiplicity
 _atom_site_fract_x
 _atom_site_fract_y
 _atom_site_fract_z
 _atom_site_occupancy
  K  K0  1  0.082480  0.841498  0.595199  1
  K  K1  1  0.917520  0.158502  0.404801  1
  K  K2  1  0.256339  0.514219  0.780383  1
  K  K3  1  0.743661  0.485781  0.219617  1
  K  K4  1  0.425778  0.172399  0.929141  1
  K  K5  1  0.574222  0.827601  0.070859  1
  K  K6  1  0.937155  0.925284  0.864501  1
  K  K7  1  0.062845  0.074716  0.135499  1
  K  K8  1  0.116992  0.580034  0.030894  1
  K  K9  1  0.883008  0.419966  0.969106  1
  K  K10  1  0.287996  0.245356  0.182737  1
  K  K11  1  0.712004  0.754644  0.817263  1
  K  K12  1  0.462332  0.908485  0.352958  1
  K  K13  1  0.537668  0.091515  0.647042  1
  K  K14  1  0.623942  0.584737  0.520221  1
  K  K15  1  0.376058  0.415263  0.479779  1
  K  K16  1  0.778980  0.260453  0.696294  1
  K  K17  1  0.221020  0.739547  0.303706  1
  K  K18  1  0.299611  0.936812  0.012792  1
  K  K19  1  0.700389  0.063188  0.987208  1
  K  K20  1  0.471719  0.600424  0.171554  1
  K  K21  1  0.528281  0.399576  0.828446  1
  K  K22  1  0.646462  0.255456  0.275072  1
  K  K23  1  0.353538  0.744544  0.724928  1
  K  K24  1  0.806605  0.925643  0.431918  1
  K  K25  1  0.193395  0.074357  0.568082  1
  K  K26  1  0.962367  0.603021  0.585798  1
  K  K27  1  0.037633  0.396979  0.414202  1
  K  K28  1  0.128908  0.272790  0.842470  1
  K  K29  1  0.871092  0.727210  0.157530  1
  H  H30  1  0.917577  0.169863  0.916473  1
  H  H31  1  0.082423  0.830137  0.083527  1
  H  H32  1  0.741725  0.506073  0.752091  1
  H  H33  1  0.258275  0.493927  0.247909  1
  H  H34  1  0.580891  0.836875  0.579674  1
  H  H35  1  0.419109  0.163125  0.420326  1
  H  H36  1  0.773803  0.043519  0.731725  1
  H  H37  1  0.226197  0.956481  0.268275  1
  H  H38  1  0.951665  0.707661  0.909402  1
  H  H39  1  0.048335  0.292339  0.090598  1
  H  H40  1  0.612231  0.370953  0.579756  1
  H  H41  1  0.387769  0.629047  0.420244  1
  H  H42  1  0.712635  0.963145  0.719236  1
  H  H43  1  0.287365  0.036855  0.280764  1
  H  H44  1  0.890429  0.625263  0.882177  1
  H  H45  1  0.109571  0.374737  0.117823  1
  H  H46  1  0.550461  0.288905  0.559146  1
  H  H47  1  0.449539  0.711095  0.440854  1
  S  S48  1  0.501827  0.935119  0.825024  1
  S  S49  1  0.498173  0.064881  0.174976  1
  S  S50  1  0.674568  0.599452  0.991448  1
  S  S51  1  0.325432  0.400548  0.008552  1
  S  S52  1  0.874455  0.264358  0.158679  1
  S  S53  1  0.125545  0.735642  0.841321  1
  S  S54  1  0.040127  0.929594  0.326259  1
  S  S55  1  0.959873  0.070406  0.673741  1
  S  S56  1  0.195216  0.597752  0.497426  1
  S  S57  1  0.804784  0.402248  0.502574  1
  S  S58  1  0.331950  0.268859  0.663744  1
  S  S59  1  0.668050  0.731141  0.336256  1
  S  S60  1  0.361801  0.903998  0.577935  1
  S  S61  1  0.638199  0.096002  0.422065  1
  S  S62  1  0.523896  0.584195  0.753018  1
  S  S63  1  0.476104  0.415805  0.246982  1
  S  S64  1  0.696614  0.260727  0.953471  1
  S  S65  1  0.303386  0.739273  0.046529  1
  S  S66  1  0.864725  0.923572  0.117400  1
  S  S67  1  0.135275  0.076428  0.882600  1
  S  S68  1  0.038804  0.564909  0.268024  1
  S  S69  1  0.961196  0.435091  0.731976  1
  S  S70  1  0.201461  0.231040  0.412238  1
  S  S71  1  0.798539  0.768960  0.587762  1
  N  N72  1  0.476826  0.882418  0.674994  1
  N  N73  1  0.523174  0.117582  0.325006  1
  N  N74  1  0.639442  0.553289  0.839100  1
  N  N75  1  0.360558  0.446711  0.160900  1
  N  N76  1  0.816512  0.221237  0.007738  1
  N  N77  1  0.183488  0.778763  0.992262  1
  N  N78  1  0.983227  0.883459  0.175545  1
  N  N79  1  0.016773  0.116541  0.824455  1
  N  N80  1  0.159651  0.544040  0.347033  1
  N  N81  1  0.840349  0.455960  0.652967  1
  N  N82  1  0.313662  0.211957  0.515646  1
  N  N83  1  0.686338  0.788043  0.484354  1
  O  O84  1  0.550147  0.902890  0.626170  1
  O  O85  1  0.449853  0.097110  0.373830  1
  O  O86  1  0.710830  0.572008  0.786042  1
  O  O87  1  0.289170  0.427992  0.213958  1
  O  O88  1  0.875598  0.238383  0.938302  1
  O  O89  1  0.124402  0.761617  0.061698  1
  O  O90  1  0.042555  0.897080  0.104391  1
  O  O91  1  0.957445  0.102920  0.895609  1
  O  O92  1  0.222425  0.565263  0.285031  1
  O  O93  1  0.777575  0.434737  0.714969  1
  O  O94  1  0.389681  0.230637  0.469900  1
  O  O95  1  0.610319  0.769363  0.530100  1
  O  O96  1  0.599805  0.903561  0.878864  1
  O  O97  1  0.400195  0.096439  0.121136  1
  O  O98  1  0.772873  0.564360  0.034871  1
  O  O99  1  0.227127  0.435640  0.965129  1
  O  O100  1  0.974274  0.229006  0.176576  1
  O  O101  1  0.025726  0.770994  0.823424  1
  O  O102  1  0.141721  0.898702  0.344516  1
  O  O103  1  0.858279  0.101298  0.655484  1
  O  O104  1  0.302301  0.585103  0.532793  1
  O  O105  1  0.697699  0.414897  0.467207  1
  O  O106  1  0.429092  0.239079  0.724125  1
  O  O107  1  0.570908  0.760921  0.275875  1
  O  O108  1  0.425068  0.906198  0.867115  1
  O  O109  1  0.574932  0.093802  0.132885  1
  O  O110  1  0.601101  0.570070  0.037380  1
  O  O111  1  0.398899  0.429930  0.962620  1
  O  O112  1  0.816694  0.231476  0.222671  1
  O  O113  1  0.183306  0.768524  0.777329  1
  O  O114  1  0.985385  0.894469  0.391442  1
  O  O115  1  0.014615  0.105531  0.608558  1
  O  O116  1  0.143769  0.551569  0.554713  1
  O  O117  1  0.856231  0.448431  0.445287  1
  O  O118  1  0.252289  0.239849  0.700734  1
  O  O119  1  0.747711  0.760151  0.299266  1
  O  O120  1  0.501631  0.026575  0.832838  1
  O  O121  1  0.498369  0.973425  0.167162  1
  O  O122  1  0.677390  0.691627  0.005975  1
  O  O123  1  0.322610  0.308373  0.994025  1
  O  O124  1  0.875552  0.356590  0.179595  1
  O  O125  1  0.124448  0.643410  0.820405  1
  O  O126  1  0.035329  0.021970  0.344594  1
  O  O127  1  0.964671  0.978030  0.655406  1
  O  O128  1  0.168038  0.687213  0.507995  1
  O  O129  1  0.831962  0.312787  0.492005  1
  O  O130  1  0.330369  0.359714  0.667626  1
  O  O131  1  0.669631  0.640286  0.332374  1
  O  O132  1  0.362064  0.838045  0.472877  1
  O  O133  1  0.637936  0.161955  0.527123  1
  O  O134  1  0.515834  0.524865  0.640275  1
  O  O135  1  0.484166  0.475135  0.359725  1
  O  O136  1  0.667049  0.212587  0.830940  1
  O  O137  1  0.332951  0.787413  0.169060  1
  O  O138  1  0.832190  0.867193  0.000855  1
  O  O139  1  0.167810  0.132807  0.999145  1
  O  O140  1  0.025759  0.499282  0.159179  1
  O  O141  1  0.974241  0.500718  0.840821  1
  O  O142  1  0.205558  0.163092  0.310405  1
  O  O143  1  0.794442  0.836908  0.689595  1
  O  O144  1  0.285380  0.892976  0.633924  1
  O  O145  1  0.714620  0.107024  0.366076  1
  O  O146  1  0.451234  0.571068  0.813068  1
  O  O147  1  0.548766  0.428932  0.186932  1
  O  O148  1  0.639297  0.239172  0.027482  1
  O  O149  1  0.360703  0.760828  0.972518  1
  O  O150  1  0.808338  0.914228  0.198780  1
  O  O151  1  0.191662  0.085772  0.801220  1
  O  O152  1  0.975352  0.554844  0.341480  1
  O  O153  1  0.024648  0.445156  0.658520  1
  O  O154  1  0.121446  0.222440  0.463954  1
  O  O155  1  0.878554  0.777560  0.536046  1
  O  O156  1  0.365402  0.989226  0.557231  1
  O  O157  1  0.634598  0.010774  0.442769  1
  O  O158  1  0.532249  0.672034  0.745013  1
  O  O159  1  0.467751  0.327966  0.254987  1
  O  O160  1  0.703648  0.351499  0.961922  1
  O  O161  1  0.296352  0.648501  0.038078  1
  O  O162  1  0.875753  0.010929  0.109358  1
  O  O163  1  0.124247  0.989071  0.890642  1
  O  O164  1  0.037374  0.649695  0.244126  1
  O  O165  1  0.962626  0.350305  0.755874  1
  O  O166  1  0.206101  0.314833  0.387366  1
  O  O167  1  0.793899  0.685167  0.612634  1
  O  O168  1  0.267238  0.981145  0.231042  1
  O  O169  1  0.732762  0.018855  0.768958  1
  O  O170  1  0.905196  0.679888  0.936162  1
  O  O171  1  0.094804  0.320112  0.063838  1
  O  O172  1  0.572523  0.341952  0.614149  1
  O  O173  1  0.427477  0.658048  0.385851  1
