# generated using pymatgen
data_Mn(SO4)2
_symmetry_space_group_name_H-M   'P 1'
_cell_length_a   8.85318510
_cell_length_b   8.85318529
_cell_length_c   8.85318521
_cell_angle_alpha   55.78006690
_cell_angle_beta   55.78007300
_cell_angle_gamma   55.78007154
_symmetry_Int_Tables_number   1
_chemical_formula_structural   Mn(SO4)2
_chemical_formula_sum   'Mn3 S6 O24'
_cell_volume   442.64729765
_cell_formula_units_Z   3
loop_
 _symmetry_equiv_pos_site_id
 _symmetry_equiv_pos_as_xyz
  1  'x, y, z'
loop_
 _atom_site_type_symbol
 _atom_site_label
 _atom_site_symmetry_multiplicity
 _atom_site_fract_x
 _atom_site_fract_y
 _atom_site_fract_z
 _atom_site_occupancy
  Mn  Mn0  1  0.352108  0.352108  0.352108  1
  Mn  Mn1  1  0.644138  0.644138  0.644138  1
  Mn  Mn2  1  0.848146  0.848146  0.848146  1
  S  S3  1  0.035659  0.747451  0.467045  1
  S  S4  1  0.467045  0.035659  0.747451  1
  S  S5  1  0.747451  0.467045  0.035659  1
  S  S6  1  0.254105  0.536165  0.954571  1
  S  S7  1  0.536165  0.954571  0.254105  1
  S  S8  1  0.954571  0.254105  0.536165  1
  O  O9  1  0.105936  0.295364  0.523571  1
  O  O10  1  0.295364  0.523571  0.105936  1
  O  O11  1  0.005026  0.947695  0.339232  1
  O  O12  1  0.523571  0.105936  0.295364  1
  O  O13  1  0.022468  0.707476  0.664449  1
  O  O14  1  0.235921  0.613313  0.384906  1
  O  O15  1  0.384906  0.235921  0.613313  1
  O  O16  1  0.339232  0.005026  0.947695  1
  O  O17  1  0.613313  0.384906  0.235921  1
  O  O18  1  0.047799  0.681026  0.978387  1
  O  O19  1  0.289571  0.351180  0.968937  1
  O  O20  1  0.351180  0.968937  0.289571  1
  O  O21  1  0.664449  0.022468  0.707476  1
  O  O22  1  0.707476  0.664449  0.022468  1
  O  O23  1  0.947695  0.339232  0.005026  1
  O  O24  1  0.379557  0.642349  0.756179  1
  O  O25  1  0.681026  0.978387  0.047799  1
  O  O26  1  0.642349  0.756179  0.379557  1
  O  O27  1  0.756179  0.379557  0.642349  1
  O  O28  1  0.968937  0.289571  0.351180  1
  O  O29  1  0.498678  0.894687  0.679262  1
  O  O30  1  0.978387  0.047799  0.681026  1
  O  O31  1  0.679262  0.498678  0.894687  1
  O  O32  1  0.894687  0.679262  0.498678  1
