# generated using pymatgen
data_Li7Ti5Mn12O32
_symmetry_space_group_name_H-M   'P 1'
_cell_length_a   6.08711548
_cell_length_b   5.92131737
_cell_length_c   20.11946822
_cell_angle_alpha   99.02997111
_cell_angle_beta   101.23364698
_cell_angle_gamma   60.58346086
_symmetry_Int_Tables_number   1
_chemical_formula_structural   Li7Ti5Mn12O32
_chemical_formula_sum   'Li7 Ti5 Mn12 O32'
_cell_volume   617.98719804
_cell_formula_units_Z   1
loop_
 _symmetry_equiv_pos_site_id
 _symmetry_equiv_pos_as_xyz
  1  'x, y, z'
loop_
 _atom_site_type_symbol
 _atom_site_label
 _atom_site_symmetry_multiplicity
 _atom_site_fract_x
 _atom_site_fract_y
 _atom_site_fract_z
 _atom_site_occupancy
  Li  Li0  1  0.845893  0.844111  0.030122  1
  Li  Li1  1  0.913489  0.904405  0.218173  1
  Li  Li2  1  0.590578  0.591754  0.286062  1
  Li  Li3  1  0.653494  0.654363  0.459630  1
  Li  Li4  1  0.410032  0.412168  0.725493  1
  Li  Li5  1  0.095989  0.093421  0.778210  1
  Li  Li6  1  0.151049  0.159536  0.968266  1
  Ti  Ti7  1  0.393977  0.873969  0.125760  1
  Ti  Ti8  1  0.488037  0.502043  0.997576  1
  Ti  Ti9  1  0.884171  0.367536  0.125028  1
  Ti  Ti10  1  0.338572  0.341274  0.530988  1
  Ti  Ti11  1  0.636073  0.119708  0.873844  1
  Mn  Mn12  1  0.377726  0.374880  0.123710  1
  Mn  Mn13  1  0.244976  0.250729  0.251036  1
  Mn  Mn14  1  0.118406  0.628712  0.371299  1
  Mn  Mn15  1  0.865121  0.881299  0.629633  1
  Mn  Mn16  1  0.118881  0.120248  0.371831  1
  Mn  Mn17  1  0.379021  0.872765  0.629035  1
  Mn  Mn18  1  0.628119  0.119607  0.371102  1
  Mn  Mn19  1  0.870658  0.381925  0.628568  1
  Mn  Mn20  1  0.998124  0.997486  0.494771  1
  Mn  Mn21  1  0.752047  0.748371  0.751737  1
  Mn  Mn22  1  0.628739  0.625217  0.875775  1
  Mn  Mn23  1  0.126753  0.622814  0.874378  1
  O  O24  1  0.665209  0.680851  0.067223  1
  O  O25  1  0.233261  0.664035  0.063295  1
  O  O26  1  0.692895  0.222337  0.061968  1
  O  O27  1  0.412114  0.979020  0.315988  1
  O  O28  1  0.568802  0.555225  0.175694  1
  O  O29  1  0.063216  0.526054  0.185464  1
  O  O30  1  0.185006  0.195436  0.072595  1
  O  O31  1  0.933672  0.958873  0.314720  1
  O  O32  1  0.540816  0.067357  0.178019  1
  O  O33  1  0.090937  0.066461  0.179958  1
  O  O34  1  0.284089  0.819714  0.425300  1
  O  O35  1  0.832671  0.824301  0.429618  1
  O  O36  1  0.960912  0.426374  0.321698  1
  O  O37  1  0.408874  0.421283  0.316862  1
  O  O38  1  0.311433  0.298199  0.440014  1
  O  O39  1  0.186478  0.699052  0.558736  1
  O  O40  1  0.830407  0.271735  0.432173  1
  O  O41  1  0.675638  0.705686  0.578385  1
  O  O42  1  0.020192  0.606431  0.692973  1
  O  O43  1  0.594425  0.568776  0.694941  1
  O  O44  1  0.684826  0.176970  0.565632  1
  O  O45  1  0.168469  0.192182  0.558887  1
  O  O46  1  0.485292  0.913908  0.814108  1
  O  O47  1  0.917238  0.930460  0.819005  1
  O  O48  1  0.784050  0.825929  0.929764  1
  O  O49  1  0.069647  0.048961  0.673317  1
  O  O50  1  0.940979  0.471227  0.813398  1
  O  O51  1  0.565488  0.032980  0.693522  1
  O  O52  1  0.465878  0.427244  0.824036  1
  O  O53  1  0.311658  0.779715  0.939432  1
  O  O54  1  0.334807  0.321593  0.933513  1
  O  O55  1  0.770701  0.333290  0.937735  1
