# generated using pymatgen
data_LiFeSiO4
_symmetry_space_group_name_H-M   'P 1'
_cell_length_a   5.27585601
_cell_length_b   5.96096175
_cell_length_c   11.32490605
_cell_angle_alpha   90.00266506
_cell_angle_beta   89.99850730
_cell_angle_gamma   91.37317813
_symmetry_Int_Tables_number   1
_chemical_formula_structural   LiFeSiO4
_chemical_formula_sum   'Li4 Fe4 Si4 O16'
_cell_volume   356.05667924
_cell_formula_units_Z   4
loop_
 _symmetry_equiv_pos_site_id
 _symmetry_equiv_pos_as_xyz
  1  'x, y, z'
loop_
 _atom_site_type_symbol
 _atom_site_label
 _atom_site_symmetry_multiplicity
 _atom_site_fract_x
 _atom_site_fract_y
 _atom_site_fract_z
 _atom_site_occupancy
  Li  Li0  1  0.194331  0.493866  0.670592  1
  Li  Li1  1  0.305650  0.006147  0.170588  1
  Li  Li2  1  0.681154  0.471066  0.328992  1
  Li  Li3  1  0.818829  0.028923  0.828991  1
  Fe  Fe4  1  0.170873  0.245411  0.423423  1
  Fe  Fe5  1  0.329138  0.254612  0.923403  1
  Fe  Fe6  1  0.681267  0.737936  0.076973  1
  Fe  Fe7  1  0.818722  0.762057  0.577006  1
  Si  Si8  1  0.179471  0.750484  0.916979  1
  Si  Si9  1  0.320571  0.749492  0.417070  1
  Si  Si10  1  0.676754  0.258406  0.583385  1
  Si  Si11  1  0.823321  0.241591  0.083304  1
  O  O12  1  0.132808  0.223978  0.065008  1
  O  O13  1  0.172766  0.749120  0.545135  1
  O  O14  1  0.240246  0.984577  0.842340  1
  O  O15  1  0.248113  0.975423  0.341287  1
  O  O16  1  0.251902  0.524638  0.841317  1
  O  O17  1  0.259772  0.515397  0.342319  1
  O  O18  1  0.327289  0.750892  0.045201  1
  O  O19  1  0.367118  0.276014  0.564983  1
  O  O20  1  0.630646  0.741001  0.436990  1
  O  O21  1  0.710114  0.020804  0.156096  1
  O  O22  1  0.685218  0.244237  0.951684  1
  O  O23  1  0.747057  0.031712  0.659162  1
  O  O24  1  0.752931  0.468326  0.159175  1
  O  O25  1  0.814838  0.255743  0.451639  1
  O  O26  1  0.789866  0.479138  0.656073  1
  O  O27  1  0.869270  0.758990  0.937012  1
