# generated using pymatgen
data_Na5LiMn2P2(CO7)2
_symmetry_space_group_name_H-M   'P 1'
_cell_length_a   8.96575332
_cell_length_b   6.76927939
_cell_length_c   10.34825473
_cell_angle_alpha   90.00000000
_cell_angle_beta   89.92668502
_cell_angle_gamma   90.00000000
_symmetry_Int_Tables_number   1
_chemical_formula_structural   Na5LiMn2P2(CO7)2
_chemical_formula_sum   'Na10 Li2 Mn4 P4 C4 O28'
_cell_volume   628.05254534
_cell_formula_units_Z   2
loop_
 _symmetry_equiv_pos_site_id
 _symmetry_equiv_pos_as_xyz
  1  'x, y, z'
loop_
 _atom_site_type_symbol
 _atom_site_label
 _atom_site_symmetry_multiplicity
 _atom_site_fract_x
 _atom_site_fract_y
 _atom_site_fract_z
 _atom_site_occupancy
  Na  Na0  1  0.082259  0.247929  0.880031  1
  Na  Na1  1  0.082259  0.252071  0.380031  1
  Na  Na2  1  0.258646  0.001835  0.623763  1
  Na  Na3  1  0.258774  0.498082  0.623825  1
  Na  Na4  1  0.258774  0.001918  0.123825  1
  Na  Na5  1  0.258646  0.498165  0.123763  1
  Na  Na6  1  0.741679  0.501860  0.876556  1
  Na  Na7  1  0.741679  0.998140  0.376555  1
  Na  Na8  1  0.915885  0.750187  0.619958  1
  Na  Na9  1  0.915885  0.749813  0.119958  1
  Li  Li10  1  0.733006  0.993010  0.878806  1
  Li  Li11  1  0.733006  0.506990  0.378806  1
  Mn  Mn12  1  0.362597  0.749654  0.889185  1
  Mn  Mn13  1  0.362597  0.750346  0.389186  1
  Mn  Mn14  1  0.639948  0.251179  0.610515  1
  Mn  Mn15  1  0.639948  0.248821  0.110515  1
  P  P16  1  0.413627  0.246385  0.850210  1
  P  P17  1  0.413627  0.253615  0.350210  1
  P  P18  1  0.591006  0.752825  0.648799  1
  P  P19  1  0.591006  0.747175  0.148799  1
  C  C20  1  0.056152  0.754984  0.868158  1
  C  C21  1  0.056152  0.745016  0.368158  1
  C  C22  1  0.939830  0.249416  0.632735  1
  C  C23  1  0.939830  0.250584  0.132735  1
  O  O24  1  0.083594  0.249907  0.643230  1
  O  O25  1  0.083594  0.250093  0.143230  1
  O  O26  1  0.120124  0.749325  0.981314  1
  O  O27  1  0.120124  0.750675  0.481314  1
  O  O28  1  0.140229  0.749158  0.765094  1
  O  O29  1  0.140229  0.750842  0.265094  1
  O  O30  1  0.318290  0.065054  0.892053  1
  O  O31  1  0.324836  0.432588  0.893983  1
  O  O32  1  0.324836  0.067412  0.393983  1
  O  O33  1  0.318290  0.434946  0.392053  1
  O  O34  1  0.427770  0.249495  0.699734  1
  O  O35  1  0.431168  0.750284  0.591283  1
  O  O36  1  0.427770  0.250505  0.199734  1
  O  O37  1  0.431168  0.749716  0.091283  1
  O  O38  1  0.573828  0.237271  0.907753  1
  O  O39  1  0.577998  0.758153  0.800151  1
  O  O40  1  0.573828  0.262729  0.407753  1
  O  O41  1  0.577998  0.741847  0.300151  1
  O  O42  1  0.682002  0.568143  0.605681  1
  O  O43  1  0.681855  0.935647  0.604142  1
  O  O44  1  0.681855  0.564353  0.104142  1
  O  O45  1  0.682002  0.931857  0.105681  1
  O  O46  1  0.855482  0.247087  0.735771  1
  O  O47  1  0.855482  0.252913  0.235771  1
  O  O48  1  0.877363  0.251585  0.518913  1
  O  O49  1  0.877363  0.248415  0.018913  1
  O  O50  1  0.912054  0.765619  0.858356  1
  O  O51  1  0.912054  0.734381  0.358356  1
