# generated using pymatgen
data_Li2NbOF5
_symmetry_space_group_name_H-M   'P 1'
_cell_length_a   5.03334455
_cell_length_b   5.04086914
_cell_length_c   4.65150850
_cell_angle_alpha   90.70316228
_cell_angle_beta   89.64791970
_cell_angle_gamma   120.05013815
_symmetry_Int_Tables_number   1
_chemical_formula_structural   Li2NbOF5
_chemical_formula_sum   'Li2 Nb1 O1 F5'
_cell_volume   102.14901647
_cell_formula_units_Z   1
loop_
 _symmetry_equiv_pos_site_id
 _symmetry_equiv_pos_as_xyz
  1  'x, y, z'
loop_
 _atom_site_type_symbol
 _atom_site_label
 _atom_site_symmetry_multiplicity
 _atom_site_fract_x
 _atom_site_fract_y
 _atom_site_fract_z
 _atom_site_occupancy
  Li  Li0  1  0.321976  0.657846  0.496512  1
  Li  Li1  1  0.678018  0.335865  0.496511  1
  Nb  Nb2  1  0.999997  0.975218  0.981511  1
  O  O3  1  0.999996  0.688420  0.753485  1
  F  F4  1  0.000004  0.322396  0.254722  1
  F  F5  1  0.322145  0.325518  0.755951  1
  F  F6  1  0.323034  0.007200  0.252674  1
  F  F7  1  0.676965  0.684165  0.252681  1
  F  F8  1  0.677854  0.003370  0.755953  1
