# generated using pymatgen
data_Li3Fe2(CO3)4
_symmetry_space_group_name_H-M   'P 1'
_cell_length_a   8.49120389
_cell_length_b   6.19435995
_cell_length_c   5.54726444
_cell_angle_alpha   63.17586499
_cell_angle_beta   107.01509788
_cell_angle_gamma   99.80338085
_symmetry_Int_Tables_number   1
_chemical_formula_structural   Li3Fe2(CO3)4
_chemical_formula_sum   'Li3 Fe2 C4 O12'
_cell_volume   248.72953634
_cell_formula_units_Z   1
loop_
 _symmetry_equiv_pos_site_id
 _symmetry_equiv_pos_as_xyz
  1  'x, y, z'
loop_
 _atom_site_type_symbol
 _atom_site_label
 _atom_site_symmetry_multiplicity
 _atom_site_fract_x
 _atom_site_fract_y
 _atom_site_fract_z
 _atom_site_occupancy
  Li  Li0  1  0.665414  0.081973  0.453880  1
  Li  Li1  1  0.347826  0.925111  0.864306  1
  Li  Li2  1  0.140973  0.439743  0.264157  1
  Fe  Fe3  1  0.503921  0.505267  0.821302  1
  Fe  Fe4  1  0.995145  0.980543  0.112950  1
  C  C5  1  0.791094  0.579341  0.054252  1
  C  C6  1  0.704872  0.082801  0.002258  1
  C  C7  1  0.294911  0.921830  0.382083  1
  C  C8  1  0.203510  0.411182  0.852805  1
  O  O9  1  0.943598  0.643898  0.161765  1
  O  O10  1  0.748776  0.611272  0.799040  1
  O  O11  1  0.765024  0.065422  0.822964  1
  O  O12  1  0.810945  0.050092  0.240699  1
  O  O13  1  0.553424  0.125373  0.957133  1
  O  O14  1  0.684733  0.486796  0.204714  1
  O  O15  1  0.444060  0.886668  0.526854  1
  O  O16  1  0.248361  0.401875  0.652486  1
  O  O17  1  0.185099  0.977685  0.467352  1
  O  O18  1  0.239179  0.901529  0.147463  1
  O  O19  1  0.306975  0.507007  0.006116  1
  O  O20  1  0.061913  0.324908  0.909386  1
