# generated using pymatgen
data_Ca4Bi6O13
_symmetry_space_group_name_H-M   'P 1'
_cell_length_a   9.30454748
_cell_length_b   9.44623487
_cell_length_c   9.44623487
_cell_angle_alpha   100.99064369
_cell_angle_beta   78.15041381
_cell_angle_gamma   78.15041381
_symmetry_Int_Tables_number   1
_chemical_formula_structural   Ca4Bi6O13
_chemical_formula_sum   'Ca8 Bi12 O26'
_cell_volume   771.39969141
_cell_formula_units_Z   2
loop_
 _symmetry_equiv_pos_site_id
 _symmetry_equiv_pos_as_xyz
  1  'x, y, z'
loop_
 _atom_site_type_symbol
 _atom_site_label
 _atom_site_symmetry_multiplicity
 _atom_site_fract_x
 _atom_site_fract_y
 _atom_site_fract_z
 _atom_site_occupancy
  Ca  Ca0  1  0.570271  0.198839  0.451061  1
  Ca  Ca1  1  0.570444  0.451384  0.197730  1
  Ca  Ca2  1  0.429809  0.236570  0.983731  1
  Ca  Ca3  1  0.429809  0.483731  0.736570  1
  Ca  Ca4  1  0.429541  0.736260  0.483092  1
  Ca  Ca5  1  0.429541  0.983092  0.236260  1
  Ca  Ca6  1  0.570271  0.951061  0.698839  1
  Ca  Ca7  1  0.570444  0.697730  0.951384  1
  Bi  Bi8  1  0.773314  0.053650  0.053418  1
  Bi  Bi9  1  0.000972  0.367470  0.139097  1
  Bi  Bi10  1  0.999143  0.139686  0.368027  1
  Bi  Bi11  1  0.222036  0.188713  0.688713  1
  Bi  Bi12  1  0.222888  0.686628  0.186628  1
  Bi  Bi13  1  0.226655  0.440364  0.440052  1
  Bi  Bi14  1  0.777140  0.298217  0.798217  1
  Bi  Bi15  1  0.778131  0.799952  0.299952  1
  Bi  Bi16  1  0.773314  0.553418  0.553650  1
  Bi  Bi17  1  0.999143  0.868027  0.639686  1
  Bi  Bi18  1  0.000972  0.639097  0.867470  1
  Bi  Bi19  1  0.226655  0.940052  0.940364  1
  O  O20  1  0.016222  0.556124  0.056124  1
  O  O21  1  0.557582  0.181457  0.182064  1
  O  O22  1  0.301644  0.190653  0.446174  1
  O  O23  1  0.304483  0.444903  0.191443  1
  O  O24  1  0.821234  0.300716  0.062712  1
  O  O25  1  0.820148  0.065011  0.297887  1
  O  O26  1  0.983749  0.064124  0.564124  1
  O  O27  1  0.442495  0.460611  0.460245  1
  O  O28  1  0.435958  0.215920  0.715920  1
  O  O29  1  0.437499  0.715115  0.215115  1
  O  O30  1  0.695158  0.343664  0.597380  1
  O  O31  1  0.698431  0.597372  0.341816  1
  O  O32  1  0.698431  0.841816  0.097372  1
  O  O33  1  0.695158  0.097380  0.843664  1
  O  O34  1  0.179862  0.207893  0.974740  1
  O  O35  1  0.178709  0.711356  0.473285  1
  O  O36  1  0.178709  0.973285  0.211356  1
  O  O37  1  0.179862  0.474740  0.707893  1
  O  O38  1  0.557582  0.682064  0.681457  1
  O  O39  1  0.564076  0.934350  0.434350  1
  O  O40  1  0.562508  0.433626  0.933626  1
  O  O41  1  0.304483  0.691443  0.944903  1
  O  O42  1  0.301644  0.946174  0.690653  1
  O  O43  1  0.820148  0.797887  0.565011  1
  O  O44  1  0.821234  0.562712  0.800716  1
  O  O45  1  0.442495  0.960245  0.960611  1
