# generated using pymatgen
data_Li2VCrO4
_symmetry_space_group_name_H-M   'P 1'
_cell_length_a   2.97261467
_cell_length_b   5.14873308
_cell_length_c   5.19818475
_cell_angle_alpha   80.61608138
_cell_angle_beta   90.01173192
_cell_angle_gamma   106.80234204
_symmetry_Int_Tables_number   1
_chemical_formula_structural   Li2VCrO4
_chemical_formula_sum   'Li2 V1 Cr1 O4'
_cell_volume   75.05066451
_cell_formula_units_Z   1
loop_
 _symmetry_equiv_pos_site_id
 _symmetry_equiv_pos_as_xyz
  1  'x, y, z'
loop_
 _atom_site_type_symbol
 _atom_site_label
 _atom_site_symmetry_multiplicity
 _atom_site_fract_x
 _atom_site_fract_y
 _atom_site_fract_z
 _atom_site_occupancy
  Li  Li0  1  0.498492  0.996990  0.504389  1
  Li  Li1  1  0.001515  0.003003  0.995582  1
  V  V2  1  0.250006  0.500006  0.250021  1
  Cr  Cr3  1  0.749994  0.499993  0.750034  1
  O  O4  1  0.863566  0.726975  0.381459  1
  O  O5  1  0.636435  0.273022  0.118524  1
  O  O6  1  0.363391  0.726359  0.876080  1
  O  O7  1  0.136601  0.273651  0.623911  1
