# generated using pymatgen
data_Li3Fe(PO4)2
_symmetry_space_group_name_H-M   'P 1'
_cell_length_a   8.50615335
_cell_length_b   8.50582989
_cell_length_c   8.50579700
_cell_angle_alpha   63.06519173
_cell_angle_beta   63.06565266
_cell_angle_gamma   63.06421774
_symmetry_Int_Tables_number   1
_chemical_formula_structural   Li3Fe(PO4)2
_chemical_formula_sum   'Li9 Fe3 P6 O24'
_cell_volume   464.75656853
_cell_formula_units_Z   3
loop_
 _symmetry_equiv_pos_site_id
 _symmetry_equiv_pos_as_xyz
  1  'x, y, z'
loop_
 _atom_site_type_symbol
 _atom_site_label
 _atom_site_symmetry_multiplicity
 _atom_site_fract_x
 _atom_site_fract_y
 _atom_site_fract_z
 _atom_site_occupancy
  Li  Li0  1  0.243398  0.852069  0.654958  1
  Li  Li1  1  0.322895  0.814318  0.142375  1
  Li  Li2  1  0.142145  0.323067  0.814387  1
  Li  Li3  1  0.008337  0.008373  0.008503  1
  Li  Li4  1  0.154747  0.154443  0.154495  1
  Li  Li5  1  0.497139  0.496986  0.497094  1
  Li  Li6  1  0.851880  0.654986  0.243702  1
  Li  Li7  1  0.655306  0.243164  0.851752  1
  Li  Li8  1  0.814467  0.142263  0.322929  1
  Fe  Fe9  1  0.353897  0.353820  0.353821  1
  Fe  Fe10  1  0.854634  0.854555  0.854647  1
  Fe  Fe11  1  0.644321  0.644578  0.644446  1
  P  P12  1  0.046420  0.745655  0.453228  1
  P  P13  1  0.547164  0.949016  0.247217  1
  P  P14  1  0.247212  0.547156  0.949048  1
  P  P15  1  0.745715  0.453239  0.046382  1
  P  P16  1  0.453064  0.046566  0.745749  1
  P  P17  1  0.949105  0.247203  0.547077  1
  O  O18  1  0.046091  0.907742  0.270076  1
  O  O19  1  0.090244  0.741302  0.935115  1
  O  O20  1  0.497436  0.891415  0.670879  1
  O  O21  1  0.617712  0.016097  0.801254  1
  O  O22  1  0.243324  0.597305  0.423164  1
  O  O23  1  0.190740  0.390942  0.972718  1
  O  O24  1  0.113214  0.306196  0.508671  1
  O  O25  1  0.579998  0.754309  0.401981  1
  O  O26  1  0.741319  0.934990  0.090321  1
  O  O27  1  0.972928  0.190503  0.390933  1
  O  O28  1  0.306297  0.508675  0.113115  1
  O  O29  1  0.401886  0.580144  0.754282  1
  O  O30  1  0.597352  0.423148  0.243301  1
  O  O31  1  0.670962  0.498049  0.891088  1
  O  O32  1  0.016221  0.801198  0.617757  1
  O  O33  1  0.423085  0.243509  0.597430  1
  O  O34  1  0.269978  0.046273  0.907883  1
  O  O35  1  0.801368  0.617639  0.016339  1
  O  O36  1  0.891135  0.670931  0.497856  1
  O  O37  1  0.754396  0.401990  0.579808  1
  O  O38  1  0.390985  0.972661  0.190722  1
  O  O39  1  0.508738  0.113142  0.306208  1
  O  O40  1  0.907761  0.270049  0.046000  1
  O  O41  1  0.934984  0.090337  0.741287  1
