# generated using pymatgen
data_Li3Cu3(PO4)2
_symmetry_space_group_name_H-M   'P 1'
_cell_length_a   6.23484859
_cell_length_b   5.45820486
_cell_length_c   5.12094567
_cell_angle_alpha   90.64096559
_cell_angle_beta   90.73735052
_cell_angle_gamma   88.14540041
_symmetry_Int_Tables_number   1
_chemical_formula_structural   Li3Cu3(PO4)2
_chemical_formula_sum   'Li3 Cu3 P2 O8'
_cell_volume   174.15549105
_cell_formula_units_Z   1
loop_
 _symmetry_equiv_pos_site_id
 _symmetry_equiv_pos_as_xyz
  1  'x, y, z'
loop_
 _atom_site_type_symbol
 _atom_site_label
 _atom_site_symmetry_multiplicity
 _atom_site_fract_x
 _atom_site_fract_y
 _atom_site_fract_z
 _atom_site_occupancy
  Li  Li0  1  0.002341  0.156554  0.499618  1
  Li  Li1  1  0.249658  0.332025  0.004165  1
  Li  Li2  1  0.253435  0.675121  0.500364  1
  Cu  Cu3  1  0.515286  0.764241  0.988974  1
  Cu  Cu4  1  0.722542  0.652516  0.455046  1
  Cu  Cu5  1  0.729866  0.349789  0.013337  1
  P  P6  1  0.013167  0.841441  0.997214  1
  P  P7  1  0.490635  0.179462  0.503950  1
  O  O8  1  0.014182  0.108253  0.893805  1
  O  O9  1  0.008153  0.835838  0.300488  1
  O  O10  1  0.213992  0.689445  0.894531  1
  O  O11  1  0.289837  0.323034  0.393302  1
  O  O12  1  0.489694  0.186899  0.806454  1
  O  O13  1  0.483416  0.909090  0.404405  1
  O  O14  1  0.708411  0.289374  0.410357  1
  O  O15  1  0.815386  0.706917  0.876583  1
