# generated using pymatgen
data_Li4V3OF11
_symmetry_space_group_name_H-M   'P 1'
_cell_length_a   5.30296200
_cell_length_b   5.51074466
_cell_length_c   16.17460901
_cell_angle_alpha   80.71848076
_cell_angle_beta   89.88220359
_cell_angle_gamma   89.26938081
_symmetry_Int_Tables_number   1
_chemical_formula_structural   Li4V3OF11
_chemical_formula_sum   'Li8 V6 O2 F22'
_cell_volume   466.44867224
_cell_formula_units_Z   2
loop_
 _symmetry_equiv_pos_site_id
 _symmetry_equiv_pos_as_xyz
  1  'x, y, z'
loop_
 _atom_site_type_symbol
 _atom_site_label
 _atom_site_symmetry_multiplicity
 _atom_site_fract_x
 _atom_site_fract_y
 _atom_site_fract_z
 _atom_site_occupancy
  Li  Li0  1  0.685416  0.133791  0.176288  1
  Li  Li1  1  0.988187  0.092543  0.774637  1
  Li  Li2  1  0.459589  0.078003  0.889697  1
  Li  Li3  1  0.316334  0.520844  0.492053  1
  Li  Li4  1  0.164953  0.711782  0.160032  1
  Li  Li5  1  0.518388  0.551148  0.767410  1
  Li  Li6  1  0.041851  0.640920  0.883564  1
  Li  Li7  1  0.796885  0.976317  0.512876  1
  V  V8  1  0.479911  0.170911  0.665760  1
  V  V9  1  0.008389  0.015243  0.992051  1
  V  V10  1  0.999751  0.332700  0.333851  1
  V  V11  1  0.504731  0.506871  0.002361  1
  V  V12  1  0.011445  0.641303  0.667217  1
  V  V13  1  0.499642  0.832641  0.333726  1
  O  O14  1  0.113244  0.989044  0.886105  1
  O  O15  1  0.194712  0.345575  0.696954  1
  F  F16  1  0.197535  0.020253  0.352651  1
  F  F17  1  0.338558  0.184976  0.016046  1
  F  F18  1  0.702939  0.144153  0.299381  1
  F  F19  1  0.418872  0.201956  0.547358  1
  F  F20  1  0.092460  0.397878  0.218130  1
  F  F21  1  0.625360  0.153440  0.783971  1
  F  F22  1  0.907666  0.271280  0.449320  1
  F  F23  1  0.594997  0.449348  0.115925  1
  F  F24  1  0.297089  0.520948  0.367540  1
  F  F25  1  0.187907  0.681499  0.035056  1
  F  F26  1  0.828346  0.344669  0.965265  1
  F  F27  1  0.676680  0.488066  0.645464  1
  F  F28  1  0.801725  0.646293  0.312779  1
  F  F29  1  0.387115  0.517076  0.883879  1
  F  F30  1  0.421635  0.877171  0.214661  1
  F  F31  1  0.081259  0.713977  0.548393  1
  F  F32  1  0.576020  0.787910  0.452134  1
  F  F33  1  0.868596  0.644988  0.781980  1
  F  F34  1  0.916425  0.968469  0.114349  1
  F  F35  1  0.309022  0.836302  0.705669  1
  F  F36  1  0.671597  0.827490  0.967705  1
  F  F37  1  0.803979  0.974622  0.641863  1
