# generated using pymatgen
data_KV6O14
_symmetry_space_group_name_H-M   'P 1'
_cell_length_a   10.55717454
_cell_length_b   8.75436440
_cell_length_c   7.24884863
_cell_angle_alpha   78.19989776
_cell_angle_beta   89.82605412
_cell_angle_gamma   103.90286161
_symmetry_Int_Tables_number   1
_chemical_formula_structural   KV6O14
_chemical_formula_sum   'K2 V12 O28'
_cell_volume   635.61838529
_cell_formula_units_Z   2
loop_
 _symmetry_equiv_pos_site_id
 _symmetry_equiv_pos_as_xyz
  1  'x, y, z'
loop_
 _atom_site_type_symbol
 _atom_site_label
 _atom_site_symmetry_multiplicity
 _atom_site_fract_x
 _atom_site_fract_y
 _atom_site_fract_z
 _atom_site_occupancy
  K  K0  1  0.593688  0.999436  0.002351  1
  K  K1  1  0.406312  0.000564  0.497649  1
  V  V2  1  0.897736  0.325273  0.666703  1
  V  V3  1  0.896574  0.317136  0.172586  1
  V  V4  1  0.864528  0.702801  0.573944  1
  V  V5  1  0.861869  0.686110  0.077614  1
  V  V6  1  0.580766  0.418814  0.143902  1
  V  V7  1  0.589584  0.429262  0.643134  1
  V  V8  1  0.419234  0.581186  0.356098  1
  V  V9  1  0.410416  0.570738  0.856866  1
  V  V10  1  0.138131  0.313890  0.422386  1
  V  V11  1  0.135472  0.297199  0.926056  1
  V  V12  1  0.103426  0.682864  0.327414  1
  V  V13  1  0.102264  0.674727  0.833297  1
  O  O14  1  0.950978  0.366615  0.900514  1
  O  O15  1  0.947857  0.380601  0.412225  1
  O  O16  1  0.790441  0.144182  0.212774  1
  O  O17  1  0.793049  0.151688  0.709554  1
  O  O18  1  0.930856  0.736821  0.826773  1
  O  O19  1  0.928131  0.732972  0.304830  1
  O  O20  1  0.774414  0.469088  0.634914  1
  O  O21  1  0.777825  0.476653  0.128967  1
  O  O22  1  0.743865  0.779154  0.053004  1
  O  O23  1  0.742201  0.787096  0.556076  1
  O  O24  1  0.536188  0.221876  0.191932  1
  O  O25  1  0.542857  0.233247  0.692631  1
  O  O26  1  0.578069  0.498497  0.869837  1
  O  O27  1  0.577755  0.494396  0.382593  1
  O  O28  1  0.421931  0.501503  0.630163  1
  O  O29  1  0.422245  0.505604  0.117407  1
  O  O30  1  0.463812  0.778124  0.308068  1
  O  O31  1  0.457143  0.766753  0.807369  1
  O  O32  1  0.256135  0.220846  0.446996  1
  O  O33  1  0.257799  0.212904  0.943924  1
  O  O34  1  0.222175  0.523347  0.371033  1
  O  O35  1  0.225586  0.530912  0.865086  1
  O  O36  1  0.071869  0.267028  0.195170  1
  O  O37  1  0.069144  0.263179  0.673227  1
  O  O38  1  0.206951  0.848312  0.790446  1
  O  O39  1  0.209559  0.855818  0.287226  1
  O  O40  1  0.052143  0.619399  0.087775  1
  O  O41  1  0.049022  0.633385  0.599486  1
