# generated using pymatgen
data_LiAgF2
_symmetry_space_group_name_H-M   'P 1'
_cell_length_a   5.70300161
_cell_length_b   6.38247575
_cell_length_c   6.71204240
_cell_angle_alpha   90.36057357
_cell_angle_beta   88.99157522
_cell_angle_gamma   116.21827713
_symmetry_Int_Tables_number   1
_chemical_formula_structural   LiAgF2
_chemical_formula_sum   'Li4 Ag4 F8'
_cell_volume   219.14361338
_cell_formula_units_Z   4
loop_
 _symmetry_equiv_pos_site_id
 _symmetry_equiv_pos_as_xyz
  1  'x, y, z'
loop_
 _atom_site_type_symbol
 _atom_site_label
 _atom_site_symmetry_multiplicity
 _atom_site_fract_x
 _atom_site_fract_y
 _atom_site_fract_z
 _atom_site_occupancy
  Li  Li0  1  0.056742  0.634836  0.858211  1
  Li  Li1  1  0.425331  0.365876  0.357967  1
  Li  Li2  1  0.574626  0.634112  0.642030  1
  Li  Li3  1  0.943296  0.365171  0.141780  1
  Ag  Ag4  1  0.198735  0.863036  0.443463  1
  Ag  Ag5  1  0.662759  0.863101  0.055487  1
  Ag  Ag6  1  0.337285  0.136889  0.944518  1
  Ag  Ag7  1  0.801300  0.136970  0.556530  1
  F  F8  1  0.112766  0.691989  0.132309  1
  F  F9  1  0.099868  0.190887  0.247676  1
  F  F10  1  0.390551  0.788576  0.747667  1
  F  F11  1  0.582463  0.692874  0.367357  1
  F  F12  1  0.417402  0.307121  0.632661  1
  F  F13  1  0.609518  0.211491  0.252358  1
  F  F14  1  0.900110  0.809054  0.752305  1
  F  F15  1  0.887246  0.308016  0.867681  1
