# generated using pymatgen
data_Fe4O7F
_symmetry_space_group_name_H-M   'P 1'
_cell_length_a   6.65326968
_cell_length_b   6.42923601
_cell_length_c   7.59038717
_cell_angle_alpha   64.94350894
_cell_angle_beta   63.73282697
_cell_angle_gamma   89.99999994
_symmetry_Int_Tables_number   1
_chemical_formula_structural   Fe4O7F
_chemical_formula_sum   'Fe8 O14 F2'
_cell_volume   256.63876137
_cell_formula_units_Z   2
loop_
 _symmetry_equiv_pos_site_id
 _symmetry_equiv_pos_as_xyz
  1  'x, y, z'
loop_
 _atom_site_type_symbol
 _atom_site_label
 _atom_site_symmetry_multiplicity
 _atom_site_fract_x
 _atom_site_fract_y
 _atom_site_fract_z
 _atom_site_occupancy
  Fe  Fe0  1  -0.000919  0.006170  0.987660  1
  Fe  Fe1  1  0.500919  0.493830  0.012340  1
  Fe  Fe2  1  0.250000  0.250000  0.500000  1
  Fe  Fe3  1  0.876163  0.374290  0.251420  1
  Fe  Fe4  1  0.399763  0.875228  0.249545  1
  Fe  Fe5  1  0.623837  0.125710  0.748580  1
  Fe  Fe6  1  0.100237  0.624772  0.750455  1
  Fe  Fe7  1  0.750000  0.750000  0.500000  1
  O  O8  1  0.997046  0.308048  0.998879  1
  O  O9  1  0.502954  0.191952  0.001121  1
  O  O10  1  0.997046  0.693073  0.998879  1
  O  O11  1  0.182994  0.372247  0.255505  1
  O  O12  1  0.562259  0.367731  0.264538  1
  O  O13  1  0.317006  0.127753  0.744495  1
  O  O14  1  0.750000  0.052733  0.500000  1
  O  O15  1  0.250000  0.562341  0.500000  1
  O  O16  1  0.502954  0.806927  0.001121  1
  O  O17  1  0.750000  0.447267  0.500000  1
  O  O18  1  0.250000  0.937659  0.500000  1
  O  O19  1  0.937741  0.132269  0.735462  1
  O  O20  1  0.695530  0.875086  0.249828  1
  O  O21  1  0.804470  0.624914  0.750172  1
  F  F22  1  0.082105  0.878167  0.243666  1
  F  F23  1  0.417895  0.621833  0.756334  1
