# generated using pymatgen
data_VPH6C2N3O7
_symmetry_space_group_name_H-M   'P 1'
_cell_length_a   6.27222779
_cell_length_b   8.30226957
_cell_length_c   9.16466638
_cell_angle_alpha   68.04486949
_cell_angle_beta   70.83432827
_cell_angle_gamma   78.51311487
_symmetry_Int_Tables_number   1
_chemical_formula_structural   VPH6C2N3O7
_chemical_formula_sum   'V2 P2 H12 C4 N6 O14'
_cell_volume   416.50131969
_cell_formula_units_Z   2
loop_
 _symmetry_equiv_pos_site_id
 _symmetry_equiv_pos_as_xyz
  1  'x, y, z'
loop_
 _atom_site_type_symbol
 _atom_site_label
 _atom_site_symmetry_multiplicity
 _atom_site_fract_x
 _atom_site_fract_y
 _atom_site_fract_z
 _atom_site_occupancy
  V  V0  1  0.663098  0.573557  0.153598  1
  V  V1  1  0.336902  0.426443  0.846402  1
  P  P2  1  0.172321  0.652385  0.091353  1
  P  P3  1  0.827679  0.347615  0.908647  1
  H  H4  1  0.702893  0.836025  0.708406  1
  H  H5  1  0.297107  0.163975  0.291594  1
  H  H6  1  0.935377  0.976495  0.207903  1
  H  H7  1  0.064623  0.023505  0.792097  1
  H  H8  1  0.970015  0.685411  0.375417  1
  H  H9  1  0.029985  0.314589  0.624583  1
  H  H10  1  0.655388  0.052639  0.590793  1
  H  H11  1  0.344612  0.947361  0.409207  1
  H  H12  1  0.892245  0.631238  0.588449  1
  H  H13  1  0.107755  0.368762  0.411551  1
  H  H14  1  0.778410  0.131249  0.300156  1
  H  H15  1  0.221590  0.868751  0.699844  1
  C  C16  1  0.525991  0.400350  0.521653  1
  C  C17  1  0.474009  0.599650  0.478347  1
  C  C18  1  0.829896  0.888605  0.459995  1
  C  C19  1  0.170104  0.111395  0.540005  1
  N  N20  1  0.721434  0.928775  0.596350  1
  N  N21  1  0.278566  0.071225  0.403650  1
  N  N22  1  0.922246  0.723871  0.475508  1
  N  N23  1  0.077754  0.276129  0.524492  1
  N  N24  1  0.850106  0.007232  0.312255  1
  N  N25  1  0.149894  0.992768  0.687745  1
  O  O26  1  0.613371  0.340909  0.405894  1
  O  O27  1  0.386629  0.659091  0.594106  1
  O  O28  1  0.350078  0.539007  0.186853  1
  O  O29  1  0.649922  0.460993  0.813147  1
  O  O30  1  0.944083  0.566487  0.204960  1
  O  O31  1  0.055917  0.433513  0.795040  1
  O  O32  1  0.231781  0.611330  0.926073  1
  O  O33  1  0.768219  0.388670  0.073927  1
  O  O34  1  0.475925  0.308905  0.673398  1
  O  O35  1  0.524075  0.691095  0.326602  1
  O  O36  1  0.693022  0.740740  0.989897  1
  O  O37  1  0.306978  0.259260  0.010103  1
  O  O38  1  0.158653  0.842328  0.060118  1
  O  O39  1  0.841347  0.157672  0.939882  1
