# generated using pymatgen
data_LiNi2OF3
_symmetry_space_group_name_H-M   'P 1'
_cell_length_a   7.98563424
_cell_length_b   7.98563424
_cell_length_c   5.87439921
_cell_angle_alpha   68.41935953
_cell_angle_beta   111.58064047
_cell_angle_gamma   115.40383600
_symmetry_Int_Tables_number   1
_chemical_formula_structural   LiNi2OF3
_chemical_formula_sum   'Li4 Ni8 O4 F12'
_cell_volume   304.67462397
_cell_formula_units_Z   4
loop_
 _symmetry_equiv_pos_site_id
 _symmetry_equiv_pos_as_xyz
  1  'x, y, z'
loop_
 _atom_site_type_symbol
 _atom_site_label
 _atom_site_symmetry_multiplicity
 _atom_site_fract_x
 _atom_site_fract_y
 _atom_site_fract_z
 _atom_site_occupancy
  Li  Li0  1  0.760838  0.531305  0.114767  1
  Li  Li1  1  0.031305  0.260838  0.385233  1
  Li  Li2  1  0.983912  0.742312  0.620800  1
  Li  Li3  1  0.242312  0.483912  0.879200  1
  Ni  Ni4  1  0.985967  0.988417  0.998775  1
  Ni  Ni5  1  0.380997  0.117140  0.389623  1
  Ni  Ni6  1  0.617140  0.880997  0.110377  1
  Ni  Ni7  1  0.233831  0.733831  0.250000  1
  Ni  Ni8  1  0.488417  0.485967  0.501225  1
  Ni  Ni9  1  0.769289  0.269289  0.750000  1
  Ni  Ni10  1  0.380997  0.117140  0.874233  1
  Ni  Ni11  1  0.617140  0.880997  0.625767  1
  O  O12  1  0.741973  0.783849  0.979062  1
  O  O13  1  0.283849  0.241973  0.520938  1
  O  O14  1  0.534461  0.034461  0.750000  1
  O  O15  1  0.468961  0.968961  0.250000  1
  F  F16  1  0.879175  0.129042  0.116414  1
  F  F17  1  0.005520  0.505520  0.250000  1
  F  F18  1  0.629042  0.379175  0.383586  1
  F  F19  1  0.374280  0.622013  0.137023  1
  F  F20  1  0.879175  0.129042  0.633720  1
  F  F21  1  0.720480  0.744647  0.487917  1
  F  F22  1  0.122013  0.874280  0.362977  1
  F  F23  1  0.374280  0.622013  0.615245  1
  F  F24  1  0.629042  0.379175  0.866280  1
  F  F25  1  0.998951  0.498951  0.750000  1
  F  F26  1  0.244647  0.220479  0.012083  1
  F  F27  1  0.122013  0.874280  0.884755  1
