# generated using pymatgen
data_Mn2V3Sb(PO4)6
_symmetry_space_group_name_H-M   'P 1'
_cell_length_a   8.72948481
_cell_length_b   8.69759869
_cell_length_c   8.69759884
_cell_angle_alpha   60.00000158
_cell_angle_beta   60.12075449
_cell_angle_gamma   60.12075692
_symmetry_Int_Tables_number   1
_chemical_formula_structural   Mn2V3Sb(PO4)6
_chemical_formula_sum   'Mn2 V3 Sb1 P6 O24'
_cell_volume   467.80260566
_cell_formula_units_Z   1
loop_
 _symmetry_equiv_pos_site_id
 _symmetry_equiv_pos_as_xyz
  1  'x, y, z'
loop_
 _atom_site_type_symbol
 _atom_site_label
 _atom_site_symmetry_multiplicity
 _atom_site_fract_x
 _atom_site_fract_y
 _atom_site_fract_z
 _atom_site_occupancy
  Mn  Mn0  1  0.016620  0.994460  0.994460  1
  Mn  Mn1  1  0.498343  0.500552  0.500552  1
  V  V2  1  0.067539  0.644153  0.644153  1
  V  V3  1  0.432792  0.855736  0.855736  1
  V  V4  1  0.928102  0.357300  0.357300  1
  Sb  Sb5  1  0.567387  0.144204  0.144204  1
  P  P6  1  0.245316  0.253127  0.545095  1
  P  P7  1  0.245316  0.956462  0.253127  1
  P  P8  1  0.245316  0.545095  0.956462  1
  P  P9  1  0.747254  0.461389  0.043258  1
  P  P10  1  0.747254  0.043258  0.748098  1
  P  P11  1  0.747254  0.748098  0.461389  1
  O  O12  1  0.074303  0.115964  0.308515  1
  O  O13  1  0.074303  0.501217  0.115964  1
  O  O14  1  0.074303  0.308515  0.501217  1
  O  O15  1  0.238236  0.087018  0.734034  1
  O  O16  1  0.433577  0.193089  0.384718  1
  O  O17  1  0.265002  0.413865  0.557324  1
  O  O18  1  0.238236  0.940711  0.087018  1
  O  O19  1  0.265002  0.763808  0.413865  1
  O  O20  1  0.569387  0.612245  0.007453  1
  O  O21  1  0.265002  0.557324  0.763808  1
  O  O22  1  0.760948  0.260789  0.059731  1
  O  O23  1  0.569387  0.007453  0.810914  1
  O  O24  1  0.433577  0.988616  0.193089  1
  O  O25  1  0.238236  0.734034  0.940711  1
  O  O26  1  0.734311  0.435841  0.238475  1
  O  O27  1  0.433577  0.384718  0.988616  1
  O  O28  1  0.734311  0.238475  0.591372  1
  O  O29  1  0.760948  0.059731  0.918532  1
  O  O30  1  0.734311  0.591372  0.435841  1
  O  O31  1  0.569387  0.810914  0.612245  1
  O  O32  1  0.760948  0.918532  0.260789  1
  O  O33  1  0.928072  0.697577  0.488812  1
  O  O34  1  0.928072  0.488812  0.885540  1
  O  O35  1  0.928072  0.885540  0.697577  1
