# generated using pymatgen
data_Li2SnBPO7
_symmetry_space_group_name_H-M   'P 1'
_cell_length_a   9.11691879
_cell_length_b   6.50707399
_cell_length_c   5.17801593
_cell_angle_alpha   90.00000000
_cell_angle_beta   87.36525526
_cell_angle_gamma   90.00000000
_symmetry_Int_Tables_number   1
_chemical_formula_structural   Li2SnBPO7
_chemical_formula_sum   'Li4 Sn2 B2 P2 O14'
_cell_volume   306.85829536
_cell_formula_units_Z   2
loop_
 _symmetry_equiv_pos_site_id
 _symmetry_equiv_pos_as_xyz
  1  'x, y, z'
loop_
 _atom_site_type_symbol
 _atom_site_label
 _atom_site_symmetry_multiplicity
 _atom_site_fract_x
 _atom_site_fract_y
 _atom_site_fract_z
 _atom_site_occupancy
  Li  Li0  1  0.158599  0.527922  0.241664  1
  Li  Li1  1  0.158599  0.972078  0.241664  1
  Li  Li2  1  0.841401  0.472078  0.758336  1
  Li  Li3  1  0.841401  0.027922  0.758336  1
  Sn  Sn4  1  0.337446  0.750000  0.777282  1
  Sn  Sn5  1  0.662554  0.250000  0.222718  1
  B  B6  1  0.057594  0.750000  0.733502  1
  B  B7  1  0.942406  0.250000  0.266498  1
  P  P8  1  0.429695  0.250000  0.724735  1
  P  P9  1  0.570305  0.750000  0.275265  1
  O  O10  1  0.086206  0.250000  0.290997  1
  O  O11  1  0.130766  0.750000  0.972240  1
  O  O12  1  0.166645  0.750000  0.521569  1
  O  O13  1  0.333755  0.064293  0.807065  1
  O  O14  1  0.333755  0.435707  0.807065  1
  O  O15  1  0.419436  0.750000  0.149100  1
  O  O16  1  0.462699  0.250000  0.425890  1
  O  O17  1  0.537301  0.750000  0.574110  1
  O  O18  1  0.580564  0.250000  0.850900  1
  O  O19  1  0.666245  0.564293  0.192935  1
  O  O20  1  0.666245  0.935707  0.192935  1
  O  O21  1  0.833355  0.250000  0.478431  1
  O  O22  1  0.869234  0.250000  0.027760  1
  O  O23  1  0.913794  0.750000  0.709003  1
