# generated using pymatgen
data_Ba2SrI6
_symmetry_space_group_name_H-M   'P 1'
_cell_length_a   14.59259047
_cell_length_b   14.58866549
_cell_length_c   7.87813804
_cell_angle_alpha   90.02718831
_cell_angle_beta   90.00000000
_cell_angle_gamma   120.00889802
_symmetry_Int_Tables_number   1
_chemical_formula_structural   Ba2SrI6
_chemical_formula_sum   'Ba6 Sr3 I18'
_cell_volume   1452.32283776
_cell_formula_units_Z   3
loop_
 _symmetry_equiv_pos_site_id
 _symmetry_equiv_pos_as_xyz
  1  'x, y, z'
loop_
 _atom_site_type_symbol
 _atom_site_label
 _atom_site_symmetry_multiplicity
 _atom_site_fract_x
 _atom_site_fract_y
 _atom_site_fract_z
 _atom_site_occupancy
  Ba  Ba0  1  0.999983  0.638844  0.000082  1
  Ba  Ba1  1  0.999980  0.305106  0.500226  1
  Ba  Ba2  1  0.361139  0.361156  0.999918  1
  Ba  Ba3  1  0.305044  0.000000  0.500000  1
  Ba  Ba4  1  0.694874  0.694894  0.499774  1
  Ba  Ba5  1  0.638906  0.000000  0.000000  1
  Sr  Sr6  1  0.333347  0.666650  0.494789  1
  Sr  Sr7  1  0.000035  0.000000  0.000000  1
  Sr  Sr8  1  0.666698  0.333350  0.505211  1
  I  I9  1  0.084792  0.870499  0.761749  1
  I  I10  1  0.228318  0.775246  0.251718  1
  I  I11  1  0.122354  0.537473  0.740845  1
  I  I12  1  0.415167  0.877843  0.740661  1
  I  I13  1  0.224600  0.452977  0.251618  1
  I  I14  1  0.129373  0.214206  0.761689  1
  I  I15  1  0.546850  0.771674  0.251383  1
  I  I16  1  0.214292  0.129501  0.238251  1
  I  I17  1  0.462619  0.584904  0.740662  1
  I  I18  1  0.785871  0.915171  0.761611  1
  I  I19  1  0.453072  0.224754  0.748282  1
  I  I20  1  0.584881  0.462527  0.259155  1
  I  I21  1  0.537325  0.122157  0.259339  1
  I  I22  1  0.771624  0.547023  0.748382  1
  I  I23  1  0.915167  0.785794  0.238311  1
  I  I24  1  0.775176  0.228326  0.748617  1
  I  I25  1  0.877714  0.415096  0.259338  1
  I  I26  1  0.870700  0.084829  0.238389  1
