# generated using pymatgen
data_FeOF
_symmetry_space_group_name_H-M   'P 1'
_cell_length_a   14.26940974
_cell_length_b   9.59339097
_cell_length_c   3.09183512
_cell_angle_alpha   90.00000000
_cell_angle_beta   90.00000000
_cell_angle_gamma   90.62845915
_symmetry_Int_Tables_number   1
_chemical_formula_structural   FeOF
_chemical_formula_sum   'Fe12 O12 F12'
_cell_volume   423.22211460
_cell_formula_units_Z   12
loop_
 _symmetry_equiv_pos_site_id
 _symmetry_equiv_pos_as_xyz
  1  'x, y, z'
loop_
 _atom_site_type_symbol
 _atom_site_label
 _atom_site_symmetry_multiplicity
 _atom_site_fract_x
 _atom_site_fract_y
 _atom_site_fract_z
 _atom_site_occupancy
  Fe  Fe0  1  0.013821  0.998442  0.000000  1
  Fe  Fe1  1  0.006854  0.500997  0.000000  1
  Fe  Fe2  1  0.150269  0.253247  0.500000  1
  Fe  Fe3  1  0.172509  0.780607  0.500000  1
  Fe  Fe4  1  0.340690  0.994389  0.000000  1
  Fe  Fe5  1  0.342902  0.499864  0.000000  1
  Fe  Fe6  1  0.482458  0.750070  0.500000  1
  Fe  Fe7  1  0.478472  0.251331  0.500000  1
  Fe  Fe8  1  0.671007  0.003934  0.000000  1
  Fe  Fe9  1  0.679226  0.498038  0.000000  1
  Fe  Fe10  1  0.818838  0.246013  0.500000  1
  Fe  Fe11  1  0.841214  0.716229  0.500000  1
  O  O12  1  0.065408  0.406374  0.500000  1
  O  O13  1  0.062664  0.901733  0.500000  1
  O  O14  1  0.099678  0.155690  0.000000  1
  O  O15  1  0.235955  0.855767  0.000000  1
  O  O16  1  0.395107  0.407088  0.500000  1
  O  O17  1  0.402509  0.908101  0.500000  1
  O  O18  1  0.434215  0.152192  0.000000  1
  O  O19  1  0.435055  0.653781  0.000000  1
  O  O20  1  0.730966  0.398733  0.500000  1
  O  O21  1  0.763813  0.144657  0.000000  1
  O  O22  1  0.768501  0.652931  0.000000  1
  O  O23  1  0.941699  0.591705  0.500000  1
  F  F24  1  0.109656  0.658711  0.000000  1
  F  F25  1  0.230890  0.352451  0.000000  1
  F  F26  1  0.268752  0.104301  0.500000  1
  F  F27  1  0.267335  0.597707  0.500000  1
  F  F28  1  0.564188  0.345218  0.000000  1
  F  F29  1  0.571010  0.850838  0.000000  1
  F  F30  1  0.601211  0.091184  0.500000  1
  F  F31  1  0.602774  0.595087  0.500000  1
  F  F32  1  0.728681  0.902452  0.500000  1
  F  F33  1  0.894720  0.335890  0.000000  1
  F  F34  1  0.895768  0.848419  0.000000  1
  F  F35  1  0.931185  0.095826  0.500000  1
