# generated using pymatgen
data_Li5Mn8(BO3)8
_symmetry_space_group_name_H-M   'P 1'
_cell_length_a   5.27627916
_cell_length_b   9.12995077
_cell_length_c   11.43078082
_cell_angle_alpha   67.31406754
_cell_angle_beta   77.44613054
_cell_angle_gamma   88.71000006
_symmetry_Int_Tables_number   1
_chemical_formula_structural   Li5Mn8(BO3)8
_chemical_formula_sum   'Li5 Mn8 B8 O24'
_cell_volume   494.74655693
_cell_formula_units_Z   1
loop_
 _symmetry_equiv_pos_site_id
 _symmetry_equiv_pos_as_xyz
  1  'x, y, z'
loop_
 _atom_site_type_symbol
 _atom_site_label
 _atom_site_symmetry_multiplicity
 _atom_site_fract_x
 _atom_site_fract_y
 _atom_site_fract_z
 _atom_site_occupancy
  Li  Li0  1  0.288449  0.252377  0.326818  1
  Li  Li1  1  0.538762  0.545239  0.070341  1
  Li  Li2  1  0.759655  0.738692  0.349202  1
  Li  Li3  1  0.774195  0.768263  0.611211  1
  Li  Li4  1  0.976875  0.008298  0.842520  1
  Mn  Mn5  1  0.029334  0.336912  0.115262  1
  Mn  Mn6  1  0.023142  0.652652  0.869218  1
  Mn  Mn7  1  0.255752  0.562159  0.372270  1
  Mn  Mn8  1  0.254633  0.962619  0.614349  1
  Mn  Mn9  1  0.520848  0.863058  0.121458  1
  Mn  Mn10  1  0.468549  0.167345  0.866511  1
  Mn  Mn11  1  0.740173  0.061771  0.372026  1
  Mn  Mn12  1  0.777891  0.423007  0.619161  1
  B  B13  1  0.030682  0.674171  0.126171  1
  B  B14  1  0.224484  0.892398  0.380555  1
  B  B15  1  0.264440  0.611660  0.625864  1
  B  B16  1  0.545141  0.196784  0.114874  1
  B  B17  1  0.486295  0.821184  0.874786  1
  B  B18  1  0.750980  0.384939  0.373005  1
  B  B19  1  0.738587  0.104379  0.637076  1
  B  B20  1  0.968242  0.316224  0.862835  1
  O  O21  1  0.982258  0.104548  0.655648  1
  O  O22  1  0.276021  0.654861  0.154624  1
  O  O23  1  0.132386  0.524425  0.578525  1
  O  O24  1  0.110299  0.713139  0.678809  1
  O  O25  1  0.411911  0.322097  0.128299  1
  O  O26  1  0.460749  0.108200  0.051894  1
  O  O27  1  0.043860  0.422093  0.910495  1
  O  O28  1  0.091691  0.181419  0.874590  1
  O  O29  1  0.326848  0.013173  0.408372  1
  O  O30  1  0.394859  0.800863  0.330751  1
  O  O31  1  0.237954  0.844466  0.843418  1
  O  O32  1  0.498118  0.385465  0.366584  1
  O  O33  1  0.524613  0.610201  0.614731  1
  O  O34  1  0.760129  0.149001  0.166667  1
  O  O35  1  0.565089  0.213278  0.671070  1
  O  O36  1  0.650355  0.005477  0.585509  1
  O  O37  1  0.857865  0.765154  0.166465  1
  O  O38  1  0.953754  0.583700  0.059345  1
  O  O39  1  0.587626  0.937593  0.907244  1
  O  O40  1  0.620822  0.692280  0.876191  1
  O  O41  1  0.849721  0.481219  0.427991  1
  O  O42  1  0.924909  0.292310  0.326157  1
  O  O43  1  0.747438  0.348116  0.808509  1
  O  O44  1  0.959066  0.863626  0.406316  1
