# generated using pymatgen
data_Li3NbHO2F7
_symmetry_space_group_name_H-M   'P 1'
_cell_length_a   6.56382034
_cell_length_b   14.25184531
_cell_length_c   13.00190049
_cell_angle_alpha   90.00000000
_cell_angle_beta   90.00000000
_cell_angle_gamma   90.00000000
_symmetry_Int_Tables_number   1
_chemical_formula_structural   Li3NbHO2F7
_chemical_formula_sum   'Li24 Nb8 H8 O16 F56'
_cell_volume   1216.28296195
_cell_formula_units_Z   8
loop_
 _symmetry_equiv_pos_site_id
 _symmetry_equiv_pos_as_xyz
  1  'x, y, z'
loop_
 _atom_site_type_symbol
 _atom_site_label
 _atom_site_symmetry_multiplicity
 _atom_site_fract_x
 _atom_site_fract_y
 _atom_site_fract_z
 _atom_site_occupancy
  Li  Li0  1  0.202779  0.266915  0.345364  1
  Li  Li1  1  0.202779  0.733085  0.845364  1
  Li  Li2  1  0.231315  0.995881  0.366543  1
  Li  Li3  1  0.231315  0.004119  0.866543  1
  Li  Li4  1  0.230844  0.119176  0.562698  1
  Li  Li5  1  0.230844  0.880824  0.062698  1
  Li  Li6  1  0.269156  0.380824  0.062698  1
  Li  Li7  1  0.269156  0.619176  0.562698  1
  Li  Li8  1  0.268685  0.495881  0.366543  1
  Li  Li9  1  0.268685  0.504119  0.866543  1
  Li  Li10  1  0.297221  0.233085  0.845364  1
  Li  Li11  1  0.297221  0.766915  0.345364  1
  Li  Li12  1  0.702779  0.233085  0.654636  1
  Li  Li13  1  0.702779  0.766915  0.154636  1
  Li  Li14  1  0.731315  0.495881  0.133457  1
  Li  Li15  1  0.731315  0.504119  0.633457  1
  Li  Li16  1  0.730844  0.380824  0.437302  1
  Li  Li17  1  0.730844  0.619176  0.937302  1
  Li  Li18  1  0.769156  0.880824  0.437302  1
  Li  Li19  1  0.769156  0.119176  0.937302  1
  Li  Li20  1  0.768685  0.995881  0.133457  1
  Li  Li21  1  0.768685  0.004119  0.633457  1
  Li  Li22  1  0.797221  0.266915  0.154636  1
  Li  Li23  1  0.797221  0.733085  0.654636  1
  Nb  Nb24  1  0.241773  0.368458  0.608813  1
  Nb  Nb25  1  0.241773  0.631542  0.108813  1
  Nb  Nb26  1  0.258227  0.131542  0.108813  1
  Nb  Nb27  1  0.258227  0.868458  0.608813  1
  Nb  Nb28  1  0.741773  0.131542  0.391187  1
  Nb  Nb29  1  0.741773  0.868458  0.891187  1
  Nb  Nb30  1  0.758227  0.368458  0.891187  1
  Nb  Nb31  1  0.758227  0.631542  0.391187  1
  H  H32  1  0.000000  0.401360  0.250000  1
  H  H33  1  0.000000  0.116470  0.750000  1
  H  H34  1  0.000000  0.883530  0.250000  1
  H  H35  1  0.000000  0.598640  0.750000  1
  H  H36  1  0.500000  0.616470  0.750000  1
  H  H37  1  0.500000  0.098640  0.750000  1
  H  H38  1  0.500000  0.901360  0.250000  1
  H  H39  1  0.500000  0.383530  0.250000  1
  O  O40  1  0.029038  0.676784  0.353271  1
  O  O41  1  0.029038  0.323216  0.853271  1
  O  O42  1  0.043664  0.598834  0.426153  1
  O  O43  1  0.043664  0.401166  0.926153  1
  O  O44  1  0.456336  0.098834  0.426153  1
  O  O45  1  0.456336  0.901166  0.926153  1
  O  O46  1  0.470962  0.176784  0.353271  1
  O  O47  1  0.470962  0.823216  0.853271  1
  O  O48  1  0.529038  0.176784  0.146729  1
  O  O49  1  0.529038  0.823216  0.646729  1
  O  O50  1  0.543664  0.098834  0.073847  1
  O  O51  1  0.543664  0.901166  0.573847  1
  O  O52  1  0.956336  0.401166  0.573847  1
  O  O53  1  0.956336  0.598834  0.073847  1
  O  O54  1  0.970962  0.323216  0.646729  1
  O  O55  1  0.970962  0.676784  0.146729  1
  F  F56  1  0.039344  0.399800  0.336810  1
  F  F57  1  0.039344  0.600200  0.836810  1
  F  F58  1  0.021834  0.115623  0.838288  1
  F  F59  1  0.021834  0.884377  0.338288  1
  F  F60  1  0.051563  0.132290  0.407513  1
  F  F61  1  0.051563  0.867710  0.907513  1
  F  F62  1  0.182140  0.242144  0.198003  1
  F  F63  1  0.182140  0.757856  0.698003  1
  F  F64  1  0.213231  0.017431  0.017706  1
  F  F65  1  0.213231  0.982569  0.517706  1
  F  F66  1  0.222293  0.046286  0.225173  1
  F  F67  1  0.222293  0.953714  0.725173  1
  F  F68  1  0.247087  0.222503  0.993807  1
  F  F69  1  0.247087  0.777497  0.493807  1
  F  F70  1  0.252913  0.277497  0.493807  1
  F  F71  1  0.252913  0.722503  0.993807  1
  F  F72  1  0.277707  0.453714  0.725173  1
  F  F73  1  0.277707  0.546286  0.225173  1
  F  F74  1  0.286769  0.517431  0.017706  1
  F  F75  1  0.286769  0.482569  0.517706  1
  F  F76  1  0.317860  0.257856  0.698003  1
  F  F77  1  0.317860  0.742144  0.198003  1
  F  F78  1  0.448437  0.632290  0.407513  1
  F  F79  1  0.448437  0.367710  0.907513  1
  F  F80  1  0.478166  0.615623  0.838288  1
  F  F81  1  0.478166  0.384377  0.338288  1
  F  F82  1  0.460657  0.100200  0.836810  1
  F  F83  1  0.460657  0.899800  0.336810  1
  F  F84  1  0.539343  0.100200  0.663190  1
  F  F85  1  0.539343  0.899800  0.163190  1
  F  F86  1  0.521834  0.615623  0.661712  1
  F  F87  1  0.521834  0.384377  0.161712  1
  F  F88  1  0.551563  0.632290  0.092487  1
  F  F89  1  0.551563  0.367710  0.592487  1
  F  F90  1  0.682140  0.257856  0.801997  1
  F  F91  1  0.682140  0.742144  0.301997  1
  F  F92  1  0.713231  0.482569  0.982294  1
  F  F93  1  0.713231  0.517431  0.482294  1
  F  F94  1  0.722293  0.453714  0.774827  1
  F  F95  1  0.722293  0.546286  0.274827  1
  F  F96  1  0.747087  0.722503  0.506193  1
  F  F97  1  0.747087  0.277497  0.006193  1
  F  F98  1  0.752913  0.222503  0.506193  1
  F  F99  1  0.752913  0.777497  0.006193  1
  F  F100  1  0.777707  0.046286  0.274827  1
  F  F101  1  0.777707  0.953714  0.774827  1
  F  F102  1  0.786769  0.017431  0.482294  1
  F  F103  1  0.786769  0.982569  0.982294  1
  F  F104  1  0.817860  0.242144  0.301997  1
  F  F105  1  0.817860  0.757856  0.801997  1
  F  F106  1  0.948437  0.132290  0.092487  1
  F  F107  1  0.948437  0.867710  0.592487  1
  F  F108  1  0.978166  0.115623  0.661712  1
  F  F109  1  0.978166  0.884377  0.161712  1
  F  F110  1  0.960657  0.399800  0.163190  1
  F  F111  1  0.960657  0.600200  0.663190  1
