# generated using pymatgen
data_MgP2(H8O5)2
_symmetry_space_group_name_H-M   'P 1'
_cell_length_a   7.30348911
_cell_length_b   7.30348911
_cell_length_c   10.54835038
_cell_angle_alpha   90.00000000
_cell_angle_beta   90.00000000
_cell_angle_gamma   90.00000000
_symmetry_Int_Tables_number   1
_chemical_formula_structural   MgP2(H8O5)2
_chemical_formula_sum   'Mg2 P4 H32 O20'
_cell_volume   562.65906374
_cell_formula_units_Z   2
loop_
 _symmetry_equiv_pos_site_id
 _symmetry_equiv_pos_as_xyz
  1  'x, y, z'
loop_
 _atom_site_type_symbol
 _atom_site_label
 _atom_site_symmetry_multiplicity
 _atom_site_fract_x
 _atom_site_fract_y
 _atom_site_fract_z
 _atom_site_occupancy
  Mg  Mg0  1  0.250000  0.750000  0.250000  1
  Mg  Mg1  1  0.750000  0.250000  0.750000  1
  P  P2  1  0.250000  0.250000  0.011362  1
  P  P3  1  0.250000  0.250000  0.511362  1
  P  P4  1  0.750000  0.750000  0.488638  1
  P  P5  1  0.750000  0.750000  0.988638  1
  H  H6  1  0.061622  0.046334  0.693910  1
  H  H7  1  0.061622  0.453666  0.693910  1
  H  H8  1  0.046334  0.061622  0.193910  1
  H  H9  1  0.046334  0.438378  0.193910  1
  H  H10  1  0.097177  0.250000  0.429029  1
  H  H11  1  0.138671  0.750000  -0.000088  1
  H  H12  1  0.250000  0.638671  0.500088  1
  H  H13  1  0.250000  0.861329  0.500088  1
  H  H14  1  0.250000  0.097177  0.929029  1
  H  H15  1  0.250000  0.402823  0.929029  1
  H  H16  1  0.361329  0.750000  -0.000088  1
  H  H17  1  0.402823  0.250000  0.429029  1
  H  H18  1  0.453666  0.438378  0.193910  1
  H  H19  1  0.453666  0.061622  0.193910  1
  H  H20  1  0.438378  0.046334  0.693910  1
  H  H21  1  0.438378  0.453666  0.693910  1
  H  H22  1  0.561622  0.953666  0.306090  1
  H  H23  1  0.561622  0.546334  0.306090  1
  H  H24  1  0.546334  0.938378  0.806090  1
  H  H25  1  0.546334  0.561622  0.806090  1
  H  H26  1  0.597177  0.750000  0.570971  1
  H  H27  1  0.638671  0.250000  0.000088  1
  H  H28  1  0.750000  0.138671  0.499912  1
  H  H29  1  0.750000  0.361329  0.499912  1
  H  H30  1  0.750000  0.597177  0.070971  1
  H  H31  1  0.750000  0.902823  0.070971  1
  H  H32  1  0.861329  0.250000  0.000088  1
  H  H33  1  0.902823  0.750000  0.570971  1
  H  H34  1  0.953666  0.938378  0.806090  1
  H  H35  1  0.953666  0.561622  0.806090  1
  H  H36  1  0.938378  0.953666  0.306090  1
  H  H37  1  0.938378  0.546334  0.306090  1
  O  O38  1  0.047366  0.547366  0.250000  1
  O  O39  1  0.047366  0.952634  0.250000  1
  O  O40  1  0.071269  0.250000  0.088160  1
  O  O41  1  0.250000  0.750000  0.053673  1
  O  O42  1  0.250000  0.750000  0.446327  1
  O  O43  1  0.250000  0.071269  0.588160  1
  O  O44  1  0.250000  0.428731  0.588160  1
  O  O45  1  0.428731  0.250000  0.088160  1
  O  O46  1  0.452634  0.547366  0.250000  1
  O  O47  1  0.452634  0.952634  0.250000  1
  O  O48  1  0.547366  0.047366  0.750000  1
  O  O49  1  0.547366  0.452634  0.750000  1
  O  O50  1  0.571269  0.750000  0.911840  1
  O  O51  1  0.750000  0.250000  0.553673  1
  O  O52  1  0.750000  0.571269  0.411840  1
  O  O53  1  0.750000  0.928731  0.411840  1
  O  O54  1  0.750000  0.250000  0.946327  1
  O  O55  1  0.928731  0.750000  0.911840  1
  O  O56  1  0.952634  0.047366  0.750000  1
  O  O57  1  0.952634  0.452634  0.750000  1
