# generated using pymatgen
data_Co2O3F
_symmetry_space_group_name_H-M   'P 1'
_cell_length_a   4.37610493
_cell_length_b   4.37610493
_cell_length_c   14.75506411
_cell_angle_alpha   90.00000000
_cell_angle_beta   90.00000000
_cell_angle_gamma   92.53426037
_symmetry_Int_Tables_number   1
_chemical_formula_structural   Co2O3F
_chemical_formula_sum   'Co10 O15 F5'
_cell_volume   282.28746263
_cell_formula_units_Z   5
loop_
 _symmetry_equiv_pos_site_id
 _symmetry_equiv_pos_as_xyz
  1  'x, y, z'
loop_
 _atom_site_type_symbol
 _atom_site_label
 _atom_site_symmetry_multiplicity
 _atom_site_fract_x
 _atom_site_fract_y
 _atom_site_fract_z
 _atom_site_occupancy
  Co  Co0  1  0.001473  0.998527  0.999779  1
  Co  Co1  1  0.001174  0.998826  0.200016  1
  Co  Co2  1  0.001174  0.998826  0.399984  1
  Co  Co3  1  0.001473  0.998527  0.600221  1
  Co  Co4  1  0.012054  0.987946  0.800000  1
  Co  Co5  1  0.526792  0.473208  0.099840  1
  Co  Co6  1  0.526792  0.473208  0.500160  1
  Co  Co7  1  0.475668  0.524332  0.300000  1
  Co  Co8  1  0.477568  0.522432  0.900119  1
  Co  Co9  1  0.477568  0.522432  0.699881  1
  O  O10  1  0.192160  0.807840  0.300000  1
  O  O11  1  0.195590  0.804410  0.699140  1
  O  O12  1  0.195590  0.804410  0.900860  1
  O  O13  1  0.310446  0.302787  0.999838  1
  O  O14  1  0.306370  0.305361  0.199962  1
  O  O15  1  0.310446  0.302787  0.600162  1
  O  O16  1  0.294280  0.314535  0.800000  1
  O  O17  1  0.306370  0.305361  0.400038  1
  O  O18  1  0.697213  0.689554  0.999838  1
  O  O19  1  0.694639  0.693630  0.199962  1
  O  O20  1  0.694639  0.693630  0.400038  1
  O  O21  1  0.697213  0.689554  0.600162  1
  O  O22  1  0.685465  0.705720  0.800000  1
  O  O23  1  0.809408  0.190592  0.099920  1
  O  O24  1  0.809408  0.190592  0.500080  1
  F  F25  1  0.220269  0.779731  0.099508  1
  F  F26  1  0.220269  0.779731  0.500492  1
  F  F27  1  0.781450  0.218549  0.300000  1
  F  F28  1  0.788519  0.211481  0.897209  1
  F  F29  1  0.788519  0.211481  0.702791  1
