# generated using pymatgen
data_Na6B4Sb2SO16
_symmetry_space_group_name_H-M   'P 1'
_cell_length_a   10.13884206
_cell_length_b   10.13884212
_cell_length_c   10.13884231
_cell_angle_alpha   60.00000266
_cell_angle_beta   60.00000080
_cell_angle_gamma   60.00000020
_symmetry_Int_Tables_number   1
_chemical_formula_structural   Na6B4Sb2SO16
_chemical_formula_sum   'Na12 B8 Sb4 S2 O32'
_cell_volume   736.97049457
_cell_formula_units_Z   2
loop_
 _symmetry_equiv_pos_site_id
 _symmetry_equiv_pos_as_xyz
  1  'x, y, z'
loop_
 _atom_site_type_symbol
 _atom_site_label
 _atom_site_symmetry_multiplicity
 _atom_site_fract_x
 _atom_site_fract_y
 _atom_site_fract_z
 _atom_site_occupancy
  Na  Na0  1  0.086907  0.663093  0.086907  1
  Na  Na1  1  0.086907  0.086907  0.663093  1
  Na  Na2  1  0.086907  0.663093  0.663093  1
  Na  Na3  1  0.663093  0.086907  0.086907  1
  Na  Na4  1  0.336907  0.336907  0.913093  1
  Na  Na5  1  0.336907  0.913093  0.336907  1
  Na  Na6  1  0.663093  0.663093  0.086907  1
  Na  Na7  1  0.663093  0.086907  0.663093  1
  Na  Na8  1  0.913093  0.336907  0.336907  1
  Na  Na9  1  0.336907  0.913093  0.913093  1
  Na  Na10  1  0.913093  0.336907  0.913093  1
  Na  Na11  1  0.913093  0.913093  0.336907  1
  B  B12  1  0.281748  0.281748  0.281748  1
  B  B13  1  0.281748  0.281748  0.654754  1
  B  B14  1  0.281748  0.654754  0.281748  1
  B  B15  1  0.654754  0.281748  0.281748  1
  B  B16  1  0.345246  0.718252  0.718252  1
  B  B17  1  0.718252  0.345246  0.718252  1
  B  B18  1  0.718252  0.718252  0.345246  1
  B  B19  1  0.718252  0.718252  0.718252  1
  Sb  Sb20  1  0.000000  0.500000  0.500000  1
  Sb  Sb21  1  0.500000  0.500000  0.000000  1
  Sb  Sb22  1  0.500000  0.000000  0.500000  1
  Sb  Sb23  1  0.500000  0.500000  0.500000  1
  S  S24  1  0.125000  0.125000  0.125000  1
  S  S25  1  0.875000  0.875000  0.875000  1
  O  O26  1  0.064716  0.064716  0.064716  1
  O  O27  1  0.064716  0.305852  0.064716  1
  O  O28  1  0.064716  0.064716  0.305852  1
  O  O29  1  0.305852  0.064716  0.064716  1
  O  O30  1  0.133641  0.405196  0.303048  1
  O  O31  1  0.303048  0.133641  0.405196  1
  O  O32  1  0.133641  0.303048  0.658117  1
  O  O33  1  0.405196  0.303048  0.133641  1
  O  O34  1  0.133641  0.658117  0.405196  1
  O  O35  1  0.303048  0.658117  0.133641  1
  O  O36  1  0.405196  0.133641  0.658117  1
  O  O37  1  0.303048  0.405196  0.658117  1
  O  O38  1  0.658117  0.133641  0.303048  1
  O  O39  1  0.405196  0.658117  0.303048  1
  O  O40  1  0.658117  0.405196  0.133641  1
  O  O41  1  0.341883  0.696952  0.594804  1
  O  O42  1  0.658117  0.303048  0.405196  1
  O  O43  1  0.341883  0.594804  0.866359  1
  O  O44  1  0.594804  0.341883  0.696952  1
  O  O45  1  0.341883  0.866359  0.696952  1
  O  O46  1  0.696952  0.594804  0.341883  1
  O  O47  1  0.594804  0.866359  0.341883  1
  O  O48  1  0.696952  0.341883  0.866359  1
  O  O49  1  0.866359  0.341883  0.594804  1
  O  O50  1  0.594804  0.696952  0.866359  1
  O  O51  1  0.866359  0.696952  0.341883  1
  O  O52  1  0.696952  0.866359  0.594804  1
  O  O53  1  0.866359  0.594804  0.696952  1
  O  O54  1  0.694148  0.935284  0.935284  1
  O  O55  1  0.935284  0.694148  0.935284  1
  O  O56  1  0.935284  0.935284  0.694148  1
  O  O57  1  0.935284  0.935284  0.935284  1
