# generated using pymatgen
data_FeOF
_symmetry_space_group_name_H-M   'P 1'
_cell_length_a   14.22939418
_cell_length_b   14.29474080
_cell_length_c   3.10311876
_cell_angle_alpha   90.00000000
_cell_angle_beta   90.00000000
_cell_angle_gamma   90.25543994
_symmetry_Int_Tables_number   1
_chemical_formula_structural   FeOF
_chemical_formula_sum   'Fe18 O18 F18'
_cell_volume   631.18515489
_cell_formula_units_Z   18
loop_
 _symmetry_equiv_pos_site_id
 _symmetry_equiv_pos_as_xyz
  1  'x, y, z'
loop_
 _atom_site_type_symbol
 _atom_site_label
 _atom_site_symmetry_multiplicity
 _atom_site_fract_x
 _atom_site_fract_y
 _atom_site_fract_z
 _atom_site_occupancy
  Fe  Fe0  1  0.014876  0.999592  0.000000  1
  Fe  Fe1  1  0.003025  0.333335  0.000000  1
  Fe  Fe2  1  0.013909  0.664469  0.000000  1
  Fe  Fe3  1  0.172172  0.146828  0.500000  1
  Fe  Fe4  1  0.152526  0.495855  0.500000  1
  Fe  Fe5  1  0.154129  0.831864  0.500000  1
  Fe  Fe6  1  0.339292  0.003407  0.000000  1
  Fe  Fe7  1  0.345681  0.330370  0.000000  1
  Fe  Fe8  1  0.346130  0.664976  0.000000  1
  Fe  Fe9  1  0.485753  0.498056  0.500000  1
  Fe  Fe10  1  0.484915  0.164294  0.500000  1
  Fe  Fe11  1  0.479681  0.834686  0.500000  1
  Fe  Fe12  1  0.674678  0.993582  0.000000  1
  Fe  Fe13  1  0.678506  0.330040  0.000000  1
  Fe  Fe14  1  0.676160  0.667019  0.000000  1
  Fe  Fe15  1  0.840072  0.183554  0.500000  1
  Fe  Fe16  1  0.816255  0.501079  0.500000  1
  Fe  Fe17  1  0.821869  0.831026  0.500000  1
  O  O18  1  0.064173  0.599538  0.500000  1
  O  O19  1  0.064666  0.935882  0.500000  1
  O  O20  1  0.100177  0.104641  0.000000  1
  O  O21  1  0.098261  0.430140  0.000000  1
  O  O22  1  0.100699  0.768267  0.000000  1
  O  O23  1  0.271643  0.062808  0.500000  1
  O  O24  1  0.396821  0.269002  0.500000  1
  O  O25  1  0.397178  0.601469  0.500000  1
  O  O26  1  0.397731  0.936561  0.500000  1
  O  O27  1  0.440315  0.101303  0.000000  1
  O  O28  1  0.435056  0.434909  0.000000  1
  O  O29  1  0.432558  0.768843  0.000000  1
  O  O30  1  0.731555  0.266108  0.500000  1
  O  O31  1  0.729479  0.604033  0.500000  1
  O  O32  1  0.733594  0.938828  0.500000  1
  O  O33  1  0.768358  0.434898  0.000000  1
  O  O34  1  0.767629  0.770260  0.000000  1
  O  O35  1  0.905245  0.236858  0.000000  1
  F  F36  1  0.068125  0.269438  0.500000  1
  F  F37  1  0.230575  0.235133  0.000000  1
  F  F38  1  0.229443  0.562967  0.000000  1
  F  F39  1  0.230808  0.894206  0.000000  1
  F  F40  1  0.266000  0.730604  0.500000  1
  F  F41  1  0.265886  0.400338  0.500000  1
  F  F42  1  0.566598  0.234302  0.000000  1
  F  F43  1  0.565463  0.566180  0.000000  1
  F  F44  1  0.566567  0.901152  0.000000  1
  F  F45  1  0.606805  0.066950  0.500000  1
  F  F46  1  0.602027  0.399114  0.500000  1
  F  F47  1  0.600039  0.733430  0.500000  1
  F  F48  1  0.771124  0.104548  0.000000  1
  F  F49  1  0.897725  0.566249  0.000000  1
  F  F50  1  0.898891  0.898507  0.000000  1
  F  F51  1  0.929963  0.064904  0.500000  1
  F  F52  1  0.935357  0.401685  0.500000  1
  F  F53  1  0.933842  0.731911  0.500000  1
