# generated using pymatgen
data_Fe4OF7
_symmetry_space_group_name_H-M   'P 1'
_cell_length_a   7.54872328
_cell_length_b   7.54872328
_cell_length_c   5.79870260
_cell_angle_alpha   106.78659983
_cell_angle_beta   106.78659983
_cell_angle_gamma   79.26699827
_symmetry_Int_Tables_number   1
_chemical_formula_structural   Fe4OF7
_chemical_formula_sum   'Fe8 O2 F14'
_cell_volume   300.95598966
_cell_formula_units_Z   2
loop_
 _symmetry_equiv_pos_site_id
 _symmetry_equiv_pos_as_xyz
  1  'x, y, z'
loop_
 _atom_site_type_symbol
 _atom_site_label
 _atom_site_symmetry_multiplicity
 _atom_site_fract_x
 _atom_site_fract_y
 _atom_site_fract_z
 _atom_site_occupancy
  Fe  Fe0  1  0.757985  0.247165  0.518368  1
  Fe  Fe1  1  0.501116  0.000688  0.000627  1
  Fe  Fe2  1  0.250688  0.251116  0.500627  1
  Fe  Fe3  1  0.727988  0.747558  0.489553  1
  Fe  Fe4  1  0.497165  0.507985  0.018368  1
  Fe  Fe5  1  0.001130  0.004689  0.986737  1
  Fe  Fe6  1  0.254689  0.751130  0.486737  1
  Fe  Fe7  1  0.997558  0.477988  0.989553  1
  O  O8  1  0.933447  0.240136  0.864201  1
  O  O9  1  0.490136  0.683447  0.364201  1
  F  F10  1  0.977590  0.165490  0.344497  1
  F  F11  1  0.581426  0.273307  0.159964  1
  F  F12  1  0.320390  0.029773  0.655487  1
  F  F13  1  0.838534  0.532889  0.657271  1
  F  F14  1  0.523307  0.331426  0.659964  1
  F  F15  1  0.279773  0.070390  0.155487  1
  F  F16  1  0.782889  0.588534  0.157271  1
  F  F17  1  0.722085  0.915259  0.834014  1
  F  F18  1  0.222710  0.430801  0.850598  1
  F  F19  1  0.680801  0.972710  0.350598  1
  F  F20  1  0.165259  0.472085  0.334014  1
  F  F21  1  0.415490  0.727590  0.844497  1
  F  F22  1  0.069384  0.758460  0.138681  1
  F  F23  1  0.008460  0.819384  0.638681  1
