# generated using pymatgen
data_Mn3Mo2H34C22N16O5
_symmetry_space_group_name_H-M   'P 1'
_cell_length_a   14.57980738
_cell_length_b   14.57980738
_cell_length_c   13.66970215
_cell_angle_alpha   66.45112444
_cell_angle_beta   113.54887556
_cell_angle_gamma   128.69119629
_symmetry_Int_Tables_number   1
_chemical_formula_structural   Mn3Mo2H34C22N16O5
_chemical_formula_sum   'Mn6 Mo4 H68 C44 N32 O10'
_cell_volume   2033.09438655
_cell_formula_units_Z   2
loop_
 _symmetry_equiv_pos_site_id
 _symmetry_equiv_pos_as_xyz
  1  'x, y, z'
loop_
 _atom_site_type_symbol
 _atom_site_label
 _atom_site_symmetry_multiplicity
 _atom_site_fract_x
 _atom_site_fract_y
 _atom_site_fract_z
 _atom_site_occupancy
  Mn  Mn0  1  0.067201  0.067201  0.250000  1
  Mn  Mn1  1  0.932799  0.932799  0.750000  1
  Mn  Mn2  1  0.304022  0.728770  0.539574  1
  Mn  Mn3  1  0.728770  0.304022  0.960426  1
  Mn  Mn4  1  0.695978  0.271230  0.460426  1
  Mn  Mn5  1  0.271230  0.695978  0.039574  1
  Mo  Mo6  1  0.053130  0.338518  0.826289  1
  Mo  Mo7  1  0.338518  0.053130  0.673711  1
  Mo  Mo8  1  0.946870  0.661482  0.173711  1
  Mo  Mo9  1  0.661482  0.946870  0.326289  1
  H  H10  1  0.255698  0.320216  0.231578  1
  H  H11  1  0.320216  0.255698  0.268422  1
  H  H12  1  0.744302  0.679784  0.768422  1
  H  H13  1  0.679784  0.744302  0.731578  1
  H  H14  1  0.461675  0.649844  0.642118  1
  H  H15  1  0.649844  0.461675  0.857882  1
  H  H16  1  0.538325  0.350156  0.357882  1
  H  H17  1  0.350156  0.538325  0.142118  1
  H  H18  1  0.376555  0.588917  0.721986  1
  H  H19  1  0.588917  0.376555  0.778014  1
  H  H20  1  0.623445  0.411083  0.278014  1
  H  H21  1  0.411083  0.623445  0.221986  1
  H  H22  1  0.628098  0.545766  0.966729  1
  H  H23  1  0.545766  0.628098  0.533271  1
  H  H24  1  0.371902  0.454234  0.033271  1
  H  H25  1  0.454234  0.371902  0.466729  1
  H  H26  1  0.511714  0.492431  0.877278  1
  H  H27  1  0.492431  0.511714  0.622722  1
  H  H28  1  0.488287  0.507569  0.122722  1
  H  H29  1  0.507569  0.488287  0.377278  1
  H  H30  1  0.532898  0.170157  0.110126  1
  H  H31  1  0.170157  0.532898  0.389874  1
  H  H32  1  0.467102  0.829843  0.889874  1
  H  H33  1  0.829843  0.467102  0.610126  1
  H  H34  1  0.477410  0.257609  0.007091  1
  H  H35  1  0.257609  0.477410  0.492909  1
  H  H36  1  0.522590  0.742391  0.992909  1
  H  H37  1  0.742391  0.522590  0.507091  1
  H  H38  1  0.498816  0.247715  0.148674  1
  H  H39  1  0.247715  0.498816  0.351326  1
  H  H40  1  0.501184  0.752285  0.851326  1
  H  H41  1  0.752285  0.501184  0.648674  1
  H  H42  1  0.377580  0.002867  0.024021  1
  H  H43  1  0.002867  0.377580  0.475979  1
  H  H44  1  0.622420  0.997133  0.975979  1
  H  H45  1  0.997133  0.622420  0.524021  1
  H  H46  1  0.222746  0.935398  0.017401  1
  H  H47  1  0.935398  0.222746  0.482599  1
  H  H48  1  0.777254  0.064602  0.982599  1
  H  H49  1  0.064602  0.777254  0.517401  1
  H  H50  1  0.301974  0.072855  0.925287  1
  H  H51  1  0.072855  0.301974  0.574713  1
  H  H52  1  0.698026  0.927145  0.074713  1
  H  H53  1  0.927145  0.698026  0.425287  1
  H  H54  1  0.290123  0.186094  0.108909  1
  H  H55  1  0.186094  0.290123  0.391091  1
  H  H56  1  0.709877  0.813906  0.891091  1
  H  H57  1  0.813906  0.709877  0.608909  1
  H  H58  1  0.259267  0.178183  0.971688  1
  H  H59  1  0.178183  0.259267  0.528312  1
  H  H60  1  0.740733  0.821817  0.028312  1
  H  H61  1  0.821817  0.740733  0.471688  1
  H  H62  1  0.170177  0.048218  0.064371  1
  H  H63  1  0.048218  0.170177  0.435629  1
  H  H64  1  0.829823  0.951782  0.935629  1
  H  H65  1  0.951782  0.829823  0.564371  1
  H  H66  1  0.396530  0.979299  0.222505  1
  H  H67  1  0.979299  0.396530  0.277495  1
  H  H68  1  0.603470  0.020701  0.777495  1
  H  H69  1  0.020701  0.603470  0.722505  1
  H  H70  1  0.366369  0.060939  0.260244  1
  H  H71  1  0.060939  0.366369  0.239756  1
  H  H72  1  0.633631  0.939061  0.739756  1
  H  H73  1  0.939061  0.633631  0.760244  1
  H  H74  1  0.245196  0.933388  0.200638  1
  H  H75  1  0.933388  0.245196  0.299362  1
  H  H76  1  0.754804  0.066612  0.799362  1
  H  H77  1  0.066612  0.754804  0.700638  1
  C  C78  1  0.047677  0.224245  0.992210  1
  C  C79  1  0.224245  0.047677  0.507790  1
  C  C80  1  0.952323  0.775755  0.007790  1
  C  C81  1  0.775755  0.952323  0.492210  1
  C  C82  1  0.119882  0.483658  0.688924  1
  C  C83  1  0.483658  0.119882  0.811076  1
  C  C84  1  0.880118  0.516342  0.311076  1
  C  C85  1  0.516342  0.880118  0.188924  1
  C  C86  1  0.820718  0.992811  0.293816  1
  C  C87  1  0.992811  0.820718  0.206184  1
  C  C88  1  0.179282  0.007189  0.706184  1
  C  C89  1  0.007189  0.179282  0.793816  1
  C  C90  1  0.905116  0.293673  0.689579  1
  C  C91  1  0.293673  0.905116  0.810421  1
  C  C92  1  0.094884  0.706327  0.310421  1
  C  C93  1  0.706327  0.094884  0.189579  1
  C  C94  1  0.922546  0.337847  0.864149  1
  C  C95  1  0.337847  0.922546  0.635851  1
  C  C96  1  0.077454  0.662153  0.135851  1
  C  C97  1  0.662153  0.077454  0.364149  1
  C  C98  1  0.156870  0.490417  0.906565  1
  C  C99  1  0.490417  0.156870  0.593435  1
  C  C100  1  0.843130  0.509583  0.093435  1
  C  C101  1  0.509583  0.843130  0.406565  1
  C  C102  1  0.239141  0.386196  0.851573  1
  C  C103  1  0.386196  0.239141  0.648427  1
  C  C104  1  0.760859  0.613804  0.148427  1
  C  C105  1  0.613804  0.760859  0.351573  1
  C  C106  1  0.472599  0.199234  0.088449  1
  C  C107  1  0.199234  0.472599  0.411551  1
  C  C108  1  0.527401  0.800766  0.911551  1
  C  C109  1  0.800766  0.527401  0.588449  1
  C  C110  1  0.309637  0.020391  0.008213  1
  C  C111  1  0.020391  0.309637  0.491787  1
  C  C112  1  0.690363  0.979609  0.991787  1
  C  C113  1  0.979609  0.690363  0.508213  1
  C  C114  1  0.260356  0.128156  0.056273  1
  C  C115  1  0.128156  0.260356  0.443727  1
  C  C116  1  0.739644  0.871844  0.943727  1
  C  C117  1  0.871844  0.739644  0.556273  1
  C  C118  1  0.338086  0.010462  0.200995  1
  C  C119  1  0.010462  0.338086  0.299005  1
  C  C120  1  0.661914  0.989538  0.799005  1
  C  C121  1  0.989538  0.661914  0.700995  1
  N  N122  1  0.042605  0.160936  0.079139  1
  N  N123  1  0.160936  0.042605  0.420861  1
  N  N124  1  0.957395  0.839064  0.920861  1
  N  N125  1  0.839064  0.957395  0.579139  1
  N  N126  1  0.165782  0.564483  0.618480  1
  N  N127  1  0.564483  0.165782  0.881520  1
  N  N128  1  0.834218  0.435517  0.381520  1
  N  N129  1  0.435517  0.834218  0.118480  1
  N  N130  1  0.912416  0.022783  0.283044  1
  N  N131  1  0.022783  0.912416  0.216956  1
  N  N132  1  0.087584  0.977217  0.716956  1
  N  N133  1  0.977217  0.087584  0.783044  1
  N  N134  1  0.825211  0.270374  0.613142  1
  N  N135  1  0.270374  0.825211  0.886858  1
  N  N136  1  0.174789  0.729626  0.386858  1
  N  N137  1  0.729626  0.174789  0.113142  1
  N  N138  1  0.855425  0.337529  0.891394  1
  N  N139  1  0.337529  0.855425  0.608606  1
  N  N140  1  0.144575  0.662471  0.108606  1
  N  N141  1  0.662471  0.144575  0.391394  1
  N  N142  1  0.209384  0.568963  0.951962  1
  N  N143  1  0.568963  0.209384  0.548038  1
  N  N144  1  0.790616  0.431037  0.048038  1
  N  N145  1  0.431037  0.790616  0.451962  1
  N  N146  1  0.340883  0.423048  0.864853  1
  N  N147  1  0.423048  0.340883  0.635147  1
  N  N148  1  0.659117  0.576952  0.135147  1
  N  N149  1  0.576952  0.659117  0.364853  1
  N  N150  1  0.345650  0.090185  0.088567  1
  N  N151  1  0.090185  0.345650  0.411433  1
  N  N152  1  0.654350  0.909815  0.911433  1
  N  N153  1  0.909815  0.654350  0.588567  1
  O  O154  1  0.241032  0.241032  0.250000  1
  O  O155  1  0.758968  0.758968  0.750000  1
  O  O156  1  0.424741  0.665998  0.675319  1
  O  O157  1  0.665998  0.424741  0.824681  1
  O  O158  1  0.575259  0.334002  0.324681  1
  O  O159  1  0.334002  0.575259  0.175319  1
  O  O160  1  0.599187  0.529132  0.893812  1
  O  O161  1  0.529132  0.599187  0.606188  1
  O  O162  1  0.400813  0.470868  0.106188  1
  O  O163  1  0.470868  0.400813  0.393812  1
