# generated using pymatgen
data_LiFeSnO4
_symmetry_space_group_name_H-M   'P 1'
_cell_length_a   6.31630785
_cell_length_b   6.18966492
_cell_length_c   6.18966451
_cell_angle_alpha   58.71670493
_cell_angle_beta   59.32083923
_cell_angle_gamma   59.32084147
_symmetry_Int_Tables_number   1
_chemical_formula_structural   LiFeSnO4
_chemical_formula_sum   'Li2 Fe2 Sn2 O8'
_cell_volume   167.66562564
_cell_formula_units_Z   2
loop_
 _symmetry_equiv_pos_site_id
 _symmetry_equiv_pos_as_xyz
  1  'x, y, z'
loop_
 _atom_site_type_symbol
 _atom_site_label
 _atom_site_symmetry_multiplicity
 _atom_site_fract_x
 _atom_site_fract_y
 _atom_site_fract_z
 _atom_site_occupancy
  Li  Li0  1  0.121628  0.128372  0.128372  1
  Li  Li1  1  0.878372  0.871628  0.871628  1
  Fe  Fe2  1  0.500000  0.000000  0.500000  1
  Fe  Fe3  1  0.500000  0.500000  0.000000  1
  Sn  Sn4  1  0.000000  0.500000  0.500000  1
  Sn  Sn5  1  0.500000  0.500000  0.500000  1
  O  O6  1  0.267058  0.261961  0.261961  1
  O  O7  1  0.260547  0.257371  0.721534  1
  O  O8  1  0.260547  0.721534  0.257371  1
  O  O9  1  0.709022  0.261961  0.261961  1
  O  O10  1  0.290978  0.738039  0.738039  1
  O  O11  1  0.739453  0.742629  0.278466  1
  O  O12  1  0.739453  0.278466  0.742629  1
  O  O13  1  0.732942  0.738039  0.738039  1
