# generated using pymatgen
data_Li2Mn3(BO3)3
_symmetry_space_group_name_H-M   'P 1'
_cell_length_a   8.23226490
_cell_length_b   14.73825829
_cell_length_c   6.34822195
_cell_angle_alpha   102.54328160
_cell_angle_beta   89.99532812
_cell_angle_gamma   90.01098599
_symmetry_Int_Tables_number   1
_chemical_formula_structural   Li2Mn3(BO3)3
_chemical_formula_sum   'Li8 Mn12 B12 O36'
_cell_volume   751.84141691
_cell_formula_units_Z   4
loop_
 _symmetry_equiv_pos_site_id
 _symmetry_equiv_pos_as_xyz
  1  'x, y, z'
loop_
 _atom_site_type_symbol
 _atom_site_label
 _atom_site_symmetry_multiplicity
 _atom_site_fract_x
 _atom_site_fract_y
 _atom_site_fract_z
 _atom_site_occupancy
  Li  Li0  1  0.291089  0.989354  0.242683  1
  Li  Li1  1  0.289241  0.990769  0.745221  1
  Li  Li2  1  0.343016  0.360679  0.933619  1
  Li  Li3  1  0.369612  0.649538  0.574112  1
  Li  Li4  1  0.789338  0.489400  0.496911  1
  Li  Li5  1  0.792091  0.489947  0.995898  1
  Li  Li6  1  0.841404  0.859518  0.178841  1
  Li  Li7  1  0.870421  0.149473  0.823177  1
  Mn  Mn8  1  0.142094  0.505791  0.753898  1
  Mn  Mn9  1  0.142329  0.505852  0.251203  1
  Mn  Mn10  1  0.171928  0.809897  0.907826  1
  Mn  Mn11  1  0.169507  0.811012  0.406308  1
  Mn  Mn12  1  0.186583  0.184288  0.586704  1
  Mn  Mn13  1  0.185250  0.182975  0.094758  1
  Mn  Mn14  1  0.643503  0.005300  0.503383  1
  Mn  Mn15  1  0.641690  0.006563  0.006445  1
  Mn  Mn16  1  0.670139  0.311455  0.652948  1
  Mn  Mn17  1  0.671089  0.309590  0.161420  1
  Mn  Mn18  1  0.686215  0.683890  0.842025  1
  Mn  Mn19  1  0.686795  0.684112  0.344153  1
  B  B20  1  0.003898  0.999632  0.999390  1
  B  B21  1  0.006177  0.999794  0.498949  1
  B  B22  1  0.995872  0.336920  0.415198  1
  B  B23  1  0.998956  0.334175  0.917231  1
  B  B24  1  0.002928  0.665043  0.584665  1
  B  B25  1  0.993759  0.664355  0.080858  1
  B  B26  1  0.504531  0.499047  0.751360  1
  B  B27  1  0.505364  0.499007  0.250861  1
  B  B28  1  0.499471  0.167107  0.837320  1
  B  B29  1  0.498897  0.162227  0.331825  1
  B  B30  1  0.495682  0.835950  0.166658  1
  B  B31  1  0.497751  0.834749  0.670063  1
  O  O32  1  0.012400  0.429639  0.963261  1
  O  O33  1  0.021512  0.431905  0.465877  1
  O  O34  1  0.013597  0.761407  0.131244  1
  O  O35  1  0.024811  0.760530  0.634703  1
  O  O36  1  0.139598  0.607873  0.555277  1
  O  O37  1  0.125078  0.606875  0.053164  1
  O  O38  1  0.119769  0.273607  0.383462  1
  O  O39  1  0.137686  0.279666  0.888272  1
  O  O40  1  0.155215  0.955492  0.978509  1
  O  O41  1  0.157657  0.955864  0.475384  1
  O  O42  1  0.340876  0.126733  0.314858  1
  O  O43  1  0.344778  0.129757  0.816179  1
  O  O44  1  0.340339  0.799634  0.150011  1
  O  O45  1  0.341612  0.797415  0.649788  1
  O  O46  1  0.365263  0.447804  0.743066  1
  O  O47  1  0.365859  0.447937  0.209857  1
  O  O48  1  0.498313  0.594322  0.776173  1
  O  O49  1  0.499217  0.594264  0.317434  1
  O  O50  1  0.519054  0.930199  0.715975  1
  O  O51  1  0.514728  0.931413  0.212222  1
  O  O52  1  0.522579  0.257842  0.375189  1
  O  O53  1  0.519606  0.264400  0.889370  1
  O  O54  1  0.631199  0.104140  0.305812  1
  O  O55  1  0.635978  0.110962  0.808581  1
  O  O56  1  0.633164  0.779962  0.140736  1
  O  O57  1  0.625233  0.772915  0.641873  1
  O  O58  1  0.656304  0.455238  0.733927  1
  O  O59  1  0.657252  0.454420  0.225565  1
  O  O60  1  0.847893  0.627165  0.564048  1
  O  O61  1  0.835293  0.628404  0.060416  1
  O  O62  1  0.835426  0.305891  0.398230  1
  O  O63  1  0.846584  0.291869  0.899425  1
  O  O64  1  0.864109  0.948413  0.991984  1
  O  O65  1  0.866856  0.948125  0.455599  1
  O  O66  1  0.998488  0.095080  0.566600  1
  O  O67  1  0.995942  0.094939  0.027232  1
