# generated using pymatgen
data_RbHSO4
_symmetry_space_group_name_H-M   'P 1'
_cell_length_a   14.89600720
_cell_length_b   4.81949852
_cell_length_c   14.96618805
_cell_angle_alpha   90.00000000
_cell_angle_beta   118.83455729
_cell_angle_gamma   90.00000000
_symmetry_Int_Tables_number   1
_chemical_formula_structural   RbHSO4
_chemical_formula_sum   'Rb8 H8 S8 O32'
_cell_volume   941.22821938
_cell_formula_units_Z   8
loop_
 _symmetry_equiv_pos_site_id
 _symmetry_equiv_pos_as_xyz
  1  'x, y, z'
loop_
 _atom_site_type_symbol
 _atom_site_label
 _atom_site_symmetry_multiplicity
 _atom_site_fract_x
 _atom_site_fract_y
 _atom_site_fract_z
 _atom_site_occupancy
  Rb  Rb0  1  0.121482  0.054171  0.912491  1
  Rb  Rb1  1  0.121482  0.945829  0.412491  1
  Rb  Rb2  1  0.376179  0.508100  0.840170  1
  Rb  Rb3  1  0.376179  0.491900  0.340170  1
  Rb  Rb4  1  0.879695  0.714561  0.585634  1
  Rb  Rb5  1  0.879695  0.285439  0.085634  1
  Rb  Rb6  1  0.616380  0.133324  0.689518  1
  Rb  Rb7  1  0.616380  0.866676  0.189518  1
  H  H8  1  0.125652  0.618082  0.621472  1
  H  H9  1  0.125652  0.381918  0.121472  1
  H  H10  1  0.248619  0.421331  0.531606  1
  H  H11  1  0.248619  0.578669  0.031606  1
  H  H12  1  0.828590  0.916000  0.774043  1
  H  H13  1  0.828590  0.084000  0.274043  1
  H  H14  1  0.651238  0.538154  0.896930  1
  H  H15  1  0.651238  0.461846  0.396930  1
  S  S16  1  0.133563  0.055744  0.676207  1
  S  S17  1  0.133563  0.944256  0.176207  1
  S  S18  1  0.390720  0.635912  0.594741  1
  S  S19  1  0.390720  0.364088  0.094741  1
  S  S20  1  0.890964  0.532592  0.852677  1
  S  S21  1  0.890964  0.467408  0.352677  1
  S  S22  1  0.637280  0.954663  0.946549  1
  S  S23  1  0.637280  0.045337  0.446549  1
  O  O24  1  0.044762  0.130613  0.688475  1
  O  O25  1  0.044762  0.869387  0.188475  1
  O  O26  1  0.162009  0.278716  0.626469  1
  O  O27  1  0.162009  0.721283  0.126469  1
  O  O28  1  0.219884  0.950207  0.769913  1
  O  O29  1  0.219884  0.049793  0.269913  1
  O  O30  1  0.094941  0.806123  0.593933  1
  O  O31  1  0.094941  0.193877  0.093933  1
  O  O32  1  0.454095  0.695146  0.546381  1
  O  O33  1  0.454095  0.304854  0.046381  1
  O  O34  1  0.443976  0.463200  0.686290  1
  O  O35  1  0.443976  0.536800  0.186290  1
  O  O36  1  0.296704  0.446016  0.505230  1
  O  O37  1  0.296704  0.553984  0.005230  1
  O  O38  1  0.335113  0.870421  0.605990  1
  O  O39  1  0.335113  0.129579  0.105990  1
  O  O40  1  0.991103  0.567442  0.857170  1
  O  O41  1  0.991103  0.432558  0.357170  1
  O  O42  1  0.886931  0.642111  0.941014  1
  O  O43  1  0.886931  0.357889  0.441014  1
  O  O44  1  0.811714  0.717283  0.754380  1
  O  O45  1  0.811714  0.282717  0.254380  1
  O  O46  1  0.849114  0.251721  0.823190  1
  O  O47  1  0.849114  0.748279  0.323190  1
  O  O48  1  0.531820  0.924827  0.926918  1
  O  O49  1  0.531820  0.075173  0.426918  1
  O  O50  1  0.656551  0.736255  0.878049  1
  O  O51  1  0.656551  0.263745  0.378049  1
  O  O52  1  0.713566  0.904479  0.053638  1
  O  O53  1  0.713566  0.095521  0.553638  1
  O  O54  1  0.657155  0.215044  0.906920  1
  O  O55  1  0.657155  0.784956  0.406920  1
