# generated using pymatgen
data_Hf5N5O2
_symmetry_space_group_name_H-M   'P 1'
_cell_length_a   3.06747922
_cell_length_b   5.43065245
_cell_length_c   9.11705571
_cell_angle_alpha   75.17307990
_cell_angle_beta   90.00000000
_cell_angle_gamma   73.59514671
_symmetry_Int_Tables_number   1
_chemical_formula_structural   Hf5N5O2
_chemical_formula_sum   'Hf5 N5 O2'
_cell_volume   140.41337050
_cell_formula_units_Z   1
loop_
 _symmetry_equiv_pos_site_id
 _symmetry_equiv_pos_as_xyz
  1  'x, y, z'
loop_
 _atom_site_type_symbol
 _atom_site_label
 _atom_site_symmetry_multiplicity
 _atom_site_fract_x
 _atom_site_fract_y
 _atom_site_fract_z
 _atom_site_occupancy
  Hf  Hf0  1  0.113643  0.772714  0.927310  1
  Hf  Hf1  1  0.701874  0.596251  0.310887  1
  Hf  Hf2  1  0.294779  0.410444  0.691328  1
  Hf  Hf3  1  0.888126  0.223749  0.080642  1
  Hf  Hf4  1  0.998585  0.002829  0.503354  1
  N  N5  1  0.503746  0.992509  0.007996  1
  N  N6  1  0.654880  0.690241  0.555850  1
  N  N7  1  0.738136  0.523729  0.856050  1
  N  N8  1  0.263710  0.472580  0.151060  1
  N  N9  1  0.342057  0.315886  0.449541  1
  O  O10  1  0.044589  0.910822  0.291073  1
  O  O11  1  0.954607  0.090787  0.716839  1
