# generated using pymatgen
data_NaMnPCO7
_symmetry_space_group_name_H-M   'P 1'
_cell_length_a   8.20352498
_cell_length_b   8.17771387
_cell_length_c   10.64875598
_cell_angle_alpha   68.97535324
_cell_angle_beta   108.96676466
_cell_angle_gamma   80.03732369
_symmetry_Int_Tables_number   1
_chemical_formula_structural   NaMnPCO7
_chemical_formula_sum   'Na4 Mn4 P4 C4 O28'
_cell_volume   595.71504782
_cell_formula_units_Z   4
loop_
 _symmetry_equiv_pos_site_id
 _symmetry_equiv_pos_as_xyz
  1  'x, y, z'
loop_
 _atom_site_type_symbol
 _atom_site_label
 _atom_site_symmetry_multiplicity
 _atom_site_fract_x
 _atom_site_fract_y
 _atom_site_fract_z
 _atom_site_occupancy
  Na  Na0  1  0.505863  0.490342  0.767074  1
  Na  Na1  1  0.757107  0.739896  0.767346  1
  Na  Na2  1  0.484352  0.493820  0.238973  1
  Na  Na3  1  0.988687  0.987093  0.236900  1
  Mn  Mn4  1  0.594634  0.154851  0.657219  1
  Mn  Mn5  1  0.094803  0.654810  0.657127  1
  Mn  Mn6  1  0.912307  0.349572  0.347261  1
  Mn  Mn7  1  0.409079  0.854627  0.336910  1
  P  P8  1  0.768784  0.482109  0.569645  1
  P  P9  1  0.270981  0.980171  0.563819  1
  P  P10  1  0.732620  0.022883  0.432494  1
  P  P11  1  0.232425  0.522469  0.432710  1
  C  C12  1  0.693323  0.041956  0.922968  1
  C  C13  1  0.200277  0.546683  0.923137  1
  C  C14  1  0.802539  0.449192  0.083166  1
  C  C15  1  0.297519  0.955924  0.070916  1
  O  O16  1  0.241318  0.002857  0.937888  1
  O  O17  1  0.745793  0.494634  0.947949  1
  O  O18  1  0.279324  0.467562  0.860134  1
  O  O19  1  0.772220  0.961603  0.860512  1
  O  O20  1  0.547677  0.186772  0.818785  1
  O  O21  1  0.056031  0.693152  0.819432  1
  O  O22  1  0.940876  0.502570  0.669190  1
  O  O23  1  0.748724  0.306094  0.675355  1
  O  O24  1  0.453270  0.987555  0.663285  1
  O  O25  1  0.263643  0.793939  0.669251  1
  O  O26  1  0.722328  0.025585  0.573456  1
  O  O27  1  0.105546  0.145308  0.519934  1
  O  O28  1  0.600668  0.650341  0.523271  1
  O  O29  1  0.226472  0.529968  0.573437  1
  O  O30  1  0.775779  0.470707  0.430377  1
  O  O31  1  0.904373  0.861406  0.477237  1
  O  O32  1  0.402054  0.358641  0.477459  1
  O  O33  1  0.274248  0.972747  0.422483  1
  O  O34  1  0.559029  0.008936  0.329768  1
  O  O35  1  0.743693  0.208400  0.330491  1
  O  O36  1  0.055163  0.509089  0.333932  1
  O  O37  1  0.245023  0.704164  0.326742  1
  O  O38  1  0.949068  0.306413  0.185342  1
  O  O39  1  0.445680  0.811709  0.175097  1
  O  O40  1  0.726063  0.534288  0.143136  1
  O  O41  1  0.221927  0.037891  0.135031  1
  O  O42  1  0.746431  0.994490  0.056456  1
  O  O43  1  0.250182  0.494685  0.056908  1
