# generated using pymatgen
data_Li3V2(PO4)3
_symmetry_space_group_name_H-M   'P 1'
_cell_length_a   8.77830987
_cell_length_b   8.86841595
_cell_length_c   8.69052827
_cell_angle_alpha   120.98175660
_cell_angle_beta   90.00000292
_cell_angle_gamma   60.33553587
_symmetry_Int_Tables_number   1
_chemical_formula_structural   Li3V2(PO4)3
_chemical_formula_sum   'Li6 V4 P6 O24'
_cell_volume   473.62296675
_cell_formula_units_Z   2
loop_
 _symmetry_equiv_pos_site_id
 _symmetry_equiv_pos_as_xyz
  1  'x, y, z'
loop_
 _atom_site_type_symbol
 _atom_site_label
 _atom_site_symmetry_multiplicity
 _atom_site_fract_x
 _atom_site_fract_y
 _atom_site_fract_z
 _atom_site_occupancy
  Li  Li0  1  0.237877  0.883516  0.185934  1
  Li  Li1  1  0.806240  0.587570  0.322367  1
  Li  Li2  1  0.378607  0.883516  0.685934  1
  Li  Li3  1  0.106190  0.587570  0.822367  1
  Li  Li4  1  0.487336  0.072968  0.485831  1
  Li  Li5  1  0.939696  0.072968  0.985831  1
  V  V6  1  0.642284  0.713713  0.072470  1
  V  V7  1  0.144003  0.713713  0.572470  1
  V  V8  1  0.855791  0.285609  0.426396  1
  V  V9  1  0.358599  0.285609  0.926396  1
  P  P10  1  0.960080  0.790110  0.246465  1
  P  P11  1  0.749810  0.790110  0.746465  1
  P  P12  1  0.541891  0.506213  0.256273  1
  P  P13  1  0.451895  0.506213  0.756273  1
  P  P14  1  0.251033  0.208979  0.249458  1
  P  P15  1  0.039988  0.208979  0.749458  1
  O  O16  1  0.951691  0.967908  0.243992  1
  O  O17  1  0.011985  0.782336  0.410872  1
  O  O18  1  0.768266  0.819822  0.265149  1
  O  O19  1  0.911913  0.819822  0.765149  1
  O  O20  1  0.580401  0.967908  0.743992  1
  O  O21  1  0.563349  0.676328  0.267148  1
  O  O22  1  0.809822  0.579053  0.550366  1
  O  O23  1  0.705679  0.782336  0.910872  1
  O  O24  1  0.391701  0.636501  0.450186  1
  O  O25  1  0.111124  0.579053  0.050366  1
  O  O26  1  0.493560  0.391460  0.085524  1
  O  O27  1  0.738015  0.336320  0.238289  1
  O  O28  1  0.260324  0.676328  0.767148  1
  O  O29  1  0.471797  0.636501  0.950186  1
  O  O30  1  0.614979  0.391460  0.585524  1
  O  O31  1  0.881954  0.419230  0.936277  1
  O  O32  1  0.302013  0.192426  0.070635  1
  O  O33  1  0.198815  0.419230  0.436277  1
  O  O34  1  0.425665  0.336320  0.738289  1
  O  O35  1  0.091381  0.174452  0.236674  1
  O  O36  1  0.409169  0.023081  0.254676  1
  O  O37  1  0.234168  0.174452  0.736674  1
  O  O38  1  0.005562  0.192426  0.570635  1
  O  O39  1  0.067750  0.023081  0.754676  1
