# generated using pymatgen
data_LiMnVP2(HO5)2
_symmetry_space_group_name_H-M   'P 1'
_cell_length_a   5.34525038
_cell_length_b   7.35684699
_cell_length_c   5.22392816
_cell_angle_alpha   110.32612260
_cell_angle_beta   100.14947919
_cell_angle_gamma   104.28012962
_symmetry_Int_Tables_number   1
_chemical_formula_structural   LiMnVP2(HO5)2
_chemical_formula_sum   'Li1 Mn1 V1 P2 H2 O10'
_cell_volume   178.76219155
_cell_formula_units_Z   1
loop_
 _symmetry_equiv_pos_site_id
 _symmetry_equiv_pos_as_xyz
  1  'x, y, z'
loop_
 _atom_site_type_symbol
 _atom_site_label
 _atom_site_symmetry_multiplicity
 _atom_site_fract_x
 _atom_site_fract_y
 _atom_site_fract_z
 _atom_site_occupancy
  Li  Li0  1  0.591489  0.152279  0.225422  1
  Mn  Mn1  1  0.994903  0.996516  0.999374  1
  V  V2  1  0.002555  0.504622  0.001928  1
  P  P3  1  0.358009  0.231405  0.680833  1
  P  P4  1  0.642724  0.773438  0.326360  1
  H  H5  1  0.061054  0.342771  0.355955  1
  H  H6  1  0.963395  0.662231  0.646683  1
  O  O7  1  0.024276  0.718533  0.857550  1
  O  O8  1  0.189291  0.380763  0.716797  1
  O  O9  1  0.341770  0.646685  0.277706  1
  O  O10  1  0.253103  0.071394  0.366573  1
  O  O11  1  0.347579  0.135396  0.894566  1
  O  O12  1  0.654805  0.886083  0.131402  1
  O  O13  1  0.756526  0.930878  0.637218  1
  O  O14  1  0.657894  0.346465  0.708037  1
  O  O15  1  0.804396  0.618486  0.273237  1
  O  O16  1  0.954396  0.277526  0.151405  1
