# generated using pymatgen
data_CsLiF2
_symmetry_space_group_name_H-M   'P 1'
_cell_length_a   6.15490375
_cell_length_b   6.68924887
_cell_length_c   8.26145615
_cell_angle_alpha   89.50907773
_cell_angle_beta   88.93286679
_cell_angle_gamma   62.60905382
_symmetry_Int_Tables_number   1
_chemical_formula_structural   CsLiF2
_chemical_formula_sum   'Cs4 Li4 F8'
_cell_volume   301.95214813
_cell_formula_units_Z   4
loop_
 _symmetry_equiv_pos_site_id
 _symmetry_equiv_pos_as_xyz
  1  'x, y, z'
loop_
 _atom_site_type_symbol
 _atom_site_label
 _atom_site_symmetry_multiplicity
 _atom_site_fract_x
 _atom_site_fract_y
 _atom_site_fract_z
 _atom_site_occupancy
  Cs  Cs0  1  0.155901  0.182316  0.068834  1
  Cs  Cs1  1  0.661783  0.182316  0.431166  1
  Cs  Cs2  1  0.844099  0.817684  0.931166  1
  Cs  Cs3  1  0.338217  0.817684  0.568834  1
  Li  Li4  1  0.047655  0.402638  0.638640  1
  Li  Li5  1  0.450293  0.597362  0.138640  1
  Li  Li6  1  0.952345  0.597362  0.361360  1
  Li  Li7  1  0.549707  0.402638  0.861360  1
  F  F8  1  0.115364  0.283141  0.423032  1
  F  F9  1  0.398505  0.716859  0.923032  1
  F  F10  1  0.150970  0.698060  0.250000  1
  F  F11  1  0.884636  0.716859  0.576968  1
  F  F12  1  0.663604  0.672792  0.250000  1
  F  F13  1  0.601495  0.283141  0.076968  1
  F  F14  1  0.849030  0.301940  0.750000  1
  F  F15  1  0.336396  0.327208  0.750000  1
