# generated using pymatgen
data_Mn6OF11
_symmetry_space_group_name_H-M   'P 1'
_cell_length_a   11.14066920
_cell_length_b   6.91336274
_cell_length_c   3.30382908
_cell_angle_alpha   90.00000000
_cell_angle_beta   90.00000000
_cell_angle_gamma   108.11910840
_symmetry_Int_Tables_number   1
_chemical_formula_structural   Mn6OF11
_chemical_formula_sum   'Mn6 O1 F11'
_cell_volume   241.84111509
_cell_formula_units_Z   1
loop_
 _symmetry_equiv_pos_site_id
 _symmetry_equiv_pos_as_xyz
  1  'x, y, z'
loop_
 _atom_site_type_symbol
 _atom_site_label
 _atom_site_symmetry_multiplicity
 _atom_site_fract_x
 _atom_site_fract_y
 _atom_site_fract_z
 _atom_site_occupancy
  Mn  Mn0  1  0.999993  0.015520  0.000000  1
  Mn  Mn1  1  0.333367  0.166095  0.500000  1
  Mn  Mn2  1  0.000006  0.477926  0.500000  1
  Mn  Mn3  1  0.668084  0.334156  0.000000  1
  Mn  Mn4  1  0.331929  0.665908  0.000000  1
  Mn  Mn5  1  0.666632  0.832892  0.500000  1
  O  O6  1  1.000000  0.306008  0.000000  1
  F  F7  1  0.128695  0.062326  0.500000  1
  F  F8  1  0.333404  0.361433  0.000000  1
  F  F9  1  0.999977  0.696667  0.000000  1
  F  F10  1  0.666554  0.028148  0.000000  1
  F  F11  1  0.535868  0.267854  0.500000  1
  F  F12  1  0.203218  0.606250  0.500000  1
  F  F13  1  0.464151  0.731900  0.500000  1
  F  F14  1  0.796822  0.402862  0.500000  1
  F  F15  1  0.666432  0.638522  0.000000  1
  F  F16  1  0.333612  0.972002  0.000000  1
  F  F17  1  0.871255  0.933529  0.500000  1
