# generated using pymatgen
data_Li4FeP2O9
_symmetry_space_group_name_H-M   'P 1'
_cell_length_a   14.76014481
_cell_length_b   14.55764388
_cell_length_c   6.72058918
_cell_angle_alpha   90.00000000
_cell_angle_beta   90.00000000
_cell_angle_gamma   90.00000000
_symmetry_Int_Tables_number   1
_chemical_formula_structural   Li4FeP2O9
_chemical_formula_sum   'Li32 Fe8 P16 O72'
_cell_volume   1444.07270027
_cell_formula_units_Z   8
loop_
 _symmetry_equiv_pos_site_id
 _symmetry_equiv_pos_as_xyz
  1  'x, y, z'
loop_
 _atom_site_type_symbol
 _atom_site_label
 _atom_site_symmetry_multiplicity
 _atom_site_fract_x
 _atom_site_fract_y
 _atom_site_fract_z
 _atom_site_occupancy
  Li  Li0  1  0.004874  0.001214  0.775981  1
  Li  Li1  1  0.004874  0.498786  0.275981  1
  Li  Li2  1  0.027557  0.247532  0.246933  1
  Li  Li3  1  0.027557  0.252468  0.746933  1
  Li  Li4  1  0.124701  0.627324  0.001470  1
  Li  Li5  1  0.124701  0.872676  0.501470  1
  Li  Li6  1  0.228358  0.021656  0.199144  1
  Li  Li7  1  0.228358  0.478344  0.699144  1
  Li  Li8  1  0.271642  0.521656  0.199144  1
  Li  Li9  1  0.271642  0.978344  0.699144  1
  Li  Li10  1  0.375299  0.127324  0.001470  1
  Li  Li11  1  0.375299  0.372677  0.501470  1
  Li  Li12  1  0.472443  0.747532  0.246933  1
  Li  Li13  1  0.472443  0.752468  0.746933  1
  Li  Li14  1  0.495126  0.501214  0.775981  1
  Li  Li15  1  0.495126  0.998786  0.275981  1
  Li  Li16  1  0.504874  0.001214  0.724019  1
  Li  Li17  1  0.504874  0.498786  0.224019  1
  Li  Li18  1  0.527557  0.247532  0.253067  1
  Li  Li19  1  0.527557  0.252468  0.753067  1
  Li  Li20  1  0.624701  0.627324  0.498530  1
  Li  Li21  1  0.624701  0.872676  0.998530  1
  Li  Li22  1  0.728358  0.021656  0.300856  1
  Li  Li23  1  0.728358  0.478344  0.800856  1
  Li  Li24  1  0.771642  0.521656  0.300856  1
  Li  Li25  1  0.771642  0.978344  0.800856  1
  Li  Li26  1  0.875299  0.127324  0.498530  1
  Li  Li27  1  0.875299  0.372677  0.998530  1
  Li  Li28  1  0.972443  0.747532  0.253067  1
  Li  Li29  1  0.972443  0.752468  0.753067  1
  Li  Li30  1  0.995126  0.501214  0.724019  1
  Li  Li31  1  0.995126  0.998786  0.224019  1
  Fe  Fe32  1  0.234910  0.248647  0.749319  1
  Fe  Fe33  1  0.234910  0.251353  0.249319  1
  Fe  Fe34  1  0.265090  0.748647  0.749319  1
  Fe  Fe35  1  0.265090  0.751353  0.249319  1
  Fe  Fe36  1  0.734910  0.248647  0.750681  1
  Fe  Fe37  1  0.734910  0.251353  0.250681  1
  Fe  Fe38  1  0.765090  0.748647  0.750681  1
  Fe  Fe39  1  0.765090  0.751353  0.250681  1
  P  P40  1  0.112792  0.104275  0.497432  1
  P  P41  1  0.112792  0.395725  0.997432  1
  P  P42  1  0.115527  0.860878  0.001148  1
  P  P43  1  0.115527  0.639122  0.501148  1
  P  P44  1  0.384473  0.139122  0.501148  1
  P  P45  1  0.384473  0.360878  0.001148  1
  P  P46  1  0.387208  0.604275  0.497432  1
  P  P47  1  0.387208  0.895725  0.997432  1
  P  P48  1  0.612792  0.104275  0.002568  1
  P  P49  1  0.612792  0.395725  0.502568  1
  P  P50  1  0.615527  0.639122  0.998852  1
  P  P51  1  0.615527  0.860878  0.498852  1
  P  P52  1  0.884473  0.139122  0.998852  1
  P  P53  1  0.884473  0.360878  0.498852  1
  P  P54  1  0.887208  0.604275  0.002568  1
  P  P55  1  0.887208  0.895725  0.502568  1
  O  O56  1  0.009654  0.087025  0.487771  1
  O  O57  1  0.009654  0.412975  0.987771  1
  O  O58  1  0.041533  0.786266  0.002705  1
  O  O59  1  0.041533  0.713734  0.502705  1
  O  O60  1  0.081061  0.539194  0.510838  1
  O  O61  1  0.081061  0.960806  0.010838  1
  O  O62  1  0.129916  0.162883  0.687085  1
  O  O63  1  0.129916  0.337117  0.187085  1
  O  O64  1  0.135903  0.159763  0.303495  1
  O  O65  1  0.135903  0.340237  0.803495  1
  O  O66  1  0.170241  0.014772  0.496476  1
  O  O67  1  0.170241  0.485228  0.996476  1
  O  O68  1  0.173403  0.647097  0.305565  1
  O  O69  1  0.173403  0.852903  0.805565  1
  O  O70  1  0.176383  0.648616  0.692674  1
  O  O71  1  0.176383  0.851384  0.192674  1
  O  O72  1  0.244314  0.202453  0.000200  1
  O  O73  1  0.244314  0.297548  0.500200  1
  O  O74  1  0.255686  0.702453  0.000200  1
  O  O75  1  0.255686  0.797547  0.500200  1
  O  O76  1  0.323617  0.148616  0.692674  1
  O  O77  1  0.323617  0.351384  0.192674  1
  O  O78  1  0.326597  0.147097  0.305565  1
  O  O79  1  0.326597  0.352903  0.805565  1
  O  O80  1  0.329759  0.514772  0.496476  1
  O  O81  1  0.329759  0.985228  0.996476  1
  O  O82  1  0.364097  0.659763  0.303495  1
  O  O83  1  0.364097  0.840237  0.803495  1
  O  O84  1  0.370084  0.662883  0.687085  1
  O  O85  1  0.370084  0.837117  0.187085  1
  O  O86  1  0.418939  0.039194  0.510838  1
  O  O87  1  0.418939  0.460806  0.010838  1
  O  O88  1  0.458467  0.213734  0.502705  1
  O  O89  1  0.458467  0.286266  0.002705  1
  O  O90  1  0.490346  0.587025  0.487771  1
  O  O91  1  0.490346  0.912975  0.987771  1
  O  O92  1  0.509654  0.087025  0.012229  1
  O  O93  1  0.509654  0.412975  0.512229  1
  O  O94  1  0.541533  0.713734  0.997295  1
  O  O95  1  0.541533  0.786266  0.497295  1
  O  O96  1  0.581061  0.539194  0.989162  1
  O  O97  1  0.581061  0.960806  0.489162  1
  O  O98  1  0.629916  0.162883  0.812915  1
  O  O99  1  0.629916  0.337117  0.312915  1
  O  O100  1  0.635903  0.159763  0.196505  1
  O  O101  1  0.635903  0.340237  0.696505  1
  O  O102  1  0.670241  0.014772  0.003524  1
  O  O103  1  0.670241  0.485228  0.503524  1
  O  O104  1  0.673403  0.647097  0.194435  1
  O  O105  1  0.673403  0.852903  0.694435  1
  O  O106  1  0.676383  0.648616  0.807326  1
  O  O107  1  0.676383  0.851384  0.307326  1
  O  O108  1  0.744314  0.202453  0.499800  1
  O  O109  1  0.744314  0.297548  0.999800  1
  O  O110  1  0.755686  0.702453  0.499800  1
  O  O111  1  0.755686  0.797547  0.999800  1
  O  O112  1  0.823617  0.148616  0.807326  1
  O  O113  1  0.823617  0.351384  0.307326  1
  O  O114  1  0.826597  0.147097  0.194435  1
  O  O115  1  0.826597  0.352903  0.694435  1
  O  O116  1  0.829759  0.514772  0.003524  1
  O  O117  1  0.829759  0.985228  0.503524  1
  O  O118  1  0.864097  0.659763  0.196505  1
  O  O119  1  0.864097  0.840237  0.696505  1
  O  O120  1  0.870084  0.662883  0.812915  1
  O  O121  1  0.870084  0.837117  0.312915  1
  O  O122  1  0.918939  0.039194  0.989162  1
  O  O123  1  0.918939  0.460806  0.489162  1
  O  O124  1  0.958467  0.213734  0.997295  1
  O  O125  1  0.958467  0.286266  0.497295  1
  O  O126  1  0.990346  0.587025  0.012229  1
  O  O127  1  0.990346  0.912975  0.512229  1
