# generated using pymatgen
data_LiMn2(CO3)4
_symmetry_space_group_name_H-M   'P 1'
_cell_length_a   6.69075222
_cell_length_b   7.58371534
_cell_length_c   5.21385280
_cell_angle_alpha   89.84927617
_cell_angle_beta   67.92250529
_cell_angle_gamma   88.27367385
_symmetry_Int_Tables_number   1
_chemical_formula_structural   LiMn2(CO3)4
_chemical_formula_sum   'Li1 Mn2 C4 O12'
_cell_volume   245.03466250
_cell_formula_units_Z   1
loop_
 _symmetry_equiv_pos_site_id
 _symmetry_equiv_pos_as_xyz
  1  'x, y, z'
loop_
 _atom_site_type_symbol
 _atom_site_label
 _atom_site_symmetry_multiplicity
 _atom_site_fract_x
 _atom_site_fract_y
 _atom_site_fract_z
 _atom_site_occupancy
  Li  Li0  1  0.831477  0.557532  0.783812  1
  Mn  Mn1  1  0.003324  0.997268  0.995462  1
  Mn  Mn2  1  0.483508  0.501368  0.494491  1
  C  C3  1  0.115065  0.262535  0.751456  1
  C  C4  1  0.368817  0.767815  0.763010  1
  C  C5  1  0.644593  0.238960  0.225964  1
  C  C6  1  0.879940  0.736615  0.264503  1
  O  O7  1  0.093498  0.238732  0.010868  1
  O  O8  1  0.081776  0.120544  0.635988  1
  O  O9  1  0.154871  0.411465  0.635399  1
  O  O10  1  0.294900  0.908847  0.907679  1
  O  O11  1  0.443115  0.634183  0.859817  1
  O  O12  1  0.375682  0.748551  0.511467  1
  O  O13  1  0.583616  0.252349  0.493249  1
  O  O14  1  0.622336  0.383550  0.101957  1
  O  O15  1  0.711886  0.091977  0.095865  1
  O  O16  1  0.819989  0.599514  0.407367  1
  O  O17  1  0.925734  0.881690  0.359434  1
  O  O18  1  0.902880  0.747495  0.001083  1
