# generated using pymatgen
data_ZrH14C2(N4F3)2
_symmetry_space_group_name_H-M   'P 1'
_cell_length_a   6.44958477
_cell_length_b   14.75295405
_cell_length_c   6.46430794
_cell_angle_alpha   90.00000000
_cell_angle_beta   90.00000000
_cell_angle_gamma   98.54395236
_symmetry_Int_Tables_number   1
_chemical_formula_structural   ZrH14C2(N4F3)2
_chemical_formula_sum   'Zr2 H28 C4 N16 F12'
_cell_volume   608.25560357
_cell_formula_units_Z   2
loop_
 _symmetry_equiv_pos_site_id
 _symmetry_equiv_pos_as_xyz
  1  'x, y, z'
loop_
 _atom_site_type_symbol
 _atom_site_label
 _atom_site_symmetry_multiplicity
 _atom_site_fract_x
 _atom_site_fract_y
 _atom_site_fract_z
 _atom_site_occupancy
  Zr  Zr0  1  0.000000  0.500000  0.500000  1
  Zr  Zr1  1  0.000000  0.000000  0.000000  1
  H  H2  1  0.001645  0.729681  0.493600  1
  H  H3  1  0.998355  0.770319  0.993600  1
  H  H4  1  0.998355  0.270319  0.506400  1
  H  H5  1  0.001645  0.229681  0.006400  1
  H  H6  1  0.036391  0.849315  0.494958  1
  H  H7  1  0.963609  0.650685  0.994958  1
  H  H8  1  0.963609  0.150685  0.505042  1
  H  H9  1  0.036391  0.349315  0.005042  1
  H  H10  1  0.560269  0.785422  0.037385  1
  H  H11  1  0.439731  0.714578  0.537385  1
  H  H12  1  0.439731  0.214578  0.962615  1
  H  H13  1  0.560269  0.285422  0.462615  1
  H  H14  1  0.348334  0.848455  0.042683  1
  H  H15  1  0.651666  0.651545  0.542683  1
  H  H16  1  0.651666  0.151545  0.957317  1
  H  H17  1  0.348334  0.348455  0.457317  1
  H  H18  1  0.239104  0.570253  0.976077  1
  H  H19  1  0.760896  0.929747  0.476077  1
  H  H20  1  0.760896  0.429747  0.023923  1
  H  H21  1  0.239104  0.070253  0.523923  1
  H  H22  1  0.592283  0.589072  0.140410  1
  H  H23  1  0.407717  0.910928  0.640410  1
  H  H24  1  0.407717  0.410928  0.859590  1
  H  H25  1  0.592283  0.089072  0.359590  1
  H  H26  1  0.596587  0.593172  0.882856  1
  H  H27  1  0.403413  0.906828  0.382856  1
  H  H28  1  0.403413  0.406828  0.117144  1
  H  H29  1  0.596587  0.093172  0.617144  1
  C  C30  1  0.730834  0.790142  0.511048  1
  C  C31  1  0.269166  0.709858  0.011048  1
  C  C32  1  0.269166  0.209858  0.488952  1
  C  C33  1  0.730834  0.290142  0.988952  1
  N  N34  1  0.936944  0.789239  0.493088  1
  N  N35  1  0.063056  0.710761  0.993088  1
  N  N36  1  0.063056  0.210761  0.506912  1
  N  N37  1  0.936944  0.289239  0.006912  1
  N  N38  1  0.402943  0.787527  0.025929  1
  N  N39  1  0.597057  0.712473  0.525929  1
  N  N40  1  0.597057  0.212473  0.974071  1
  N  N41  1  0.402943  0.287527  0.474071  1
  N  N42  1  0.339722  0.628386  0.013132  1
  N  N43  1  0.660278  0.871614  0.513132  1
  N  N44  1  0.660278  0.371614  0.986868  1
  N  N45  1  0.339722  0.128386  0.486868  1
  N  N46  1  0.556141  0.625504  0.014505  1
  N  N47  1  0.443859  0.874496  0.514505  1
  N  N48  1  0.443859  0.374496  0.985495  1
  N  N49  1  0.556141  0.125504  0.485495  1
  F  F50  1  0.145294  0.632874  0.505164  1
  F  F51  1  0.854706  0.867126  0.005164  1
  F  F52  1  0.854706  0.367126  0.494836  1
  F  F53  1  0.145294  0.132874  0.994836  1
  F  F54  1  0.878840  0.521607  0.212106  1
  F  F55  1  0.121160  0.978393  0.712106  1
  F  F56  1  0.121160  0.478393  0.787894  1
  F  F57  1  0.878840  0.021607  0.287894  1
  F  F58  1  0.250987  0.952986  0.136045  1
  F  F59  1  0.749013  0.547014  0.636045  1
  F  F60  1  0.749013  0.047014  0.863955  1
  F  F61  1  0.250987  0.452986  0.363955  1
