# generated using pymatgen
data_Li4V3P8O29
_symmetry_space_group_name_H-M   'P 1'
_cell_length_a   9.77606815
_cell_length_b   9.77552846
_cell_length_c   14.01746578
_cell_angle_alpha   89.85076654
_cell_angle_beta   89.85501554
_cell_angle_gamma   60.30953581
_symmetry_Int_Tables_number   1
_chemical_formula_structural   Li4V3P8O29
_chemical_formula_sum   'Li8 V6 P16 O58'
_cell_volume   1163.72095633
_cell_formula_units_Z   2
loop_
 _symmetry_equiv_pos_site_id
 _symmetry_equiv_pos_as_xyz
  1  'x, y, z'
loop_
 _atom_site_type_symbol
 _atom_site_label
 _atom_site_symmetry_multiplicity
 _atom_site_fract_x
 _atom_site_fract_y
 _atom_site_fract_z
 _atom_site_occupancy
  Li  Li0  1  0.087895  0.228638  0.939654  1
  Li  Li1  1  0.228365  0.087979  0.439929  1
  Li  Li2  1  0.093797  0.681642  0.444181  1
  Li  Li3  1  0.682452  0.093897  0.944167  1
  Li  Li4  1  0.320143  0.904692  0.058159  1
  Li  Li5  1  0.904893  0.319366  0.558169  1
  Li  Li6  1  0.774194  0.912542  0.558832  1
  Li  Li7  1  0.912163  0.774717  0.058675  1
  V  V8  1  0.002475  0.565322  0.249610  1
  V  V9  1  0.433083  0.997142  0.250268  1
  V  V10  1  0.432370  0.567254  0.749642  1
  V  V11  1  0.567186  0.432518  0.249699  1
  V  V12  1  0.565333  0.002359  0.749849  1
  V  V13  1  0.997028  0.433061  0.749985  1
  P  P14  1  0.088496  0.229397  0.156472  1
  P  P15  1  0.229580  0.088305  0.656521  1
  P  P16  1  0.088835  0.680169  0.661134  1
  P  P17  1  0.332057  0.333623  0.371613  1
  P  P18  1  0.333873  0.332233  0.871875  1
  P  P19  1  0.232589  0.683841  0.156774  1
  P  P20  1  0.316546  0.766762  0.343522  1
  P  P21  1  0.680167  0.088981  0.161091  1
  P  P22  1  0.317966  0.910453  0.839416  1
  P  P23  1  0.683980  0.232261  0.656805  1
  P  P24  1  0.767011  0.316445  0.843301  1
  P  P25  1  0.667292  0.666219  0.128855  1
  P  P26  1  0.665711  0.667468  0.628685  1
  P  P27  1  0.910590  0.317976  0.339402  1
  P  P28  1  0.769379  0.909833  0.342812  1
  P  P29  1  0.909775  0.769258  0.842821  1
  O  O30  1  0.998948  0.244372  0.429601  1
  O  O31  1  0.082107  0.253823  0.659638  1
  O  O32  1  0.208144  0.000527  0.748988  1
  O  O33  1  0.244275  0.998635  0.929621  1
  O  O34  1  0.098655  0.380921  0.179499  1
  O  O35  1  0.253950  0.081944  0.159825  1
  O  O36  1  0.187445  0.325548  0.833910  1
  O  O37  1  0.097492  0.519492  0.677661  1
  O  O38  1  0.988035  0.768083  0.933605  1
  O  O39  1  0.084934  0.661149  0.159625  1
  O  O40  1  0.325577  0.187259  0.333303  1
  O  O41  1  0.181130  0.488368  0.328367  1
  O  O42  1  0.380812  0.098772  0.679829  1
  O  O43  1  0.323229  0.345822  0.477472  1
  O  O44  1  0.347057  0.324293  0.977702  1
  O  O45  1  0.519677  0.097258  0.177429  1
  O  O46  1  0.336336  0.477425  0.824573  1
  O  O47  1  0.488593  0.180953  0.828757  1
  O  O48  1  0.255861  0.659025  0.666053  1
  O  O49  1  0.209980  0.789296  0.250124  1
  O  O50  1  0.239368  0.766390  0.069821  1
  O  O51  1  0.235152  0.756745  0.430260  1
  O  O52  1  0.383236  0.522913  0.175320  1
  O  O53  1  0.477278  0.336508  0.324846  1
  O  O54  1  0.660836  0.084888  0.659803  1
  O  O55  1  0.341445  0.743289  0.835537  1
  O  O56  1  0.523301  0.383187  0.675245  1
  O  O57  1  0.245656  0.004192  0.565730  1
  O  O58  1  0.767794  0.988119  0.433686  1
  O  O59  1  0.477431  0.617035  0.323333  1
  O  O60  1  0.659017  0.256032  0.166051  1
  O  O61  1  0.791021  0.998781  0.251014  1
  O  O62  1  0.337497  0.914545  0.340741  1
  O  O63  1  0.518445  0.667781  0.675172  1
  O  O64  1  0.617199  0.477200  0.823200  1
  O  O65  1  0.758006  0.234914  0.930239  1
  O  O66  1  0.766944  0.238214  0.569842  1
  O  O67  1  0.789580  0.209463  0.750122  1
  O  O68  1  0.743423  0.341474  0.335639  1
  O  O69  1  0.514202  0.813618  0.167668  1
  O  O70  1  0.479168  0.903123  0.821568  1
  O  O71  1  0.667039  0.518983  0.174940  1
  O  O72  1  0.665838  0.672656  0.522636  1
  O  O73  1  0.672717  0.667325  0.022817  1
  O  O74  1  0.622335  0.896799  0.323102  1
  O  O75  1  0.813463  0.514132  0.667209  1
  O  O76  1  0.668681  0.818596  0.670696  1
  O  O77  1  0.914660  0.337616  0.840128  1
  O  O78  1  0.000549  0.208200  0.248935  1
  O  O79  1  0.004666  0.245162  0.065586  1
  O  O80  1  0.903454  0.479040  0.321440  1
  O  O81  1  0.818634  0.668575  0.170945  1
  O  O82  1  0.741982  0.920546  0.836274  1
  O  O83  1  0.896672  0.622290  0.823078  1
  O  O84  1  0.757364  0.001724  0.071051  1
  O  O85  1  0.920603  0.742033  0.336219  1
  O  O86  1  0.001572  0.757007  0.571044  1
  O  O87  1  0.998590  0.791076  0.750983  1
