# generated using pymatgen
data_Na5P3H48C4N(O9F)3
_symmetry_space_group_name_H-M   'P 1'
_cell_length_a   6.48713351
_cell_length_b   13.57619590
_cell_length_c   19.63456421
_cell_angle_alpha   89.40412788
_cell_angle_beta   88.90643982
_cell_angle_gamma   88.09214685
_symmetry_Int_Tables_number   1
_chemical_formula_structural   Na5P3H48C4N(O9F)3
_chemical_formula_sum   'Na10 P6 H96 C8 N2 O54 F6'
_cell_volume   1727.87190467
_cell_formula_units_Z   2
loop_
 _symmetry_equiv_pos_site_id
 _symmetry_equiv_pos_as_xyz
  1  'x, y, z'
loop_
 _atom_site_type_symbol
 _atom_site_label
 _atom_site_symmetry_multiplicity
 _atom_site_fract_x
 _atom_site_fract_y
 _atom_site_fract_z
 _atom_site_occupancy
  Na  Na0  1  0.998019  0.441527  0.422777  1
  Na  Na1  1  0.001981  0.558473  0.577223  1
  Na  Na2  1  0.246429  0.250626  0.367261  1
  Na  Na3  1  0.753571  0.749374  0.632739  1
  Na  Na4  1  0.983647  0.935678  0.574704  1
  Na  Na5  1  0.016353  0.064322  0.425296  1
  Na  Na6  1  0.917061  0.807860  0.958839  1
  Na  Na7  1  0.082939  0.192140  0.041161  1
  Na  Na8  1  0.645481  0.319582  0.055938  1
  Na  Na9  1  0.354519  0.680418  0.944062  1
  P  P10  1  0.622557  0.755054  0.401148  1
  P  P11  1  0.377443  0.244946  0.598852  1
  P  P12  1  0.646780  0.468865  0.194400  1
  P  P13  1  0.353220  0.531135  0.805600  1
  P  P14  1  0.379914  0.965212  0.807492  1
  P  P15  1  0.620086  0.034788  0.192508  1
  H  H16  1  0.618836  0.471442  0.340280  1
  H  H17  1  0.381164  0.528558  0.659720  1
  H  H18  1  0.612702  0.553199  0.398585  1
  H  H19  1  0.387298  0.446801  0.601415  1
  H  H20  1  0.023140  0.409670  0.272228  1
  H  H21  1  0.976860  0.590330  0.727772  1
  H  H22  1  0.254562  0.423717  0.291025  1
  H  H23  1  0.745438  0.576283  0.708975  1
  H  H24  1  0.283552  0.908645  0.951639  1
  H  H25  1  0.716448  0.091355  0.048361  1
  H  H26  1  0.214240  0.917367  0.028481  1
  H  H27  1  0.785760  0.082633  0.971519  1
  H  H28  1  0.608738  0.870231  0.510316  1
  H  H29  1  0.391262  0.129769  0.489684  1
  H  H30  1  0.533535  0.914671  0.580283  1
  H  H31  1  0.466465  0.085329  0.419717  1
  H  H32  1  0.277218  0.484928  0.106903  1
  H  H33  1  0.722782  0.515072  0.893097  1
  H  H34  1  0.038312  0.484948  0.129994  1
  H  H35  1  0.961688  0.515052  0.870007  1
  H  H36  1  0.993274  0.346840  0.557914  1
  H  H37  1  0.006726  0.653160  0.442086  1
  H  H38  1  0.758035  0.381035  0.552209  1
  H  H39  1  0.241965  0.618965  0.447791  1
  H  H40  1  0.998199  0.891408  0.719445  1
  H  H41  1  0.001801  0.108592  0.280555  1
  H  H42  1  0.760825  0.909093  0.728099  1
  H  H43  1  0.239175  0.090907  0.271901  1
  H  H44  1  0.552600  0.583024  0.576869  1
  H  H45  1  0.447400  0.416976  0.423131  1
  H  H46  1  0.622610  0.640680  0.511765  1
  H  H47  1  0.377390  0.359320  0.488235  1
  H  H48  1  0.785300  0.255770  0.381305  1
  H  H49  1  0.214700  0.744230  0.618695  1
  H  H50  1  0.848968  0.251160  0.458655  1
  H  H51  1  0.151032  0.748840  0.541345  1
  H  H52  1  0.568964  0.316365  0.292039  1
  H  H53  1  0.431036  0.683635  0.707961  1
  H  H54  1  0.630151  0.201566  0.288896  1
  H  H55  1  0.369849  0.798434  0.711104  1
  H  H56  1  0.770540  0.971344  0.878124  1
  H  H57  1  0.229460  0.028656  0.121876  1
  H  H58  1  0.007282  0.986658  0.896005  1
  H  H59  1  0.992718  0.013342  0.103995  1
  H  H60  1  0.531975  0.846661  0.026867  1
  H  H61  1  0.468025  0.153339  0.973133  1
  H  H62  1  0.695380  0.890582  0.074849  1
  H  H63  1  0.304620  0.109418  0.925151  1
  H  H64  1  0.928030  0.396727  0.963986  1
  H  H65  1  0.071970  0.603273  0.036014  1
  H  H66  1  0.046371  0.400491  0.031837  1
  H  H67  1  0.953629  0.599509  0.968163  1
  H  H68  1  0.153503  0.807089  0.827283  1
  H  H69  1  0.846497  0.192911  0.172717  1
  H  H70  1  0.107110  0.694280  0.839552  1
  H  H71  1  0.892890  0.305720  0.160448  1
  H  H72  1  0.454197  0.430808  0.933716  1
  H  H73  1  0.545803  0.569192  0.066284  1
  H  H74  1  0.357841  0.327228  0.950281  1
  H  H75  1  0.642159  0.672772  0.049719  1
  H  H76  1  0.307482  0.297468  0.139230  1
  H  H77  1  0.692518  0.702532  0.860770  1
  H  H78  1  0.381846  0.186151  0.141601  1
  H  H79  1  0.618154  0.813849  0.858399  1
  H  H80  1  0.366487  0.042237  0.605984  1
  H  H81  1  0.633513  0.957763  0.394016  1
  H  H82  1  0.308547  0.962384  0.663237  1
  H  H83  1  0.691453  0.037616  0.336763  1
  H  H84  1  0.012133  0.851485  0.439765  1
  H  H85  1  0.987867  0.148515  0.560235  1
  H  H86  1  0.248236  0.878369  0.447542  1
  H  H87  1  0.751764  0.121631  0.552458  1
  H  H88  1  0.321727  0.831483  0.147686  1
  H  H89  1  0.678273  0.168517  0.852314  1
  H  H90  1  0.461192  0.757922  0.207817  1
  H  H91  1  0.538808  0.242078  0.792183  1
  H  H92  1  0.327276  0.700347  0.141199  1
  H  H93  1  0.672724  0.299653  0.858801  1
  H  H94  1  0.003131  0.664512  0.295748  1
  H  H95  1  0.996869  0.335488  0.704252  1
  H  H96  1  0.139411  0.602236  0.227373  1
  H  H97  1  0.860589  0.397764  0.772627  1
  H  H98  1  0.280461  0.661176  0.292723  1
  H  H99  1  0.719539  0.338824  0.707277  1
  H  H100  1  0.812832  0.760574  0.213042  1
  H  H101  1  0.187168  0.239426  0.786958  1
  H  H102  1  0.942794  0.833025  0.150040  1
  H  H103  1  0.057206  0.166975  0.849960  1
  H  H104  1  0.950086  0.700590  0.144396  1
  H  H105  1  0.049914  0.299410  0.855604  1
  H  H106  1  0.991672  0.839797  0.301920  1
  H  H107  1  0.008328  0.160203  0.698080  1
  H  H108  1  0.268452  0.842159  0.299940  1
  H  H109  1  0.731549  0.157841  0.700060  1
  H  H110  1  0.122941  0.913320  0.238892  1
  H  H111  1  0.877059  0.086680  0.761108  1
  C  C112  1  0.324495  0.762287  0.176477  1
  C  C113  1  0.675505  0.237713  0.823523  1
  C  C114  1  0.140569  0.664365  0.262476  1
  C  C115  1  0.859431  0.335635  0.737524  1
  C  C116  1  0.946834  0.763543  0.178833  1
  C  C117  1  0.053166  0.236457  0.821167  1
  C  C118  1  0.129550  0.845144  0.269206  1
  C  C119  1  0.870450  0.154856  0.730794  1
  N  N120  1  0.136096  0.758808  0.221555  1
  N  N121  1  0.863904  0.241192  0.778445  1
  O  O122  1  0.854079  0.752617  0.411518  1
  O  O123  1  0.145921  0.247383  0.588482  1
  O  O124  1  0.511238  0.664388  0.427740  1
  O  O125  1  0.488762  0.335612  0.572260  1
  O  O126  1  0.514263  0.853686  0.420270  1
  O  O127  1  0.485737  0.146314  0.579730  1
  O  O128  1  0.542527  0.459004  0.125637  1
  O  O129  1  0.457473  0.540996  0.874363  1
  O  O130  1  0.521014  0.434666  0.256468  1
  O  O131  1  0.478986  0.565334  0.743532  1
  O  O132  1  0.872867  0.431465  0.194165  1
  O  O133  1  0.127133  0.568535  0.805835  1
  O  O134  1  0.605360  0.929387  0.812707  1
  O  O135  1  0.394640  0.070613  0.187293  1
  O  O136  1  0.251387  0.899880  0.762474  1
  O  O137  1  0.748613  0.100120  0.237526  1
  O  O138  1  0.276225  0.993321  0.875688  1
  O  O139  1  0.723775  0.006679  0.124312  1
  O  O140  1  0.661395  0.484213  0.387319  1
  O  O141  1  0.338605  0.515787  0.612681  1
  O  O142  1  0.122184  0.400599  0.309771  1
  O  O143  1  0.877816  0.599401  0.690229  1
  O  O144  1  0.261166  0.868365  0.993413  1
  O  O145  1  0.738834  0.131635  0.006587  1
  O  O146  1  0.653807  0.880725  0.557164  1
  O  O147  1  0.346193  0.119275  0.442836  1
  O  O148  1  0.133986  0.499562  0.091176  1
  O  O149  1  0.866014  0.500438  0.908824  1
  O  O150  1  0.899323  0.399988  0.539385  1
  O  O151  1  0.100677  0.600012  0.460615  1
  O  O152  1  0.868606  0.889631  0.694106  1
  O  O153  1  0.131394  0.110369  0.305894  1
  O  O154  1  0.667147  0.622649  0.558244  1
  O  O155  1  0.332853  0.377351  0.441756  1
  O  O156  1  0.905141  0.251119  0.412429  1
  O  O157  1  0.094859  0.748881  0.587571  1
  O  O158  1  0.584975  0.254937  0.320187  1
  O  O159  1  0.415025  0.745063  0.679813  1
  O  O160  1  0.865262  0.984116  0.916070  1
  O  O161  1  0.134738  0.015884  0.083930  1
  O  O162  1  0.672423  0.834088  0.045032  1
  O  O163  1  0.327577  0.165912  0.954968  1
  O  O164  1  0.971524  0.354549  0.003138  1
  O  O165  1  0.028476  0.645451  0.996862  1
  O  O166  1  0.120731  0.757973  0.863118  1
  O  O167  1  0.879269  0.242027  0.136882  1
  O  O168  1  0.465887  0.371551  0.963135  1
  O  O169  1  0.534113  0.628449  0.036865  1
  O  O170  1  0.361707  0.244286  0.110599  1
  O  O171  1  0.638293  0.755714  0.889401  1
  O  O172  1  0.307403  0.975319  0.614335  1
  O  O173  1  0.692597  0.024681  0.385665  1
  O  O174  1  0.104606  0.899289  0.460532  1
  O  O175  1  0.895394  0.100711  0.539468  1
  F  F176  1  0.598724  0.749126  0.318679  1
  F  F177  1  0.401276  0.250874  0.681321  1
  F  F178  1  0.660439  0.586842  0.203669  1
  F  F179  1  0.339561  0.413158  0.796331  1
  F  F180  1  0.390686  0.067737  0.765253  1
  F  F181  1  0.609314  0.932263  0.234747  1
