# generated using pymatgen
data_Na2FePCO7
_symmetry_space_group_name_H-M   'P 1'
_cell_length_a   8.95150889
_cell_length_b   5.23121062
_cell_length_c   6.53453843
_cell_angle_alpha   90.00000000
_cell_angle_beta   90.00000000
_cell_angle_gamma   89.60485050
_symmetry_Int_Tables_number   1
_chemical_formula_structural   Na2FePCO7
_chemical_formula_sum   'Na4 Fe2 P2 C2 O14'
_cell_volume   305.98704628
_cell_formula_units_Z   2
loop_
 _symmetry_equiv_pos_site_id
 _symmetry_equiv_pos_as_xyz
  1  'x, y, z'
loop_
 _atom_site_type_symbol
 _atom_site_label
 _atom_site_symmetry_multiplicity
 _atom_site_fract_x
 _atom_site_fract_y
 _atom_site_fract_z
 _atom_site_occupancy
  Na  Na0  1  0.081622  0.763761  0.242109  1
  Na  Na1  1  0.263080  0.251041  0.487732  1
  Na  Na2  1  0.736920  0.748959  0.987732  1
  Na  Na3  1  0.918378  0.236239  0.742109  1
  Fe  Fe4  1  0.345102  0.783904  0.763554  1
  Fe  Fe5  1  0.654898  0.216096  0.263554  1
  P  P6  1  0.424417  0.709530  0.253549  1
  P  P7  1  0.575583  0.290470  0.753549  1
  C  C8  1  0.064681  0.729910  0.745742  1
  C  C9  1  0.935319  0.270090  0.245742  1
  O  O10  1  0.075100  0.297473  0.262926  1
  O  O11  1  0.127833  0.956494  0.738604  1
  O  O12  1  0.158068  0.535450  0.738598  1
  O  O13  1  0.321933  0.760129  0.065807  1
  O  O14  1  0.326016  0.775326  0.442283  1
  O  O15  1  0.431744  0.129665  0.742496  1
  O  O16  1  0.469408  0.421309  0.264134  1
  O  O17  1  0.530592  0.578691  0.764134  1
  O  O18  1  0.568256  0.870335  0.242496  1
  O  O19  1  0.678067  0.239871  0.565807  1
  O  O20  1  0.673984  0.224674  0.942283  1
  O  O21  1  0.841932  0.464550  0.238598  1
  O  O22  1  0.872167  0.043506  0.238604  1
  O  O23  1  0.924900  0.702527  0.762926  1
