# generated using pymatgen
data_Li6MnV3(PO4)6
_symmetry_space_group_name_H-M   'P 1'
_cell_length_a   8.55458040
_cell_length_b   12.10025078
_cell_length_c   8.76227590
_cell_angle_alpha   89.50681334
_cell_angle_beta   90.06381006
_cell_angle_gamma   91.08161978
_symmetry_Int_Tables_number   1
_chemical_formula_structural   Li6MnV3(PO4)6
_chemical_formula_sum   'Li12 Mn2 V6 P12 O48'
_cell_volume   906.81006533
_cell_formula_units_Z   2
loop_
 _symmetry_equiv_pos_site_id
 _symmetry_equiv_pos_as_xyz
  1  'x, y, z'
loop_
 _atom_site_type_symbol
 _atom_site_label
 _atom_site_symmetry_multiplicity
 _atom_site_fract_x
 _atom_site_fract_y
 _atom_site_fract_z
 _atom_site_occupancy
  Li  Li0  1  0.064821  0.347370  0.514703  1
  Li  Li1  1  0.080228  0.690516  0.086712  1
  Li  Li2  1  0.180276  0.177177  0.779982  1
  Li  Li3  1  0.319598  0.321160  0.279103  1
  Li  Li4  1  0.420327  0.809481  0.586262  1
  Li  Li5  1  0.434698  0.153832  0.012265  1
  Li  Li6  1  0.564900  0.846164  0.985523  1
  Li  Li7  1  0.579610  0.190736  0.414253  1
  Li  Li8  1  0.680801  0.678663  0.720835  1
  Li  Li9  1  0.820682  0.822102  0.218502  1
  Li  Li10  1  0.920765  0.308895  0.914842  1
  Li  Li11  1  0.934960  0.653295  0.485543  1
  Mn  Mn12  1  0.244760  0.108786  0.463894  1
  Mn  Mn13  1  0.752907  0.105500  0.970506  1
  V  V14  1  0.244159  0.894843  0.027068  1
  V  V15  1  0.254960  0.605311  0.528141  1
  V  V16  1  0.254981  0.390814  0.965928  1
  V  V17  1  0.744872  0.609584  0.034758  1
  V  V18  1  0.744961  0.394763  0.472294  1
  V  V19  1  0.756381  0.891511  0.534242  1
  P  P20  1  0.039425  0.490279  0.248732  1
  P  P21  1  0.114897  0.848611  0.382815  1
  P  P22  1  0.114051  0.145701  0.111803  1
  P  P23  1  0.385906  0.651608  0.883437  1
  P  P24  1  0.385748  0.352738  0.610045  1
  P  P25  1  0.458344  0.009168  0.746829  1
  P  P26  1  0.544414  0.989710  0.248953  1
  P  P27  1  0.614410  0.646913  0.390034  1
  P  P28  1  0.613635  0.350508  0.117366  1
  P  P29  1  0.884887  0.851748  0.889447  1
  P  P30  1  0.883824  0.152805  0.620089  1
  P  P31  1  0.959720  0.509587  0.751600  1
  O  O32  1  0.052350  0.897020  0.891315  1
  O  O33  1  0.051327  0.445008  0.871882  1
  O  O34  1  0.055501  0.600020  0.664968  1
  O  O35  1  0.054700  0.192926  0.584754  1
  O  O36  1  0.098878  0.581813  0.359023  1
  O  O37  1  0.126735  0.830334  0.206344  1
  O  O38  1  0.138353  0.971009  0.418614  1
  O  O39  1  0.127647  0.245766  0.995147  1
  O  O40  1  0.174217  0.187268  0.270434  1
  O  O41  1  0.183783  0.433633  0.177305  1
  O  O42  1  0.229798  0.775082  0.471964  1
  O  O43  1  0.235833  0.062551  0.050095  1
  O  O44  1  0.265819  0.438968  0.549782  1
  O  O45  1  0.270827  0.723500  0.972045  1
  O  O46  1  0.310644  0.063952  0.674814  1
  O  O47  1  0.328723  0.313018  0.769410  1
  O  O48  1  0.360359  0.529724  0.922276  1
  O  O49  1  0.371258  0.254198  0.492829  1
  O  O50  1  0.376500  0.669046  0.706423  1
  O  O51  1  0.399532  0.917320  0.859361  1
  O  O52  1  0.446786  0.900642  0.164557  1
  O  O53  1  0.441300  0.312198  0.079401  1
  O  O54  1  0.446452  0.603359  0.390169  1
  O  O55  1  0.456069  0.056024  0.367519  1
  O  O56  1  0.550174  0.945146  0.627878  1
  O  O57  1  0.553298  0.396341  0.608629  1
  O  O58  1  0.558816  0.688410  0.921144  1
  O  O59  1  0.551627  0.101259  0.830459  1
  O  O60  1  0.604571  0.082348  0.135371  1
  O  O61  1  0.623213  0.332353  0.294523  1
  O  O62  1  0.628918  0.745266  0.506301  1
  O  O63  1  0.635904  0.472966  0.079857  1
  O  O64  1  0.672372  0.687116  0.231133  1
  O  O65  1  0.688006  0.932212  0.321109  1
  O  O66  1  0.729944  0.281072  0.027907  1
  O  O67  1  0.734462  0.561025  0.450861  1
  O  O68  1  0.762589  0.933018  0.951129  1
  O  O69  1  0.766942  0.224802  0.531117  1
  O  O70  1  0.815248  0.565902  0.823051  1
  O  O71  1  0.830528  0.812347  0.729397  1
  O  O72  1  0.875253  0.751178  0.005520  1
  O  O73  1  0.859740  0.031420  0.580010  1
  O  O74  1  0.874954  0.166789  0.798913  1
  O  O75  1  0.900011  0.418466  0.640781  1
  O  O76  1  0.942181  0.811582  0.420587  1
  O  O77  1  0.943777  0.399879  0.335484  1
  O  O78  1  0.947988  0.554091  0.127661  1
  O  O79  1  0.947188  0.100756  0.114247  1
