# generated using pymatgen
data_Na8Li9(FeO4)4
_symmetry_space_group_name_H-M   'P 1'
_cell_length_a   8.25572636
_cell_length_b   8.04104562
_cell_length_c   6.64760882
_cell_angle_alpha   90.32079730
_cell_angle_beta   90.88653589
_cell_angle_gamma   89.82535425
_symmetry_Int_Tables_number   1
_chemical_formula_structural   Na8Li9(FeO4)4
_chemical_formula_sum   'Na8 Li9 Fe4 O16'
_cell_volume   441.23765559
_cell_formula_units_Z   1
loop_
 _symmetry_equiv_pos_site_id
 _symmetry_equiv_pos_as_xyz
  1  'x, y, z'
loop_
 _atom_site_type_symbol
 _atom_site_label
 _atom_site_symmetry_multiplicity
 _atom_site_fract_x
 _atom_site_fract_y
 _atom_site_fract_z
 _atom_site_occupancy
  Na  Na0  1  0.988354  0.497268  0.255057  1
  Na  Na1  1  0.025322  0.496412  0.747886  1
  Na  Na2  1  0.250634  0.743280  0.009716  1
  Na  Na3  1  0.251003  0.245520  0.506577  1
  Na  Na4  1  0.509095  0.998574  0.761976  1
  Na  Na5  1  0.474754  0.003052  0.242092  1
  Na  Na6  1  0.735587  0.736818  0.468213  1
  Na  Na7  1  0.748064  0.275257  0.027214  1
  Li  Li8  1  0.083906  0.790143  0.479960  1
  Li  Li9  1  0.155621  0.990861  0.750162  1
  Li  Li10  1  0.362906  0.486053  0.245379  1
  Li  Li11  1  0.411111  0.286426  0.976459  1
  Li  Li12  1  0.582144  0.706772  0.020530  1
  Li  Li13  1  0.639968  0.511130  0.750344  1
  Li  Li14  1  0.860616  0.013874  0.255319  1
  Li  Li15  1  0.849340  0.022066  0.740095  1
  Li  Li16  1  0.917748  0.232982  0.504608  1
  Fe  Fe17  1  0.122919  0.215614  0.016086  1
  Fe  Fe18  1  0.375269  0.718605  0.514380  1
  Fe  Fe19  1  0.625653  0.277160  0.493162  1
  Fe  Fe20  1  0.876283  0.776396  0.987854  1
  O  O21  1  0.990767  0.208776  0.241273  1
  O  O22  1  0.016902  0.192830  0.756737  1
  O  O23  1  0.222630  0.553180  0.487349  1
  O  O24  1  0.217388  0.430328  0.024183  1
  O  O25  1  0.289333  0.930027  0.524096  1
  O  O26  1  0.290554  0.058183  0.980282  1
  O  O27  1  0.493495  0.703586  0.748037  1
  O  O28  1  0.465087  0.710137  0.261888  1
  O  O29  1  0.509460  0.292144  0.257364  1
  O  O30  1  0.544740  0.289158  0.745848  1
  O  O31  1  0.735691  0.954290  0.994126  1
  O  O32  1  0.719952  0.061876  0.491010  1
  O  O33  1  0.789818  0.569048  0.973324  1
  O  O34  1  0.775386  0.444722  0.511555  1
  O  O35  1  0.955664  0.786870  0.242768  1
  O  O36  1  0.984518  0.806201  0.749915  1
