# generated using pymatgen
data_Li4Cr2Fe3Sb3O16
_symmetry_space_group_name_H-M   'P 1'
_cell_length_a   6.17667125
_cell_length_b   6.12071945
_cell_length_c   9.72495854
_cell_angle_alpha   90.88028532
_cell_angle_beta   91.45569837
_cell_angle_gamma   119.72078551
_symmetry_Int_Tables_number   1
_chemical_formula_structural   Li4Cr2Fe3Sb3O16
_chemical_formula_sum   'Li4 Cr2 Fe3 Sb3 O16'
_cell_volume   319.02513696
_cell_formula_units_Z   1
loop_
 _symmetry_equiv_pos_site_id
 _symmetry_equiv_pos_as_xyz
  1  'x, y, z'
loop_
 _atom_site_type_symbol
 _atom_site_label
 _atom_site_symmetry_multiplicity
 _atom_site_fract_x
 _atom_site_fract_y
 _atom_site_fract_z
 _atom_site_occupancy
  Li  Li0  1  0.324573  0.658939  0.881572  1
  Li  Li1  1  0.964152  0.981996  0.986407  1
  Li  Li2  1  0.978813  0.983734  0.504171  1
  Li  Li3  1  0.649019  0.325145  0.401978  1
  Cr  Cr4  1  0.347780  0.679063  0.493825  1
  Cr  Cr5  1  0.693905  0.345377  0.975293  1
  Fe  Fe6  1  0.663221  0.831947  0.215443  1
  Fe  Fe7  1  0.834636  0.663810  0.711480  1
  Fe  Fe8  1  0.836642  0.174075  0.712436  1
  Sb  Sb9  1  0.168800  0.831408  0.214042  1
  Sb  Sb10  1  0.169007  0.337639  0.214468  1
  Sb  Sb11  1  0.347316  0.174858  0.713398  1
  O  O12  1  0.187165  0.853621  0.596213  1
  O  O13  1  0.033813  0.521593  0.338074  1
  O  O14  1  0.312697  0.653751  0.100631  1
  O  O15  1  0.018378  0.011367  0.317727  1
  O  O16  1  0.021047  0.017581  0.807406  1
  O  O17  1  0.175210  0.332860  0.600159  1
  O  O18  1  0.466897  0.958835  0.340636  1
  O  O19  1  0.463429  0.504303  0.342169  1
  O  O20  1  0.314443  0.153118  0.103519  1
  O  O21  1  0.669141  0.850106  0.594480  1
  O  O22  1  0.510995  0.468673  0.849532  1
  O  O23  1  0.523876  0.042471  0.843317  1
  O  O24  1  0.656829  0.322079  0.602091  1
  O  O25  1  0.852504  0.679588  0.099888  1
  O  O26  1  0.961844  0.466973  0.846574  1
  O  O27  1  0.853872  0.175390  0.100912  1
