# generated using pymatgen
data_Na5CoO4
_symmetry_space_group_name_H-M   'P 1'
_cell_length_a   10.65766904
_cell_length_b   10.49163148
_cell_length_c   10.36135417
_cell_angle_alpha   90.00000000
_cell_angle_beta   90.00000000
_cell_angle_gamma   90.00000000
_symmetry_Int_Tables_number   1
_chemical_formula_structural   Na5CoO4
_chemical_formula_sum   'Na40 Co8 O32'
_cell_volume   1158.56865932
_cell_formula_units_Z   8
loop_
 _symmetry_equiv_pos_site_id
 _symmetry_equiv_pos_as_xyz
  1  'x, y, z'
loop_
 _atom_site_type_symbol
 _atom_site_label
 _atom_site_symmetry_multiplicity
 _atom_site_fract_x
 _atom_site_fract_y
 _atom_site_fract_z
 _atom_site_occupancy
  Na  Na0  1  0.105054  0.613955  0.148264  1
  Na  Na1  1  0.105054  0.886045  0.648264  1
  Na  Na2  1  0.112721  0.106293  0.837543  1
  Na  Na3  1  0.112721  0.393707  0.337543  1
  Na  Na4  1  0.117229  0.844982  0.364699  1
  Na  Na5  1  0.117229  0.655018  0.864699  1
  Na  Na6  1  0.147421  0.879557  0.089749  1
  Na  Na7  1  0.147421  0.620443  0.589749  1
  Na  Na8  1  0.161443  0.121309  0.399561  1
  Na  Na9  1  0.161443  0.378691  0.899560  1
  Na  Na10  1  0.338557  0.878691  0.899560  1
  Na  Na11  1  0.338557  0.621309  0.399561  1
  Na  Na12  1  0.352579  0.120443  0.589749  1
  Na  Na13  1  0.352579  0.379557  0.089749  1
  Na  Na14  1  0.382771  0.344982  0.364699  1
  Na  Na15  1  0.382771  0.155018  0.864699  1
  Na  Na16  1  0.387279  0.606293  0.837543  1
  Na  Na17  1  0.387279  0.893707  0.337543  1
  Na  Na18  1  0.394946  0.386045  0.648264  1
  Na  Na19  1  0.394946  0.113955  0.148264  1
  Na  Na20  1  0.605054  0.613955  0.351736  1
  Na  Na21  1  0.605054  0.886045  0.851736  1
  Na  Na22  1  0.612721  0.106293  0.662457  1
  Na  Na23  1  0.612721  0.393707  0.162457  1
  Na  Na24  1  0.617229  0.655018  0.635301  1
  Na  Na25  1  0.617229  0.844982  0.135301  1
  Na  Na26  1  0.647421  0.620443  0.910251  1
  Na  Na27  1  0.647421  0.879557  0.410251  1
  Na  Na28  1  0.661443  0.121309  0.100440  1
  Na  Na29  1  0.661443  0.378691  0.600440  1
  Na  Na30  1  0.838557  0.621309  0.100440  1
  Na  Na31  1  0.838557  0.878691  0.600440  1
  Na  Na32  1  0.852579  0.379557  0.410251  1
  Na  Na33  1  0.852579  0.120443  0.910251  1
  Na  Na34  1  0.882771  0.155018  0.635301  1
  Na  Na35  1  0.882771  0.344982  0.135301  1
  Na  Na36  1  0.887279  0.606293  0.662457  1
  Na  Na37  1  0.887279  0.893707  0.162457  1
  Na  Na38  1  0.894946  0.113955  0.351736  1
  Na  Na39  1  0.894946  0.386045  0.851736  1
  Co  Co40  1  0.125840  0.147743  0.116525  1
  Co  Co41  1  0.125840  0.352257  0.616525  1
  Co  Co42  1  0.374160  0.647743  0.116525  1
  Co  Co43  1  0.374160  0.852257  0.616525  1
  Co  Co44  1  0.625840  0.147743  0.383475  1
  Co  Co45  1  0.625840  0.352257  0.883475  1
  Co  Co46  1  0.874160  0.647743  0.383475  1
  Co  Co47  1  0.874160  0.852257  0.883475  1
  O  O48  1  0.021049  0.263196  0.503366  1
  O  O49  1  0.021049  0.236804  0.003366  1
  O  O50  1  0.051112  0.024088  0.230746  1
  O  O51  1  0.051112  0.475912  0.730746  1
  O  O52  1  0.242393  0.052545  0.005058  1
  O  O53  1  0.242393  0.447455  0.505058  1
  O  O54  1  0.235078  0.244517  0.225003  1
  O  O55  1  0.235078  0.255483  0.725003  1
  O  O56  1  0.264922  0.744517  0.225003  1
  O  O57  1  0.264922  0.755483  0.725003  1
  O  O58  1  0.257607  0.552545  0.005058  1
  O  O59  1  0.257607  0.947455  0.505058  1
  O  O60  1  0.448888  0.524088  0.230746  1
  O  O61  1  0.448888  0.975912  0.730746  1
  O  O62  1  0.478951  0.763196  0.503366  1
  O  O63  1  0.478951  0.736804  0.003366  1
  O  O64  1  0.521049  0.263196  0.996634  1
  O  O65  1  0.521049  0.236804  0.496634  1
  O  O66  1  0.551112  0.024088  0.269254  1
  O  O67  1  0.551112  0.475912  0.769254  1
  O  O68  1  0.742393  0.052545  0.494942  1
  O  O69  1  0.742393  0.447455  0.994942  1
  O  O70  1  0.735078  0.244517  0.274997  1
  O  O71  1  0.735078  0.255483  0.774997  1
  O  O72  1  0.764922  0.744517  0.274997  1
  O  O73  1  0.764922  0.755483  0.774997  1
  O  O74  1  0.757607  0.947455  0.994942  1
  O  O75  1  0.757607  0.552545  0.494942  1
  O  O76  1  0.948888  0.975912  0.769254  1
  O  O77  1  0.948888  0.524088  0.269254  1
  O  O78  1  0.978951  0.763196  0.996634  1
  O  O79  1  0.978951  0.736804  0.496634  1
