# generated using pymatgen
data_Ti17(NO4)6
_symmetry_space_group_name_H-M   'P 1'
_cell_length_a   11.47236171
_cell_length_b   9.66603563
_cell_length_c   10.04064713
_cell_angle_alpha   90.00000000
_cell_angle_beta   90.00000000
_cell_angle_gamma   89.97028242
_symmetry_Int_Tables_number   1
_chemical_formula_structural   Ti17(NO4)6
_chemical_formula_sum   'Ti34 N12 O48'
_cell_volume   1113.42987289
_cell_formula_units_Z   2
loop_
 _symmetry_equiv_pos_site_id
 _symmetry_equiv_pos_as_xyz
  1  'x, y, z'
loop_
 _atom_site_type_symbol
 _atom_site_label
 _atom_site_symmetry_multiplicity
 _atom_site_fract_x
 _atom_site_fract_y
 _atom_site_fract_z
 _atom_site_occupancy
  Ti  Ti0  1  0.000574  0.364446  0.429568  1
  Ti  Ti1  1  0.001338  0.636979  0.939990  1
  Ti  Ti2  1  0.000574  0.364446  0.070432  1
  Ti  Ti3  1  0.999944  0.300696  0.750000  1
  Ti  Ti4  1  0.001338  0.636979  0.560010  1
  Ti  Ti5  1  0.170661  0.140470  0.922925  1
  Ti  Ti6  1  0.162673  0.859530  0.422925  1
  Ti  Ti7  1  0.170661  0.140470  0.577075  1
  Ti  Ti8  1  0.168279  0.195457  0.250000  1
  Ti  Ti9  1  0.162673  0.859530  0.077075  1
  Ti  Ti10  1  0.165054  0.804543  0.750000  1
  Ti  Ti11  1  0.331995  0.363021  0.060010  1
  Ti  Ti12  1  0.332759  0.635554  0.570432  1
  Ti  Ti13  1  0.332759  0.635554  0.929568  1
  Ti  Ti14  1  0.331995  0.363021  0.439990  1
  Ti  Ti15  1  0.333390  0.699304  0.250000  1
  Ti  Ti16  1  0.494288  0.143858  0.576545  1
  Ti  Ti17  1  0.495285  0.198678  0.250000  1
  Ti  Ti18  1  0.499248  0.864356  0.069387  1
  Ti  Ti19  1  0.499248  0.864356  0.430613  1
  Ti  Ti20  1  0.494288  0.143858  0.923455  1
  Ti  Ti21  1  0.497408  0.801834  0.750000  1
  Ti  Ti22  1  0.666128  0.640973  0.572295  1
  Ti  Ti23  1  0.667205  0.359027  0.072295  1
  Ti  Ti24  1  0.667205  0.359027  0.427705  1
  Ti  Ti25  1  0.665358  0.697836  0.250000  1
  Ti  Ti26  1  0.667975  0.302164  0.750000  1
  Ti  Ti27  1  0.666128  0.640973  0.927705  1
  Ti  Ti28  1  0.834085  0.135644  0.569387  1
  Ti  Ti29  1  0.838048  0.801322  0.750000  1
  Ti  Ti30  1  0.839046  0.856142  0.423455  1
  Ti  Ti31  1  0.834085  0.135644  0.930613  1
  Ti  Ti32  1  0.835925  0.198166  0.250000  1
  Ti  Ti33  1  0.839046  0.856142  0.076545  1
  N  N34  1  0.001416  0.267108  0.250000  1
  N  N35  1  0.000174  0.731232  0.750000  1
  N  N36  1  0.155466  0.220645  0.750000  1
  N  N37  1  0.177868  0.779355  0.250000  1
  N  N38  1  0.333160  0.268768  0.250000  1
  N  N39  1  0.331917  0.732892  0.750000  1
  N  N40  1  0.512969  0.220126  0.750000  1
  N  N41  1  0.501178  0.773529  0.250000  1
  N  N42  1  0.665313  0.271091  0.250000  1
  N  N43  1  0.668020  0.728909  0.750000  1
  N  N44  1  0.820364  0.779874  0.250000  1
  N  N45  1  0.832155  0.226471  0.750000  1
  O  O46  1  0.998068  0.186181  0.565617  1
  O  O47  1  0.999852  0.543906  0.391332  1
  O  O48  1  0.000220  0.450430  0.878310  1
  O  O49  1  0.999695  0.824200  0.050241  1
  O  O50  1  0.999852  0.543906  0.108668  1
  O  O51  1  0.998068  0.186181  0.934383  1
  O  O52  1  0.000220  0.450430  0.621690  1
  O  O53  1  0.999695  0.824200  0.449759  1
  O  O54  1  0.163779  0.048115  0.119711  1
  O  O55  1  0.163779  0.048115  0.380289  1
  O  O56  1  0.166298  0.689186  0.562554  1
  O  O57  1  0.167036  0.310814  0.437446  1
  O  O58  1  0.167036  0.310814  0.062554  1
  O  O59  1  0.166298  0.689186  0.937446  1
  O  O60  1  0.169555  0.951885  0.880289  1
  O  O61  1  0.169555  0.951885  0.619711  1
  O  O62  1  0.333638  0.175800  0.550241  1
  O  O63  1  0.333638  0.175800  0.949759  1
  O  O64  1  0.333481  0.456094  0.891332  1
  O  O65  1  0.333113  0.549570  0.121690  1
  O  O66  1  0.333481  0.456094  0.608668  1
  O  O67  1  0.335266  0.813819  0.065617  1
  O  O68  1  0.333113  0.549570  0.378310  1
  O  O69  1  0.335266  0.813819  0.434383  1
  O  O70  1  0.499516  0.310814  0.437260  1
  O  O71  1  0.499516  0.310814  0.062740  1
  O  O72  1  0.499782  0.688221  0.565894  1
  O  O73  1  0.499466  0.951574  0.618341  1
  O  O74  1  0.502390  0.048101  0.120389  1
  O  O75  1  0.502390  0.048101  0.379611  1
  O  O76  1  0.499782  0.688221  0.934106  1
  O  O77  1  0.499466  0.951574  0.881659  1
  O  O78  1  0.668375  0.190811  0.562711  1
  O  O79  1  0.666610  0.452887  0.618565  1
  O  O80  1  0.666723  0.547113  0.381435  1
  O  O81  1  0.666723  0.547113  0.118565  1
  O  O82  1  0.664958  0.809189  0.437289  1
  O  O83  1  0.664958  0.809189  0.062711  1
  O  O84  1  0.668375  0.190811  0.937289  1
  O  O85  1  0.666610  0.452887  0.881435  1
  O  O86  1  0.833818  0.689186  0.562740  1
  O  O87  1  0.833818  0.689186  0.937260  1
  O  O88  1  0.830943  0.951900  0.620389  1
  O  O89  1  0.830943  0.951900  0.879611  1
  O  O90  1  0.833868  0.048426  0.118341  1
  O  O91  1  0.833868  0.048426  0.381659  1
  O  O92  1  0.833551  0.311779  0.434106  1
  O  O93  1  0.833551  0.311779  0.065894  1
