# generated using pymatgen
data_Li2VO2F
_symmetry_space_group_name_H-M   'P 1'
_cell_length_a   3.02350456
_cell_length_b   10.41386343
_cell_length_c   7.36270147
_cell_angle_alpha   90.99041414
_cell_angle_beta   90.06420288
_cell_angle_gamma   89.88370983
_symmetry_Int_Tables_number   1
_chemical_formula_structural   Li2VO2F
_chemical_formula_sum   'Li8 V4 O8 F4'
_cell_volume   231.78944668
_cell_formula_units_Z   4
loop_
 _symmetry_equiv_pos_site_id
 _symmetry_equiv_pos_as_xyz
  1  'x, y, z'
loop_
 _atom_site_type_symbol
 _atom_site_label
 _atom_site_symmetry_multiplicity
 _atom_site_fract_x
 _atom_site_fract_y
 _atom_site_fract_z
 _atom_site_occupancy
  Li  Li0  1  0.000091  0.663076  0.148287  1
  Li  Li1  1  0.999457  0.155014  0.142247  1
  Li  Li2  1  0.000160  0.325765  0.843905  1
  Li  Li3  1  0.002032  0.844966  0.862592  1
  Li  Li4  1  0.499438  0.411285  0.160856  1
  Li  Li5  1  0.499893  0.941517  0.121901  1
  Li  Li6  1  0.497983  0.074925  0.868857  1
  Li  Li7  1  0.500134  0.576655  0.849149  1
  V  V8  1  0.998956  0.008765  0.505348  1
  V  V9  1  0.991444  0.498872  0.499451  1
  V  V10  1  0.507351  0.253197  0.496972  1
  V  V11  1  0.503750  0.741148  0.519253  1
  O  O12  1  0.993988  0.666242  0.658935  1
  O  O13  1  0.017446  0.173800  0.647239  1
  O  O14  1  0.996439  0.336692  0.345321  1
  O  O15  1  0.999301  0.000534  0.996371  1
  O  O16  1  0.496543  0.420403  0.650011  1
  O  O17  1  0.492333  0.914165  0.630558  1
  O  O18  1  0.513679  0.085004  0.351893  1
  O  O19  1  0.488389  0.586657  0.351144  1
  F  F20  1  0.001896  0.823051  0.346683  1
  F  F21  1  0.999821  0.499354  0.000674  1
  F  F22  1  0.499815  0.260127  0.998852  1
  F  F23  1  0.499581  0.738785  0.003502  1
