# generated using pymatgen
data_Li5V3P8O29
_symmetry_space_group_name_H-M   'P 1'
_cell_length_a   9.81195750
_cell_length_b   9.80608876
_cell_length_c   13.92184830
_cell_angle_alpha   89.89238352
_cell_angle_beta   89.83744463
_cell_angle_gamma   60.08031195
_symmetry_Int_Tables_number   1
_chemical_formula_structural   Li5V3P8O29
_chemical_formula_sum   'Li10 V6 P16 O58'
_cell_volume   1160.98896759
_cell_formula_units_Z   2
loop_
 _symmetry_equiv_pos_site_id
 _symmetry_equiv_pos_as_xyz
  1  'x, y, z'
loop_
 _atom_site_type_symbol
 _atom_site_label
 _atom_site_symmetry_multiplicity
 _atom_site_fract_x
 _atom_site_fract_y
 _atom_site_fract_z
 _atom_site_occupancy
  Li  Li0  1  0.912841  0.779043  0.059576  1
  Li  Li1  1  0.769621  0.910338  0.559890  1
  Li  Li2  1  0.902358  0.321406  0.557479  1
  Li  Li3  1  0.665944  0.665047  0.883720  1
  Li  Li4  1  0.771895  0.313868  0.061821  1
  Li  Li5  1  0.319218  0.907761  0.059735  1
  Li  Li6  1  0.325368  0.768700  0.560857  1
  Li  Li7  1  0.092779  0.678859  0.439435  1
  Li  Li8  1  0.225528  0.094565  0.438821  1
  Li  Li9  1  0.095209  0.227062  0.939874  1
  V  V10  1  0.565119  0.428153  0.253133  1
  V  V11  1  0.432572  0.564139  0.753691  1
  V  V12  1  0.568694  0.007015  0.753150  1
  V  V13  1  0.435580  0.999287  0.250743  1
  V  V14  1  0.998944  0.569408  0.247346  1
  V  V15  1  0.998165  0.432304  0.746803  1
  P  P16  1  0.910094  0.769218  0.842877  1
  P  P17  1  0.768932  0.913566  0.343532  1
  P  P18  1  0.909505  0.321061  0.340425  1
  P  P19  1  0.666297  0.664172  0.126437  1
  P  P20  1  0.663676  0.670226  0.627002  1
  P  P21  1  0.770398  0.318261  0.844009  1
  P  P22  1  0.683748  0.232877  0.658342  1
  P  P23  1  0.319387  0.910389  0.842119  1
  P  P24  1  0.683333  0.085988  0.158167  1
  P  P25  1  0.319131  0.766955  0.342448  1
  P  P26  1  0.232733  0.683482  0.156751  1
  P  P27  1  0.328319  0.336324  0.373829  1
  P  P28  1  0.329793  0.333802  0.874485  1
  P  P29  1  0.087064  0.682566  0.658573  1
  P  P30  1  0.233363  0.086024  0.658045  1
  P  P31  1  0.088925  0.230641  0.158673  1
  O  O32  1  0.996441  0.756962  0.568183  1
  O  O33  1  0.916705  0.745435  0.337172  1
  O  O34  1  0.770497  0.996477  0.072143  1
  O  O35  1  0.741919  0.917240  0.833932  1
  O  O36  1  0.887632  0.625330  0.825426  1
  O  O37  1  0.814493  0.670835  0.164062  1
  O  O38  1  0.899188  0.479669  0.322531  1
  O  O39  1  0.001072  0.242127  0.068047  1
  O  O40  1  0.921295  0.335170  0.837597  1
  O  O41  1  0.668554  0.817831  0.669930  1
  O  O42  1  0.618484  0.902548  0.322360  1
  O  O43  1  0.812738  0.514820  0.665516  1
  O  O44  1  0.669522  0.660759  0.018042  1
  O  O45  1  0.663812  0.673576  0.519778  1
  O  O46  1  0.671299  0.510969  0.166271  1
  O  O47  1  0.484725  0.895135  0.825146  1
  O  O48  1  0.514314  0.811854  0.164613  1
  O  O49  1  0.743435  0.340305  0.334489  1
  O  O50  1  0.787109  0.208384  0.754934  1
  O  O51  1  0.773366  0.232617  0.572257  1
  O  O52  1  0.762209  0.247384  0.936423  1
  O  O53  1  0.627897  0.486211  0.825454  1
  O  O54  1  0.512954  0.671849  0.668899  1
  O  O55  1  0.662107  0.255370  0.161784  1
  O  O56  1  0.479600  0.616915  0.322886  1
  O  O57  1  0.336692  0.914806  0.341995  1
  O  O58  1  0.788515  0.005270  0.254210  1
  O  O59  1  0.759996  0.991715  0.436149  1
  O  O60  1  0.247360  0.996336  0.567361  1
  O  O61  1  0.662279  0.084247  0.661518  1
  O  O62  1  0.524251  0.382124  0.673217  1
  O  O63  1  0.341732  0.745468  0.841104  1
  O  O64  1  0.479147  0.334483  0.325994  1
  O  O65  1  0.383629  0.523655  0.176952  1
  O  O66  1  0.244484  0.766767  0.070929  1
  O  O67  1  0.245489  0.752468  0.434158  1
  O  O68  1  0.206713  0.788562  0.253554  1
  O  O69  1  0.251141  0.664848  0.658299  1
  O  O70  1  0.479371  0.183307  0.825859  1
  O  O71  1  0.522479  0.099704  0.176040  1
  O  O72  1  0.336622  0.477274  0.828812  1
  O  O73  1  0.340260  0.323179  0.980561  1
  O  O74  1  0.333491  0.337548  0.480644  1
  O  O75  1  0.184080  0.489230  0.333401  1
  O  O76  1  0.383296  0.093843  0.678563  1
  O  O77  1  0.326416  0.186821  0.334205  1
  O  O78  1  0.086419  0.662731  0.157267  1
  O  O79  1  0.999338  0.789661  0.750895  1
  O  O80  1  0.991303  0.763961  0.933410  1
  O  O81  1  0.094795  0.522909  0.678411  1
  O  O82  1  0.183696  0.329503  0.834511  1
  O  O83  1  0.098264  0.381105  0.176706  1
  O  O84  1  0.254865  0.083016  0.160301  1
  O  O85  1  0.244270  0.003868  0.931395  1
  O  O86  1  0.209444  0.000172  0.750233  1
  O  O87  1  0.085374  0.251148  0.656495  1
  O  O88  1  0.996925  0.241437  0.430770  1
  O  O89  1  0.001307  0.207253  0.249940  1
