# generated using pymatgen
data_Li2Mn3P9O28
_symmetry_space_group_name_H-M   'P 1'
_cell_length_a   7.08448056
_cell_length_b   9.18142409
_cell_length_c   8.88929099
_cell_angle_alpha   69.34119669
_cell_angle_beta   98.47588591
_cell_angle_gamma   71.02269970
_symmetry_Int_Tables_number   1
_chemical_formula_structural   Li2Mn3P9O28
_chemical_formula_sum   'Li2 Mn3 P9 O28'
_cell_volume   488.65866914
_cell_formula_units_Z   1
loop_
 _symmetry_equiv_pos_site_id
 _symmetry_equiv_pos_as_xyz
  1  'x, y, z'
loop_
 _atom_site_type_symbol
 _atom_site_label
 _atom_site_symmetry_multiplicity
 _atom_site_fract_x
 _atom_site_fract_y
 _atom_site_fract_z
 _atom_site_occupancy
  Li  Li0  1  0.961867  0.522615  0.961332  1
  Li  Li1  1  0.538133  0.977385  0.038668  1
  Mn  Mn2  1  0.750000  0.750000  0.500000  1
  Mn  Mn3  1  0.490571  0.509393  0.985790  1
  Mn  Mn4  1  0.009429  0.990607  0.014210  1
  P  P5  1  0.551097  0.304104  0.754767  1
  P  P6  1  0.035938  0.818577  0.761335  1
  P  P7  1  0.939086  0.328600  0.707633  1
  P  P8  1  0.407184  0.856778  0.681196  1
  P  P9  1  0.250000  0.250000  0.500000  1
  P  P10  1  0.560914  0.171400  0.292367  1
  P  P11  1  0.092816  0.643222  0.318804  1
  P  P12  1  0.948903  0.195896  0.245233  1
  P  P13  1  0.464062  0.681423  0.238665  1
  O  O14  1  0.650849  0.133329  0.908190  1
  O  O15  1  0.152320  0.642469  0.907687  1
  O  O16  1  0.535215  0.727937  0.863314  1
  O  O17  1  0.060633  0.189733  0.886493  1
  O  O18  1  0.976774  0.965455  0.811857  1
  O  O19  1  0.477837  0.460220  0.790647  1
  O  O20  1  0.905474  0.498861  0.709249  1
  O  O21  1  0.369369  0.042361  0.665443  1
  O  O22  1  0.837650  0.838854  0.648297  1
  O  O23  1  0.357312  0.321430  0.627757  1
  O  O24  1  0.713716  0.323860  0.648187  1
  O  O25  1  0.181472  0.853588  0.642525  1
  O  O26  1  0.485880  0.815910  0.546224  1
  O  O27  1  0.031610  0.291899  0.567931  1
  O  O28  1  0.014120  0.684090  0.453776  1
  O  O29  1  0.468390  0.208101  0.432069  1
  O  O30  1  0.786284  0.176140  0.351813  1
  O  O31  1  0.318528  0.646412  0.357475  1
  O  O32  1  0.662350  0.661146  0.351703  1
  O  O33  1  0.142688  0.178570  0.372243  1
  O  O34  1  0.594526  0.001139  0.290751  1
  O  O35  1  0.130631  0.457639  0.334557  1
  O  O36  1  0.523226  0.534545  0.188143  1
  O  O37  1  0.022163  0.039780  0.209353  1
  O  O38  1  0.964785  0.772063  0.136686  1
  O  O39  1  0.439367  0.310267  0.113507  1
  O  O40  1  0.849151  0.366671  0.091810  1
  O  O41  1  0.347680  0.857531  0.092313  1
