# generated using pymatgen
data_LiV2PO7
_symmetry_space_group_name_H-M   'P 1'
_cell_length_a   5.39869557
_cell_length_b   9.61104165
_cell_length_c   5.13903367
_cell_angle_alpha   90.00000000
_cell_angle_beta   103.35177373
_cell_angle_gamma   90.00000000
_symmetry_Int_Tables_number   1
_chemical_formula_structural   LiV2PO7
_chemical_formula_sum   'Li2 V4 P2 O14'
_cell_volume   259.44211567
_cell_formula_units_Z   2
loop_
 _symmetry_equiv_pos_site_id
 _symmetry_equiv_pos_as_xyz
  1  'x, y, z'
loop_
 _atom_site_type_symbol
 _atom_site_label
 _atom_site_symmetry_multiplicity
 _atom_site_fract_x
 _atom_site_fract_y
 _atom_site_fract_z
 _atom_site_occupancy
  Li  Li0  1  0.369885  0.137150  0.203370  1
  Li  Li1  1  0.630115  0.637150  0.296630  1
  V  V2  1  0.036238  0.636540  0.900074  1
  V  V3  1  0.138476  0.825742  0.390442  1
  V  V4  1  0.963762  0.136539  0.599926  1
  V  V5  1  0.861524  0.325742  0.109558  1
  P  P6  1  0.374388  0.399517  0.636420  1
  P  P7  1  0.625612  0.899517  0.863580  1
  O  O8  1  0.049307  0.207009  0.932336  1
  O  O9  1  0.175860  0.296113  0.450378  1
  O  O10  1  0.225723  0.482661  0.810753  1
  O  O11  1  0.136925  0.010467  0.410630  1
  O  O12  1  0.441850  0.799356  0.672393  1
  O  O13  1  0.278335  0.715860  0.163128  1
  O  O14  1  0.506317  0.489587  0.472670  1
  O  O15  1  0.558150  0.299356  0.827607  1
  O  O16  1  0.493683  0.989587  0.027330  1
  O  O17  1  0.721665  0.215860  0.336872  1
  O  O18  1  0.774277  0.982661  0.689247  1
  O  O19  1  0.863075  0.510467  0.089370  1
  O  O20  1  0.950693  0.707009  0.567664  1
  O  O21  1  0.824140  0.796113  0.049622  1
