# generated using pymatgen
data_Ba8In6O17
_symmetry_space_group_name_H-M   'P 1'
_cell_length_a   6.23747398
_cell_length_b   15.15484578
_cell_length_c   6.19972366
_cell_angle_alpha   90.04185145
_cell_angle_beta   89.95831086
_cell_angle_gamma   101.90812020
_symmetry_Int_Tables_number   1
_chemical_formula_structural   Ba8In6O17
_chemical_formula_sum   'Ba8 In6 O17'
_cell_volume   573.43507236
_cell_formula_units_Z   1
loop_
 _symmetry_equiv_pos_site_id
 _symmetry_equiv_pos_as_xyz
  1  'x, y, z'
loop_
 _atom_site_type_symbol
 _atom_site_label
 _atom_site_symmetry_multiplicity
 _atom_site_fract_x
 _atom_site_fract_y
 _atom_site_fract_z
 _atom_site_occupancy
  Ba  Ba0  1  0.577365  0.136016  0.993589  1
  Ba  Ba1  1  0.695715  0.410068  0.018029  1
  Ba  Ba2  1  0.800261  0.588622  0.482968  1
  Ba  Ba3  1  0.925510  0.863973  0.511829  1
  Ba  Ba4  1  0.284936  0.588490  0.019507  1
  Ba  Ba5  1  0.440376  0.862423  0.994157  1
  Ba  Ba6  1  0.062876  0.136193  0.511018  1
  Ba  Ba7  1  0.211913  0.411049  0.482185  1
  In  In8  1  0.837241  0.718197  0.976129  1
  In  In9  1  0.014805  0.999663  0.017314  1
  In  In10  1  0.487358  0.000043  0.486270  1
  In  In11  1  0.661677  0.280952  0.526565  1
  In  In12  1  0.117092  0.280895  0.973662  1
  In  In13  1  0.381471  0.718561  0.529094  1
  O  O14  1  0.752320  0.999618  0.252901  1
  O  O15  1  0.861193  0.584086  0.054251  1
  O  O16  1  0.882281  0.278072  0.246679  1
  O  O17  1  0.865387  0.863579  0.944476  1
  O  O18  1  0.635928  0.135668  0.559384  1
  O  O19  1  0.910605  0.319705  0.748610  1
  O  O20  1  0.635490  0.415232  0.448418  1
  O  O21  1  0.003937  0.136238  0.946253  1
  O  O22  1  0.611074  0.721475  0.252657  1
  O  O23  1  0.252920  0.000301  0.249035  1
  O  O24  1  0.276427  0.414465  0.055361  1
  O  O25  1  0.381972  0.264806  0.749826  1
  O  O26  1  0.246354  0.000311  0.747875  1
  O  O27  1  0.587772  0.679684  0.752642  1
  O  O28  1  0.219991  0.585050  0.448131  1
  O  O29  1  0.496727  0.863620  0.558193  1
  O  O30  1  0.118893  0.735230  0.755451  1
