# generated using pymatgen
data_CsTiH10C4O13
_symmetry_space_group_name_H-M   'P 1'
_cell_length_a   7.22841635
_cell_length_b   11.94510133
_cell_length_c   8.01565374
_cell_angle_alpha   90.00000000
_cell_angle_beta   102.07704584
_cell_angle_gamma   90.00000000
_symmetry_Int_Tables_number   1
_chemical_formula_structural   CsTiH10C4O13
_chemical_formula_sum   'Cs2 Ti2 H20 C8 O26'
_cell_volume   676.78667167
_cell_formula_units_Z   2
loop_
 _symmetry_equiv_pos_site_id
 _symmetry_equiv_pos_as_xyz
  1  'x, y, z'
loop_
 _atom_site_type_symbol
 _atom_site_label
 _atom_site_symmetry_multiplicity
 _atom_site_fract_x
 _atom_site_fract_y
 _atom_site_fract_z
 _atom_site_occupancy
  Cs  Cs0  1  0.056175  0.250000  0.740243  1
  Cs  Cs1  1  0.943825  0.750000  0.259757  1
  Ti  Ti2  1  0.683505  0.750000  0.700600  1
  Ti  Ti3  1  0.316495  0.250000  0.299400  1
  H  H4  1  0.321100  0.818904  0.577032  1
  H  H5  1  0.678900  0.318904  0.422968  1
  H  H6  1  0.678900  0.181096  0.422968  1
  H  H7  1  0.321100  0.681096  0.577032  1
  H  H8  1  0.122470  0.934958  0.881749  1
  H  H9  1  0.877530  0.434958  0.118251  1
  H  H10  1  0.877530  0.065042  0.118251  1
  H  H11  1  0.122470  0.565042  0.881749  1
  H  H12  1  0.452114  0.813553  0.102886  1
  H  H13  1  0.547886  0.313553  0.897114  1
  H  H14  1  0.547886  0.186447  0.897114  1
  H  H15  1  0.452114  0.686447  0.102886  1
  H  H16  1  0.163583  0.981145  0.709630  1
  H  H17  1  0.836417  0.481145  0.290370  1
  H  H18  1  0.836417  0.018855  0.290370  1
  H  H19  1  0.163583  0.518855  0.709630  1
  H  H20  1  0.378765  0.073670  0.064116  1
  H  H21  1  0.621235  0.573670  0.935884  1
  H  H22  1  0.621235  0.926330  0.935884  1
  H  H23  1  0.378765  0.426330  0.064116  1
  C  C24  1  0.675904  0.008914  0.739898  1
  C  C25  1  0.324096  0.508914  0.260102  1
  C  C26  1  0.324096  0.991086  0.260102  1
  C  C27  1  0.675904  0.491086  0.739898  1
  C  C28  1  0.724297  0.978487  0.574184  1
  C  C29  1  0.275703  0.478487  0.425816  1
  C  C30  1  0.275703  0.021513  0.425816  1
  C  C31  1  0.724297  0.521513  0.574184  1
  O  O32  1  0.380373  0.750000  0.635463  1
  O  O33  1  0.619627  0.250000  0.364537  1
  O  O34  1  0.870601  0.750000  0.863206  1
  O  O35  1  0.129399  0.250000  0.136794  1
  O  O36  1  0.524454  0.750000  0.070236  1
  O  O37  1  0.475546  0.250000  0.929764  1
  O  O38  1  0.601994  0.917952  0.811129  1
  O  O39  1  0.398006  0.417952  0.188871  1
  O  O40  1  0.398006  0.082048  0.188871  1
  O  O41  1  0.601994  0.582048  0.811129  1
  O  O42  1  0.720848  0.870821  0.540620  1
  O  O43  1  0.279152  0.370821  0.459380  1
  O  O44  1  0.279152  0.129179  0.459380  1
  O  O45  1  0.720848  0.629179  0.540620  1
  O  O46  1  0.698730  0.101453  0.809747  1
  O  O47  1  0.301270  0.601453  0.190253  1
  O  O48  1  0.301270  0.898547  0.190253  1
  O  O49  1  0.698730  0.398547  0.809747  1
  O  O50  1  0.774396  0.052996  0.481052  1
  O  O51  1  0.225604  0.552996  0.518948  1
  O  O52  1  0.225604  0.947004  0.518948  1
  O  O53  1  0.774396  0.447004  0.481052  1
  O  O54  1  0.139154  0.004460  0.822378  1
  O  O55  1  0.860846  0.504460  0.177622  1
  O  O56  1  0.860846  0.995540  0.177622  1
  O  O57  1  0.139154  0.495540  0.822378  1
