# generated using pymatgen
data_Mn6PbO12
_symmetry_space_group_name_H-M   'P 1'
_cell_length_a   8.37354159
_cell_length_b   8.25476560
_cell_length_c   8.37354159
_cell_angle_alpha   71.78324851
_cell_angle_beta   65.12588096
_cell_angle_gamma   105.96784157
_symmetry_Int_Tables_number   1
_chemical_formula_structural   Mn6PbO12
_chemical_formula_sum   'Mn12 Pb2 O24'
_cell_volume   439.77641288
_cell_formula_units_Z   2
loop_
 _symmetry_equiv_pos_site_id
 _symmetry_equiv_pos_as_xyz
  1  'x, y, z'
loop_
 _atom_site_type_symbol
 _atom_site_label
 _atom_site_symmetry_multiplicity
 _atom_site_fract_x
 _atom_site_fract_y
 _atom_site_fract_z
 _atom_site_occupancy
  Mn  Mn0  1  0.003367  0.487662  0.181399  1
  Mn  Mn1  1  0.520108  0.185260  0.000083  1
  Mn  Mn2  1  0.187964  0.182472  0.338827  1
  Mn  Mn3  1  0.146559  0.814740  0.333250  1
  Mn  Mn4  1  0.663299  0.512339  0.151934  1
  Mn  Mn5  1  0.330939  0.512339  0.484295  1
  Mn  Mn6  1  0.666532  0.484845  0.515019  1
  Mn  Mn7  1  0.335728  0.487662  0.849038  1
  Mn  Mn8  1  0.852009  0.185260  0.668182  1
  Mn  Mn9  1  0.814657  0.814740  0.665152  1
  Mn  Mn10  1  0.478703  0.817528  0.994507  1
  Mn  Mn11  1  0.000135  0.515155  0.818314  1
  Pb  Pb12  1  0.604256  0.000000  0.395744  1
  Pb  Pb13  1  0.062410  0.000000  0.937590  1
  O  O14  1  0.038586  0.354409  0.017511  1
  O  O15  1  0.349138  0.036937  0.303513  1
  O  O16  1  0.007117  0.036937  0.645534  1
  O  O17  1  0.012928  0.302473  0.377293  1
  O  O18  1  0.346433  0.302473  0.043789  1
  O  O19  1  0.377414  0.366228  0.344519  1
  O  O20  1  0.044101  0.363722  0.680130  1
  O  O21  1  0.710518  0.363722  0.013713  1
  O  O22  1  0.320234  0.697527  0.289545  1
  O  O23  1  0.317529  0.963063  0.029820  1
  O  O24  1  0.364257  0.348336  0.690715  1
  O  O25  1  0.705718  0.348336  0.349255  1
  O  O26  1  0.628081  0.645592  0.315823  1
  O  O27  1  0.302409  0.651664  0.642618  1
  O  O28  1  0.673187  0.037335  0.969185  1
  O  O29  1  0.681394  0.305684  0.709044  1
  O  O30  1  0.622565  0.636278  0.653203  1
  O  O31  1  0.956148  0.636278  0.319620  1
  O  O32  1  0.289252  0.633772  0.988814  1
  O  O33  1  0.985272  0.694316  0.624289  1
  O  O34  1  0.653739  0.697527  0.956040  1
  O  O35  1  0.993480  0.962665  0.364149  1
  O  O36  1  0.659550  0.963063  0.687799  1
  O  O37  1  0.960949  0.651664  0.984078  1
