# generated using pymatgen
data_Li3Fe2P2(CO7)2
_symmetry_space_group_name_H-M   'P 1'
_cell_length_a   9.44350287
_cell_length_b   10.26536532
_cell_length_c   6.47815169
_cell_angle_alpha   90.00000000
_cell_angle_beta   90.00000000
_cell_angle_gamma   62.00886212
_symmetry_Int_Tables_number   1
_chemical_formula_structural   Li3Fe2P2(CO7)2
_chemical_formula_sum   'Li6 Fe4 P4 C4 O28'
_cell_volume   554.53540105
_cell_formula_units_Z   2
loop_
 _symmetry_equiv_pos_site_id
 _symmetry_equiv_pos_as_xyz
  1  'x, y, z'
loop_
 _atom_site_type_symbol
 _atom_site_label
 _atom_site_symmetry_multiplicity
 _atom_site_fract_x
 _atom_site_fract_y
 _atom_site_fract_z
 _atom_site_occupancy
  Li  Li0  1  0.893402  0.437562  0.749718  1
  Li  Li1  1  0.898834  0.933142  0.753884  1
  Li  Li2  1  0.717421  0.766270  0.536276  1
  Li  Li3  1  0.282579  0.233730  0.036276  1
  Li  Li4  1  0.101166  0.066858  0.253884  1
  Li  Li5  1  0.106598  0.562438  0.249718  1
  Fe  Fe6  1  0.670000  0.068370  0.247205  1
  Fe  Fe7  1  0.665692  0.563589  0.244763  1
  Fe  Fe8  1  0.334308  0.436411  0.744763  1
  Fe  Fe9  1  0.330000  0.931630  0.747205  1
  P  P10  1  0.578693  0.070056  0.751552  1
  P  P11  1  0.578261  0.576599  0.749275  1
  P  P12  1  0.421740  0.423401  0.249275  1
  P  P13  1  0.421307  0.929944  0.251552  1
  C  C14  1  0.960948  0.374777  0.242810  1
  C  C15  1  0.957868  0.871337  0.255524  1
  C  C16  1  0.042132  0.128663  0.755524  1
  C  C17  1  0.039052  0.625223  0.742810  1
  O  O18  1  0.926327  0.009046  0.246080  1
  O  O19  1  0.927192  0.513399  0.251344  1
  O  O20  1  0.905179  0.238294  0.751828  1
  O  O21  1  0.838019  0.350265  0.258093  1
  O  O22  1  0.898544  0.732421  0.718296  1
  O  O23  1  0.830964  0.850319  0.267702  1
  O  O24  1  0.694802  0.041408  0.935792  1
  O  O25  1  0.684100  0.057213  0.561725  1
  O  O26  1  0.688106  0.556078  0.937827  1
  O  O27  1  0.690000  0.566392  0.564728  1
  O  O28  1  0.577624  0.276218  0.248465  1
  O  O29  1  0.528720  0.453155  0.741062  1
  O  O30  1  0.576777  0.782288  0.274709  1
  O  O31  1  0.532003  0.942848  0.733332  1
  O  O32  1  0.467997  0.057152  0.233332  1
  O  O33  1  0.423223  0.217712  0.774709  1
  O  O34  1  0.471280  0.546845  0.241062  1
  O  O35  1  0.422376  0.723782  0.748465  1
  O  O36  1  0.311894  0.443922  0.437827  1
  O  O37  1  0.310000  0.433608  0.064728  1
  O  O38  1  0.315900  0.942787  0.061725  1
  O  O39  1  0.305198  0.958592  0.435792  1
  O  O40  1  0.169036  0.149681  0.767702  1
  O  O41  1  0.101456  0.267579  0.218296  1
  O  O42  1  0.161981  0.649735  0.758093  1
  O  O43  1  0.094821  0.761706  0.251828  1
  O  O44  1  0.072808  0.486601  0.751344  1
  O  O45  1  0.073673  0.990954  0.746080  1
