# generated using pymatgen
data_Al4P3(HO5)3
_symmetry_space_group_name_H-M   'P 1'
_cell_length_a   11.33457895
_cell_length_b   10.27629135
_cell_length_c   11.33457895
_cell_angle_alpha   56.21334671
_cell_angle_beta   142.89178109
_cell_angle_gamma   141.21107281
_symmetry_Int_Tables_number   1
_chemical_formula_structural   Al4P3(HO5)3
_chemical_formula_sum   'Al8 P6 H6 O30'
_cell_volume   491.42883615
_cell_formula_units_Z   2
loop_
 _symmetry_equiv_pos_site_id
 _symmetry_equiv_pos_as_xyz
  1  'x, y, z'
loop_
 _atom_site_type_symbol
 _atom_site_label
 _atom_site_symmetry_multiplicity
 _atom_site_fract_x
 _atom_site_fract_y
 _atom_site_fract_z
 _atom_site_occupancy
  Al  Al0  1  0.173625  0.013364  0.825377  1
  Al  Al1  1  0.687987  0.513364  0.839739  1
  Al  Al2  1  0.826375  0.986636  0.174623  1
  Al  Al3  1  0.312013  0.486636  0.160261  1
  Al  Al4  1  0.354767  0.008164  0.195504  1
  Al  Al5  1  0.312660  0.508164  0.653396  1
  Al  Al6  1  0.645233  0.991836  0.804496  1
  Al  Al7  1  0.687340  0.491836  0.346604  1
  P  P8  1  0.132494  0.250000  0.882494  1
  P  P9  1  0.867506  0.750000  0.117506  1
  P  P10  1  0.787193  0.250579  0.198962  1
  P  P11  1  0.551617  0.750579  0.463386  1
  P  P12  1  0.212807  0.749421  0.801038  1
  P  P13  1  0.448383  0.249421  0.536614  1
  H  H14  1  0.747568  0.250000  0.497568  1
  H  H15  1  0.252432  0.750000  0.502432  1
  H  H16  1  0.202877  0.211544  0.590891  1
  H  H17  1  0.120653  0.711544  0.008667  1
  H  H18  1  0.797123  0.788456  0.409109  1
  H  H19  1  0.879347  0.288456  0.991333  1
  O  O20  1  0.189715  0.113003  0.947871  1
  O  O21  1  0.665133  0.613003  0.923289  1
  O  O22  1  0.810285  0.886997  0.052129  1
  O  O23  1  0.334867  0.386997  0.076711  1
  O  O24  1  0.163855  0.382173  0.740605  1
  O  O25  1  0.141568  0.882173  0.218318  1
  O  O26  1  0.836145  0.617827  0.259395  1
  O  O27  1  0.858432  0.117827  0.781682  1
  O  O28  1  0.797195  0.095220  0.225715  1
  O  O29  1  0.369505  0.595220  0.298025  1
  O  O30  1  0.202805  0.904780  0.774285  1
  O  O31  1  0.630495  0.404780  0.701975  1
  O  O32  1  0.000759  0.377822  0.398448  1
  O  O33  1  0.479373  0.877822  0.377062  1
  O  O34  1  0.999241  0.622178  0.601552  1
  O  O35  1  0.520627  0.122178  0.622938  1
  O  O36  1  0.509449  0.121147  0.103786  1
  O  O37  1  0.517361  0.621147  0.611697  1
  O  O38  1  0.490551  0.878853  0.896214  1
  O  O39  1  0.482639  0.378853  0.388303  1
  O  O40  1  0.811568  0.394218  0.053819  1
  O  O41  1  0.840398  0.894218  0.582650  1
  O  O42  1  0.188432  0.605782  0.946181  1
  O  O43  1  0.159602  0.105782  0.417350  1
  O  O44  1  0.611747  0.250000  0.361747  1
  O  O45  1  0.388253  0.750000  0.638253  1
  O  O46  1  0.312100  0.271933  0.719540  1
  O  O47  1  0.052393  0.771933  0.959832  1
  O  O48  1  0.687900  0.728067  0.280460  1
  O  O49  1  0.947607  0.228067  0.040168  1
