# generated using pymatgen
data_Ba10V10O29
_symmetry_space_group_name_H-M   'P 1'
_cell_length_a   11.62592769
_cell_length_b   10.00280840
_cell_length_c   13.23508231
_cell_angle_alpha   90.51558652
_cell_angle_beta   63.63839713
_cell_angle_gamma   90.27761543
_symmetry_Int_Tables_number   1
_chemical_formula_structural   Ba10V10O29
_chemical_formula_sum   'Ba20 V20 O58'
_cell_volume   1379.02159134
_cell_formula_units_Z   2
loop_
 _symmetry_equiv_pos_site_id
 _symmetry_equiv_pos_as_xyz
  1  'x, y, z'
loop_
 _atom_site_type_symbol
 _atom_site_label
 _atom_site_symmetry_multiplicity
 _atom_site_fract_x
 _atom_site_fract_y
 _atom_site_fract_z
 _atom_site_occupancy
  Ba  Ba0  1  0.858062  0.167179  0.785759  1
  Ba  Ba1  1  0.954944  0.833762  0.590937  1
  Ba  Ba2  1  0.606413  0.666329  0.784330  1
  Ba  Ba3  1  0.702813  0.335832  0.591218  1
  Ba  Ba4  1  0.891645  0.333574  0.213739  1
  Ba  Ba5  1  0.793028  0.664668  0.409999  1
  Ba  Ba6  1  0.637909  0.830265  0.215075  1
  Ba  Ba7  1  0.351203  0.168222  0.785655  1
  Ba  Ba8  1  0.451823  0.832671  0.590705  1
  Ba  Ba9  1  0.542456  0.167304  0.409579  1
  Ba  Ba10  1  0.749094  0.496553  0.000978  1
  Ba  Ba11  1  0.113746  0.665728  0.784682  1
  Ba  Ba12  1  0.395979  0.334738  0.216773  1
  Ba  Ba13  1  0.207285  0.333564  0.590157  1
  Ba  Ba14  1  0.300398  0.666456  0.407298  1
  Ba  Ba15  1  0.499677  0.996506  0.000609  1
  Ba  Ba16  1  0.147148  0.834275  0.213673  1
  Ba  Ba17  1  0.047567  0.165555  0.410311  1
  Ba  Ba18  1  0.249440  0.503719  0.998883  1
  Ba  Ba19  1  0.001770  0.004048  -0.000014  1
  V  V20  1  0.788546  0.843268  0.892460  1
  V  V21  1  0.899854  0.504438  0.718052  1
  V  V22  1  0.569510  0.343903  0.895062  1
  V  V23  1  0.961194  0.657182  0.108826  1
  V  V24  1  0.850367  0.997155  0.283823  1
  V  V25  1  0.631981  0.006421  0.716658  1
  V  V26  1  0.745893  0.998649  0.500040  1
  V  V27  1  0.294929  0.831250  0.905658  1
  V  V28  1  0.707648  0.166200  0.090583  1
  V  V29  1  0.609515  0.499261  0.278144  1
  V  V30  1  0.500833  0.499624  0.500338  1
  V  V31  1  0.391304  0.498597  0.722600  1
  V  V32  1  0.049553  0.331727  0.905761  1
  V  V33  1  0.449952  0.669706  0.096425  1
  V  V34  1  0.367514  0.004997  0.277729  1
  V  V35  1  0.248314  0.001340  0.499024  1
  V  V36  1  0.138262  0.997618  0.721673  1
  V  V37  1  0.180956  0.156921  0.109232  1
  V  V38  1  0.003402  0.499086  0.501291  1
  V  V39  1  0.114727  0.498510  0.284863  1
  O  O40  1  0.972183  0.419807  0.799585  1
  O  O41  1  0.963440  0.905851  0.819348  1
  O  O42  1  0.953332  0.348978  0.598285  1
  O  O43  1  0.851378  0.668471  0.807625  1
  O  O44  1  0.838614  0.577282  0.607442  1
  O  O45  1  0.947905  0.420825  0.389562  1
  O  O46  1  0.726366  0.917340  0.797999  1
  O  O47  1  0.726073  0.418325  0.798177  1
  O  O48  1  0.912329  0.921397  0.390187  1
  O  O49  1  0.801414  0.077920  0.610611  1
  O  O50  1  0.899937  0.823850  0.185394  1
  O  O51  1  0.586779  0.174175  0.812975  1
  O  O52  1  0.797577  0.149542  0.400570  1
  O  O53  1  0.696953  0.850327  0.598608  1
  O  O54  1  0.685704  0.920147  0.395308  1
  O  O55  1  0.579549  0.079232  0.605089  1
  O  O56  1  0.777148  0.588249  0.188420  1
  O  O57  1  0.464433  0.410365  0.813900  1
  O  O58  1  0.874867  0.251984  0.999059  1
  O  O59  1  0.779767  0.078170  0.201636  1
  O  O60  1  0.479177  0.920629  0.799756  1
  O  O61  1  0.664018  0.425409  0.397502  1
  O  O62  1  0.562875  0.573512  0.606332  1
  O  O63  1  0.555170  0.647742  0.389569  1
  O  O64  1  0.445794  0.351079  0.610143  1
  O  O65  1  0.652773  0.336707  0.197937  1
  O  O66  1  0.752079  0.994954  0.002948  1
  O  O67  1  0.349907  0.658973  0.800549  1
  O  O68  1  0.339752  0.575487  0.600673  1
  O  O69  1  0.440550  0.423778  0.394081  1
  O  O70  1  0.524316  0.084341  0.196694  1
  O  O71  1  0.223376  0.915314  0.806046  1
  O  O72  1  0.644121  0.755161  0.993658  1
  O  O73  1  0.616375  0.250893  0.996813  1
  O  O74  1  0.527836  0.584577  0.191981  1
  O  O75  1  0.219162  0.415378  0.807010  1
  O  O76  1  0.416212  0.923848  0.392158  1
  O  O77  1  0.309034  0.074647  0.601176  1
  O  O78  1  0.402301  0.833296  0.193446  1
  O  O79  1  0.496588  0.486071  0.996478  1
  O  O80  1  0.303733  0.153130  0.394147  1
  O  O81  1  0.192255  0.851505  0.610933  1
  O  O82  1  0.098227  0.156973  0.801319  1
  O  O83  1  0.191118  0.927196  0.396189  1
  O  O84  1  0.079584  0.071418  0.607965  1
  O  O85  1  0.269634  0.578245  0.199738  1
  O  O86  1  0.377207  0.749524  0.997103  1
  O  O87  1  0.278912  0.085617  0.192378  1
  O  O88  1  0.065622  0.578705  0.603992  1
  O  O89  1  0.169018  0.421627  0.394853  1
  O  O90  1  0.052784  0.650322  0.399438  1
  O  O91  1  0.166381  0.324458  0.184040  1
  O  O92  1  0.254862  0.023545  0.002921  1
  O  O93  1  0.023689  0.080226  0.200676  1
  O  O94  1  0.122515  0.752430  0.002320  1
  O  O95  1  0.124004  0.250910  0.003717  1
  O  O96  1  0.025245  0.580750  0.200697  1
  O  O97  1  0.991998  0.522588  0.004259  1
