# generated using pymatgen
data_LiMnBO3
_symmetry_space_group_name_H-M   'P 1'
_cell_length_a   14.50128214
_cell_length_b   14.49657827
_cell_length_c   3.24418652
_cell_angle_alpha   89.94579491
_cell_angle_beta   89.94680975
_cell_angle_gamma   119.95098920
_symmetry_Int_Tables_number   1
_chemical_formula_structural   LiMnBO3
_chemical_formula_sum   'Li9 Mn9 B9 O27'
_cell_volume   590.91071261
_cell_formula_units_Z   9
loop_
 _symmetry_equiv_pos_site_id
 _symmetry_equiv_pos_as_xyz
  1  'x, y, z'
loop_
 _atom_site_type_symbol
 _atom_site_label
 _atom_site_symmetry_multiplicity
 _atom_site_fract_x
 _atom_site_fract_y
 _atom_site_fract_z
 _atom_site_occupancy
  Li  Li0  1  0.097718  0.879241  0.497016  1
  Li  Li1  1  0.111706  0.565557  0.486947  1
  Li  Li2  1  0.453461  0.887271  0.551869  1
  Li  Li3  1  0.120041  0.218682  0.495171  1
  Li  Li4  1  0.433874  0.546951  0.459404  1
  Li  Li5  1  0.451230  0.251545  0.513744  1
  Li  Li6  1  0.781413  0.902287  0.504689  1
  Li  Li7  1  0.800587  0.549429  0.494177  1
  Li  Li8  1  0.747561  0.199713  0.491700  1
  Mn  Mn9  1  0.249401  0.801056  0.059328  1
  Mn  Mn10  1  0.197440  0.447586  0.997778  1
  Mn  Mn11  1  0.221214  0.104377  0.012070  1
  Mn  Mn12  1  0.551869  0.751098  0.952812  1
  Mn  Mn13  1  0.577588  0.467001  0.974332  1
  Mn  Mn14  1  0.532175  0.110428  0.022412  1
  Mn  Mn15  1  0.882141  0.778812  0.985207  1
  Mn  Mn16  1  0.888454  0.421781  0.989492  1
  Mn  Mn17  1  0.895469  0.117021  0.008528  1
  B  B18  1  0.007113  0.663000  0.003939  1
  B  B19  1  0.333079  0.666781  0.001088  1
  B  B20  1  0.336058  0.344470  0.993787  1
  B  B21  1  0.655452  0.992392  0.006462  1
  B  B22  1  0.331298  0.011070  0.530108  1
  B  B23  1  0.678941  0.668118  0.468490  1
  B  B24  1  0.665987  0.332993  0.997818  1
  B  B25  1  0.999680  0.999727  0.003429  1
  B  B26  1  0.987993  0.320395  0.501869  1
  O  O27  1  0.026552  0.919933  0.999480  1
  O  O28  1  0.017364  0.572335  0.974296  1
  O  O29  1  0.095689  0.761951  0.092898  1
  O  O30  1  0.322907  0.912228  0.561127  1
  O  O31  1  0.086574  0.410803  0.503167  1
  O  O32  1  0.223982  0.601685  0.014498  1
  O  O33  1  0.377783  0.775317  0.067947  1
  O  O34  1  0.079159  0.106229  0.015066  1
  O  O35  1  0.554407  0.981854  0.040617  1
  O  O36  1  0.236749  0.333937  0.076241  1
  O  O37  1  0.398013  0.624140  0.920176  1
  O  O38  1  0.665749  0.904476  0.900260  1
  O  O39  1  0.345555  0.254468  0.940646  1
  O  O40  1  0.426782  0.445603  0.967299  1
  O  O41  1  0.240354  0.019928  0.508864  1
  O  O42  1  0.588526  0.676694  0.446842  1
  O  O43  1  0.669596  0.567401  0.474298  1
  O  O44  1  0.431931  0.102335  0.520421  1
  O  O45  1  0.893011  0.972767  0.995402  1
  O  O46  1  0.778627  0.759102  0.484809  1
  O  O47  1  0.563852  0.318864  0.015921  1
  O  O48  1  0.680020  0.244858  0.987376  1
  O  O49  1  0.753673  0.434966  0.989909  1
  O  O50  1  0.907680  0.653644  0.948543  1
  O  O51  1  0.745205  0.090776  0.074004  1
  O  O52  1  0.896407  0.329411  0.491028  1
  O  O53  1  0.979383  0.220426  0.511018  1
