# generated using pymatgen
data_Rb5FeO4
_symmetry_space_group_name_H-M   'P 1'
_cell_length_a   12.77894167
_cell_length_b   12.54154243
_cell_length_c   11.98825499
_cell_angle_alpha   90.00000000
_cell_angle_beta   90.00000000
_cell_angle_gamma   90.00000000
_symmetry_Int_Tables_number   1
_chemical_formula_structural   Rb5FeO4
_chemical_formula_sum   'Rb40 Fe8 O32'
_cell_volume   1921.32932495
_cell_formula_units_Z   8
loop_
 _symmetry_equiv_pos_site_id
 _symmetry_equiv_pos_as_xyz
  1  'x, y, z'
loop_
 _atom_site_type_symbol
 _atom_site_label
 _atom_site_symmetry_multiplicity
 _atom_site_fract_x
 _atom_site_fract_y
 _atom_site_fract_z
 _atom_site_occupancy
  Rb  Rb0  1  0.108134  0.616835  0.161075  1
  Rb  Rb1  1  0.108134  0.883165  0.661075  1
  Rb  Rb2  1  0.107560  0.107187  0.837526  1
  Rb  Rb3  1  0.107560  0.392813  0.337526  1
  Rb  Rb4  1  0.118540  0.840303  0.361424  1
  Rb  Rb5  1  0.118540  0.659697  0.861424  1
  Rb  Rb6  1  0.145021  0.888541  0.074175  1
  Rb  Rb7  1  0.145021  0.611459  0.574175  1
  Rb  Rb8  1  0.156568  0.125714  0.401650  1
  Rb  Rb9  1  0.156568  0.374286  0.901650  1
  Rb  Rb10  1  0.343432  0.874286  0.901650  1
  Rb  Rb11  1  0.343432  0.625714  0.401650  1
  Rb  Rb12  1  0.354979  0.388541  0.074175  1
  Rb  Rb13  1  0.354979  0.111459  0.574175  1
  Rb  Rb14  1  0.381460  0.340303  0.361424  1
  Rb  Rb15  1  0.381460  0.159697  0.861424  1
  Rb  Rb16  1  0.392440  0.892813  0.337526  1
  Rb  Rb17  1  0.392440  0.607187  0.837526  1
  Rb  Rb18  1  0.391866  0.116835  0.161075  1
  Rb  Rb19  1  0.391866  0.383165  0.661075  1
  Rb  Rb20  1  0.608134  0.616835  0.338925  1
  Rb  Rb21  1  0.608134  0.883165  0.838925  1
  Rb  Rb22  1  0.607560  0.392813  0.162474  1
  Rb  Rb23  1  0.607560  0.107187  0.662474  1
  Rb  Rb24  1  0.618540  0.659697  0.638576  1
  Rb  Rb25  1  0.618540  0.840303  0.138576  1
  Rb  Rb26  1  0.645021  0.888541  0.425825  1
  Rb  Rb27  1  0.645021  0.611459  0.925825  1
  Rb  Rb28  1  0.656568  0.125714  0.098350  1
  Rb  Rb29  1  0.656568  0.374286  0.598350  1
  Rb  Rb30  1  0.843432  0.625714  0.098350  1
  Rb  Rb31  1  0.843432  0.874286  0.598350  1
  Rb  Rb32  1  0.854979  0.388541  0.425825  1
  Rb  Rb33  1  0.854979  0.111459  0.925825  1
  Rb  Rb34  1  0.881460  0.159697  0.638576  1
  Rb  Rb35  1  0.881460  0.340303  0.138576  1
  Rb  Rb36  1  0.892440  0.607187  0.662474  1
  Rb  Rb37  1  0.892440  0.892813  0.162474  1
  Rb  Rb38  1  0.891866  0.116835  0.338925  1
  Rb  Rb39  1  0.891866  0.383165  0.838925  1
  Fe  Fe40  1  0.136078  0.151513  0.117252  1
  Fe  Fe41  1  0.136078  0.348487  0.617252  1
  Fe  Fe42  1  0.363922  0.651513  0.117252  1
  Fe  Fe43  1  0.363922  0.848487  0.617252  1
  Fe  Fe44  1  0.636078  0.151513  0.382748  1
  Fe  Fe45  1  0.636078  0.348487  0.882748  1
  Fe  Fe46  1  0.863922  0.651513  0.382748  1
  Fe  Fe47  1  0.863922  0.848487  0.882748  1
  O  O48  1  0.035355  0.272444  0.524521  1
  O  O49  1  0.035355  0.227556  0.024521  1
  O  O50  1  0.070101  0.043210  0.211978  1
  O  O51  1  0.070101  0.456790  0.711978  1
  O  O52  1  0.234255  0.078047  0.015587  1
  O  O53  1  0.234255  0.421953  0.515587  1
  O  O54  1  0.223624  0.239941  0.213855  1
  O  O55  1  0.223624  0.260059  0.713855  1
  O  O56  1  0.276376  0.739941  0.213855  1
  O  O57  1  0.276376  0.760059  0.713855  1
  O  O58  1  0.265745  0.578047  0.015587  1
  O  O59  1  0.265745  0.921953  0.515587  1
  O  O60  1  0.429899  0.543210  0.211978  1
  O  O61  1  0.429899  0.956790  0.711978  1
  O  O62  1  0.464645  0.772444  0.524521  1
  O  O63  1  0.464645  0.727556  0.024521  1
  O  O64  1  0.535355  0.272444  0.975479  1
  O  O65  1  0.535355  0.227556  0.475479  1
  O  O66  1  0.570101  0.043210  0.288022  1
  O  O67  1  0.570101  0.456790  0.788022  1
  O  O68  1  0.734255  0.421953  0.984413  1
  O  O69  1  0.734255  0.078047  0.484413  1
  O  O70  1  0.723624  0.239941  0.286145  1
  O  O71  1  0.723624  0.260059  0.786145  1
  O  O72  1  0.776376  0.739941  0.286145  1
  O  O73  1  0.776376  0.760059  0.786145  1
  O  O74  1  0.765745  0.921953  0.984413  1
  O  O75  1  0.765745  0.578047  0.484413  1
  O  O76  1  0.929899  0.956790  0.788022  1
  O  O77  1  0.929899  0.543210  0.288022  1
  O  O78  1  0.964645  0.772444  0.975479  1
  O  O79  1  0.964645  0.727556  0.475479  1
