# generated using pymatgen
data_BaCa2I6
_symmetry_space_group_name_H-M   'P 1'
_cell_length_a   8.03778032
_cell_length_b   8.03789089
_cell_length_c   7.64080939
_cell_angle_alpha   90.00541147
_cell_angle_beta   89.99007067
_cell_angle_gamma   120.00000877
_symmetry_Int_Tables_number   1
_chemical_formula_structural   BaCa2I6
_chemical_formula_sum   'Ba1 Ca2 I6'
_cell_volume   427.51188375
_cell_formula_units_Z   1
loop_
 _symmetry_equiv_pos_site_id
 _symmetry_equiv_pos_as_xyz
  1  'x, y, z'
loop_
 _atom_site_type_symbol
 _atom_site_label
 _atom_site_symmetry_multiplicity
 _atom_site_fract_x
 _atom_site_fract_y
 _atom_site_fract_z
 _atom_site_occupancy
  Ba  Ba0  1  0.000145  0.999992  0.999974  1
  Ca  Ca1  1  0.333301  0.666689  0.499991  1
  Ca  Ca2  1  0.666609  0.333317  0.499995  1
  I  I3  1  0.999918  0.646453  0.732547  1
  I  I4  1  0.999959  0.353460  0.267460  1
  I  I5  1  0.353485  0.353552  0.732533  1
  I  I6  1  0.646504  0.646536  0.267462  1
  I  I7  1  0.353437  0.000002  0.267520  1
  I  I8  1  0.646540  0.999999  0.732518  1
