# generated using pymatgen
data_Na2FePCO7
_symmetry_space_group_name_H-M   'P 1'
_cell_length_a   10.34882632
_cell_length_b   8.36248799
_cell_length_c   8.39091812
_cell_angle_alpha   77.38755262
_cell_angle_beta   71.22450026
_cell_angle_gamma   107.54380748
_symmetry_Int_Tables_number   1
_chemical_formula_structural   Na2FePCO7
_chemical_formula_sum   'Na8 Fe4 P4 C4 O28'
_cell_volume   614.24134412
_cell_formula_units_Z   4
loop_
 _symmetry_equiv_pos_site_id
 _symmetry_equiv_pos_as_xyz
  1  'x, y, z'
loop_
 _atom_site_type_symbol
 _atom_site_label
 _atom_site_symmetry_multiplicity
 _atom_site_fract_x
 _atom_site_fract_y
 _atom_site_fract_z
 _atom_site_occupancy
  Na  Na0  1  0.918501  0.706366  0.549733  1
  Na  Na1  1  0.919006  0.209628  0.055852  1
  Na  Na2  1  0.731848  0.747741  0.270274  1
  Na  Na3  1  0.731468  0.478068  0.001950  1
  Na  Na4  1  0.263024  0.749981  0.239754  1
  Na  Na5  1  0.264251  0.251854  0.735244  1
  Na  Na6  1  0.072607  0.281102  0.449358  1
  Na  Na7  1  0.086882  0.792835  0.939024  1
  Fe  Fe8  1  0.656841  0.300068  0.449775  1
  Fe  Fe9  1  0.653538  0.821165  0.928569  1
  Fe  Fe10  1  0.345458  0.196967  0.067058  1
  Fe  Fe11  1  0.345958  0.697283  0.567214  1
  P  P12  1  0.576101  0.556563  0.691390  1
  P  P13  1  0.575630  0.058153  0.192687  1
  P  P14  1  0.426092  0.444848  0.309314  1
  P  P15  1  0.422268  0.942713  0.811239  1
  C  C16  1  0.936888  0.486631  0.266674  1
  C  C17  1  0.935262  0.974942  0.778364  1
  C  C18  1  0.065291  0.016779  0.221285  1
  C  C19  1  0.065090  0.521404  0.726083  1
  O  O20  1  0.924777  0.928504  0.301220  1
  O  O21  1  0.924745  0.444361  0.817369  1
  O  O22  1  0.874300  0.338241  0.406286  1
  O  O23  1  0.870859  0.826152  0.919996  1
  O  O24  1  0.844104  0.534076  0.211318  1
  O  O25  1  0.843488  0.022353  0.722250  1
  O  O26  1  0.676881  0.979226  0.083875  1
  O  O27  1  0.670403  0.662076  0.775286  1
  O  O28  1  0.681820  0.494339  0.565952  1
  O  O29  1  0.674564  0.180400  0.260127  1
  O  O30  1  0.570971  0.596318  0.153756  1
  O  O31  1  0.567129  0.089640  0.659425  1
  O  O32  1  0.530164  0.177385  0.069684  1
  O  O33  1  0.530298  0.679386  0.572320  1
  O  O34  1  0.463366  0.823337  0.941058  1
  O  O35  1  0.473433  0.330421  0.433889  1
  O  O36  1  0.432147  0.905169  0.343842  1
  O  O37  1  0.433228  0.398905  0.837737  1
  O  O38  1  0.324565  0.825654  0.739268  1
  O  O39  1  0.324904  0.521830  0.420039  1
  O  O40  1  0.327988  0.328573  0.237096  1
  O  O41  1  0.320748  0.019219  0.921935  1
  O  O42  1  0.158126  0.969969  0.275737  1
  O  O43  1  0.158280  0.468208  0.773722  1
  O  O44  1  0.127677  0.164254  0.080277  1
  O  O45  1  0.127462  0.663717  0.579675  1
  O  O46  1  0.076678  0.576533  0.191112  1
  O  O47  1  0.074887  0.064196  0.702441  1
