# generated using pymatgen
data_Cr4OF11
_symmetry_space_group_name_H-M   'P 1'
_cell_length_a   5.05806836
_cell_length_b   5.34501793
_cell_length_c   16.91962046
_cell_angle_alpha   91.38091101
_cell_angle_beta   98.58105940
_cell_angle_gamma   61.72693995
_symmetry_Int_Tables_number   1
_chemical_formula_structural   Cr4OF11
_chemical_formula_sum   'Cr8 O2 F22'
_cell_volume   397.77865029
_cell_formula_units_Z   2
loop_
 _symmetry_equiv_pos_site_id
 _symmetry_equiv_pos_as_xyz
  1  'x, y, z'
loop_
 _atom_site_type_symbol
 _atom_site_label
 _atom_site_symmetry_multiplicity
 _atom_site_fract_x
 _atom_site_fract_y
 _atom_site_fract_z
 _atom_site_occupancy
  Cr  Cr0  1  0.757355  0.634495  0.120992  1
  Cr  Cr1  1  0.744311  0.128446  0.624699  1
  Cr  Cr2  1  0.498092  0.750244  0.750055  1
  Cr  Cr3  1  0.506706  0.250867  0.250690  1
  Cr  Cr4  1  0.273159  0.864975  0.377774  1
  Cr  Cr5  1  0.248692  0.372523  0.876155  1
  Cr  Cr6  1  0.979312  0.510723  0.495809  1
  Cr  Cr7  1  0.991480  0.988763  0.003034  1
  O  O8  1  0.813230  0.782484  0.031990  1
  O  O9  1  0.686589  0.657486  0.406863  1
  F  F10  1  0.749931  0.936462  0.187797  1
  F  F11  1  0.750943  0.812480  0.562671  1
  F  F12  1  0.756005  0.313590  0.062725  1
  F  F13  1  0.686048  0.968256  0.718209  1
  F  F14  1  0.686186  0.469805  0.214676  1
  F  F15  1  0.812159  0.592787  0.843432  1
  F  F16  1  0.825350  0.087176  0.343123  1
  F  F17  1  0.812607  0.281970  0.531225  1
  F  F18  1  0.316310  0.842537  0.093971  1
  F  F19  1  0.744982  0.437926  0.687505  1
  F  F20  1  0.258068  0.563729  0.313266  1
  F  F21  1  0.686445  0.157685  0.908198  1
  F  F22  1  0.183698  0.909241  0.656675  1
  F  F23  1  0.188467  0.406015  0.157113  1
  F  F24  1  0.185080  0.718260  0.468769  1
  F  F25  1  0.312646  0.531399  0.782578  1
  F  F26  1  0.308465  0.345049  0.589589  1
  F  F27  1  0.316021  0.034568  0.283329  1
  F  F28  1  0.243216  0.687621  0.938487  1
  F  F29  1  0.243456  0.188776  0.437769  1
  F  F30  1  0.253105  0.062620  0.812510  1
  F  F31  1  0.181887  0.211039  0.968321  1
