# generated using pymatgen
data_Bi2(SO4)3
_symmetry_space_group_name_H-M   'P 1'
_cell_length_a   8.53553842
_cell_length_b   8.53553842
_cell_length_c   9.33648913
_cell_angle_alpha   68.34073456
_cell_angle_beta   111.65926544
_cell_angle_gamma   114.17388628
_symmetry_Int_Tables_number   1
_chemical_formula_structural   Bi2(SO4)3
_chemical_formula_sum   'Bi4 S6 O24'
_cell_volume   557.37060253
_cell_formula_units_Z   2
loop_
 _symmetry_equiv_pos_site_id
 _symmetry_equiv_pos_as_xyz
  1  'x, y, z'
loop_
 _atom_site_type_symbol
 _atom_site_label
 _atom_site_symmetry_multiplicity
 _atom_site_fract_x
 _atom_site_fract_y
 _atom_site_fract_z
 _atom_site_occupancy
  Bi  Bi0  1  0.629304  0.862792  0.979255  1
  Bi  Bi1  1  0.137208  0.370696  0.479255  1
  Bi  Bi2  1  0.862792  0.629304  0.520745  1
  Bi  Bi3  1  0.370696  0.137208  0.020745  1
  S  S4  1  0.245270  0.545504  0.824257  1
  S  S5  1  0.454496  0.754730  0.324257  1
  S  S6  1  0.940829  0.940829  0.750000  1
  S  S7  1  0.059171  0.059171  0.250000  1
  S  S8  1  0.545504  0.245270  0.675743  1
  S  S9  1  0.754730  0.454496  0.175743  1
  O  O10  1  0.110795  0.951796  0.874789  1
  O  O11  1  0.048204  0.889205  0.374789  1
  O  O12  1  0.136922  0.510745  0.925606  1
  O  O13  1  0.379771  0.727927  0.805261  1
  O  O14  1  0.130166  0.537469  0.651676  1
  O  O15  1  0.489255  0.863078  0.425606  1
  O  O16  1  0.792536  0.898347  0.819753  1
  O  O17  1  0.342007  0.413797  0.872365  1
  O  O18  1  0.272073  0.620229  0.305261  1
  O  O19  1  0.462531  0.869834  0.151676  1
  O  O20  1  0.101653  0.207464  0.319753  1
  O  O21  1  0.413797  0.342007  0.627635  1
  O  O22  1  0.586203  0.657993  0.372365  1
  O  O23  1  0.898347  0.792536  0.680247  1
  O  O24  1  0.537469  0.130166  0.848324  1
  O  O25  1  0.727927  0.379771  0.694739  1
  O  O26  1  0.657993  0.586203  0.127635  1
  O  O27  1  0.207464  0.101653  0.180247  1
  O  O28  1  0.510745  0.136922  0.574394  1
  O  O29  1  0.869834  0.462531  0.348324  1
  O  O30  1  0.620229  0.272073  0.194739  1
  O  O31  1  0.863078  0.489255  0.074394  1
  O  O32  1  0.951796  0.110795  0.625211  1
  O  O33  1  0.889205  0.048204  0.125211  1
