# generated using pymatgen
data_Sr2Re4H16C3(N2O7)3
_symmetry_space_group_name_H-M   'P 1'
_cell_length_a   19.98216953
_cell_length_b   17.83563069
_cell_length_c   10.60872878
_cell_angle_alpha   85.40491770
_cell_angle_beta   62.74121771
_cell_angle_gamma   31.90080573
_symmetry_Int_Tables_number   1
_chemical_formula_structural   Sr2Re4H16C3(N2O7)3
_chemical_formula_sum   'Sr4 Re8 H32 C6 N12 O42'
_cell_volume   1338.72395307
_cell_formula_units_Z   2
loop_
 _symmetry_equiv_pos_site_id
 _symmetry_equiv_pos_as_xyz
  1  'x, y, z'
loop_
 _atom_site_type_symbol
 _atom_site_label
 _atom_site_symmetry_multiplicity
 _atom_site_fract_x
 _atom_site_fract_y
 _atom_site_fract_z
 _atom_site_occupancy
  Sr  Sr0  1  0.255627  0.735875  0.541729  1
  Sr  Sr1  1  0.466479  0.541733  0.734147  1
  Sr  Sr2  1  0.707362  0.785339  0.995375  1
  Sr  Sr3  1  0.512956  0.995193  0.785083  1
  Re  Re4  1  0.674848  0.276717  0.959519  1
  Re  Re5  1  0.087591  0.958436  0.277602  1
  Re  Re6  1  0.288112  0.164143  0.575830  1
  Re  Re7  1  0.972054  0.574367  0.165749  1
  Re  Re8  1  0.067150  0.747590  0.455181  1
  Re  Re9  1  0.732512  0.453596  0.744597  1
  Re  Re10  1  0.796351  0.518943  0.183059  1
  Re  Re11  1  0.502827  0.183940  0.518151  1
  H  H12  1  0.921125  0.014345  0.096544  1
  H  H13  1  0.966854  0.099925  0.014908  1
  H  H14  1  0.153421  0.282411  0.332199  1
  H  H15  1  0.233827  0.331196  0.284810  1
  H  H16  1  0.703348  0.180745  0.318358  1
  H  H17  1  0.797824  0.319504  0.183335  1
  H  H18  1  0.930207  0.453132  0.545402  1
  H  H19  1  0.069672  0.546897  0.456069  1
  H  H20  1  0.033608  0.726740  0.120671  1
  H  H21  1  0.121956  0.117845  0.719635  1
  H  H22  1  0.128246  0.133670  0.212749  1
  H  H23  1  0.523061  0.216745  0.133432  1
  H  H24  1  0.135932  0.716508  0.086662  1
  H  H25  1  0.059766  0.087227  0.715187  1
  H  H26  1  0.164462  0.190861  0.113449  1
  H  H27  1  0.533932  0.113123  0.188248  1
  H  H28  1  0.958471  0.778313  0.971067  1
  H  H29  1  0.296832  0.967597  0.770948  1
  H  H30  1  0.279708  0.957237  0.291564  1
  H  H31  1  0.476428  0.288839  0.954550  1
  H  H32  1  0.024167  0.784809  0.800510  1
  H  H33  1  0.389787  0.801982  0.783085  1
  H  H34  1  0.455072  0.854262  0.218652  1
  H  H35  1  0.473190  0.220293  0.853396  1
  H  H36  1  0.470759  0.659066  0.215721  1
  H  H37  1  0.651288  0.217970  0.658085  1
  H  H38  1  0.032596  0.599714  0.780775  1
  H  H39  1  0.593278  0.776685  0.594774  1
  H  H40  1  0.497363  0.660717  0.331251  1
  H  H41  1  0.503481  0.337944  0.665315  1
  H  H42  1  0.914270  0.745026  0.757786  1
  H  H43  1  0.581534  0.758505  0.745602  1
  C  C44  1  0.725067  0.275374  0.273822  1
  C  C45  1  0.973745  0.526142  0.527510  1
  C  C46  1  0.102101  0.739492  0.919860  1
  C  C47  1  0.235806  0.922713  0.739936  1
  C  C48  1  0.329066  0.012871  0.148582  1
  C  C49  1  0.508968  0.150684  0.013039  1
  N  N50  1  0.789262  0.145690  0.225310  1
  N  N51  1  0.837713  0.228677  0.146018  1
  N  N52  1  0.022875  0.411720  0.463138  1
  N  N53  1  0.102985  0.462714  0.413505  1
  N  N54  1  0.084714  0.732047  0.056724  1
  N  N55  1  0.125786  0.057398  0.729906  1
  N  N56  1  0.196377  0.121358  0.159635  1
  N  N57  1  0.515433  0.167876  0.126467  1
  N  N58  1  0.029284  0.761242  0.889828  1
  N  N59  1  0.318058  0.891659  0.760470  1
  N  N60  1  0.354776  0.937084  0.226879  1
  N  N61  1  0.486601  0.224035  0.933053  1
  O  O62  1  0.517450  0.448291  0.191404  1
  O  O63  1  0.841613  0.189648  0.443919  1
  O  O64  1  0.056417  0.409915  0.731985  1
  O  O65  1  0.802116  0.731063  0.411318  1
  O  O66  1  0.606509  0.377913  0.859525  1
  O  O67  1  0.146024  0.867512  0.387132  1
  O  O68  1  0.384262  0.101082  0.647692  1
  O  O69  1  0.865752  0.648863  0.103237  1
  O  O70  1  0.904488  0.097153  0.822603  1
  O  O71  1  0.180946  0.814927  0.096579  1
  O  O72  1  0.426816  0.075490  0.345336  1
  O  O73  1  0.150990  0.344390  0.077001  1
  O  O74  1  0.681518  0.172817  0.957499  1
  O  O75  1  0.186779  0.956810  0.175827  1
  O  O76  1  0.288256  0.066428  0.572918  1
  O  O77  1  0.076267  0.567375  0.065428  1
  O  O78  1  0.128332  0.728958  0.553687  1
  O  O79  1  0.592561  0.550107  0.725067  1
  O  O80  1  0.697800  0.659428  0.121293  1
  O  O81  1  0.525872  0.118985  0.655911  1
  O  O82  1  0.890647  0.963139  0.506495  1
  O  O83  1  0.642724  0.503528  0.959133  1
  O  O84  1  0.748831  0.607662  0.355270  1
  O  O85  1  0.286850  0.358621  0.611760  1
  O  O86  1  0.262162  0.568529  0.211457  1
  O  O87  1  0.961827  0.209855  0.564743  1
  O  O88  1  0.039958  0.291194  0.986442  1
  O  O89  1  0.681174  0.990414  0.289330  1
  O  O90  1  0.988893  0.726156  0.546089  1
  O  O91  1  0.738821  0.546802  0.726489  1
  O  O92  1  0.704869  0.510666  0.264725  1
  O  O93  1  0.519370  0.267025  0.510553  1
  O  O94  1  0.560498  0.439457  0.437820  1
  O  O95  1  0.809427  0.690110  0.691607  1
  O  O96  1  0.179537  0.731584  0.827428  1
  O  O97  1  0.255675  0.832865  0.736165  1
  O  O98  1  0.423249  0.988099  0.069922  1
  O  O99  1  0.518057  0.072205  0.988336  1
  O  O100  1  0.403453  0.725192  0.345773  1
  O  O101  1  0.521540  0.349536  0.727035  1
  O  O102  1  0.901165  0.728511  0.850207  1
  O  O103  1  0.522383  0.848216  0.725516  1
