# generated using pymatgen
data_Li3Ti(PO4)2
_symmetry_space_group_name_H-M   'P 1'
_cell_length_a   4.99391220
_cell_length_b   18.02798212
_cell_length_c   6.34518230
_cell_angle_alpha   90.00000000
_cell_angle_beta   93.44627900
_cell_angle_gamma   90.00000000
_symmetry_Int_Tables_number   1
_chemical_formula_structural   Li3Ti(PO4)2
_chemical_formula_sum   'Li12 Ti4 P8 O32'
_cell_volume   570.22471420
_cell_formula_units_Z   4
loop_
 _symmetry_equiv_pos_site_id
 _symmetry_equiv_pos_as_xyz
  1  'x, y, z'
loop_
 _atom_site_type_symbol
 _atom_site_label
 _atom_site_symmetry_multiplicity
 _atom_site_fract_x
 _atom_site_fract_y
 _atom_site_fract_z
 _atom_site_occupancy
  Li  Li0  1  0.189989  0.698840  0.810648  1
  Li  Li1  1  0.218987  0.877475  0.503959  1
  Li  Li2  1  0.258760  0.050802  0.293295  1
  Li  Li3  1  0.281013  0.377475  0.996041  1
  Li  Li4  1  0.241240  0.550802  0.206705  1
  Li  Li5  1  0.310011  0.198840  0.689352  1
  Li  Li6  1  0.689989  0.801160  0.310648  1
  Li  Li7  1  0.758760  0.449198  0.793295  1
  Li  Li8  1  0.718987  0.622525  0.003959  1
  Li  Li9  1  0.741240  0.949198  0.706705  1
  Li  Li10  1  0.781013  0.122525  0.496041  1
  Li  Li11  1  0.810011  0.301160  0.189352  1
  Ti  Ti12  1  0.205333  0.873167  0.011396  1
  Ti  Ti13  1  0.294667  0.373167  0.488604  1
  Ti  Ti14  1  0.705333  0.626833  0.511396  1
  Ti  Ti15  1  0.794667  0.126833  0.988604  1
  P  P16  1  0.182020  0.714571  0.285819  1
  P  P17  1  0.229076  0.536354  0.726267  1
  P  P18  1  0.270924  0.036354  0.773733  1
  P  P19  1  0.317980  0.214571  0.214181  1
  P  P20  1  0.682020  0.785429  0.785819  1
  P  P21  1  0.729076  0.963646  0.226267  1
  P  P22  1  0.770924  0.463646  0.273733  1
  P  P23  1  0.817980  0.285429  0.714181  1
  O  O24  1  0.008206  0.198813  0.185015  1
  O  O25  1  0.042995  0.691721  0.489805  1
  O  O26  1  0.075475  0.439744  0.275749  1
  O  O27  1  0.065928  0.671865  0.094883  1
  O  O28  1  0.144135  0.065846  0.975827  1
  O  O29  1  0.120423  0.066206  0.577561  1
  O  O30  1  0.130374  0.800456  0.260423  1
  O  O31  1  0.221762  0.448939  0.726577  1
  O  O32  1  0.278238  0.948939  0.773423  1
  O  O33  1  0.369626  0.300456  0.239577  1
  O  O34  1  0.379577  0.566206  0.922439  1
  O  O35  1  0.355865  0.565846  0.524173  1
  O  O36  1  0.434072  0.171865  0.405117  1
  O  O37  1  0.424525  0.939744  0.224251  1
  O  O38  1  0.457005  0.191721  0.010195  1
  O  O39  1  0.491794  0.698813  0.314985  1
  O  O40  1  0.508206  0.301187  0.685015  1
  O  O41  1  0.542995  0.808279  0.989805  1
  O  O42  1  0.575475  0.060256  0.775749  1
  O  O43  1  0.565928  0.828135  0.594883  1
  O  O44  1  0.644135  0.434154  0.475827  1
  O  O45  1  0.620423  0.433794  0.077561  1
  O  O46  1  0.630374  0.699544  0.760423  1
  O  O47  1  0.721762  0.051061  0.226577  1
  O  O48  1  0.778238  0.551061  0.273423  1
  O  O49  1  0.869626  0.199544  0.739577  1
  O  O50  1  0.879577  0.933794  0.422439  1
  O  O51  1  0.855865  0.934154  0.024173  1
  O  O52  1  0.934072  0.328135  0.905117  1
  O  O53  1  0.924525  0.560256  0.724251  1
  O  O54  1  0.957005  0.308279  0.510195  1
  O  O55  1  0.991794  0.801187  0.814985  1
