# generated using pymatgen
data_Mg3(AsO4)2
_symmetry_space_group_name_H-M   'P 1'
_cell_length_a   6.62373994
_cell_length_b   8.90910646
_cell_length_c   11.17449570
_cell_angle_alpha   90.00000000
_cell_angle_beta   92.88431479
_cell_angle_gamma   90.00000000
_symmetry_Int_Tables_number   1
_chemical_formula_structural   Mg3(AsO4)2
_chemical_formula_sum   'Mg12 As8 O32'
_cell_volume   658.58953926
_cell_formula_units_Z   4
loop_
 _symmetry_equiv_pos_site_id
 _symmetry_equiv_pos_as_xyz
  1  'x, y, z'
loop_
 _atom_site_type_symbol
 _atom_site_label
 _atom_site_symmetry_multiplicity
 _atom_site_fract_x
 _atom_site_fract_y
 _atom_site_fract_z
 _atom_site_occupancy
  Mg  Mg0  1  0.090459  0.795959  0.572473  1
  Mg  Mg1  1  0.090459  0.704041  0.072473  1
  Mg  Mg2  1  0.241144  0.156191  0.636564  1
  Mg  Mg3  1  0.241144  0.343809  0.136564  1
  Mg  Mg4  1  0.381972  0.532761  0.616684  1
  Mg  Mg5  1  0.381972  0.967239  0.116684  1
  Mg  Mg6  1  0.618028  0.032761  0.883316  1
  Mg  Mg7  1  0.618028  0.467239  0.383316  1
  Mg  Mg8  1  0.758855  0.656191  0.863436  1
  Mg  Mg9  1  0.758855  0.843809  0.363436  1
  Mg  Mg10  1  0.909541  0.295959  0.927527  1
  Mg  Mg11  1  0.909541  0.204041  0.427527  1
  As  As12  1  0.105060  0.945260  0.853256  1
  As  As13  1  0.105060  0.554740  0.353256  1
  As  As14  1  0.409994  0.384684  0.866055  1
  As  As15  1  0.409994  0.115316  0.366055  1
  As  As16  1  0.590006  0.884684  0.633945  1
  As  As17  1  0.590006  0.615316  0.133945  1
  As  As18  1  0.894940  0.445260  0.646744  1
  As  As19  1  0.894940  0.054740  0.146744  1
  O  O20  1  0.042697  0.765593  0.892782  1
  O  O21  1  0.042697  0.734407  0.392782  1
  O  O22  1  0.077420  0.577652  0.619270  1
  O  O23  1  0.077420  0.922348  0.119270  1
  O  O24  1  0.132482  0.958523  0.701160  1
  O  O25  1  0.132482  0.541477  0.201160  1
  O  O26  1  0.206679  0.365436  0.957031  1
  O  O27  1  0.206679  0.134564  0.457031  1
  O  O28  1  0.326954  0.002357  0.927305  1
  O  O29  1  0.330731  0.342610  0.719887  1
  O  O30  1  0.326954  0.497643  0.427305  1
  O  O31  1  0.330731  0.157389  0.219887  1
  O  O32  1  0.400600  0.761064  0.588727  1
  O  O33  1  0.400600  0.738936  0.088727  1
  O  O34  1  0.477347  0.567579  0.853832  1
  O  O35  1  0.477347  0.932421  0.353832  1
  O  O36  1  0.522653  0.067579  0.646168  1
  O  O37  1  0.522653  0.432421  0.146168  1
  O  O38  1  0.599400  0.261064  0.911273  1
  O  O39  1  0.599400  0.238936  0.411273  1
  O  O40  1  0.669269  0.842611  0.780113  1
  O  O41  1  0.673046  0.502357  0.572695  1
  O  O42  1  0.669269  0.657389  0.280113  1
  O  O43  1  0.673046  0.997643  0.072695  1
  O  O44  1  0.793321  0.865436  0.542969  1
  O  O45  1  0.793321  0.634564  0.042969  1
  O  O46  1  0.867518  0.458523  0.798840  1
  O  O47  1  0.867518  0.041477  0.298840  1
  O  O48  1  0.922580  0.077652  0.880730  1
  O  O49  1  0.922580  0.422348  0.380730  1
  O  O50  1  0.957303  0.265593  0.607218  1
  O  O51  1  0.957303  0.234407  0.107218  1
