# generated using pymatgen
data_Li3V3P8O29
_symmetry_space_group_name_H-M   'P 1'
_cell_length_a   9.77310359
_cell_length_b   9.77343273
_cell_length_c   13.89416495
_cell_angle_alpha   89.99701396
_cell_angle_beta   89.99373961
_cell_angle_gamma   59.88680383
_symmetry_Int_Tables_number   1
_chemical_formula_structural   Li3V3P8O29
_chemical_formula_sum   'Li6 V6 P16 O58'
_cell_volume   1148.01141197
_cell_formula_units_Z   2
loop_
 _symmetry_equiv_pos_site_id
 _symmetry_equiv_pos_as_xyz
  1  'x, y, z'
loop_
 _atom_site_type_symbol
 _atom_site_label
 _atom_site_symmetry_multiplicity
 _atom_site_fract_x
 _atom_site_fract_y
 _atom_site_fract_z
 _atom_site_occupancy
  Li  Li0  1  0.909973  0.321987  0.560605  1
  Li  Li1  1  0.775291  0.316389  0.057371  1
  Li  Li2  1  0.322085  0.909907  0.060526  1
  Li  Li3  1  0.678470  0.224415  0.442044  1
  Li  Li4  1  0.317105  0.775117  0.557299  1
  Li  Li5  1  0.224509  0.678413  0.942056  1
  V  V6  1  0.566594  0.434409  0.248591  1
  V  V7  1  0.434435  0.566575  0.748515  1
  V  V8  1  0.569018  0.997371  0.750203  1
  V  V9  1  0.433718  0.006142  0.254560  1
  V  V10  1  0.997358  0.568997  0.250245  1
  V  V11  1  0.006165  0.433887  0.754533  1
  P  P12  1  0.914311  0.773058  0.842942  1
  P  P13  1  0.772788  0.914291  0.342926  1
  P  P14  1  0.914203  0.315862  0.344053  1
  P  P15  1  0.665438  0.668580  0.127268  1
  P  P16  1  0.668798  0.665331  0.627259  1
  P  P17  1  0.772641  0.316586  0.842253  1
  P  P18  1  0.683727  0.226728  0.659364  1
  P  P19  1  0.315972  0.914120  0.843912  1
  P  P20  1  0.687595  0.082476  0.154083  1
  P  P21  1  0.316483  0.772627  0.342325  1
  P  P22  1  0.226789  0.683667  0.159393  1
  P  P23  1  0.332236  0.337061  0.373254  1
  P  P24  1  0.337039  0.332290  0.873200  1
  P  P25  1  0.082169  0.688085  0.653868  1
  P  P26  1  0.229823  0.086057  0.657603  1
  P  P27  1  0.086016  0.229765  0.157621  1
  O  O28  1  0.000198  0.764330  0.564458  1
  O  O29  1  0.913990  0.743558  0.335836  1
  O  O30  1  0.764034  0.000087  0.064440  1
  O  O31  1  0.743426  0.914104  0.835928  1
  O  O32  1  0.906313  0.617923  0.824188  1
  O  O33  1  0.813848  0.665605  0.173631  1
  O  O34  1  0.904890  0.476963  0.323590  1
  O  O35  1  0.993745  0.238994  0.070920  1
  O  O36  1  0.914957  0.343163  0.833569  1
  O  O37  1  0.665807  0.813737  0.673621  1
  O  O38  1  0.617740  0.906209  0.324177  1
  O  O39  1  0.816592  0.513383  0.667871  1
  O  O40  1  0.665920  0.659136  0.020467  1
  O  O41  1  0.659410  0.665688  0.520469  1
  O  O42  1  0.669412  0.512595  0.170164  1
  O  O43  1  0.477103  0.904693  0.823466  1
  O  O44  1  0.513484  0.816451  0.167860  1
  O  O45  1  0.743636  0.338961  0.338454  1
  O  O46  1  0.794468  0.205474  0.750381  1
  O  O47  1  0.756395  0.243929  0.568623  1
  O  O48  1  0.758973  0.247121  0.933729  1
  O  O49  1  0.617693  0.477189  0.820683  1
  O  O50  1  0.512770  0.669240  0.670094  1
  O  O51  1  0.659625  0.255827  0.162178  1
  O  O52  1  0.477182  0.617755  0.320707  1
  O  O53  1  0.342982  0.915018  0.333614  1
  O  O54  1  0.793027  0.000625  0.249558  1
  O  O55  1  0.759465  0.004903  0.431100  1
  O  O56  1  0.239250  0.993681  0.570897  1
  O  O57  1  0.658905  0.084002  0.663244  1
  O  O58  1  0.522241  0.381236  0.677552  1
  O  O59  1  0.338877  0.743673  0.838361  1
  O  O60  1  0.486651  0.331575  0.330895  1
  O  O61  1  0.381297  0.522227  0.177624  1
  O  O62  1  0.244128  0.756257  0.068661  1
  O  O63  1  0.247064  0.759076  0.433778  1
  O  O64  1  0.205429  0.794463  0.250415  1
  O  O65  1  0.255756  0.659727  0.662263  1
  O  O66  1  0.481412  0.184701  0.826959  1
  O  O67  1  0.525222  0.092569  0.177555  1
  O  O68  1  0.331587  0.486632  0.830848  1
  O  O69  1  0.330805  0.338972  0.979763  1
  O  O70  1  0.338887  0.331031  0.479793  1
  O  O71  1  0.184707  0.481470  0.326994  1
  O  O72  1  0.382874  0.093486  0.676751  1
  O  O73  1  0.333541  0.186007  0.327654  1
  O  O74  1  0.084105  0.658784  0.163260  1
  O  O75  1  0.000246  0.793536  0.749421  1
  O  O76  1  0.005009  0.759926  0.930898  1
  O  O77  1  0.092301  0.525604  0.677495  1
  O  O78  1  0.185971  0.333674  0.827574  1
  O  O79  1  0.093495  0.382774  0.176769  1
  O  O80  1  0.255879  0.083979  0.160219  1
  O  O81  1  0.245052  0.992456  0.936617  1
  O  O82  1  0.205243  0.004234  0.753501  1
  O  O83  1  0.084100  0.255946  0.660179  1
  O  O84  1  0.992407  0.244904  0.436663  1
  O  O85  1  0.004177  0.205219  0.253537  1
