# generated using pymatgen
data_Na8TiO6
_symmetry_space_group_name_H-M   'P 1'
_cell_length_a   11.64820893
_cell_length_b   11.64831739
_cell_length_c   11.67493527
_cell_angle_alpha   89.99899974
_cell_angle_beta   90.00067120
_cell_angle_gamma   119.99969803
_symmetry_Int_Tables_number   1
_chemical_formula_structural   Na8TiO6
_chemical_formula_sum   'Na48 Ti6 O36'
_cell_volume   1371.85680583
_cell_formula_units_Z   6
loop_
 _symmetry_equiv_pos_site_id
 _symmetry_equiv_pos_as_xyz
  1  'x, y, z'
loop_
 _atom_site_type_symbol
 _atom_site_label
 _atom_site_symmetry_multiplicity
 _atom_site_fract_x
 _atom_site_fract_y
 _atom_site_fract_z
 _atom_site_occupancy
  Na  Na0  1  0.000007  0.836061  0.962597  1
  Na  Na1  1  0.999991  0.521233  0.186762  1
  Na  Na2  1  0.142388  0.805445  0.304852  1
  Na  Na3  1  0.159933  0.775383  0.575417  1
  Na  Na4  1  0.194526  0.857603  0.804869  1
  Na  Na5  1  0.999989  0.478780  0.686784  1
  Na  Na6  1  0.224622  0.840034  0.075402  1
  Na  Na7  1  0.134883  0.588959  0.935158  1
  Na  Na8  1  0.134870  0.545933  0.435173  1
  Na  Na9  1  0.999985  0.164000  0.462597  1
  Na  Na10  1  0.411038  0.865154  0.435171  1
  Na  Na11  1  0.142396  0.336951  0.804861  1
  Na  Na12  1  0.159947  0.384563  0.075419  1
  Na  Na13  1  0.224623  0.384559  0.575423  1
  Na  Na14  1  0.194581  0.336959  0.304871  1
  Na  Na15  1  0.454072  0.865114  0.935175  1
  Na  Na16  1  0.163943  0.163965  0.962583  1
  Na  Na17  1  0.411030  0.545911  0.935149  1
  Na  Na18  1  0.163995  0.000024  0.462606  1
  Na  Na19  1  0.454080  0.588963  0.435197  1
  Na  Na20  1  0.615412  0.840064  0.575428  1
  Na  Na21  1  0.478759  0.478748  0.186773  1
  Na  Na22  1  0.663031  0.857611  0.304862  1
  Na  Na23  1  0.336958  0.194560  0.304871  1
  Na  Na24  1  0.615407  0.775364  0.075409  1
  Na  Na25  1  0.384594  0.224632  0.575439  1
  Na  Na26  1  0.663049  0.805463  0.804870  1
  Na  Na27  1  0.336917  0.142381  0.804876  1
  Na  Na28  1  0.521215  0.521209  0.686787  1
  Na  Na29  1  0.384553  0.159936  0.075414  1
  Na  Na30  1  0.545908  0.411031  0.935185  1
  Na  Na31  1  0.588972  0.454079  0.435182  1
  Na  Na32  1  0.835986  0.835997  0.462606  1
  Na  Na33  1  0.545938  0.134898  0.435188  1
  Na  Na34  1  0.478789  0.000026  0.686789  1
  Na  Na35  1  0.805447  0.663085  0.804879  1
  Na  Na36  1  0.775367  0.615407  0.075388  1
  Na  Na37  1  0.840041  0.615415  0.575441  1
  Na  Na38  1  0.857591  0.663064  0.304845  1
  Na  Na39  1  0.521226  0.999984  0.186775  1
  Na  Na40  1  0.588943  0.134850  0.935181  1
  Na  Na41  1  0.865133  0.454083  0.935186  1
  Na  Na42  1  0.865118  0.411045  0.435171  1
  Na  Na43  1  0.775377  0.159962  0.575436  1
  Na  Na44  1  0.805442  0.142374  0.304848  1
  Na  Na45  1  0.840051  0.224624  0.075408  1
  Na  Na46  1  0.857645  0.194558  0.804884  1
  Na  Na47  1  0.836033  0.999985  0.962604  1
  Ti  Ti48  1  0.333324  0.666642  0.193764  1
  Ti  Ti49  1  0.000015  0.000025  0.210074  1
  Ti  Ti50  1  0.999988  0.000010  0.710544  1
  Ti  Ti51  1  0.333320  0.666685  0.693835  1
  Ti  Ti52  1  0.666687  0.333339  0.693911  1
  Ti  Ti53  1  0.666661  0.333300  0.193754  1
  O  O54  1  0.999991  0.849952  0.762001  1
  O  O55  1  0.999997  0.659483  0.045939  1
  O  O56  1  0.999977  0.650364  0.435130  1
  O  O57  1  0.000016  0.349642  0.935157  1
  O  O58  1  0.185815  0.670751  0.743541  1
  O  O59  1  0.000000  0.340535  0.545969  1
  O  O60  1  0.329246  0.814151  0.243571  1
  O  O61  1  0.000025  0.150154  0.262076  1
  O  O62  1  0.185812  0.515054  0.243572  1
  O  O63  1  0.333348  0.666647  0.036199  1
  O  O64  1  0.333334  0.666700  0.536125  1
  O  O65  1  0.000010  0.000014  0.053617  1
  O  O66  1  0.999978  0.999998  0.553239  1
  O  O67  1  0.329243  0.515097  0.743539  1
  O  O68  1  0.150044  0.150061  0.761988  1
  O  O69  1  0.484895  0.814175  0.743559  1
  O  O70  1  0.340519  0.340511  0.045949  1
  O  O71  1  0.484946  0.670718  0.243597  1
  O  O72  1  0.349657  0.349643  0.435149  1
  O  O73  1  0.150140  0.000017  0.262084  1
  O  O74  1  0.650350  0.650363  0.935146  1
  O  O75  1  0.515103  0.329247  0.743596  1
  O  O76  1  0.659469  0.659469  0.545976  1
  O  O77  1  0.340529  0.000015  0.545964  1
  O  O78  1  0.349624  0.999989  0.935148  1
  O  O79  1  0.515048  0.185780  0.243591  1
  O  O80  1  0.849881  0.849908  0.262088  1
  O  O81  1  0.670747  0.484901  0.243569  1
  O  O82  1  0.666693  0.333336  0.536187  1
  O  O83  1  0.666659  0.333291  0.036196  1
  O  O84  1  0.814181  0.484932  0.743600  1
  O  O85  1  0.670779  0.185845  0.743601  1
  O  O86  1  0.650359  0.000012  0.435143  1
  O  O87  1  0.659475  0.999985  0.045972  1
  O  O88  1  0.814177  0.329228  0.243581  1
  O  O89  1  0.849935  0.000000  0.762006  1
