# generated using pymatgen
data_BaLa2Br8
_symmetry_space_group_name_H-M   'P 1'
_cell_length_a   8.34817015
_cell_length_b   10.70551601
_cell_length_c   10.70551601
_cell_angle_alpha   98.74414175
_cell_angle_beta   112.94830276
_cell_angle_gamma   67.05169724
_symmetry_Int_Tables_number   1
_chemical_formula_structural   BaLa2Br8
_chemical_formula_sum   'Ba2 La4 Br16'
_cell_volume   811.31764041
_cell_formula_units_Z   2
loop_
 _symmetry_equiv_pos_site_id
 _symmetry_equiv_pos_as_xyz
  1  'x, y, z'
loop_
 _atom_site_type_symbol
 _atom_site_label
 _atom_site_symmetry_multiplicity
 _atom_site_fract_x
 _atom_site_fract_y
 _atom_site_fract_z
 _atom_site_occupancy
  Ba  Ba0  1  0.000000  0.000000  0.000000  1
  Ba  Ba1  1  0.750000  0.500000  0.500000  1
  La  La2  1  0.583276  0.073893  0.346774  1
  La  La3  1  0.763498  0.653226  0.073893  1
  La  La4  1  0.342831  0.346774  0.926107  1
  La  La5  1  0.310396  0.926107  0.653226  1
  Br  Br6  1  0.244754  0.190463  0.096639  1
  Br  Br7  1  0.667367  0.264900  0.211195  1
  Br  Br8  1  0.257194  0.076219  0.418372  1
  Br  Br9  1  0.161178  0.581628  0.076219  1
  Br  Br10  1  0.543717  0.304650  0.518905  1
  Br  Br11  1  0.975189  0.481095  0.304650  1
  Br  Br12  1  0.067732  0.211195  0.735100  1
  Br  Br13  1  0.564784  0.096639  0.809537  1
  Br  Br14  1  0.851885  0.903361  0.190463  1
  Br  Br15  1  0.543828  0.788805  0.264900  1
  Br  Br16  1  0.151633  0.518905  0.695350  1
  Br  Br17  1  0.329462  0.695350  0.481095  1
  Br  Br18  1  0.666587  0.418372  0.923781  1
  Br  Br19  1  0.915041  0.923781  0.581628  1
  Br  Br20  1  0.721072  0.735100  0.788805  1
  Br  Br21  1  0.338577  0.809537  0.903361  1
