# generated using pymatgen
data_Li3V2(PO4)3
_symmetry_space_group_name_H-M   'P 1'
_cell_length_a   9.81814815
_cell_length_b   9.81814815
_cell_length_c   9.79098657
_cell_angle_alpha   86.33122857
_cell_angle_beta   93.66877143
_cell_angle_gamma   94.58231043
_symmetry_Int_Tables_number   1
_chemical_formula_structural   Li3V2(PO4)3
_chemical_formula_sum   'Li12 V8 P12 O48'
_cell_volume   937.22154807
_cell_formula_units_Z   4
loop_
 _symmetry_equiv_pos_site_id
 _symmetry_equiv_pos_as_xyz
  1  'x, y, z'
loop_
 _atom_site_type_symbol
 _atom_site_label
 _atom_site_symmetry_multiplicity
 _atom_site_fract_x
 _atom_site_fract_y
 _atom_site_fract_z
 _atom_site_occupancy
  Li  Li0  1  0.014567  0.504842  0.240439  1
  Li  Li1  1  0.379146  0.750025  0.805545  1
  Li  Li2  1  0.218392  0.563544  0.467381  1
  Li  Li3  1  0.234704  0.734023  0.179757  1
  Li  Li4  1  0.702557  0.924373  0.975432  1
  Li  Li5  1  0.997509  0.256417  0.387599  1
  Li  Li6  1  0.256417  0.997509  0.612401  1
  Li  Li7  1  0.924373  0.702557  0.024568  1
  Li  Li8  1  0.734023  0.234704  0.820243  1
  Li  Li9  1  0.563544  0.218392  0.532619  1
  Li  Li10  1  0.750025  0.379146  0.194455  1
  Li  Li11  1  0.504842  0.014567  0.759561  1
  V  V12  1  0.029504  0.249136  0.782445  1
  V  V13  1  0.746533  0.966166  0.280920  1
  V  V14  1  0.748493  0.748493  0.500000  1
  V  V15  1  0.531432  0.531432  0.500000  1
  V  V16  1  0.248748  0.248748  0.000000  1
  V  V17  1  0.468193  0.468193  0.000000  1
  V  V18  1  0.966166  0.746533  0.719080  1
  V  V19  1  0.249136  0.029504  0.217555  1
  P  P20  1  0.174077  0.945475  0.902885  1
  P  P21  1  0.050270  0.821443  0.404857  1
  P  P22  1  0.156199  0.552416  0.928607  1
  P  P23  1  0.442263  0.837838  0.429230  1
  P  P24  1  0.651809  0.681438  0.803490  1
  P  P25  1  0.340809  0.318993  0.697779  1
  P  P26  1  0.318993  0.340809  0.302221  1
  P  P27  1  0.681438  0.651809  0.196510  1
  P  P28  1  0.837838  0.442263  0.570770  1
  P  P29  1  0.552416  0.156199  0.071393  1
  P  P30  1  0.821443  0.050270  0.595143  1
  P  P31  1  0.945475  0.174077  0.097115  1
  O  O32  1  0.032081  0.872360  0.868697  1
  O  O33  1  0.111612  0.960405  0.344357  1
  O  O34  1  0.081445  0.820741  0.563172  1
  O  O35  1  0.208390  0.908291  0.058205  1
  O  O36  1  0.285039  0.911555  0.810594  1
  O  O37  1  0.103054  0.697619  0.342512  1
  O  O38  1  0.090358  0.612371  0.792503  1
  O  O39  1  0.403139  0.907328  0.552587  1
  O  O40  1  0.370606  0.880345  0.289652  1
  O  O41  1  0.097786  0.602593  0.056851  1
  O  O42  1  0.123110  0.391457  0.924881  1
  O  O43  1  0.313070  0.590094  0.927345  1
  O  O44  1  0.578042  0.803119  0.844575  1
  O  O45  1  0.406476  0.677762  0.444877  1
  O  O46  1  0.603495  0.870469  0.417163  1
  O  O47  1  0.193530  0.404557  0.348833  1
  O  O48  1  0.183171  0.312120  0.668842  1
  O  O49  1  0.703058  0.808064  0.155684  1
  O  O50  1  0.393873  0.457492  0.630286  1
  O  O51  1  0.622348  0.671218  0.642396  1
  O  O52  1  0.823980  0.889523  0.629902  1
  O  O53  1  0.163782  0.105932  0.875603  1
  O  O54  1  0.541339  0.597991  0.133871  1
  O  O55  1  0.378591  0.326684  0.859512  1
  O  O56  1  0.326684  0.378591  0.140488  1
  O  O57  1  0.597991  0.541339  0.866129  1
  O  O58  1  0.105932  0.163782  0.124397  1
  O  O59  1  0.889523  0.823980  0.370098  1
  O  O60  1  0.671218  0.622348  0.357604  1
  O  O61  1  0.457492  0.393873  0.369714  1
  O  O62  1  0.808064  0.703058  0.844316  1
  O  O63  1  0.312120  0.183171  0.331158  1
  O  O64  1  0.404557  0.193530  0.651167  1
  O  O65  1  0.870469  0.603495  0.582837  1
  O  O66  1  0.677762  0.406476  0.555123  1
  O  O67  1  0.803119  0.578042  0.155425  1
  O  O68  1  0.590094  0.313070  0.072655  1
  O  O69  1  0.391457  0.123110  0.075119  1
  O  O70  1  0.602593  0.097786  0.943149  1
  O  O71  1  0.880345  0.370606  0.710348  1
  O  O72  1  0.907328  0.403139  0.447413  1
  O  O73  1  0.612371  0.090358  0.207497  1
  O  O74  1  0.697619  0.103054  0.657488  1
  O  O75  1  0.911555  0.285039  0.189406  1
  O  O76  1  0.908291  0.208390  0.941795  1
  O  O77  1  0.820741  0.081445  0.436828  1
  O  O78  1  0.960405  0.111612  0.655643  1
  O  O79  1  0.872360  0.032081  0.131303  1
