# generated using pymatgen
data_V2OF5
_symmetry_space_group_name_H-M   'P 1'
_cell_length_a   4.70661131
_cell_length_b   17.36712506
_cell_length_c   5.06402189
_cell_angle_alpha   89.22714866
_cell_angle_beta   89.89109643
_cell_angle_gamma   90.28529232
_symmetry_Int_Tables_number   1
_chemical_formula_structural   V2OF5
_chemical_formula_sum   'V8 O4 F20'
_cell_volume   413.89111610
_cell_formula_units_Z   4
loop_
 _symmetry_equiv_pos_site_id
 _symmetry_equiv_pos_as_xyz
  1  'x, y, z'
loop_
 _atom_site_type_symbol
 _atom_site_label
 _atom_site_symmetry_multiplicity
 _atom_site_fract_x
 _atom_site_fract_y
 _atom_site_fract_z
 _atom_site_occupancy
  V  V0  1  0.002837  0.951775  0.744189  1
  V  V1  1  0.020804  0.716510  0.241274  1
  V  V2  1  0.027189  0.056236  0.232698  1
  V  V3  1  0.477665  0.557374  0.232008  1
  V  V4  1  0.495014  0.787802  0.762123  1
  V  V5  1  0.500277  0.451158  0.746641  1
  V  V6  1  0.499757  0.212549  0.248991  1
  V  V7  1  0.976474  0.288663  0.718298  1
  O  O8  1  0.245798  0.626300  0.134203  1
  O  O9  1  0.236008  0.778109  0.069749  1
  O  O10  1  0.254869  0.126359  0.135196  1
  O  O11  1  0.759352  0.281857  0.452219  1
  F  F12  1  0.220867  0.966711  0.071891  1
  F  F13  1  0.245386  0.282978  0.049195  1
  F  F14  1  0.251827  0.714620  0.567215  1
  F  F15  1  0.240283  0.370291  0.607184  1
  F  F16  1  0.222661  0.036729  0.572799  1
  F  F17  1  0.257018  0.872361  0.604870  1
  F  F18  1  0.281476  0.535755  0.571720  1
  F  F19  1  0.252032  0.214649  0.575327  1
  F  F20  1  0.282530  0.467065  0.072301  1
  F  F21  1  0.708434  0.471518  0.421648  1
  F  F22  1  0.717908  0.535827  0.932204  1
  F  F23  1  0.752238  0.781630  0.439231  1
  F  F24  1  0.741721  0.870526  0.887282  1
  F  F25  1  0.759478  0.213629  0.933703  1
  F  F26  1  0.745477  0.126158  0.385271  1
  F  F27  1  0.759912  0.629436  0.377956  1
  F  F28  1  0.751970  0.711870  0.939834  1
  F  F29  1  0.758474  0.371269  0.890211  1
  F  F30  1  0.795146  0.969735  0.419495  1
  F  F31  1  0.785940  0.035769  0.932232  1
