# generated using pymatgen
data_Co3(OF2)2
_symmetry_space_group_name_H-M   'P 1'
_cell_length_a   4.69998372
_cell_length_b   7.80701988
_cell_length_c   5.65732134
_cell_angle_alpha   92.82080338
_cell_angle_beta   90.00000000
_cell_angle_gamma   90.00000000
_symmetry_Int_Tables_number   1
_chemical_formula_structural   Co3(OF2)2
_chemical_formula_sum   'Co6 O4 F8'
_cell_volume   207.33181430
_cell_formula_units_Z   2
loop_
 _symmetry_equiv_pos_site_id
 _symmetry_equiv_pos_as_xyz
  1  'x, y, z'
loop_
 _atom_site_type_symbol
 _atom_site_label
 _atom_site_symmetry_multiplicity
 _atom_site_fract_x
 _atom_site_fract_y
 _atom_site_fract_z
 _atom_site_occupancy
  Co  Co0  1  0.457508  0.990789  0.513326  1
  Co  Co1  1  0.542492  0.342544  0.820008  1
  Co  Co2  1  0.500000  0.666667  0.166667  1
  Co  Co3  1  0.000000  0.666667  0.666667  1
  Co  Co4  1  0.957508  0.342544  0.320008  1
  Co  Co5  1  0.042492  0.990789  0.013326  1
  O  O6  1  0.798601  0.433924  0.630499  1
  O  O7  1  0.701399  0.433924  0.130499  1
  O  O8  1  0.298601  0.899409  0.202835  1
  O  O9  1  0.201399  0.899409  0.702835  1
  F  F10  1  0.804452  0.773967  0.967156  1
  F  F11  1  0.796725  0.098354  0.303065  1
  F  F12  1  0.695548  0.773967  0.467156  1
  F  F13  1  0.703275  0.098354  0.803065  1
  F  F14  1  0.304452  0.559366  0.866177  1
  F  F15  1  0.296725  0.234980  0.530268  1
  F  F16  1  0.203275  0.234980  0.030268  1
  F  F17  1  0.195548  0.559366  0.366177  1
