# generated using pymatgen
data_Li4Ti2V3O10
_symmetry_space_group_name_H-M   'P 1'
_cell_length_a   7.84511906
_cell_length_b   6.72627807
_cell_length_c   7.94786147
_cell_angle_alpha   114.52268052
_cell_angle_beta   84.02564476
_cell_angle_gamma   89.12276121
_symmetry_Int_Tables_number   1
_chemical_formula_structural   Li4Ti2V3O10
_chemical_formula_sum   'Li8 Ti4 V6 O20'
_cell_volume   378.69890813
_cell_formula_units_Z   2
loop_
 _symmetry_equiv_pos_site_id
 _symmetry_equiv_pos_as_xyz
  1  'x, y, z'
loop_
 _atom_site_type_symbol
 _atom_site_label
 _atom_site_symmetry_multiplicity
 _atom_site_fract_x
 _atom_site_fract_y
 _atom_site_fract_z
 _atom_site_occupancy
  Li  Li0  1  0.046397  0.345687  0.778428  1
  Li  Li1  1  0.155866  0.061300  0.406168  1
  Li  Li2  1  0.993801  0.499863  0.490148  1
  Li  Li3  1  0.506199  0.000137  0.509852  1
  Li  Li4  1  0.344134  0.438700  0.593832  1
  Li  Li5  1  0.453603  0.154313  0.221572  1
  Li  Li6  1  0.664536  0.570842  0.404289  1
  Li  Li7  1  0.835464  0.929158  0.595711  1
  Ti  Ti8  1  0.289557  0.598429  0.309263  1
  Ti  Ti9  1  0.210443  0.901571  0.690737  1
  Ti  Ti10  1  0.808876  0.084289  0.312786  1
  Ti  Ti11  1  0.691124  0.415711  0.687214  1
  V  V12  1  0.097983  0.221093  0.099870  1
  V  V13  1  0.402017  0.278907  0.900130  1
  V  V14  1  0.250000  0.750000  0.000000  1
  V  V15  1  0.750000  0.250000  0.000000  1
  V  V16  1  0.605702  0.710440  0.096551  1
  V  V17  1  0.894298  0.789560  0.903449  1
  O  O18  1  0.309031  0.015404  0.940586  1
  O  O19  1  0.270501  0.157073  0.660253  1
  O  O20  1  0.229499  0.342927  0.339747  1
  O  O21  1  0.132589  0.647928  0.764260  1
  O  O22  1  0.190969  0.484596  0.059414  1
  O  O23  1  0.096255  0.778841  0.467249  1
  O  O24  1  0.637519  0.157490  0.761575  1
  O  O25  1  0.028663  0.944985  0.147875  1
  O  O26  1  0.471337  0.555015  0.852125  1
  O  O27  1  0.590836  0.277401  0.462121  1
  O  O28  1  0.403745  0.721159  0.532751  1
  O  O29  1  0.526522  0.435368  0.146320  1
  O  O30  1  0.973478  0.064632  0.853680  1
  O  O31  1  0.367411  0.852072  0.235740  1
  O  O32  1  0.909164  0.222599  0.537879  1
  O  O33  1  0.815461  0.509814  0.926366  1
  O  O34  1  0.862481  0.342510  0.238425  1
  O  O35  1  0.778575  0.654733  0.655760  1
  O  O36  1  0.721425  0.845267  0.344240  1
  O  O37  1  0.684539  0.990186  0.073634  1
