# generated using pymatgen
data_CaPrO3
_symmetry_space_group_name_H-M   'P 1'
_cell_length_a   6.10519995
_cell_length_b   6.32241465
_cell_length_c   8.44626508
_cell_angle_alpha   89.99818721
_cell_angle_beta   90.00004216
_cell_angle_gamma   89.94208573
_symmetry_Int_Tables_number   1
_chemical_formula_structural   CaPrO3
_chemical_formula_sum   'Ca4 Pr4 O12'
_cell_volume   326.02233379
_cell_formula_units_Z   4
loop_
 _symmetry_equiv_pos_site_id
 _symmetry_equiv_pos_as_xyz
  1  'x, y, z'
loop_
 _atom_site_type_symbol
 _atom_site_label
 _atom_site_symmetry_multiplicity
 _atom_site_fract_x
 _atom_site_fract_y
 _atom_site_fract_z
 _atom_site_occupancy
  Ca  Ca0  1  0.016953  0.945866  0.750000  1
  Ca  Ca1  1  0.482983  0.445728  0.749989  1
  Ca  Ca2  1  0.517244  0.553791  0.250002  1
  Ca  Ca3  1  0.982657  0.053546  0.249990  1
  Pr  Pr4  1  0.999883  0.500082  0.000067  1
  Pr  Pr5  1  0.999873  0.500092  0.499934  1
  Pr  Pr6  1  0.500117  0.000017  0.000044  1
  Pr  Pr7  1  0.500118  0.000022  0.499949  1
  O  O8  1  0.164123  0.397979  0.250003  1
  O  O9  1  0.196704  0.198990  0.595316  1
  O  O10  1  0.196685  0.198966  0.904712  1
  O  O11  1  0.303452  0.698821  0.594849  1
  O  O12  1  0.303460  0.698811  0.905150  1
  O  O13  1  0.335851  0.898247  0.250000  1
  O  O14  1  0.664100  0.101276  0.749997  1
  O  O15  1  0.696176  0.301609  0.405995  1
  O  O16  1  0.696184  0.301589  0.094017  1
  O  O17  1  0.803756  0.801546  0.094153  1
  O  O18  1  0.803752  0.801558  0.405836  1
  O  O19  1  0.835929  0.601465  0.749997  1
