# generated using pymatgen
data_LuBiO3
_symmetry_space_group_name_H-M   'P 1'
_cell_length_a   5.89287462
_cell_length_b   5.89273343
_cell_length_c   6.10801691
_cell_angle_alpha   61.16627685
_cell_angle_beta   118.83184610
_cell_angle_gamma   119.98926181
_symmetry_Int_Tables_number   1
_chemical_formula_structural   LuBiO3
_chemical_formula_sum   'Lu2 Bi2 O6'
_cell_volume   152.58311981
_cell_formula_units_Z   2
loop_
 _symmetry_equiv_pos_site_id
 _symmetry_equiv_pos_as_xyz
  1  'x, y, z'
loop_
 _atom_site_type_symbol
 _atom_site_label
 _atom_site_symmetry_multiplicity
 _atom_site_fract_x
 _atom_site_fract_y
 _atom_site_fract_z
 _atom_site_occupancy
  Lu  Lu0  1  0.854769  0.145236  0.564362  1
  Lu  Lu1  1  0.145234  0.854763  0.435643  1
  Bi  Bi2  1  0.641227  0.358811  0.923546  1
  Bi  Bi3  1  0.358778  0.641187  0.076451  1
  O  O4  1  0.980586  0.783806  0.743584  1
  O  O5  1  0.546753  0.019351  0.743612  1
  O  O6  1  0.216180  0.453194  0.743544  1
  O  O7  1  0.783806  0.546807  0.256457  1
  O  O8  1  0.453250  0.980629  0.256387  1
  O  O9  1  0.019416  0.216216  0.256413  1
