# generated using pymatgen
data_Li2Fe3NiO8
_symmetry_space_group_name_H-M   'P 1'
_cell_length_a   8.40373943
_cell_length_b   8.34200820
_cell_length_c   8.40998665
_cell_angle_alpha   90.11991431
_cell_angle_beta   90.18118482
_cell_angle_gamma   89.87975929
_symmetry_Int_Tables_number   1
_chemical_formula_structural   Li2Fe3NiO8
_chemical_formula_sum   'Li8 Fe12 Ni4 O32'
_cell_volume   589.56870715
_cell_formula_units_Z   4
loop_
 _symmetry_equiv_pos_site_id
 _symmetry_equiv_pos_as_xyz
  1  'x, y, z'
loop_
 _atom_site_type_symbol
 _atom_site_label
 _atom_site_symmetry_multiplicity
 _atom_site_fract_x
 _atom_site_fract_y
 _atom_site_fract_z
 _atom_site_occupancy
  Li  Li0  1  0.124622  0.875399  0.378677  1
  Li  Li1  1  0.256557  0.753599  0.741012  1
  Li  Li2  1  0.249017  0.252044  0.247502  1
  Li  Li3  1  0.376472  0.123891  0.874930  1
  Li  Li4  1  0.625382  0.623393  0.623405  1
  Li  Li5  1  0.751200  0.751195  0.244389  1
  Li  Li6  1  0.751373  0.253122  0.743205  1
  Li  Li7  1  0.874864  0.378379  0.126466  1
  Fe  Fe8  1  0.121451  0.620727  0.126922  1
  Fe  Fe9  1  0.126187  0.379993  0.878238  1
  Fe  Fe10  1  0.123109  0.124288  0.621987  1
  Fe  Fe11  1  0.373642  0.876691  0.125958  1
  Fe  Fe12  1  0.377490  0.623123  0.382853  1
  Fe  Fe13  1  0.380119  0.372913  0.629100  1
  Fe  Fe14  1  0.618737  0.876707  0.874613  1
  Fe  Fe15  1  0.623354  0.125384  0.120039  1
  Fe  Fe16  1  0.624008  0.377316  0.376101  1
  Fe  Fe17  1  0.874743  0.621162  0.874456  1
  Fe  Fe18  1  0.874837  0.873725  0.622419  1
  Fe  Fe19  1  0.879030  0.122917  0.372504  1
  Ni  Ni20  1  0.001110  0.498336  0.496689  1
  Ni  Ni21  1  0.500927  0.502026  0.000456  1
  Ni  Ni22  1  0.499048  0.996290  0.505647  1
  Ni  Ni23  1  0.003122  -0.001264  0.003457  1
  O  O24  1  0.096529  0.127221  0.379265  1
  O  O25  1  0.110496  0.903323  0.632480  1
  O  O26  1  0.122279  0.606988  0.881510  1
  O  O27  1  0.123344  0.399882  0.111451  1
  O  O28  1  0.112485  0.156804  0.872092  1
  O  O29  1  0.134277  0.359263  0.634170  1
  O  O30  1  0.147607  0.623589  0.367648  1
  O  O31  1  0.138181  0.849915  0.122881  1
  O  O32  1  0.349953  0.131051  0.621981  1
  O  O33  1  0.365252  0.374296  0.862091  1
  O  O34  1  0.361424  0.632613  0.142804  1
  O  O35  1  0.379081  0.849007  0.368913  1
  O  O36  1  0.375639  0.613509  0.599386  1
  O  O37  1  0.384267  0.392926  0.382989  1
  O  O38  1  0.389437  0.103183  0.131749  1
  O  O39  1  0.401105  0.873368  0.886477  1
  O  O40  1  0.610612  0.372522  0.597649  1
  O  O41  1  0.603579  0.610474  0.373162  1
  O  O42  1  0.615613  0.879461  0.102811  1
  O  O43  1  0.629631  0.101458  0.886906  1
  O  O44  1  0.620599  0.361664  0.146437  1
  O  O45  1  0.644470  0.133055  0.364575  1
  O  O46  1  0.633861  0.875236  0.652512  1
  O  O47  1  0.635571  0.646886  0.875798  1
  O  O48  1  0.857065  0.355068  0.376014  1
  O  O49  1  0.863775  0.123110  0.145319  1
  O  O50  1  0.859625  0.859077  0.871485  1
  O  O51  1  0.879115  0.638061  0.640580  1
  O  O52  1  0.871080  0.898754  0.388276  1
  O  O53  1  0.890077  0.119228  0.606219  1
  O  O54  1  0.885334  0.402215  0.875581  1
  O  O55  1  0.898238  0.625517  0.107840  1
