# generated using pymatgen
data_Cs2CaO2
_symmetry_space_group_name_H-M   'P 1'
_cell_length_a   11.37056658
_cell_length_b   6.91265874
_cell_length_c   6.53973648
_cell_angle_alpha   90.00000000
_cell_angle_beta   90.00000000
_cell_angle_gamma   90.00000000
_symmetry_Int_Tables_number   1
_chemical_formula_structural   Cs2CaO2
_chemical_formula_sum   'Cs8 Ca4 O8'
_cell_volume   514.02882287
_cell_formula_units_Z   4
loop_
 _symmetry_equiv_pos_site_id
 _symmetry_equiv_pos_as_xyz
  1  'x, y, z'
loop_
 _atom_site_type_symbol
 _atom_site_label
 _atom_site_symmetry_multiplicity
 _atom_site_fract_x
 _atom_site_fract_y
 _atom_site_fract_z
 _atom_site_occupancy
  Cs  Cs0  1  0.158246  0.389552  0.596479  1
  Cs  Cs1  1  0.158246  0.610448  0.096479  1
  Cs  Cs2  1  0.341754  0.110448  0.096479  1
  Cs  Cs3  1  0.341754  0.889552  0.596479  1
  Cs  Cs4  1  0.658246  0.110448  0.403521  1
  Cs  Cs5  1  0.658246  0.889552  0.903521  1
  Cs  Cs6  1  0.841754  0.389552  0.903521  1
  Cs  Cs7  1  0.841754  0.610448  0.403521  1
  Ca  Ca8  1  0.000000  0.019538  0.250000  1
  Ca  Ca9  1  0.000000  0.980462  0.750000  1
  Ca  Ca10  1  0.500000  0.480462  0.750000  1
  Ca  Ca11  1  0.500000  0.519538  0.250000  1
  O  O12  1  0.094422  0.173146  0.987167  1
  O  O13  1  0.094422  0.826854  0.487167  1
  O  O14  1  0.405578  0.326854  0.487167  1
  O  O15  1  0.405578  0.673146  0.987167  1
  O  O16  1  0.594422  0.326854  0.012833  1
  O  O17  1  0.594422  0.673146  0.512833  1
  O  O18  1  0.905578  0.173146  0.512833  1
  O  O19  1  0.905578  0.826854  0.012833  1
