# generated using pymatgen
data_LiVCr(P2O7)2
_symmetry_space_group_name_H-M   'P 1'
_cell_length_a   9.72421885
_cell_length_b   16.85099250
_cell_length_c   7.16449836
_cell_angle_alpha   83.86055610
_cell_angle_beta   68.04816099
_cell_angle_gamma   73.29373327
_symmetry_Int_Tables_number   1
_chemical_formula_structural   LiVCr(P2O7)2
_chemical_formula_sum   'Li4 V4 Cr4 P16 O56'
_cell_volume   1042.91731263
_cell_formula_units_Z   4
loop_
 _symmetry_equiv_pos_site_id
 _symmetry_equiv_pos_as_xyz
  1  'x, y, z'
loop_
 _atom_site_type_symbol
 _atom_site_label
 _atom_site_symmetry_multiplicity
 _atom_site_fract_x
 _atom_site_fract_y
 _atom_site_fract_z
 _atom_site_occupancy
  Li  Li0  1  0.034007  0.431956  0.675440  1
  Li  Li1  1  0.409016  0.681265  0.327935  1
  Li  Li2  1  0.657142  0.181713  0.328071  1
  Li  Li3  1  0.784261  0.931828  0.676277  1
  V  V4  1  0.121460  0.247419  0.721450  1
  V  V5  1  0.366484  0.753367  0.728201  1
  V  V6  1  0.615136  0.253852  0.729638  1
  V  V7  1  0.870103  0.747994  0.722688  1
  Cr  Cr8  1  0.004364  0.503098  0.271785  1
  Cr  Cr9  1  0.255296  0.002214  0.275525  1
  Cr  Cr10  1  0.507444  0.498788  0.275619  1
  Cr  Cr11  1  0.756920  0.999599  0.271822  1
  P  P12  1  0.145266  0.590186  0.522887  1
  P  P13  1  0.395207  0.088858  0.521540  1
  P  P14  1  0.119902  0.891835  0.085195  1
  P  P15  1  0.368259  0.391977  0.085997  1
  P  P16  1  0.113901  0.641260  0.915285  1
  P  P17  1  0.363572  0.140791  0.914374  1
  P  P18  1  0.141240  0.842007  0.475238  1
  P  P19  1  0.390660  0.341528  0.475272  1
  P  P20  1  0.645495  0.588337  0.518674  1
  P  P21  1  0.895870  0.089683  0.519608  1
  P  P22  1  0.617835  0.890967  0.089089  1
  P  P23  1  0.869239  0.390901  0.088435  1
  P  P24  1  0.612668  0.640853  0.911138  1
  P  P25  1  0.863183  0.141203  0.912254  1
  P  P26  1  0.643268  0.838291  0.478076  1
  P  P27  1  0.893839  0.338676  0.478247  1
  O  O28  1  0.057364  0.090499  0.390291  1
  O  O29  1  0.014127  0.269010  0.530810  1
  O  O30  1  0.014741  0.165186  0.851811  1
  O  O31  1  0.085932  0.595389  0.110924  1
  O  O32  1  0.336230  0.095269  0.110057  1
  O  O33  1  0.195391  0.412243  0.143309  1
  O  O34  1  0.088730  0.520515  0.483523  1
  O  O35  1  0.342505  0.020617  0.475078  1
  O  O36  1  0.035140  0.676201  0.518747  1
  O  O37  1  0.286219  0.176273  0.519594  1
  O  O38  1  0.225300  0.337730  0.608313  1
  O  O39  1  0.232528  0.217480  0.904515  1
  O  O40  1  0.138254  0.573900  0.752392  1
  O  O41  1  0.389904  0.073813  0.750984  1
  O  O42  1  0.166843  0.823110  0.248134  1
  O  O43  1  0.416838  0.322968  0.247928  1
  O  O44  1  0.175585  0.966987  0.085819  1
  O  O45  1  0.426227  0.466501  0.086192  1
  O  O46  1  0.308635  0.591243  0.389356  1
  O  O47  1  0.560189  0.091025  0.391112  1
  O  O48  1  0.159377  0.926686  0.487790  1
  O  O49  1  0.408758  0.426355  0.488393  1
  O  O50  1  0.264648  0.770311  0.521337  1
  O  O51  1  0.514508  0.270382  0.521492  1
  O  O52  1  0.263429  0.668947  0.849673  1
  O  O53  1  0.513288  0.169232  0.849230  1
  O  O54  1  0.201502  0.841249  0.889099  1
  O  O55  1  0.450418  0.341575  0.889287  1
  O  O56  1  0.577126  0.598681  0.115168  1
  O  O57  1  0.827188  0.098361  0.115910  1
  O  O58  1  0.446132  0.910221  0.144177  1
  O  O59  1  0.697186  0.409362  0.142705  1
  O  O60  1  0.590644  0.519612  0.475823  1
  O  O61  1  0.837544  0.019320  0.483885  1
  O  O62  1  0.529215  0.674118  0.517445  1
  O  O63  1  0.778561  0.173916  0.516080  1
  O  O64  1  0.478813  0.833728  0.607950  1
  O  O65  1  0.729512  0.333025  0.607961  1
  O  O66  1  0.480294  0.718342  0.913201  1
  O  O67  1  0.730108  0.218164  0.914580  1
  O  O68  1  0.634731  0.574282  0.753004  1
  O  O69  1  0.883386  0.074546  0.753888  1
  O  O70  1  0.667843  0.823442  0.249473  1
  O  O71  1  0.917915  0.323671  0.249813  1
  O  O72  1  0.676326  0.966812  0.081650  1
  O  O73  1  0.925581  0.467360  0.081168  1
  O  O74  1  0.808505  0.590235  0.392770  1
  O  O75  1  0.665759  0.923514  0.491343  1
  O  O76  1  0.916014  0.423806  0.491571  1
  O  O77  1  0.764010  0.769104  0.530737  1
  O  O78  1  0.764404  0.665643  0.850984  1
  O  O79  1  0.705974  0.844121  0.886215  1
  O  O80  1  0.956652  0.343916  0.886183  1
  O  O81  1  0.946677  0.911333  0.141253  1
  O  O82  1  0.975725  0.837445  0.608273  1
  O  O83  1  0.982460  0.717440  0.905104  1
