# generated using pymatgen
data_Na3AsH22S2O13
_symmetry_space_group_name_H-M   'P 1'
_cell_length_a   12.51989726
_cell_length_b   14.31102108
_cell_length_c   9.77444036
_cell_angle_alpha   90.00000000
_cell_angle_beta   90.00000000
_cell_angle_gamma   90.00000000
_symmetry_Int_Tables_number   1
_chemical_formula_structural   Na3AsH22S2O13
_chemical_formula_sum   'Na12 As4 H88 S8 O52'
_cell_volume   1751.31104841
_cell_formula_units_Z   4
loop_
 _symmetry_equiv_pos_site_id
 _symmetry_equiv_pos_as_xyz
  1  'x, y, z'
loop_
 _atom_site_type_symbol
 _atom_site_label
 _atom_site_symmetry_multiplicity
 _atom_site_fract_x
 _atom_site_fract_y
 _atom_site_fract_z
 _atom_site_occupancy
  Na  Na0  1  0.000000  0.000000  0.000000  1
  Na  Na1  1  0.000000  0.500000  0.000000  1
  Na  Na2  1  0.228230  0.096634  0.995413  1
  Na  Na3  1  0.228230  0.403366  0.995413  1
  Na  Na4  1  0.271770  0.596634  0.495413  1
  Na  Na5  1  0.271770  0.903366  0.495413  1
  Na  Na6  1  0.500000  0.500000  0.500000  1
  Na  Na7  1  0.500000  0.000000  0.500000  1
  Na  Na8  1  0.728230  0.096634  0.504587  1
  Na  Na9  1  0.728230  0.403366  0.504587  1
  Na  Na10  1  0.771770  0.903366  0.004587  1
  Na  Na11  1  0.771770  0.596634  0.004587  1
  As  As12  1  0.087334  0.250000  0.463470  1
  As  As13  1  0.412666  0.750000  0.963470  1
  As  As14  1  0.587334  0.250000  0.036530  1
  As  As15  1  0.912666  0.750000  0.536530  1
  H  H16  1  0.018395  0.176321  0.074509  1
  H  H17  1  0.018395  0.323679  0.074509  1
  H  H18  1  0.090220  0.098316  0.748659  1
  H  H19  1  0.090220  0.401684  0.748659  1
  H  H20  1  0.064032  0.143747  0.217230  1
  H  H21  1  0.064032  0.356253  0.217230  1
  H  H22  1  0.095900  0.042688  0.401126  1
  H  H23  1  0.095900  0.457311  0.401126  1
  H  H24  1  0.091243  0.859813  0.662477  1
  H  H25  1  0.091243  0.640187  0.662477  1
  H  H26  1  0.067625  0.563403  0.375980  1
  H  H27  1  0.067625  0.936597  0.375980  1
  H  H28  1  0.131264  0.508091  0.760761  1
  H  H29  1  0.131264  0.991909  0.760761  1
  H  H30  1  0.174450  0.545351  0.182372  1
  H  H31  1  0.174450  0.954649  0.182372  1
  H  H32  1  0.170157  0.750000  0.345232  1
  H  H33  1  0.196466  0.615161  0.058592  1
  H  H34  1  0.196466  0.884839  0.058592  1
  H  H35  1  0.188847  0.661043  0.765086  1
  H  H36  1  0.188847  0.838957  0.765086  1
  H  H37  1  0.209887  0.250000  0.793759  1
  H  H38  1  0.290113  0.750000  0.293759  1
  H  H39  1  0.311153  0.161043  0.265086  1
  H  H40  1  0.311153  0.338957  0.265086  1
  H  H41  1  0.303534  0.115161  0.558591  1
  H  H42  1  0.303534  0.384839  0.558591  1
  H  H43  1  0.329843  0.250000  0.845232  1
  H  H44  1  0.325550  0.454649  0.682372  1
  H  H45  1  0.325550  0.045351  0.682372  1
  H  H46  1  0.368736  0.491909  0.260761  1
  H  H47  1  0.368736  0.008091  0.260761  1
  H  H48  1  0.432375  0.436597  0.875980  1
  H  H49  1  0.432375  0.063403  0.875980  1
  H  H50  1  0.408757  0.140187  0.162477  1
  H  H51  1  0.408757  0.359813  0.162477  1
  H  H52  1  0.404100  0.542688  0.901126  1
  H  H53  1  0.404100  0.957312  0.901126  1
  H  H54  1  0.435968  0.643747  0.717230  1
  H  H55  1  0.435968  0.856253  0.717230  1
  H  H56  1  0.409780  0.598316  0.248659  1
  H  H57  1  0.409780  0.901684  0.248659  1
  H  H58  1  0.481605  0.676321  0.574509  1
  H  H59  1  0.481605  0.823679  0.574509  1
  H  H60  1  0.518395  0.176321  0.425491  1
  H  H61  1  0.518395  0.323679  0.425491  1
  H  H62  1  0.590220  0.098316  0.751341  1
  H  H63  1  0.590220  0.401684  0.751341  1
  H  H64  1  0.564032  0.143747  0.282770  1
  H  H65  1  0.564032  0.356253  0.282770  1
  H  H66  1  0.595900  0.042688  0.098874  1
  H  H67  1  0.595900  0.457311  0.098874  1
  H  H68  1  0.591243  0.859813  0.837523  1
  H  H69  1  0.591243  0.640187  0.837523  1
  H  H70  1  0.567625  0.936597  0.124020  1
  H  H71  1  0.567625  0.563403  0.124020  1
  H  H72  1  0.631264  0.991909  0.739239  1
  H  H73  1  0.631264  0.508091  0.739239  1
  H  H74  1  0.674450  0.545351  0.317628  1
  H  H75  1  0.674450  0.954649  0.317628  1
  H  H76  1  0.670157  0.750000  0.154768  1
  H  H77  1  0.696466  0.884839  0.441408  1
  H  H78  1  0.696466  0.615161  0.441408  1
  H  H79  1  0.688847  0.661043  0.734914  1
  H  H80  1  0.688847  0.838957  0.734914  1
  H  H81  1  0.709887  0.250000  0.706241  1
  H  H82  1  0.790113  0.750000  0.206241  1
  H  H83  1  0.811153  0.161043  0.234914  1
  H  H84  1  0.811153  0.338957  0.234914  1
  H  H85  1  0.803534  0.115161  0.941409  1
  H  H86  1  0.803534  0.384839  0.941409  1
  H  H87  1  0.829843  0.250000  0.654768  1
  H  H88  1  0.825550  0.045351  0.817628  1
  H  H89  1  0.825550  0.454649  0.817628  1
  H  H90  1  0.868736  0.008091  0.239239  1
  H  H91  1  0.868736  0.491909  0.239239  1
  H  H92  1  0.932375  0.063403  0.624020  1
  H  H93  1  0.932375  0.436597  0.624020  1
  H  H94  1  0.908757  0.140187  0.337523  1
  H  H95  1  0.908757  0.359813  0.337523  1
  H  H96  1  0.904100  0.957312  0.598874  1
  H  H97  1  0.904100  0.542688  0.598874  1
  H  H98  1  0.935968  0.856253  0.782770  1
  H  H99  1  0.935968  0.643747  0.782770  1
  H  H100  1  0.909780  0.598316  0.251341  1
  H  H101  1  0.909780  0.901684  0.251341  1
  H  H102  1  0.981605  0.676321  0.925491  1
  H  H103  1  0.981605  0.823679  0.925491  1
  S  S104  1  0.024936  0.250000  0.671926  1
  S  S105  1  0.237214  0.750000  0.960649  1
  S  S106  1  0.262786  0.250000  0.460649  1
  S  S107  1  0.475064  0.750000  0.171926  1
  S  S108  1  0.524936  0.250000  0.828074  1
  S  S109  1  0.737214  0.750000  0.539351  1
  S  S110  1  0.762786  0.250000  0.039351  1
  S  S111  1  0.975064  0.750000  0.328074  1
  O  O112  1  0.040725  0.152043  0.377856  1
  O  O113  1  0.040725  0.347957  0.377856  1
  O  O114  1  0.069593  0.133277  0.114479  1
  O  O115  1  0.069593  0.366723  0.114479  1
  O  O116  1  0.110753  0.048902  0.813298  1
  O  O117  1  0.110753  0.451098  0.813298  1
  O  O118  1  0.127458  0.521550  0.393211  1
  O  O119  1  0.127458  0.978450  0.393211  1
  O  O120  1  0.162276  0.555108  0.084613  1
  O  O121  1  0.162276  0.944892  0.084613  1
  O  O122  1  0.164508  0.619192  0.691012  1
  O  O123  1  0.164508  0.880808  0.691012  1
  O  O124  1  0.245177  0.750000  0.376296  1
  O  O125  1  0.254823  0.250000  0.876296  1
  O  O126  1  0.335492  0.119192  0.191012  1
  O  O127  1  0.335492  0.380808  0.191012  1
  O  O128  1  0.337724  0.444892  0.584613  1
  O  O129  1  0.337724  0.055108  0.584613  1
  O  O130  1  0.372542  0.021550  0.893211  1
  O  O131  1  0.372542  0.478450  0.893211  1
  O  O132  1  0.389247  0.548902  0.313298  1
  O  O133  1  0.389247  0.951098  0.313298  1
  O  O134  1  0.430407  0.633277  0.614479  1
  O  O135  1  0.430407  0.866723  0.614479  1
  O  O136  1  0.459275  0.652043  0.877856  1
  O  O137  1  0.459275  0.847957  0.877856  1
  O  O138  1  0.540725  0.152043  0.122143  1
  O  O139  1  0.540725  0.347957  0.122143  1
  O  O140  1  0.569593  0.133277  0.385521  1
  O  O141  1  0.569593  0.366723  0.385521  1
  O  O142  1  0.610753  0.048902  0.686702  1
  O  O143  1  0.610753  0.451098  0.686702  1
  O  O144  1  0.627458  0.978450  0.106789  1
  O  O145  1  0.627458  0.521550  0.106789  1
  O  O146  1  0.662276  0.944892  0.415387  1
  O  O147  1  0.662276  0.555108  0.415387  1
  O  O148  1  0.664508  0.880808  0.808988  1
  O  O149  1  0.664508  0.619192  0.808988  1
  O  O150  1  0.745177  0.750000  0.123704  1
  O  O151  1  0.754823  0.250000  0.623704  1
  O  O152  1  0.835492  0.119192  0.308988  1
  O  O153  1  0.835492  0.380808  0.308988  1
  O  O154  1  0.837724  0.055108  0.915387  1
  O  O155  1  0.837724  0.444892  0.915387  1
  O  O156  1  0.872542  0.021550  0.606789  1
  O  O157  1  0.872542  0.478450  0.606789  1
  O  O158  1  0.889247  0.951098  0.186702  1
  O  O159  1  0.889247  0.548902  0.186702  1
  O  O160  1  0.930407  0.633277  0.885521  1
  O  O161  1  0.930407  0.866723  0.885521  1
  O  O162  1  0.959275  0.847957  0.622144  1
  O  O163  1  0.959275  0.652043  0.622144  1
