# generated using pymatgen
data_Fe6O5F7
_symmetry_space_group_name_H-M   'P 1'
_cell_length_a   4.69195394
_cell_length_b   7.96414227
_cell_length_c   5.65748962
_cell_angle_alpha   93.67203649
_cell_angle_beta   89.06850316
_cell_angle_gamma   90.10699900
_symmetry_Int_Tables_number   1
_chemical_formula_structural   Fe6O5F7
_chemical_formula_sum   'Fe6 O5 F7'
_cell_volume   210.94364374
_cell_formula_units_Z   1
loop_
 _symmetry_equiv_pos_site_id
 _symmetry_equiv_pos_as_xyz
  1  'x, y, z'
loop_
 _atom_site_type_symbol
 _atom_site_label
 _atom_site_symmetry_multiplicity
 _atom_site_fract_x
 _atom_site_fract_y
 _atom_site_fract_z
 _atom_site_occupancy
  Fe  Fe0  1  0.549355  0.646450  0.161696  1
  Fe  Fe1  1  0.463649  0.025514  0.494715  1
  Fe  Fe2  1  0.499697  0.335025  0.833732  1
  Fe  Fe3  1  0.016788  0.692913  0.674221  1
  Fe  Fe4  1  0.971160  0.309187  0.336841  1
  Fe  Fe5  1  0.981359  0.983578  0.003523  1
  O  O6  1  0.803333  0.765957  0.960684  1
  O  O7  1  0.794535  0.088483  0.293184  1
  O  O8  1  0.707773  0.431258  0.141236  1
  O  O9  1  0.292333  0.240907  0.525627  1
  O  O10  1  0.200560  0.904395  0.705890  1
  F  F11  1  0.818592  0.452736  0.629016  1
  F  F12  1  0.705156  0.096165  0.787624  1
  F  F13  1  0.695172  0.763347  0.462978  1
  F  F14  1  0.298529  0.575576  0.875539  1
  F  F15  1  0.305404  0.889550  0.205052  1
  F  F16  1  0.190943  0.217491  0.036341  1
  F  F17  1  0.205661  0.581469  0.372101  1
