# generated using pymatgen
data_VCr2Fe3(PO4)6
_symmetry_space_group_name_H-M   'P 1'
_cell_length_a   8.49874587
_cell_length_b   8.72988367
_cell_length_c   8.72988334
_cell_angle_alpha   60.00000074
_cell_angle_beta   59.09618897
_cell_angle_gamma   59.09618603
_symmetry_Int_Tables_number   1
_chemical_formula_structural   VCr2Fe3(PO4)6
_chemical_formula_sum   'V1 Cr2 Fe3 P6 O24'
_cell_volume   451.63406780
_cell_formula_units_Z   1
loop_
 _symmetry_equiv_pos_site_id
 _symmetry_equiv_pos_as_xyz
  1  'x, y, z'
loop_
 _atom_site_type_symbol
 _atom_site_label
 _atom_site_symmetry_multiplicity
 _atom_site_fract_x
 _atom_site_fract_y
 _atom_site_fract_z
 _atom_site_occupancy
  V  V0  1  0.568845  0.143719  0.143719  1
  Cr  Cr1  1  0.000180  -0.000060  -0.000060  1
  Cr  Cr2  1  0.501096  0.499634  0.499634  1
  Fe  Fe3  1  0.061877  0.646041  0.646041  1
  Fe  Fe4  1  0.437044  0.854318  0.854318  1
  Fe  Fe5  1  0.939303  0.353566  0.353566  1
  P  P6  1  0.250443  0.250525  0.546712  1
  P  P7  1  0.250443  0.952320  0.250525  1
  P  P8  1  0.250443  0.546712  0.952320  1
  P  P9  1  0.748087  0.453398  0.048835  1
  P  P10  1  0.748087  0.048835  0.749680  1
  P  P11  1  0.748087  0.749680  0.453398  1
  O  O12  1  0.066028  0.104409  0.326634  1
  O  O13  1  0.066028  0.502930  0.104409  1
  O  O14  1  0.066028  0.326634  0.502930  1
  O  O15  1  0.218442  0.095391  0.747633  1
  O  O16  1  0.434844  0.176394  0.390367  1
  O  O17  1  0.286028  0.404478  0.558821  1
  O  O18  1  0.218442  0.938533  0.095391  1
  O  O19  1  0.286028  0.750673  0.404478  1
  O  O20  1  0.563570  0.605862  0.005700  1
  O  O21  1  0.286028  0.558821  0.750673  1
  O  O22  1  0.779011  0.250698  0.065204  1
  O  O23  1  0.563570  0.005700  0.824868  1
  O  O24  1  0.434844  0.998395  0.176394  1
  O  O25  1  0.218442  0.747633  0.938533  1
  O  O26  1  0.716848  0.437774  0.250178  1
  O  O27  1  0.434844  0.390367  0.998395  1
  O  O28  1  0.716848  0.250178  0.595201  1
  O  O29  1  0.779011  0.065204  0.905087  1
  O  O30  1  0.716848  0.595201  0.437774  1
  O  O31  1  0.563570  0.824868  0.605862  1
  O  O32  1  0.779011  0.905087  0.250698  1
  O  O33  1  0.933917  0.679495  0.492941  1
  O  O34  1  0.933917  0.492941  0.893647  1
  O  O35  1  0.933917  0.893647  0.679495  1
