# generated using pymatgen
data_Fe5(OF4)2
_symmetry_space_group_name_H-M   'P 1'
_cell_length_a   4.85217992
_cell_length_b   7.96447113
_cell_length_c   10.04068318
_cell_angle_alpha   109.22619095
_cell_angle_beta   91.34728377
_cell_angle_gamma   88.39466085
_symmetry_Int_Tables_number   1
_chemical_formula_structural   Fe5(OF4)2
_chemical_formula_sum   'Fe10 O4 F16'
_cell_volume   366.19531148
_cell_formula_units_Z   2
loop_
 _symmetry_equiv_pos_site_id
 _symmetry_equiv_pos_as_xyz
  1  'x, y, z'
loop_
 _atom_site_type_symbol
 _atom_site_label
 _atom_site_symmetry_multiplicity
 _atom_site_fract_x
 _atom_site_fract_y
 _atom_site_fract_z
 _atom_site_occupancy
  Fe  Fe0  1  0.484816  0.297641  0.893410  1
  Fe  Fe1  1  0.503712  0.100695  0.304387  1
  Fe  Fe2  1  0.484976  0.906317  0.693115  1
  Fe  Fe3  1  0.551406  0.710586  0.099213  1
  Fe  Fe4  1  0.483396  0.495349  0.492184  1
  Fe  Fe5  1  0.982510  0.610884  0.808485  1
  Fe  Fe6  1  0.026493  0.196952  0.616526  1
  Fe  Fe7  1  0.977126  0.805128  0.387159  1
  Fe  Fe8  1  0.034947  0.390700  0.209998  1
  Fe  Fe9  1  0.981160  0.986751  -0.004137  1
  O  O10  1  0.798411  0.754302  0.981149  1
  O  O11  1  0.679653  0.871995  0.278682  1
  O  O12  1  0.298873  0.140494  0.722301  1
  O  O13  1  0.309538  0.320893  0.316349  1
  F  F14  1  0.812981  0.974142  0.581990  1
  F  F15  1  0.817313  0.545501  0.370053  1
  F  F16  1  0.800723  0.355921  0.775789  1
  F  F17  1  0.796408  0.175082  0.187489  1
  F  F18  1  0.697229  0.063299  0.878621  1
  F  F19  1  0.681244  0.660669  0.665067  1
  F  F20  1  0.712992  0.462771  0.088827  1
  F  F21  1  0.711180  0.249123  0.481312  1
  F  F22  1  0.286049  0.742983  0.508017  1
  F  F23  1  0.301513  0.942312  0.125244  1
  F  F24  1  0.319791  0.552750  0.935145  1
  F  F25  1  0.176142  0.436772  0.624486  1
  F  F26  1  0.199987  0.053391  0.426166  1
  F  F27  1  0.202690  0.836724  0.816615  1
  F  F28  1  0.181095  0.240564  0.025354  1
  F  F29  1  0.205647  0.619309  0.211002  1
