# generated using pymatgen
data_Bi2B2O7
_symmetry_space_group_name_H-M   'P 1'
_cell_length_a   8.31478530
_cell_length_b   6.48300046
_cell_length_c   5.75789740
_cell_angle_alpha   71.96168787
_cell_angle_beta   105.89114142
_cell_angle_gamma   108.52269601
_symmetry_Int_Tables_number   1
_chemical_formula_structural   Bi2B2O7
_chemical_formula_sum   'Bi4 B4 O14'
_cell_volume   274.48582596
_cell_formula_units_Z   2
loop_
 _symmetry_equiv_pos_site_id
 _symmetry_equiv_pos_as_xyz
  1  'x, y, z'
loop_
 _atom_site_type_symbol
 _atom_site_label
 _atom_site_symmetry_multiplicity
 _atom_site_fract_x
 _atom_site_fract_y
 _atom_site_fract_z
 _atom_site_occupancy
  Bi  Bi0  1  0.137999  0.229162  0.317646  1
  Bi  Bi1  1  0.320256  0.537636  0.786403  1
  Bi  Bi2  1  0.679744  0.462364  0.213597  1
  Bi  Bi3  1  0.862001  0.770838  0.682354  1
  B  B4  1  0.097059  0.739107  0.262408  1
  B  B5  1  0.282445  0.986260  0.890027  1
  B  B6  1  0.717555  0.013740  0.109973  1
  B  B7  1  0.902941  0.260893  0.737592  1
  O  O8  1  0.068518  0.842044  0.434232  1
  O  O9  1  0.062599  0.404501  0.866210  1
  O  O10  1  0.221557  0.594649  0.393358  1
  O  O11  1  0.372311  0.861139  0.846676  1
  O  O12  1  0.303776  0.203586  0.726295  1
  O  O13  1  0.169575  0.922401  0.050605  1
  O  O14  1  0.403521  0.388306  0.184685  1
  O  O15  1  0.596479  0.611694  0.815315  1
  O  O16  1  0.830425  0.077599  0.949395  1
  O  O17  1  0.696224  0.796414  0.273705  1
  O  O18  1  0.627689  0.138861  0.153324  1
  O  O19  1  0.778443  0.405351  0.606642  1
  O  O20  1  0.937401  0.595499  0.133790  1
  O  O21  1  0.931482  0.157956  0.565768  1
