# generated using pymatgen
data_Li3Mn2CuO6
_symmetry_space_group_name_H-M   'P 1'
_cell_length_a   16.29782537
_cell_length_b   10.05424996
_cell_length_c   10.05424987
_cell_angle_alpha   16.28034229
_cell_angle_beta   16.47679077
_cell_angle_gamma   16.47678926
_symmetry_Int_Tables_number   1
_chemical_formula_structural   Li3Mn2CuO6
_chemical_formula_sum   'Li3 Mn2 Cu1 O6'
_cell_volume   114.65905814
_cell_formula_units_Z   1
loop_
 _symmetry_equiv_pos_site_id
 _symmetry_equiv_pos_as_xyz
  1  'x, y, z'
loop_
 _atom_site_type_symbol
 _atom_site_label
 _atom_site_symmetry_multiplicity
 _atom_site_fract_x
 _atom_site_fract_y
 _atom_site_fract_z
 _atom_site_occupancy
  Li  Li0  1  0.166667  0.500000  0.500000  1
  Li  Li1  1  0.491810  0.506600  0.506600  1
  Li  Li2  1  0.841523  0.493400  0.493400  1
  Mn  Mn3  1  0.002645  0.995993  0.995993  1
  Mn  Mn4  1  0.330688  0.004007  0.004007  1
  Cu  Cu5  1  0.666667  0.000000  0.000000  1
  O  O6  1  0.203346  0.285439  0.285439  1
  O  O7  1  0.550543  0.279072  0.279072  1
  O  O8  1  0.129987  0.714561  0.714561  1
  O  O9  1  0.900209  0.271400  0.271400  1
  O  O10  1  0.433124  0.728600  0.728600  1
  O  O11  1  0.782791  0.720928  0.720928  1
