# generated using pymatgen
data_LiNiPO4
_symmetry_space_group_name_H-M   'P 1'
_cell_length_a   8.37761104
_cell_length_b   8.37785388
_cell_length_c   7.48371106
_cell_angle_alpha   89.99839606
_cell_angle_beta   90.00211334
_cell_angle_gamma   120.00150443
_symmetry_Int_Tables_number   1
_chemical_formula_structural   LiNiPO4
_chemical_formula_sum   'Li6 Ni6 P6 O24'
_cell_volume   454.87705810
_cell_formula_units_Z   6
loop_
 _symmetry_equiv_pos_site_id
 _symmetry_equiv_pos_as_xyz
  1  'x, y, z'
loop_
 _atom_site_type_symbol
 _atom_site_label
 _atom_site_symmetry_multiplicity
 _atom_site_fract_x
 _atom_site_fract_y
 _atom_site_fract_z
 _atom_site_occupancy
  Li  Li0  1  0.014301  0.682429  0.401878  1
  Li  Li1  1  0.317546  0.331856  0.401887  1
  Li  Li2  1  0.668141  0.985734  0.401859  1
  Li  Li3  1  0.331915  0.014191  0.901568  1
  Li  Li4  1  0.682277  0.668076  0.901585  1
  Li  Li5  1  0.985784  0.317726  0.901562  1
  Ni  Ni6  1  0.333346  0.666649  0.301157  1
  Ni  Ni7  1  0.333337  0.666674  0.698347  1
  Ni  Ni8  1  0.000001  0.999988  0.133038  1
  Ni  Ni9  1  0.000006  0.000004  0.633302  1
  Ni  Ni10  1  0.666637  0.333339  0.801617  1
  Ni  Ni11  1  0.666666  0.333346  0.198605  1
  P  P12  1  0.038409  0.674755  0.005178  1
  P  P13  1  0.325205  0.363613  0.005165  1
  P  P14  1  0.636392  0.961608  0.005157  1
  P  P15  1  0.363799  0.038492  0.505155  1
  P  P16  1  0.674681  0.636204  0.505142  1
  P  P17  1  0.961489  0.325332  0.505196  1
  O  O18  1  0.148437  0.928713  0.501462  1
  O  O19  1  0.147268  0.722119  0.181579  1
  O  O20  1  0.173457  0.740741  0.846735  1
  O  O21  1  0.111948  0.533408  0.497361  1
  O  O22  1  0.421430  0.888048  0.497297  1
  O  O23  1  0.071281  0.219771  0.501553  1
  O  O24  1  0.259252  0.432694  0.846707  1
  O  O25  1  0.277766  0.425042  0.181559  1
  O  O26  1  0.219754  0.148347  0.001088  1
  O  O27  1  0.574934  0.852735  0.181553  1
  O  O28  1  0.567337  0.826569  0.846704  1
  O  O29  1  0.466599  0.578584  0.497257  1
  O  O30  1  0.533469  0.421403  0.997270  1
  O  O31  1  0.432590  0.173436  0.346726  1
  O  O32  1  0.425355  0.147608  0.681614  1
  O  O33  1  0.780259  0.851558  0.501480  1
  O  O34  1  0.722198  0.574616  0.681608  1
  O  O35  1  0.740841  0.567425  0.346720  1
  O  O36  1  0.928616  0.780226  0.001130  1
  O  O37  1  0.578599  0.112070  0.997240  1
  O  O38  1  0.887906  0.466508  0.997245  1
  O  O39  1  0.826587  0.259194  0.346726  1
  O  O40  1  0.852320  0.277749  0.681621  1
  O  O41  1  0.851665  0.071423  0.001108  1
