# generated using pymatgen
data_Sr5V3O12F
_symmetry_space_group_name_H-M   'P 1'
_cell_length_a   10.11987980
_cell_length_b   10.11987941
_cell_length_c   7.52077281
_cell_angle_alpha   90.00000000
_cell_angle_beta   90.00000000
_cell_angle_gamma   120.00000127
_symmetry_Int_Tables_number   1
_chemical_formula_structural   Sr5V3O12F
_chemical_formula_sum   'Sr10 V6 O24 F2'
_cell_volume   667.02757376
_cell_formula_units_Z   2
loop_
 _symmetry_equiv_pos_site_id
 _symmetry_equiv_pos_as_xyz
  1  'x, y, z'
loop_
 _atom_site_type_symbol
 _atom_site_label
 _atom_site_symmetry_multiplicity
 _atom_site_fract_x
 _atom_site_fract_y
 _atom_site_fract_z
 _atom_site_occupancy
  Sr  Sr0  1  0.238601  0.988454  0.250000  1
  Sr  Sr1  1  0.011546  0.250147  0.250000  1
  Sr  Sr2  1  0.333333  0.666667  0.499719  1
  Sr  Sr3  1  0.333333  0.666667  0.000281  1
  Sr  Sr4  1  0.250147  0.238601  0.750000  1
  Sr  Sr5  1  0.749853  0.761399  0.250000  1
  Sr  Sr6  1  0.666667  0.333333  0.500281  1
  Sr  Sr7  1  0.666667  0.333333  0.999719  1
  Sr  Sr8  1  0.988454  0.749853  0.750000  1
  Sr  Sr9  1  0.761399  0.011546  0.750000  1
  V  V10  1  0.030788  0.398126  0.750000  1
  V  V11  1  0.367338  0.969212  0.750000  1
  V  V12  1  0.398126  0.367338  0.250000  1
  V  V13  1  0.601874  0.632662  0.750000  1
  V  V14  1  0.632662  0.030788  0.250000  1
  V  V15  1  0.969212  0.601874  0.250000  1
  O  O16  1  0.528250  0.126049  0.250000  1
  O  O17  1  0.517582  0.831946  0.250000  1
  O  O18  1  0.402200  0.528250  0.750000  1
  O  O19  1  0.831946  0.314364  0.750000  1
  O  O20  1  0.751889  0.092366  0.433364  1
  O  O21  1  0.751889  0.092366  0.066636  1
  O  O22  1  0.659523  0.751889  0.933364  1
  O  O23  1  0.659523  0.751889  0.566636  1
  O  O24  1  0.126049  0.597800  0.750000  1
  O  O25  1  0.092366  0.340477  0.566636  1
  O  O26  1  0.092366  0.340477  0.933364  1
  O  O27  1  0.685636  0.517582  0.750000  1
  O  O28  1  0.314364  0.482418  0.250000  1
  O  O29  1  0.907634  0.659523  0.066636  1
  O  O30  1  0.907634  0.659523  0.433364  1
  O  O31  1  0.873951  0.402200  0.250000  1
  O  O32  1  0.340477  0.248111  0.433364  1
  O  O33  1  0.340477  0.248111  0.066636  1
  O  O34  1  0.248111  0.907634  0.933364  1
  O  O35  1  0.248111  0.907634  0.566636  1
  O  O36  1  0.168054  0.685636  0.250000  1
  O  O37  1  0.597800  0.471750  0.250000  1
  O  O38  1  0.482418  0.168054  0.750000  1
  O  O39  1  0.471750  0.873951  0.750000  1
  F  F40  1  0.000000  0.000000  0.250000  1
  F  F41  1  0.000000  0.000000  0.750000  1
