# generated using pymatgen
data_Al11AgO17
_symmetry_space_group_name_H-M   'P 1'
_cell_length_a   5.65565217
_cell_length_b   5.65564866
_cell_length_c   22.79221874
_cell_angle_alpha   89.99969070
_cell_angle_beta   90.00053237
_cell_angle_gamma   120.04000208
_symmetry_Int_Tables_number   1
_chemical_formula_structural   Al11AgO17
_chemical_formula_sum   'Al22 Ag2 O34'
_cell_volume   631.11303599
_cell_formula_units_Z   2
loop_
 _symmetry_equiv_pos_site_id
 _symmetry_equiv_pos_as_xyz
  1  'x, y, z'
loop_
 _atom_site_type_symbol
 _atom_site_label
 _atom_site_symmetry_multiplicity
 _atom_site_fract_x
 _atom_site_fract_y
 _atom_site_fract_z
 _atom_site_occupancy
  Al  Al0  1  0.167087  0.832919  0.894557  1
  Al  Al1  1  0.167087  0.832918  0.605448  1
  Al  Al2  1  0.332307  0.667693  0.175509  1
  Al  Al3  1  0.333137  0.666865  0.024773  1
  Al  Al4  1  0.332287  0.667712  0.324426  1
  Al  Al5  1  0.169047  0.335358  0.607746  1
  Al  Al6  1  -0.000000  0.000006  0.000002  1
  Al  Al7  1  1.000000  0.999999  0.500003  1
  Al  Al8  1  0.333137  0.666862  0.475233  1
  Al  Al9  1  0.169053  0.335361  0.892259  1
  Al  Al10  1  0.335355  0.169051  0.107743  1
  Al  Al11  1  0.335345  0.169041  0.392258  1
  Al  Al12  1  0.664650  0.830955  0.607745  1
  Al  Al13  1  0.664651  0.830956  0.892260  1
  Al  Al14  1  0.667706  0.332297  0.675550  1
  Al  Al15  1  0.830955  0.664645  0.392257  1
  Al  Al16  1  0.830948  0.664646  0.107742  1
  Al  Al17  1  0.666860  0.333143  0.975232  1
  Al  Al18  1  0.667702  0.332299  0.824467  1
  Al  Al19  1  0.666863  0.333138  0.524774  1
  Al  Al20  1  0.832913  0.167081  0.394555  1
  Al  Al21  1  0.832910  0.167089  0.105445  1
  Ag  Ag22  1  0.242771  0.757227  0.750002  1
  Ag  Ag23  1  0.757229  0.242770  0.249995  1
  O  O24  1  0.157379  0.842620  0.050158  1
  O  O25  1  0.157380  0.842615  0.449838  1
  O  O26  1  0.007561  0.505890  0.645794  1
  O  O27  1  0.007553  0.505885  0.854201  1
  O  O28  1  0.319200  0.680800  0.250064  1
  O  O29  1  0.333903  0.666096  0.555506  1
  O  O30  1  0.156105  0.314359  0.049509  1
  O  O31  1  0.494120  0.992444  0.645792  1
  O  O32  1  0.999238  0.000765  0.141408  1
  O  O33  1  0.156107  0.314356  0.450487  1
  O  O34  1  0.999234  0.000755  0.358593  1
  O  O35  1  0.000767  0.999246  0.641405  1
  O  O36  1  0.000763  0.999245  0.858591  1
  O  O37  1  0.333904  0.666104  0.944489  1
  O  O38  1  0.494123  0.992453  0.854201  1
  O  O39  1  0.314358  0.156110  0.549508  1
  O  O40  1  0.314355  0.156113  0.950487  1
  O  O41  1  0.499368  0.500640  0.645403  1
  O  O42  1  0.499373  0.500633  0.854592  1
  O  O43  1  0.500638  0.499354  0.354597  1
  O  O44  1  0.500631  0.499372  0.145411  1
  O  O45  1  0.685644  0.843896  0.049509  1
  O  O46  1  0.685643  0.843890  0.450488  1
  O  O47  1  0.666098  0.333905  0.444490  1
  O  O48  1  0.505876  0.007540  0.145799  1
  O  O49  1  0.505879  0.007560  0.354208  1
  O  O50  1  0.843892  0.685645  0.549509  1
  O  O51  1  0.843891  0.685649  0.950486  1
  O  O52  1  0.666088  0.333907  0.055507  1
  O  O53  1  0.680793  0.319214  0.749987  1
  O  O54  1  0.992459  0.494124  0.145798  1
  O  O55  1  0.992435  0.494110  0.354205  1
  O  O56  1  0.842618  0.157388  0.949839  1
  O  O57  1  0.842619  0.157385  0.550157  1
