# generated using pymatgen
data_CdH3NO5
_symmetry_space_group_name_H-M   'P 1'
_cell_length_a   13.72254891
_cell_length_b   9.03622790
_cell_length_c   7.14149317
_cell_angle_alpha   90.00000000
_cell_angle_beta   90.00000000
_cell_angle_gamma   90.00000000
_symmetry_Int_Tables_number   1
_chemical_formula_structural   CdH3NO5
_chemical_formula_sum   'Cd8 H24 N8 O40'
_cell_volume   885.54571954
_cell_formula_units_Z   8
loop_
 _symmetry_equiv_pos_site_id
 _symmetry_equiv_pos_as_xyz
  1  'x, y, z'
loop_
 _atom_site_type_symbol
 _atom_site_label
 _atom_site_symmetry_multiplicity
 _atom_site_fract_x
 _atom_site_fract_y
 _atom_site_fract_z
 _atom_site_occupancy
  Cd  Cd0  1  0.741471  0.504202  0.354678  1
  Cd  Cd1  1  0.241471  0.995798  0.645322  1
  Cd  Cd2  1  0.258529  0.004202  0.145322  1
  Cd  Cd3  1  0.758529  0.495798  0.854678  1
  Cd  Cd4  1  0.258529  0.495798  0.645322  1
  Cd  Cd5  1  0.758529  0.004202  0.354678  1
  Cd  Cd6  1  0.741471  0.995798  0.854678  1
  Cd  Cd7  1  0.241471  0.504202  0.145322  1
  H  H8  1  0.592356  0.397786  0.617236  1
  H  H9  1  0.092356  0.102214  0.382764  1
  H  H10  1  0.407644  0.897786  0.882764  1
  H  H11  1  0.907644  0.602214  0.117236  1
  H  H12  1  0.407644  0.602214  0.382764  1
  H  H13  1  0.907644  0.897786  0.617236  1
  H  H14  1  0.592356  0.102214  0.117236  1
  H  H15  1  0.092356  0.397786  0.882764  1
  H  H16  1  0.676721  0.271629  0.606863  1
  H  H17  1  0.176721  0.228371  0.393137  1
  H  H18  1  0.323279  0.771629  0.893137  1
  H  H19  1  0.823279  0.728371  0.106863  1
  H  H20  1  0.323279  0.728371  0.393137  1
  H  H21  1  0.823279  0.771629  0.606863  1
  H  H22  1  0.676721  0.228371  0.106863  1
  H  H23  1  0.176721  0.271629  0.893137  1
  H  H24  1  0.893354  0.592820  0.593078  1
  H  H25  1  0.393354  0.907180  0.406922  1
  H  H26  1  0.106646  0.092820  0.906922  1
  H  H27  1  0.606646  0.407180  0.093078  1
  H  H28  1  0.106646  0.407180  0.406922  1
  H  H29  1  0.606646  0.092820  0.593078  1
  H  H30  1  0.893354  0.907180  0.093078  1
  H  H31  1  0.393354  0.592820  0.906922  1
  N  N32  1  0.918019  0.252288  0.366484  1
  N  N33  1  0.418019  0.247712  0.633516  1
  N  N34  1  0.081981  0.752288  0.133516  1
  N  N35  1  0.581981  0.747712  0.866484  1
  N  N36  1  0.081981  0.747712  0.633516  1
  N  N37  1  0.581981  0.752288  0.366484  1
  N  N38  1  0.918019  0.247712  0.866484  1
  N  N39  1  0.418019  0.252288  0.133516  1
  O  O40  1  0.956646  0.125555  0.380628  1
  O  O41  1  0.456645  0.374445  0.619372  1
  O  O42  1  0.043354  0.625555  0.119372  1
  O  O43  1  0.543354  0.874445  0.880628  1
  O  O44  1  0.043354  0.874445  0.619372  1
  O  O45  1  0.543354  0.625555  0.380628  1
  O  O46  1  0.956646  0.374445  0.880628  1
  O  O47  1  0.456645  0.125555  0.119372  1
  O  O48  1  0.965448  0.370419  0.373110  1
  O  O49  1  0.465448  0.129581  0.626890  1
  O  O50  1  0.034552  0.870419  0.126890  1
  O  O51  1  0.534552  0.629581  0.873110  1
  O  O52  1  0.034552  0.629581  0.626890  1
  O  O53  1  0.534552  0.870419  0.373110  1
  O  O54  1  0.965448  0.129581  0.873110  1
  O  O55  1  0.465448  0.370419  0.126890  1
  O  O56  1  0.824164  0.257985  0.343556  1
  O  O57  1  0.324164  0.242015  0.656444  1
  O  O58  1  0.175836  0.757985  0.156444  1
  O  O59  1  0.675836  0.742015  0.843556  1
  O  O60  1  0.175836  0.742015  0.656444  1
  O  O61  1  0.675836  0.757985  0.343556  1
  O  O62  1  0.824164  0.242015  0.843556  1
  O  O63  1  0.324164  0.257985  0.156444  1
  O  O64  1  0.664469  0.387721  0.610918  1
  O  O65  1  0.164469  0.112279  0.389082  1
  O  O66  1  0.335531  0.887721  0.889082  1
  O  O67  1  0.835531  0.612279  0.110918  1
  O  O68  1  0.335531  0.612279  0.389082  1
  O  O69  1  0.835531  0.887721  0.610918  1
  O  O70  1  0.664469  0.112279  0.110918  1
  O  O71  1  0.164469  0.387721  0.889082  1
  O  O72  1  0.822169  0.608806  0.600036  1
  O  O73  1  0.322169  0.891194  0.399964  1
  O  O74  1  0.177831  0.108806  0.899964  1
  O  O75  1  0.677831  0.391194  0.100036  1
  O  O76  1  0.177831  0.391194  0.399964  1
  O  O77  1  0.677831  0.108806  0.600036  1
  O  O78  1  0.822169  0.891194  0.100036  1
  O  O79  1  0.322169  0.608806  0.899964  1
