# generated using pymatgen
data_Ti3NbFe2(PO4)6
_symmetry_space_group_name_H-M   'P 1'
_cell_length_a   8.61995827
_cell_length_b   8.61995890
_cell_length_c   8.61995845
_cell_angle_alpha   61.27423993
_cell_angle_beta   61.27423711
_cell_angle_gamma   61.27423704
_symmetry_Int_Tables_number   1
_chemical_formula_structural   Ti3NbFe2(PO4)6
_chemical_formula_sum   'Ti3 Nb1 Fe2 P6 O24'
_cell_volume   465.87290328
_cell_formula_units_Z   1
loop_
 _symmetry_equiv_pos_site_id
 _symmetry_equiv_pos_as_xyz
  1  'x, y, z'
loop_
 _atom_site_type_symbol
 _atom_site_label
 _atom_site_symmetry_multiplicity
 _atom_site_fract_x
 _atom_site_fract_y
 _atom_site_fract_z
 _atom_site_occupancy
  Ti  Ti0  1  0.144076  0.144076  0.144076  1
  Ti  Ti1  1  0.356152  0.356152  0.356152  1
  Ti  Ti2  1  0.644025  0.644025  0.644025  1
  Nb  Nb3  1  0.857182  0.857182  0.857182  1
  Fe  Fe4  1  0.002575  0.002575  0.002575  1
  Fe  Fe5  1  0.499886  0.499886  0.499886  1
  P  P6  1  0.045848  0.748575  0.451836  1
  P  P7  1  0.451836  0.045848  0.748575  1
  P  P8  1  0.255054  0.538833  0.956620  1
  P  P9  1  0.538833  0.956620  0.255054  1
  P  P10  1  0.956620  0.255054  0.538833  1
  P  P11  1  0.748575  0.451836  0.045848  1
  O  O12  1  0.114794  0.318165  0.498737  1
  O  O13  1  0.318165  0.498737  0.114794  1
  O  O14  1  0.059707  0.908241  0.259770  1
  O  O15  1  0.498737  0.114794  0.318165  1
  O  O16  1  0.008243  0.814850  0.608405  1
  O  O17  1  0.238937  0.590471  0.438980  1
  O  O18  1  0.259770  0.059707  0.908241  1
  O  O19  1  0.438980  0.238937  0.590471  1
  O  O20  1  0.186891  0.383647  0.997315  1
  O  O21  1  0.590471  0.438980  0.238937  1
  O  O22  1  0.096144  0.734517  0.942698  1
  O  O23  1  0.383647  0.997315  0.186891  1
  O  O24  1  0.608405  0.008243  0.814850  1
  O  O25  1  0.908241  0.259770  0.059707  1
  O  O26  1  0.411841  0.555310  0.762501  1
  O  O27  1  0.814850  0.608405  0.008243  1
  O  O28  1  0.555310  0.762501  0.411841  1
  O  O29  1  0.734517  0.942698  0.096144  1
  O  O30  1  0.762501  0.411841  0.555310  1
  O  O31  1  0.997315  0.186891  0.383647  1
  O  O32  1  0.498255  0.884672  0.686245  1
  O  O33  1  0.942698  0.096144  0.734517  1
  O  O34  1  0.686245  0.498255  0.884672  1
  O  O35  1  0.884672  0.686245  0.498255  1
