# generated using pymatgen
data_Li4Ti2Mn4(FeO6)3
_symmetry_space_group_name_H-M   'P 1'
_cell_length_a   9.11207257
_cell_length_b   25.07677414
_cell_length_c   2.93696850
_cell_angle_alpha   90.00000000
_cell_angle_beta   90.00000000
_cell_angle_gamma   90.00000000
_symmetry_Int_Tables_number   1
_chemical_formula_structural   Li4Ti2Mn4(FeO6)3
_chemical_formula_sum   'Li8 Ti4 Mn8 Fe6 O36'
_cell_volume   671.10137226
_cell_formula_units_Z   2
loop_
 _symmetry_equiv_pos_site_id
 _symmetry_equiv_pos_as_xyz
  1  'x, y, z'
loop_
 _atom_site_type_symbol
 _atom_site_label
 _atom_site_symmetry_multiplicity
 _atom_site_fract_x
 _atom_site_fract_y
 _atom_site_fract_z
 _atom_site_occupancy
  Li  Li0  1  0.177863  0.996444  0.000000  1
  Li  Li1  1  0.187177  0.202184  0.000000  1
  Li  Li2  1  0.312823  0.702184  0.000000  1
  Li  Li3  1  0.322137  0.496444  0.000000  1
  Li  Li4  1  0.677863  0.503556  0.000000  1
  Li  Li5  1  0.687177  0.297816  0.000000  1
  Li  Li6  1  0.812823  0.797816  0.000000  1
  Li  Li7  1  0.822137  0.003556  0.000000  1
  Ti  Ti8  1  0.996298  0.105755  0.000000  1
  Ti  Ti9  1  0.503702  0.605755  0.000000  1
  Ti  Ti10  1  0.496298  0.394245  0.000000  1
  Ti  Ti11  1  0.003702  0.894245  0.000000  1
  Mn  Mn12  1  0.008097  0.311207  0.000000  1
  Mn  Mn13  1  0.146842  0.586298  0.500000  1
  Mn  Mn14  1  0.353158  0.086298  0.500000  1
  Mn  Mn15  1  0.491903  0.811207  0.000000  1
  Mn  Mn16  1  0.508097  0.188793  0.000000  1
  Mn  Mn17  1  0.646842  0.913702  0.500000  1
  Mn  Mn18  1  0.853158  0.413702  0.500000  1
  Mn  Mn19  1  0.991903  0.688793  0.000000  1
  Fe  Fe20  1  0.000000  0.500000  0.000000  1
  Fe  Fe21  1  0.153565  0.804326  0.500000  1
  Fe  Fe22  1  0.346435  0.304326  0.500000  1
  Fe  Fe23  1  0.500000  0.000000  0.000000  1
  Fe  Fe24  1  0.653565  0.695674  0.500000  1
  Fe  Fe25  1  0.846435  0.195674  0.500000  1
  O  O26  1  0.993039  0.419347  0.000000  1
  O  O27  1  0.006961  0.580653  0.000000  1
  O  O28  1  0.042124  0.942305  0.500000  1
  O  O29  1  0.052695  0.160515  0.500000  1
  O  O30  1  0.116275  0.661696  0.500000  1
  O  O31  1  0.124948  0.752929  0.000000  1
  O  O32  1  0.154617  0.507794  0.500000  1
  O  O33  1  0.129063  0.285559  0.500000  1
  O  O34  1  0.185947  0.858032  0.000000  1
  O  O35  1  0.215110  0.086246  0.000000  1
  O  O36  1  0.284890  0.586246  0.000000  1
  O  O37  1  0.314053  0.358032  0.000000  1
  O  O38  1  0.370937  0.785559  0.500000  1
  O  O39  1  0.345383  0.007794  0.500000  1
  O  O40  1  0.375052  0.252929  0.000000  1
  O  O41  1  0.383725  0.161696  0.500000  1
  O  O42  1  0.447305  0.660515  0.500000  1
  O  O43  1  0.457876  0.442305  0.500000  1
  O  O44  1  0.493039  0.080653  0.000000  1
  O  O45  1  0.506961  0.919347  0.000000  1
  O  O46  1  0.542124  0.557695  0.500000  1
  O  O47  1  0.552695  0.339485  0.500000  1
  O  O48  1  0.616275  0.838304  0.500000  1
  O  O49  1  0.624948  0.747071  0.000000  1
  O  O50  1  0.654617  0.992206  0.500000  1
  O  O51  1  0.629063  0.214441  0.500000  1
  O  O52  1  0.685947  0.641968  0.000000  1
  O  O53  1  0.715110  0.413754  0.000000  1
  O  O54  1  0.784890  0.913754  0.000000  1
  O  O55  1  0.814053  0.141968  0.000000  1
  O  O56  1  0.870937  0.714441  0.500000  1
  O  O57  1  0.845383  0.492206  0.500000  1
  O  O58  1  0.875052  0.247071  0.000000  1
  O  O59  1  0.883725  0.338304  0.500000  1
  O  O60  1  0.947305  0.839485  0.500000  1
  O  O61  1  0.957876  0.057695  0.500000  1
