# generated using pymatgen
data_LiSn3Sb(PO4)6
_symmetry_space_group_name_H-M   'P 1'
_cell_length_a   8.78419655
_cell_length_b   8.79899167
_cell_length_c   8.79757147
_cell_angle_alpha   59.68232524
_cell_angle_beta   59.71870671
_cell_angle_gamma   59.84483740
_symmetry_Int_Tables_number   1
_chemical_formula_structural   LiSn3Sb(PO4)6
_chemical_formula_sum   'Li1 Sn3 Sb1 P6 O24'
_cell_volume   478.07346174
_cell_formula_units_Z   1
loop_
 _symmetry_equiv_pos_site_id
 _symmetry_equiv_pos_as_xyz
  1  'x, y, z'
loop_
 _atom_site_type_symbol
 _atom_site_label
 _atom_site_symmetry_multiplicity
 _atom_site_fract_x
 _atom_site_fract_y
 _atom_site_fract_z
 _atom_site_occupancy
  Li  Li0  1  0.486553  0.501163  0.508041  1
  Sn  Sn1  1  0.134912  0.142654  0.138713  1
  Sn  Sn2  1  0.361051  0.355989  0.354250  1
  Sn  Sn3  1  0.640145  0.645928  0.639082  1
  Sb  Sb4  1  0.860965  0.860676  0.857849  1
  P  P5  1  0.046567  0.744657  0.460970  1
  P  P6  1  0.460889  0.044711  0.746108  1
  P  P7  1  0.246713  0.544459  0.955120  1
  P  P8  1  0.746208  0.464196  0.040645  1
  P  P9  1  0.543158  0.961775  0.247182  1
  P  P10  1  0.952479  0.250163  0.537112  1
  O  O11  1  0.184411  0.390563  0.996739  1
  O  O12  1  0.120342  0.290032  0.503206  1
  O  O13  1  0.377529  0.016522  0.194656  1
  O  O14  1  0.081465  0.899054  0.272147  1
  O  O15  1  0.295968  0.518660  0.113205  1
  O  O16  1  0.004962  0.805306  0.620533  1
  O  O17  1  0.274166  0.074239  0.903944  1
  O  O18  1  0.227313  0.570668  0.465547  1
  O  O19  1  0.533319  0.114986  0.292467  1
  O  O20  1  0.463004  0.228192  0.575257  1
  O  O21  1  0.087481  0.737854  0.926941  1
  O  O22  1  0.576143  0.465132  0.224768  1
  O  O23  1  0.621370  0.998762  0.808000  1
  O  O24  1  0.413252  0.553670  0.767372  1
  O  O25  1  0.549447  0.774400  0.413375  1
  O  O26  1  0.903312  0.276507  0.064746  1
  O  O27  1  0.486660  0.888312  0.695681  1
  O  O28  1  0.809668  0.621875  0.998982  1
  O  O29  1  0.768400  0.418778  0.551622  1
  O  O30  1  0.732259  0.929076  0.084781  1
  O  O31  1  0.978137  0.194809  0.384762  1
  O  O32  1  0.692378  0.497119  0.883171  1
  O  O33  1  0.926299  0.089838  0.730436  1
  O  O34  1  0.885970  0.698370  0.488738  1
