# generated using pymatgen
data_LiFe4(PO4)3
_symmetry_space_group_name_H-M   'P 1'
_cell_length_a   6.83342198
_cell_length_b   10.50994479
_cell_length_c   6.83342198
_cell_angle_alpha   71.02878473
_cell_angle_beta   90.00000000
_cell_angle_gamma   108.97121527
_symmetry_Int_Tables_number   1
_chemical_formula_structural   LiFe4(PO4)3
_chemical_formula_sum   'Li2 Fe8 P6 O24'
_cell_volume   435.82614032
_cell_formula_units_Z   2
loop_
 _symmetry_equiv_pos_site_id
 _symmetry_equiv_pos_as_xyz
  1  'x, y, z'
loop_
 _atom_site_type_symbol
 _atom_site_label
 _atom_site_symmetry_multiplicity
 _atom_site_fract_x
 _atom_site_fract_y
 _atom_site_fract_z
 _atom_site_occupancy
  Li  Li0  1  0.250000  0.500000  0.250000  1
  Li  Li1  1  0.500000  0.000000  0.500000  1
  Fe  Fe2  1  0.375000  0.250000  0.114939  1
  Fe  Fe3  1  0.775049  0.550096  0.224951  1
  Fe  Fe4  1  0.635061  0.750000  0.375000  1
  Fe  Fe5  1  0.875000  0.250000  0.635061  1
  Fe  Fe6  1  0.224951  0.449904  0.775049  1
  Fe  Fe7  1  0.525049  0.050096  0.974951  1
  Fe  Fe8  1  0.974951  0.949904  0.525049  1
  Fe  Fe9  1  0.114939  0.750000  0.875000  1
  P  P10  1  0.000000  0.000000  0.000000  1
  P  P11  1  0.875000  0.250000  0.229149  1
  P  P12  1  0.375000  0.250000  0.520851  1
  P  P13  1  0.229149  0.750000  0.375000  1
  P  P14  1  0.750000  0.500000  0.750000  1
  P  P15  1  0.520851  0.750000  0.875000  1
  O  O16  1  0.231635  0.085823  0.009696  1
  O  O17  1  0.669193  0.207816  0.132387  1
  O  O18  1  0.080807  0.292184  0.090203  1
  O  O19  1  0.617613  0.707816  0.080807  1
  O  O20  1  0.275211  0.119246  0.442422  1
  O  O21  1  0.474789  0.380754  0.311668  1
  O  O22  1  0.905965  0.380754  0.307578  1
  O  O23  1  0.844035  0.119246  0.438332  1
  O  O24  1  0.090203  0.707816  0.211376  1
  O  O25  1  0.904481  0.914177  0.231635  1
  O  O26  1  0.438332  0.880754  0.275211  1
  O  O27  1  0.211376  0.292184  0.617613  1
  O  O28  1  0.538624  0.207816  0.659797  1
  O  O29  1  0.307578  0.619246  0.474789  1
  O  O30  1  0.740304  0.585823  0.518365  1
  O  O31  1  0.895813  0.414177  0.740304  1
  O  O32  1  0.854187  0.085823  0.904481  1
  O  O33  1  0.132387  0.792184  0.538624  1
  O  O34  1  0.659797  0.792184  0.669193  1
  O  O35  1  0.518365  0.414177  0.845519  1
  O  O36  1  0.845519  0.585823  0.895813  1
  O  O37  1  0.311668  0.619246  0.905965  1
  O  O38  1  0.442422  0.880754  0.844035  1
  O  O39  1  0.009696  0.914177  0.854187  1
