# generated using pymatgen
data_CaBe3O4
_symmetry_space_group_name_H-M   'P 1'
_cell_length_a   4.57658503
_cell_length_b   4.57653761
_cell_length_c   8.78688632
_cell_angle_alpha   89.99991177
_cell_angle_beta   90.00008884
_cell_angle_gamma   119.99987732
_symmetry_Int_Tables_number   1
_chemical_formula_structural   CaBe3O4
_chemical_formula_sum   'Ca2 Be6 O8'
_cell_volume   159.38400943
_cell_formula_units_Z   2
loop_
 _symmetry_equiv_pos_site_id
 _symmetry_equiv_pos_as_xyz
  1  'x, y, z'
loop_
 _atom_site_type_symbol
 _atom_site_label
 _atom_site_symmetry_multiplicity
 _atom_site_fract_x
 _atom_site_fract_y
 _atom_site_fract_z
 _atom_site_occupancy
  Ca  Ca0  1  0.333324  0.666678  0.250000  1
  Ca  Ca1  1  0.666680  0.333356  0.750000  1
  Be  Be2  1  0.333335  0.666665  0.570754  1
  Be  Be3  1  0.000003  0.999995  1.000000  1
  Be  Be4  1  0.000002  0.999993  0.500000  1
  Be  Be5  1  0.333335  0.666664  0.929246  1
  Be  Be6  1  0.666666  0.333330  0.070754  1
  Be  Be7  1  0.666665  0.333329  0.429247  1
  O  O8  1  0.000001  0.665148  0.000000  1
  O  O9  1  1.000000  0.665148  0.500000  1
  O  O10  1  0.333328  0.666654  0.750001  1
  O  O11  1  0.334862  0.334864  1.000000  1
  O  O12  1  0.334861  0.334864  0.500000  1
  O  O13  1  0.666668  0.333324  0.250000  1
  O  O14  1  0.665142  0.000004  0.000001  1
  O  O15  1  0.665137  0.000004  0.499999  1
