# generated using pymatgen
data_Li3Mn2F7
_symmetry_space_group_name_H-M   'P 1'
_cell_length_a   5.17307719
_cell_length_b   6.03242345
_cell_length_c   10.39871552
_cell_angle_alpha   99.04934747
_cell_angle_beta   90.04617821
_cell_angle_gamma   64.48963590
_symmetry_Int_Tables_number   1
_chemical_formula_structural   Li3Mn2F7
_chemical_formula_sum   'Li6 Mn4 F14'
_cell_volume   288.40557962
_cell_formula_units_Z   2
loop_
 _symmetry_equiv_pos_site_id
 _symmetry_equiv_pos_as_xyz
  1  'x, y, z'
loop_
 _atom_site_type_symbol
 _atom_site_label
 _atom_site_symmetry_multiplicity
 _atom_site_fract_x
 _atom_site_fract_y
 _atom_site_fract_z
 _atom_site_occupancy
  Li  Li0  1  0.293414  0.881517  0.873771  1
  Li  Li1  1  0.824561  0.882490  0.374493  1
  Li  Li2  1  0.505795  0.495516  0.504005  1
  Li  Li3  1  0.999805  0.495568  0.002967  1
  Li  Li4  1  0.177606  0.114547  0.624509  1
  Li  Li5  1  0.707291  0.117469  0.126680  1
  Mn  Mn6  1  0.903498  0.675395  0.658686  1
  Mn  Mn7  1  0.418355  0.678062  0.158871  1
  Mn  Mn8  1  0.579371  0.323586  0.841750  1
  Mn  Mn9  1  0.097439  0.325367  0.342332  1
  F  F10  1  0.586005  0.676984  0.968861  1
  F  F11  1  0.164611  0.603846  0.820618  1
  F  F12  1  0.171998  0.812734  0.597541  1
  F  F13  1  0.734334  0.678651  0.468531  1
  F  F14  1  0.231384  0.605419  0.321381  1
  F  F15  1  0.012949  0.812964  0.095996  1
  F  F16  1  0.986335  0.185195  0.903103  1
  F  F17  1  0.763718  0.396722  0.676976  1
  F  F18  1  0.269345  0.318351  0.531740  1
  F  F19  1  0.836727  0.181787  0.405109  1
  F  F20  1  0.524356  0.998807  0.750962  1
  F  F21  1  0.835287  0.396729  0.179419  1
  F  F22  1  0.413993  0.318432  0.031697  1
  F  F23  1  0.478244  0.000646  0.250735  1
