# generated using pymatgen
data_Fe4O3F5
_symmetry_space_group_name_H-M   'P 1'
_cell_length_a   5.70117042
_cell_length_b   10.07351273
_cell_length_c   5.69510859
_cell_angle_alpha   77.07862788
_cell_angle_beta   65.70008261
_cell_angle_gamma   96.33609848
_symmetry_Int_Tables_number   1
_chemical_formula_structural   Fe4O3F5
_chemical_formula_sum   'Fe8 O6 F10'
_cell_volume   282.90804712
_cell_formula_units_Z   2
loop_
 _symmetry_equiv_pos_site_id
 _symmetry_equiv_pos_as_xyz
  1  'x, y, z'
loop_
 _atom_site_type_symbol
 _atom_site_label
 _atom_site_symmetry_multiplicity
 _atom_site_fract_x
 _atom_site_fract_y
 _atom_site_fract_z
 _atom_site_occupancy
  Fe  Fe0  1  0.636433  0.243832  0.871556  1
  Fe  Fe1  1  0.884839  0.744574  0.626510  1
  Fe  Fe2  1  0.244227  0.504843  0.743237  1
  Fe  Fe3  1  0.750316  0.499267  0.250225  1
  Fe  Fe4  1  0.494053  0.011376  0.479096  1
  Fe  Fe5  1  0.368265  0.743764  0.144534  1
  Fe  Fe6  1  0.117589  0.244297  0.396959  1
  Fe  Fe7  1  0.004181  0.995773  0.008910  1
  O  O8  1  0.926674  0.147368  0.783453  1
  O  O9  1  0.826248  0.347650  0.477731  1
  O  O10  1  0.670800  0.650067  0.021229  1
  O  O11  1  0.172259  0.655028  0.522895  1
  O  O12  1  0.417533  0.161298  0.255774  1
  O  O13  1  0.078956  0.850314  0.229235  1
  F  F14  1  0.833640  0.398594  0.964206  1
  F  F15  1  0.572979  0.849858  0.722601  1
  F  F16  1  0.321868  0.351958  0.970422  1
  F  F17  1  0.910228  0.098559  0.293697  1
  F  F18  1  0.660886  0.601063  0.537153  1
  F  F19  1  0.392370  0.098894  0.808647  1
  F  F20  1  0.087723  0.898214  0.715170  1
  F  F21  1  0.362003  0.399944  0.436900  1
  F  F22  1  0.613774  0.898015  0.187082  1
  F  F23  1  0.139393  0.599377  0.064424  1
