# generated using pymatgen
data_Li2CuSiO4
_symmetry_space_group_name_H-M   'P 1'
_cell_length_a   6.11800532
_cell_length_b   5.45632323
_cell_length_c   5.01093959
_cell_angle_alpha   90.00000000
_cell_angle_beta   87.69948349
_cell_angle_gamma   90.00000000
_symmetry_Int_Tables_number   1
_chemical_formula_structural   Li2CuSiO4
_chemical_formula_sum   'Li4 Cu2 Si2 O8'
_cell_volume   167.13943873
_cell_formula_units_Z   2
loop_
 _symmetry_equiv_pos_site_id
 _symmetry_equiv_pos_as_xyz
  1  'x, y, z'
loop_
 _atom_site_type_symbol
 _atom_site_label
 _atom_site_symmetry_multiplicity
 _atom_site_fract_x
 _atom_site_fract_y
 _atom_site_fract_z
 _atom_site_occupancy
  Li  Li0  1  0.999130  0.825024  0.507450  1
  Li  Li1  1  0.252962  0.347436  0.500563  1
  Li  Li2  1  0.499130  0.174976  0.007450  1
  Li  Li3  1  0.752962  0.652564  0.000563  1
  Cu  Cu4  1  0.014495  0.169323  -0.000201  1
  Cu  Cu5  1  0.514495  0.830677  0.499799  1
  Si  Si6  1  0.252635  0.680860  0.008088  1
  Si  Si7  1  0.752635  0.319140  0.508088  1
  O  O8  1  0.031030  0.820376  0.904393  1
  O  O9  1  0.250390  0.395188  0.899220  1
  O  O10  1  0.254713  0.681437  0.333549  1
  O  O11  1  0.477876  0.822593  0.896366  1
  O  O12  1  0.531030  0.179624  0.404393  1
  O  O13  1  0.750390  0.604812  0.399220  1
  O  O14  1  0.754713  0.318563  0.833549  1
  O  O15  1  0.977876  0.177407  0.396366  1
