# generated using pymatgen
data_NaSiSbCO7
_symmetry_space_group_name_H-M   'P 1'
_cell_length_a   9.31632425
_cell_length_b   6.52653876
_cell_length_c   5.35166240
_cell_angle_alpha   90.00000000
_cell_angle_beta   87.32391403
_cell_angle_gamma   90.00000000
_symmetry_Int_Tables_number   1
_chemical_formula_structural   NaSiSbCO7
_chemical_formula_sum   'Na2 Si2 Sb2 C2 O14'
_cell_volume   325.04414474
_cell_formula_units_Z   2
loop_
 _symmetry_equiv_pos_site_id
 _symmetry_equiv_pos_as_xyz
  1  'x, y, z'
loop_
 _atom_site_type_symbol
 _atom_site_label
 _atom_site_symmetry_multiplicity
 _atom_site_fract_x
 _atom_site_fract_y
 _atom_site_fract_z
 _atom_site_occupancy
  Na  Na0  1  0.222182  0.474056  0.240114  1
  Na  Na1  1  0.777818  0.974056  0.759886  1
  Si  Si2  1  0.434696  0.256162  0.725011  1
  Si  Si3  1  0.565304  0.756162  0.274989  1
  Sb  Sb4  1  0.342342  0.762109  0.788159  1
  Sb  Sb5  1  0.657658  0.262109  0.211841  1
  C  C6  1  0.076466  0.744388  0.724341  1
  C  C7  1  0.923534  0.244388  0.275659  1
  O  O8  1  0.052320  0.248457  0.308003  1
  O  O9  1  0.137111  0.747135  0.948155  1
  O  O10  1  0.180649  0.739565  0.536804  1
  O  O11  1  0.330013  0.061051  0.789506  1
  O  O12  1  0.335862  0.455362  0.800073  1
  O  O13  1  0.415551  0.743777  0.126196  1
  O  O14  1  0.478068  0.265786  0.421263  1
  O  O15  1  0.521932  0.765786  0.578737  1
  O  O16  1  0.584449  0.243777  0.873804  1
  O  O17  1  0.664138  0.955362  0.199927  1
  O  O18  1  0.669987  0.561051  0.210494  1
  O  O19  1  0.819351  0.239565  0.463196  1
  O  O20  1  0.862889  0.247135  0.051845  1
  O  O21  1  0.947680  0.748457  0.691997  1
