# generated using pymatgen
data_Li24Ti7Cr5O36
_symmetry_space_group_name_H-M   'P 1'
_cell_length_a   5.05627077
_cell_length_b   13.45654812
_cell_length_c   9.79860823
_cell_angle_alpha   97.38080280
_cell_angle_beta   94.54178128
_cell_angle_gamma   100.79342338
_symmetry_Int_Tables_number   1
_chemical_formula_structural   Li24Ti7Cr5O36
_chemical_formula_sum   'Li24 Ti7 Cr5 O36'
_cell_volume   645.81804920
_cell_formula_units_Z   1
loop_
 _symmetry_equiv_pos_site_id
 _symmetry_equiv_pos_as_xyz
  1  'x, y, z'
loop_
 _atom_site_type_symbol
 _atom_site_label
 _atom_site_symmetry_multiplicity
 _atom_site_fract_x
 _atom_site_fract_y
 _atom_site_fract_z
 _atom_site_occupancy
  Li  Li0  1  0.841671  0.166051  0.998469  1
  Li  Li1  1  0.954833  0.387948  0.998860  1
  Li  Li2  1  0.000575  0.748744  0.249855  1
  Li  Li3  1  0.666029  0.084451  0.250346  1
  Li  Li4  1  0.952588  0.888107  0.501082  1
  Li  Li5  1  0.613989  0.219448  0.498010  1
  Li  Li6  1  0.838990  0.666365  0.497670  1
  Li  Li7  1  0.506985  0.999173  0.501047  1
  Li  Li8  1  0.714880  0.446248  0.498705  1
  Li  Li9  1  0.666756  0.583545  0.750129  1
  Li  Li10  1  0.502432  0.498244  0.001302  1
  Li  Li11  1  0.713604  0.947442  0.999102  1
  Li  Li12  1  0.375204  0.279591  0.001213  1
  Li  Li13  1  0.618136  0.720978  0.999289  1
  Li  Li14  1  0.281919  0.054113  0.999610  1
  Li  Li15  1  0.332871  0.415366  0.249850  1
  Li  Li16  1  0.283091  0.553935  0.501037  1
  Li  Li17  1  0.168680  0.332618  0.501374  1
  Li  Li18  1  0.375629  0.779520  0.500941  1
  Li  Li19  1  0.047539  0.113291  0.500473  1
  Li  Li20  1  0.332672  0.915322  0.749687  1
  Li  Li21  1  0.169398  0.832417  0.999628  1
  Li  Li22  1  0.003110  0.250362  0.750421  1
  Li  Li23  1  0.045270  0.612330  0.999778  1
  Ti  Ti24  1  0.769891  0.306221  0.243207  1
  Ti  Ti25  1  0.767347  0.805353  0.743527  1
  Ti  Ti26  1  0.560079  0.361310  0.751988  1
  Ti  Ti27  1  0.445893  0.139807  0.752939  1
  Ti  Ti28  1  0.560121  0.860381  0.246966  1
  Ti  Ti29  1  0.445226  0.639245  0.253562  1
  Ti  Ti30  1  0.118025  0.974243  0.255052  1
  Cr  Cr31  1  0.894011  0.026471  0.750143  1
  Cr  Cr32  1  0.893601  0.526430  0.249727  1
  Cr  Cr33  1  0.215713  0.194079  0.251302  1
  Cr  Cr34  1  0.212297  0.692708  0.749910  1
  Cr  Cr35  1  0.118732  0.474428  0.751250  1
  O  O36  1  0.001846  0.075504  0.139191  1
  O  O37  1  0.938089  0.215121  0.365109  1
  O  O38  1  0.000072  0.575646  0.639164  1
  O  O39  1  0.861488  0.359320  0.637639  1
  O  O40  1  0.739901  0.117069  0.636685  1
  O  O41  1  0.661047  0.403298  0.135122  1
  O  O42  1  0.936363  0.714696  0.865376  1
  O  O43  1  0.813877  0.478311  0.861387  1
  O  O44  1  0.598347  0.046986  0.863844  1
  O  O45  1  0.856973  0.857083  0.135500  1
  O  O46  1  0.738822  0.616605  0.136081  1
  O  O47  1  0.519275  0.189338  0.138545  1
  O  O48  1  0.668400  0.262722  0.864943  1
  O  O49  1  0.809002  0.977327  0.362986  1
  O  O50  1  0.598443  0.546783  0.363880  1
  O  O51  1  0.473053  0.309006  0.362580  1
  O  O52  1  0.667936  0.762278  0.363712  1
  O  O53  1  0.339428  0.094824  0.364279  1
  O  O54  1  0.660081  0.902937  0.635396  1
  O  O55  1  0.336575  0.237678  0.636620  1
  O  O56  1  0.518987  0.688499  0.637915  1
  O  O57  1  0.397229  0.452935  0.634762  1
  O  O58  1  0.181337  0.022056  0.637712  1
  O  O59  1  0.333001  0.736602  0.136270  1
  O  O60  1  0.471930  0.807500  0.862196  1
  O  O61  1  0.266408  0.381542  0.866141  1
  O  O62  1  0.146303  0.144474  0.864048  1
  O  O63  1  0.403904  0.951702  0.133465  1
  O  O64  1  0.181319  0.521834  0.137775  1
  O  O65  1  0.068781  0.286410  0.134394  1
  O  O66  1  0.332495  0.591467  0.861605  1
  O  O67  1  0.262056  0.882142  0.365572  1
  O  O68  1  0.145687  0.644264  0.364252  1
  O  O69  1  0.998407  0.432133  0.362274  1
  O  O70  1  0.067149  0.785623  0.633881  1
  O  O71  1  0.998203  0.932006  0.862244  1
