# generated using pymatgen
data_CuPH6NO5
_symmetry_space_group_name_H-M   'P 1'
_cell_length_a   7.44492442
_cell_length_b   7.61870563
_cell_length_c   8.69517948
_cell_angle_alpha   90.00000000
_cell_angle_beta   94.80527068
_cell_angle_gamma   90.00000000
_symmetry_Int_Tables_number   1
_chemical_formula_structural   CuPH6NO5
_chemical_formula_sum   'Cu4 P4 H24 N4 O20'
_cell_volume   491.46305063
_cell_formula_units_Z   4
loop_
 _symmetry_equiv_pos_site_id
 _symmetry_equiv_pos_as_xyz
  1  'x, y, z'
loop_
 _atom_site_type_symbol
 _atom_site_label
 _atom_site_symmetry_multiplicity
 _atom_site_fract_x
 _atom_site_fract_y
 _atom_site_fract_z
 _atom_site_occupancy
  Cu  Cu0  1  0.570099  0.303730  0.036677  1
  Cu  Cu1  1  0.929901  0.803730  0.963323  1
  Cu  Cu2  1  0.429901  0.696270  0.963323  1
  Cu  Cu3  1  0.070099  0.196270  0.036677  1
  P  P4  1  0.673886  0.950332  0.190131  1
  P  P5  1  0.826114  0.450332  0.809869  1
  P  P6  1  0.326114  0.049668  0.809869  1
  P  P7  1  0.173886  0.549668  0.190131  1
  H  H8  1  0.646725  0.553660  0.205231  1
  H  H9  1  0.853275  0.053660  0.794769  1
  H  H10  1  0.353275  0.446340  0.794769  1
  H  H11  1  0.146725  0.946340  0.205231  1
  H  H12  1  0.821047  0.432740  0.205838  1
  H  H13  1  0.678953  0.932740  0.794162  1
  H  H14  1  0.178953  0.567260  0.794162  1
  H  H15  1  0.321047  0.067260  0.205838  1
  H  H16  1  0.605612  0.815877  0.464520  1
  H  H17  1  0.894388  0.315877  0.535480  1
  H  H18  1  0.394388  0.184123  0.535480  1
  H  H19  1  0.105612  0.684123  0.464520  1
  H  H20  1  0.424337  0.675134  0.449786  1
  H  H21  1  0.075663  0.175134  0.550214  1
  H  H22  1  0.575663  0.324866  0.550214  1
  H  H23  1  0.924337  0.824866  0.449786  1
  H  H24  1  0.476633  0.787227  0.617613  1
  H  H25  1  0.023367  0.287227  0.382387  1
  H  H26  1  0.523367  0.212773  0.382387  1
  H  H27  1  0.976633  0.712773  0.617613  1
  H  H28  1  0.612257  0.624364  0.567862  1
  H  H29  1  0.887743  0.124364  0.432138  1
  H  H30  1  0.387743  0.375636  0.432138  1
  H  H31  1  0.112257  0.875636  0.567862  1
  N  N32  1  0.529122  0.726836  0.524667  1
  N  N33  1  0.970878  0.226836  0.475333  1
  N  N34  1  0.470878  0.273164  0.475333  1
  N  N35  1  0.029122  0.773164  0.524667  1
  O  O36  1  0.689123  0.430986  0.225198  1
  O  O37  1  0.810877  0.930986  0.774802  1
  O  O38  1  0.310877  0.569014  0.774802  1
  O  O39  1  0.189123  0.069014  0.225198  1
  O  O40  1  0.529717  0.101406  0.168422  1
  O  O41  1  0.970283  0.601406  0.831578  1
  O  O42  1  0.470283  0.898594  0.831578  1
  O  O43  1  0.029717  0.398594  0.168422  1
  O  O44  1  0.744259  0.946056  0.362899  1
  O  O45  1  0.755741  0.446056  0.637101  1
  O  O46  1  0.255741  0.053944  0.637101  1
  O  O47  1  0.244259  0.553944  0.362899  1
  O  O48  1  0.671916  0.490646  0.913993  1
  O  O49  1  0.828084  0.990646  0.086007  1
  O  O50  1  0.328084  0.509354  0.086007  1
  O  O51  1  0.171916  0.009354  0.913993  1
  O  O52  1  0.418774  0.228744  0.851263  1
  O  O53  1  0.081226  0.728744  0.148737  1
  O  O54  1  0.581226  0.771256  0.148737  1
  O  O55  1  0.918774  0.271256  0.851263  1
