# generated using pymatgen
data_Li4V3P8O29
_symmetry_space_group_name_H-M   'P 1'
_cell_length_a   9.79163537
_cell_length_b   9.77219942
_cell_length_c   14.10927178
_cell_angle_alpha   89.92652341
_cell_angle_beta   90.10579400
_cell_angle_gamma   59.87008464
_symmetry_Int_Tables_number   1
_chemical_formula_structural   Li4V3P8O29
_chemical_formula_sum   'Li8 V6 P16 O58'
_cell_volume   1167.64438881
_cell_formula_units_Z   2
loop_
 _symmetry_equiv_pos_site_id
 _symmetry_equiv_pos_as_xyz
  1  'x, y, z'
loop_
 _atom_site_type_symbol
 _atom_site_label
 _atom_site_symmetry_multiplicity
 _atom_site_fract_x
 _atom_site_fract_y
 _atom_site_fract_z
 _atom_site_occupancy
  Li  Li0  1  0.903455  0.771642  0.059657  1
  Li  Li1  1  0.774872  0.312989  0.057694  1
  Li  Li2  1  0.312835  0.914684  0.062159  1
  Li  Li3  1  0.669855  0.232156  0.439547  1
  Li  Li4  1  0.327994  0.764337  0.555912  1
  Li  Li5  1  0.223555  0.686779  0.945003  1
  Li  Li6  1  0.234666  0.100036  0.439920  1
  Li  Li7  1  0.977068  0.972451  0.495803  1
  V  V8  1  0.568742  0.431835  0.250063  1
  V  V9  1  0.437559  0.562641  0.748805  1
  V  V10  1  0.569850  0.996064  0.752198  1
  V  V11  1  0.434502  0.002425  0.247694  1
  V  V12  1  0.003171  0.563164  0.257516  1
  V  V13  1  0.999293  0.434623  0.745208  1
  P  P14  1  0.914793  0.768520  0.841267  1
  P  P15  1  0.774742  0.916828  0.340666  1
  P  P16  1  0.918544  0.305511  0.342640  1
  P  P17  1  0.669866  0.665150  0.130974  1
  P  P18  1  0.663227  0.669287  0.630691  1
  P  P19  1  0.775707  0.316610  0.839730  1
  P  P20  1  0.687688  0.221799  0.659273  1
  P  P21  1  0.318411  0.909711  0.844019  1
  P  P22  1  0.684992  0.085454  0.155975  1
  P  P23  1  0.316479  0.773709  0.342065  1
  P  P24  1  0.229118  0.680353  0.161861  1
  P  P25  1  0.335197  0.331105  0.372305  1
  P  P26  1  0.331680  0.334383  0.867281  1
  P  P27  1  0.085062  0.694296  0.657059  1
  P  P28  1  0.228950  0.085325  0.661052  1
  P  P29  1  0.083167  0.232849  0.156503  1
  O  O30  1  0.004769  0.796695  0.574475  1
  O  O31  1  0.914988  0.743062  0.333663  1
  O  O32  1  0.764925  0.993058  0.070409  1
  O  O33  1  0.745690  0.912828  0.835457  1
  O  O34  1  0.906822  0.617215  0.820887  1
  O  O35  1  0.816709  0.667661  0.176399  1
  O  O36  1  0.916721  0.465765  0.330995  1
  O  O37  1  0.991603  0.245063  0.070343  1
  O  O38  1  0.918014  0.342867  0.829838  1
  O  O39  1  0.665771  0.814370  0.677001  1
  O  O40  1  0.618019  0.919443  0.332041  1
  O  O41  1  0.810932  0.519680  0.673257  1
  O  O42  1  0.676471  0.663917  0.025313  1
  O  O43  1  0.650290  0.674940  0.525881  1
  O  O44  1  0.672714  0.512556  0.170867  1
  O  O45  1  0.477592  0.902387  0.823694  1
  O  O46  1  0.515345  0.813879  0.168880  1
  O  O47  1  0.746090  0.337935  0.340277  1
  O  O48  1  0.795189  0.204695  0.750122  1
  O  O49  1  0.765966  0.215780  0.567818  1
  O  O50  1  0.761859  0.249928  0.930740  1
  O  O51  1  0.621239  0.477736  0.817479  1
  O  O52  1  0.508710  0.674011  0.672350  1
  O  O53  1  0.661396  0.254802  0.158277  1
  O  O54  1  0.472263  0.618494  0.328574  1
  O  O55  1  0.342427  0.918052  0.333531  1
  O  O56  1  0.793849  0.001799  0.247838  1
  O  O57  1  0.793506  0.001140  0.423590  1
  O  O58  1  0.228325  0.999905  0.572660  1
  O  O59  1  0.655831  0.082891  0.669857  1
  O  O60  1  0.529154  0.380428  0.674325  1
  O  O61  1  0.339865  0.740095  0.838154  1
  O  O62  1  0.488791  0.322945  0.333539  1
  O  O63  1  0.379854  0.519341  0.180115  1
  O  O64  1  0.241009  0.757199  0.072134  1
  O  O65  1  0.229613  0.787751  0.431760  1
  O  O66  1  0.206851  0.792264  0.250878  1
  O  O67  1  0.260793  0.656864  0.662214  1
  O  O68  1  0.476704  0.183427  0.824721  1
  O  O69  1  0.523316  0.096331  0.176688  1
  O  O70  1  0.335507  0.484429  0.824726  1
  O  O71  1  0.325822  0.345308  0.971989  1
  O  O72  1  0.325411  0.338515  0.477522  1
  O  O73  1  0.188032  0.484026  0.324737  1
  O  O74  1  0.384620  0.086522  0.674674  1
  O  O75  1  0.323041  0.188436  0.332285  1
  O  O76  1  0.081021  0.662128  0.162002  1
  O  O77  1  0.009811  0.790151  0.755316  1
  O  O78  1  0.998993  0.757035  0.932237  1
  O  O79  1  0.079185  0.539286  0.667574  1
  O  O80  1  0.183049  0.342827  0.818353  1
  O  O81  1  0.091730  0.384143  0.179626  1
  O  O82  1  0.251919  0.086499  0.158491  1
  O  O83  1  0.245505  0.987649  0.934853  1
  O  O84  1  0.207181  0.999676  0.753261  1
  O  O85  1  0.087429  0.256615  0.664265  1
  O  O86  1  0.008074  0.208783  0.426460  1
  O  O87  1  0.997781  0.207392  0.247948  1
