# generated using pymatgen
data_Li3MnV(PO4)3
_symmetry_space_group_name_H-M   'P 1'
_cell_length_a   8.65273406
_cell_length_b   8.65692150
_cell_length_c   12.65470505
_cell_angle_alpha   74.18634794
_cell_angle_beta   105.69820142
_cell_angle_gamma   84.65846335
_symmetry_Int_Tables_number   1
_chemical_formula_structural   Li3MnV(PO4)3
_chemical_formula_sum   'Li12 Mn4 V4 P12 O48'
_cell_volume   863.66143922
_cell_formula_units_Z   4
loop_
 _symmetry_equiv_pos_site_id
 _symmetry_equiv_pos_as_xyz
  1  'x, y, z'
loop_
 _atom_site_type_symbol
 _atom_site_label
 _atom_site_symmetry_multiplicity
 _atom_site_fract_x
 _atom_site_fract_y
 _atom_site_fract_z
 _atom_site_occupancy
  Li  Li0  1  0.000600  0.003829  0.876201  1
  Li  Li1  1  0.004380  0.003312  0.374036  1
  Li  Li2  1  0.288212  0.289726  0.625956  1
  Li  Li3  1  0.500283  0.498847  0.749772  1
  Li  Li4  1  0.287096  0.289041  0.124097  1
  Li  Li5  1  0.500535  0.499804  0.500441  1
  Li  Li6  1  0.711648  0.711715  0.876325  1
  Li  Li7  1  0.499475  0.502639  0.248836  1
  Li  Li8  1  0.501352  0.499979  0.000705  1
  Li  Li9  1  0.710916  0.711461  0.374430  1
  Li  Li10  1  0.993284  0.996331  0.626511  1
  Li  Li11  1  0.997208  0.996759  0.124311  1
  Mn  Mn12  1  0.628676  0.057648  0.934627  1
  Mn  Mn13  1  0.369720  0.941283  0.064914  1
  Mn  Mn14  1  0.943010  0.373232  0.684910  1
  Mn  Mn15  1  0.942793  0.375562  0.184705  1
  V  V16  1  0.057781  0.621917  0.820087  1
  V  V17  1  0.057048  0.623188  0.320241  1
  V  V18  1  0.378544  0.942635  0.570034  1
  V  V19  1  0.619653  0.055626  0.429448  1
  P  P20  1  0.288744  0.284691  0.875184  1
  P  P21  1  0.139804  0.665835  0.568340  1
  P  P22  1  0.334346  0.859118  0.819076  1
  P  P23  1  0.285695  0.287917  0.374944  1
  P  P24  1  0.134580  0.664900  0.067878  1
  P  P25  1  0.339173  0.861236  0.317048  1
  P  P26  1  0.660235  0.133687  0.683451  1
  P  P27  1  0.866530  0.339846  0.932861  1
  P  P28  1  0.715533  0.711832  0.625452  1
  P  P29  1  0.665515  0.135752  0.181384  1
  P  P30  1  0.860900  0.338761  0.432240  1
  P  P31  1  0.712211  0.715445  0.124948  1
  O  O32  1  0.010859  0.656213  0.955007  1
  O  O33  1  0.054338  0.615009  0.663580  1
  O  O34  1  0.262785  0.173557  0.986240  1
  O  O35  1  0.013075  0.661561  0.455570  1
  O  O36  1  0.172441  0.261807  0.763942  1
  O  O37  1  0.150753  0.840083  0.800719  1
  O  O38  1  0.265485  0.460129  0.884206  1
  O  O39  1  0.159839  0.849605  0.548527  1
  O  O40  1  0.052039  0.609706  0.164524  1
  O  O41  1  0.259133  0.173008  0.483515  1
  O  O42  1  0.172979  0.264609  0.263093  1
  O  O43  1  0.156729  0.842627  0.304007  1
  O  O44  1  0.297701  0.545562  0.602259  1
  O  O45  1  0.386094  0.946455  0.913748  1
  O  O46  1  0.338182  0.985112  0.705631  1
  O  O47  1  0.462632  0.258223  0.863406  1
  O  O48  1  0.263265  0.462618  0.385286  1
  O  O49  1  0.453975  0.701156  0.852618  1
  O  O50  1  0.144115  0.850065  0.047392  1
  O  O51  1  0.295704  0.548996  0.101422  1
  O  O52  1  0.398534  0.951565  0.410310  1
  O  O53  1  0.546218  0.295983  0.647905  1
  O  O54  1  0.337109  0.984984  0.200521  1
  O  O55  1  0.461542  0.262063  0.365951  1
  O  O56  1  0.538409  0.735559  0.632364  1
  O  O57  1  0.657701  0.012311  0.799591  1
  O  O58  1  0.457028  0.701862  0.352574  1
  O  O59  1  0.597218  0.046493  0.588764  1
  O  O60  1  0.704237  0.453329  0.897628  1
  O  O61  1  0.856753  0.157101  0.944946  1
  O  O62  1  0.549689  0.296802  0.147741  1
  O  O63  1  0.741500  0.536044  0.615438  1
  O  O64  1  0.536995  0.738965  0.135007  1
  O  O65  1  0.655617  0.011724  0.293905  1
  O  O66  1  0.608788  0.052425  0.084613  1
  O  O67  1  0.701693  0.456465  0.397094  1
  O  O68  1  0.843883  0.143681  0.697473  1
  O  O69  1  0.825653  0.739487  0.734962  1
  O  O70  1  0.740519  0.827121  0.515967  1
  O  O71  1  0.954501  0.404850  0.837363  1
  O  O72  1  0.841512  0.156751  0.444333  1
  O  O73  1  0.739087  0.539399  0.115302  1
  O  O74  1  0.850397  0.145763  0.201155  1
  O  O75  1  0.826010  0.743273  0.233472  1
  O  O76  1  0.985785  0.336581  0.548003  1
  O  O77  1  0.736167  0.827551  0.012799  1
  O  O78  1  0.951463  0.401141  0.338183  1
  O  O79  1  0.988389  0.341074  0.048555  1
