# generated using pymatgen
data_Ba6YBr15
_symmetry_space_group_name_H-M   'P 1'
_cell_length_a   24.96041214
_cell_length_b   12.35180670
_cell_length_c   16.61459759
_cell_angle_alpha   90.00000000
_cell_angle_beta   114.46977947
_cell_angle_gamma   90.00000000
_symmetry_Int_Tables_number   1
_chemical_formula_structural   Ba6YBr15
_chemical_formula_sum   'Ba24 Y4 Br60'
_cell_volume   4662.29010599
_cell_formula_units_Z   4
loop_
 _symmetry_equiv_pos_site_id
 _symmetry_equiv_pos_as_xyz
  1  'x, y, z'
loop_
 _atom_site_type_symbol
 _atom_site_label
 _atom_site_symmetry_multiplicity
 _atom_site_fract_x
 _atom_site_fract_y
 _atom_site_fract_z
 _atom_site_occupancy
  Ba  Ba0  1  0.116175  0.627222  0.867944  1
  Ba  Ba1  1  0.119412  0.122661  0.876239  1
  Ba  Ba2  1  0.057023  0.872045  0.451073  1
  Ba  Ba3  1  0.037633  0.372860  0.429078  1
  Ba  Ba4  1  0.090272  0.381303  0.099836  1
  Ba  Ba5  1  0.083804  0.868237  0.103015  1
  Ba  Ba6  1  0.416196  0.368237  0.896985  1
  Ba  Ba7  1  0.409728  0.881303  0.900164  1
  Ba  Ba8  1  0.462367  0.872860  0.570922  1
  Ba  Ba9  1  0.442977  0.372045  0.548927  1
  Ba  Ba10  1  0.380588  0.622661  0.123761  1
  Ba  Ba11  1  0.383825  0.127222  0.132056  1
  Ba  Ba12  1  0.616175  0.872778  0.867944  1
  Ba  Ba13  1  0.619412  0.377339  0.876239  1
  Ba  Ba14  1  0.557023  0.627955  0.451073  1
  Ba  Ba15  1  0.537633  0.127140  0.429078  1
  Ba  Ba16  1  0.590272  0.118697  0.099836  1
  Ba  Ba17  1  0.583804  0.631763  0.103015  1
  Ba  Ba18  1  0.916196  0.131763  0.896985  1
  Ba  Ba19  1  0.909728  0.618697  0.900164  1
  Ba  Ba20  1  0.962367  0.627140  0.570922  1
  Ba  Ba21  1  0.942977  0.127955  0.548927  1
  Ba  Ba22  1  0.880588  0.877339  0.123761  1
  Ba  Ba23  1  0.883825  0.372778  0.132056  1
  Y  Y24  1  0.219584  0.127372  0.632481  1
  Y  Y25  1  0.280416  0.627372  0.367519  1
  Y  Y26  1  0.719584  0.372628  0.632481  1
  Y  Y27  1  0.780416  0.872628  0.367519  1
  Br  Br28  1  0.000035  0.631574  0.405747  1
  Br  Br29  1  0.115805  0.875202  0.933838  1
  Br  Br30  1  0.114176  0.374365  0.923741  1
  Br  Br31  1  0.006798  0.114180  0.417708  1
  Br  Br32  1  0.027790  0.368971  0.231609  1
  Br  Br33  1  0.023291  0.882734  0.240583  1
  Br  Br34  1  0.130254  0.116679  0.685065  1
  Br  Br35  1  0.104244  0.641297  0.671812  1
  Br  Br36  1  0.252898  0.126898  0.993100  1
  Br  Br37  1  0.185648  0.969591  0.503020  1
  Br  Br38  1  0.173077  0.283949  0.504688  1
  Br  Br39  1  0.055398  0.625400  0.027172  1
  Br  Br40  1  0.063809  0.124537  0.035052  1
  Br  Br41  1  0.203986  0.469103  0.262256  1
  Br  Br42  1  0.197088  0.781660  0.271795  1
  Br  Br43  1  0.302912  0.281660  0.728205  1
  Br  Br44  1  0.296014  0.969103  0.737744  1
  Br  Br45  1  0.436191  0.624537  0.964948  1
  Br  Br46  1  0.444602  0.125400  0.972828  1
  Br  Br47  1  0.326923  0.783949  0.495312  1
  Br  Br48  1  0.314352  0.469591  0.496980  1
  Br  Br49  1  0.247102  0.626898  0.006900  1
  Br  Br50  1  0.395756  0.141297  0.328188  1
  Br  Br51  1  0.369746  0.616679  0.314935  1
  Br  Br52  1  0.476709  0.382734  0.759417  1
  Br  Br53  1  0.472210  0.868971  0.768391  1
  Br  Br54  1  0.493202  0.614180  0.582292  1
  Br  Br55  1  0.385824  0.874365  0.076259  1
  Br  Br56  1  0.384195  0.375202  0.066162  1
  Br  Br57  1  0.499965  0.131574  0.594253  1
  Br  Br58  1  0.500035  0.868426  0.405747  1
  Br  Br59  1  0.615805  0.624798  0.933838  1
  Br  Br60  1  0.614176  0.125635  0.923741  1
  Br  Br61  1  0.506798  0.385820  0.417708  1
  Br  Br62  1  0.527790  0.131029  0.231609  1
  Br  Br63  1  0.523291  0.617266  0.240583  1
  Br  Br64  1  0.630254  0.383321  0.685065  1
  Br  Br65  1  0.604244  0.858703  0.671812  1
  Br  Br66  1  0.752898  0.373102  0.993100  1
  Br  Br67  1  0.685648  0.530409  0.503020  1
  Br  Br68  1  0.673077  0.216051  0.504688  1
  Br  Br69  1  0.555398  0.874600  0.027172  1
  Br  Br70  1  0.563809  0.375463  0.035052  1
  Br  Br71  1  0.703986  0.030897  0.262256  1
  Br  Br72  1  0.697088  0.718340  0.271795  1
  Br  Br73  1  0.802912  0.218340  0.728205  1
  Br  Br74  1  0.796014  0.530897  0.737744  1
  Br  Br75  1  0.936191  0.875463  0.964948  1
  Br  Br76  1  0.944602  0.374600  0.972828  1
  Br  Br77  1  0.826923  0.716051  0.495312  1
  Br  Br78  1  0.814352  0.030409  0.496980  1
  Br  Br79  1  0.747102  0.873102  0.006900  1
  Br  Br80  1  0.895756  0.358703  0.328188  1
  Br  Br81  1  0.869746  0.883321  0.314935  1
  Br  Br82  1  0.976709  0.117266  0.759417  1
  Br  Br83  1  0.972210  0.631029  0.768391  1
  Br  Br84  1  0.993202  0.885820  0.582292  1
  Br  Br85  1  0.885824  0.625635  0.076259  1
  Br  Br86  1  0.884195  0.124798  0.066162  1
  Br  Br87  1  -0.000035  0.368426  0.594253  1
