# generated using pymatgen
data_Ho9B4O19
_symmetry_space_group_name_H-M   'P 1'
_cell_length_a   9.32427539
_cell_length_b   7.29118978
_cell_length_c   12.60071836
_cell_angle_alpha   81.66600093
_cell_angle_beta   79.06107707
_cell_angle_gamma   78.76169856
_symmetry_Int_Tables_number   1
_chemical_formula_structural   Ho9B4O19
_chemical_formula_sum   'Ho18 B8 O38'
_cell_volume   819.76660842
_cell_formula_units_Z   2
loop_
 _symmetry_equiv_pos_site_id
 _symmetry_equiv_pos_as_xyz
  1  'x, y, z'
loop_
 _atom_site_type_symbol
 _atom_site_label
 _atom_site_symmetry_multiplicity
 _atom_site_fract_x
 _atom_site_fract_y
 _atom_site_fract_z
 _atom_site_occupancy
  Ho  Ho0  1  0.994487  0.999232  0.007238  1
  Ho  Ho1  1  0.005513  0.500768  0.992762  1
  Ho  Ho2  1  0.106425  0.373911  0.402726  1
  Ho  Ho3  1  0.112068  0.870031  0.405534  1
  Ho  Ho4  1  0.159114  0.286048  0.734122  1
  Ho  Ho5  1  0.159997  0.767204  0.734592  1
  Ho  Ho6  1  0.481351  0.063843  0.264113  1
  Ho  Ho7  1  0.465532  0.566196  0.267198  1
  Ho  Ho8  1  0.353824  0.174168  0.955496  1
  Ho  Ho9  1  0.355361  0.670655  0.956060  1
  Ho  Ho10  1  0.644639  0.829345  0.043940  1
  Ho  Ho11  1  0.646176  0.325832  0.044504  1
  Ho  Ho12  1  0.518649  0.436157  0.735887  1
  Ho  Ho13  1  0.534468  0.933804  0.732802  1
  Ho  Ho14  1  0.840886  0.213952  0.265878  1
  Ho  Ho15  1  0.840003  0.732796  0.265408  1
  Ho  Ho16  1  0.893575  0.126089  0.597274  1
  Ho  Ho17  1  0.887932  0.629969  0.594466  1
  B  B18  1  0.183815  0.408502  0.179500  1
  B  B19  1  0.186046  0.909479  0.179690  1
  B  B20  1  0.342367  0.032368  0.530760  1
  B  B21  1  0.351624  0.532662  0.514656  1
  B  B22  1  0.657633  0.467632  0.469240  1
  B  B23  1  0.648376  0.967338  0.485344  1
  B  B24  1  0.816185  0.091498  0.820500  1
  B  B25  1  0.813954  0.590521  0.820310  1
  O  O26  1  0.034313  0.434146  0.229310  1
  O  O27  1  0.034519  0.934763  0.228513  1
  O  O28  1  0.028322  0.350946  0.584483  1
  O  O29  1  0.032745  0.840537  0.586278  1
  O  O30  1  0.222291  0.927199  0.068773  1
  O  O31  1  0.222036  0.427435  0.067737  1
  O  O32  1  0.118923  0.224907  0.912738  1
  O  O33  1  0.119509  0.758922  0.913243  1
  O  O34  1  0.289594  0.866402  0.249716  1
  O  O35  1  0.288905  0.364571  0.249152  1
  O  O36  1  0.292304  0.069524  0.432336  1
  O  O37  1  0.267146  0.573321  0.432536  1
  O  O38  1  0.258755  0.028364  0.631971  1
  O  O39  1  0.301484  0.518484  0.623119  1
  O  O40  1  0.504252  0.601435  0.088356  1
  O  O41  1  0.500036  0.103079  0.089096  1
  O  O42  1  0.394346  0.200949  0.765510  1
  O  O43  1  0.394936  0.719034  0.765667  1
  O  O44  1  0.503183  0.507807  0.467763  1
  O  O45  1  0.496817  0.992193  0.532237  1
  O  O46  1  0.605654  0.299051  0.234490  1
  O  O47  1  0.605064  0.780966  0.234333  1
  O  O48  1  0.499964  0.396921  0.910904  1
  O  O49  1  0.495748  0.898565  0.911644  1
  O  O50  1  0.741245  0.471636  0.368029  1
  O  O51  1  0.698516  0.981516  0.376881  1
  O  O52  1  0.707696  0.430476  0.567664  1
  O  O53  1  0.732854  0.926679  0.567464  1
  O  O54  1  0.711095  0.135429  0.750848  1
  O  O55  1  0.710406  0.633598  0.750284  1
  O  O56  1  0.881077  0.275093  0.087262  1
  O  O57  1  0.880491  0.741078  0.086757  1
  O  O58  1  0.777964  0.072565  0.932263  1
  O  O59  1  0.777709  0.572801  0.931227  1
  O  O60  1  0.971678  0.149054  0.415517  1
  O  O61  1  0.967255  0.659463  0.413722  1
  O  O62  1  0.965687  0.065854  0.770690  1
  O  O63  1  0.965481  0.565237  0.771487  1
