# generated using pymatgen
data_MnP2O7
_symmetry_space_group_name_H-M   'P 1'
_cell_length_a   7.90759746
_cell_length_b   15.70898748
_cell_length_c   7.81168765
_cell_angle_alpha   90.00000000
_cell_angle_beta   88.75116647
_cell_angle_gamma   90.00000000
_symmetry_Int_Tables_number   1
_chemical_formula_structural   MnP2O7
_chemical_formula_sum   'Mn8 P16 O56'
_cell_volume   970.14007876
_cell_formula_units_Z   8
loop_
 _symmetry_equiv_pos_site_id
 _symmetry_equiv_pos_as_xyz
  1  'x, y, z'
loop_
 _atom_site_type_symbol
 _atom_site_label
 _atom_site_symmetry_multiplicity
 _atom_site_fract_x
 _atom_site_fract_y
 _atom_site_fract_z
 _atom_site_occupancy
  Mn  Mn0  1  0.159083  0.374119  0.980476  1
  Mn  Mn1  1  0.159083  0.125881  0.480476  1
  Mn  Mn2  1  0.347893  0.633540  0.510053  1
  Mn  Mn3  1  0.347893  0.866460  0.010053  1
  Mn  Mn4  1  0.652107  0.133540  0.989947  1
  Mn  Mn5  1  0.652107  0.366460  0.489947  1
  Mn  Mn6  1  0.840917  0.874119  0.519524  1
  Mn  Mn7  1  0.840917  0.625881  0.019524  1
  P  P8  1  0.037274  0.321904  0.599450  1
  P  P9  1  0.037274  0.178096  0.099450  1
  P  P10  1  0.223871  0.566304  0.901844  1
  P  P11  1  0.223871  0.933696  0.401844  1
  P  P12  1  0.281064  0.071048  0.869870  1
  P  P13  1  0.281064  0.428952  0.369870  1
  P  P14  1  0.457596  0.827695  0.608605  1
  P  P15  1  0.457596  0.672305  0.108605  1
  P  P16  1  0.542404  0.327695  0.891395  1
  P  P17  1  0.542404  0.172305  0.391395  1
  P  P18  1  0.718936  0.571048  0.630130  1
  P  P19  1  0.718936  0.928952  0.130130  1
  P  P20  1  0.776129  0.066304  0.598156  1
  P  P21  1  0.776129  0.433696  0.098156  1
  P  P22  1  0.962726  0.821904  0.900550  1
  P  P23  1  0.962726  0.678096  0.400550  1
  O  O24  1  0.043144  0.229541  0.546184  1
  O  O25  1  0.043144  0.270459  0.046184  1
  O  O26  1  0.066623  0.918284  0.512823  1
  O  O27  1  0.066623  0.581716  0.012823  1
  O  O28  1  0.121414  0.113863  0.965355  1
  O  O29  1  0.121414  0.386137  0.465355  1
  O  O30  1  0.137222  0.329123  0.761148  1
  O  O31  1  0.137222  0.170877  0.261148  1
  O  O32  1  0.145782  0.851715  0.880278  1
  O  O33  1  0.145782  0.648285  0.380278  1
  O  O34  1  0.215446  0.064625  0.688159  1
  O  O35  1  0.215446  0.435375  0.188159  1
  O  O36  1  0.232435  0.618753  0.737466  1
  O  O37  1  0.232435  0.881247  0.237466  1
  O  O38  1  0.248881  0.471687  0.859182  1
  O  O39  1  0.248881  0.028313  0.359182  1
  O  O40  1  0.322476  0.987387  0.956352  1
  O  O41  1  0.322476  0.512613  0.456351  1
  O  O42  1  0.339696  0.754300  0.563900  1
  O  O43  1  0.339696  0.745700  0.063900  1
  O  O44  1  0.377256  0.911404  0.526117  1
  O  O45  1  0.436322  0.129507  0.874409  1
  O  O46  1  0.377256  0.588596  0.026117  1
  O  O47  1  0.370323  0.315758  0.981588  1
  O  O48  1  0.436322  0.370493  0.374409  1
  O  O49  1  0.370323  0.184242  0.481588  1
  O  O50  1  0.480276  0.844758  0.799772  1
  O  O51  1  0.480276  0.655242  0.299772  1
  O  O52  1  0.519724  0.344758  0.700228  1
  O  O53  1  0.519724  0.155242  0.200228  1
  O  O54  1  0.629677  0.815758  0.518412  1
  O  O55  1  0.563678  0.629507  0.625591  1
  O  O56  1  0.629677  0.684242  0.018412  1
  O  O57  1  0.622744  0.411404  0.973883  1
  O  O58  1  0.563678  0.870493  0.125591  1
  O  O59  1  0.622744  0.088596  0.473883  1
  O  O60  1  0.660304  0.254300  0.936100  1
  O  O61  1  0.660304  0.245700  0.436100  1
  O  O62  1  0.677524  0.487387  0.543648  1
  O  O63  1  0.677524  0.012613  0.043648  1
  O  O64  1  0.751119  0.971687  0.640818  1
  O  O65  1  0.751119  0.528313  0.140818  1
  O  O66  1  0.767565  0.118753  0.762534  1
  O  O67  1  0.767565  0.381247  0.262534  1
  O  O68  1  0.784554  0.564625  0.811841  1
  O  O69  1  0.784554  0.935375  0.311841  1
  O  O70  1  0.854218  0.351715  0.619722  1
  O  O71  1  0.854218  0.148285  0.119722  1
  O  O72  1  0.862778  0.829123  0.738852  1
  O  O73  1  0.862778  0.670877  0.238852  1
  O  O74  1  0.878586  0.613863  0.534645  1
  O  O75  1  0.878586  0.886137  0.034645  1
  O  O76  1  0.933377  0.418284  0.987177  1
  O  O77  1  0.933377  0.081716  0.487177  1
  O  O78  1  0.956856  0.729541  0.953816  1
  O  O79  1  0.956856  0.770459  0.453816  1
