# generated using pymatgen
data_Na2FePCO7
_symmetry_space_group_name_H-M   'P 1'
_cell_length_a   17.93641169
_cell_length_b   5.23497965
_cell_length_c   6.55367770
_cell_angle_alpha   90.00000000
_cell_angle_beta   90.00000000
_cell_angle_gamma   89.54164218
_symmetry_Int_Tables_number   1
_chemical_formula_structural   Na2FePCO7
_chemical_formula_sum   'Na8 Fe4 P4 C4 O28'
_cell_volume   615.34934643
_cell_formula_units_Z   4
loop_
 _symmetry_equiv_pos_site_id
 _symmetry_equiv_pos_as_xyz
  1  'x, y, z'
loop_
 _atom_site_type_symbol
 _atom_site_label
 _atom_site_symmetry_multiplicity
 _atom_site_fract_x
 _atom_site_fract_y
 _atom_site_fract_z
 _atom_site_occupancy
  Na  Na0  1  0.040135  0.763560  0.279907  1
  Na  Na1  1  0.131269  0.250970  0.011074  1
  Na  Na2  1  0.368731  0.749030  0.511074  1
  Na  Na3  1  0.459865  0.236440  0.779907  1
  Na  Na4  1  0.540135  0.763560  0.220093  1
  Na  Na5  1  0.631269  0.250970  0.488926  1
  Na  Na6  1  0.868731  0.749030  0.988926  1
  Na  Na7  1  0.959865  0.236440  0.720093  1
  Fe  Fe8  1  0.172831  0.784272  0.734400  1
  Fe  Fe9  1  0.327169  0.215728  0.234400  1
  Fe  Fe10  1  0.672831  0.784272  0.765600  1
  Fe  Fe11  1  0.827169  0.215728  0.265600  1
  P  P12  1  0.212305  0.709725  0.245078  1
  P  P13  1  0.287695  0.290275  0.745078  1
  P  P14  1  0.712305  0.709725  0.254922  1
  P  P15  1  0.787695  0.290275  0.754922  1
  C  C16  1  0.032866  0.729900  0.764057  1
  C  C17  1  0.467134  0.270100  0.264057  1
  C  C18  1  0.532866  0.729900  0.735943  1
  C  C19  1  0.967134  0.270100  0.235943  1
  O  O20  1  0.037570  0.298336  0.233584  1
  O  O21  1  0.063999  0.956476  0.759888  1
  O  O22  1  0.079475  0.535951  0.758297  1
  O  O23  1  0.163103  0.774488  0.056912  1
  O  O24  1  0.161480  0.760238  0.433073  1
  O  O25  1  0.215987  0.128986  0.756433  1
  O  O26  1  0.235081  0.422051  0.235179  1
  O  O27  1  0.264919  0.577949  0.735179  1
  O  O28  1  0.284013  0.871014  0.256433  1
  O  O29  1  0.336897  0.225512  0.556913  1
  O  O30  1  0.338520  0.239762  0.933073  1
  O  O31  1  0.420525  0.464049  0.258296  1
  O  O32  1  0.436001  0.043524  0.259888  1
  O  O33  1  0.462430  0.701664  0.733584  1
  O  O34  1  0.537570  0.298336  0.266416  1
  O  O35  1  0.563999  0.956476  0.740112  1
  O  O36  1  0.579475  0.535951  0.741703  1
  O  O37  1  0.661480  0.760238  0.066927  1
  O  O38  1  0.663103  0.774488  0.443088  1
  O  O39  1  0.715987  0.128986  0.743567  1
  O  O40  1  0.735081  0.422051  0.264821  1
  O  O41  1  0.764919  0.577949  0.764821  1
  O  O42  1  0.784013  0.871014  0.243567  1
  O  O43  1  0.838520  0.239762  0.566927  1
  O  O44  1  0.836897  0.225512  0.943087  1
  O  O45  1  0.920525  0.464049  0.241703  1
  O  O46  1  0.936001  0.043524  0.240112  1
  O  O47  1  0.962430  0.701664  0.766416  1
