# generated using pymatgen
data_KBaCr2(PO4)3
_symmetry_space_group_name_H-M   'P 1'
_cell_length_a   9.94202148
_cell_length_b   9.94478900
_cell_length_c   19.88968901
_cell_angle_alpha   90.00000000
_cell_angle_beta   89.92930200
_cell_angle_gamma   90.00000000
_symmetry_Int_Tables_number   1
_chemical_formula_structural   KBaCr2(PO4)3
_chemical_formula_sum   'K8 Ba8 Cr16 P24 O96'
_cell_volume   1966.51802832
_cell_formula_units_Z   8
loop_
 _symmetry_equiv_pos_site_id
 _symmetry_equiv_pos_as_xyz
  1  'x, y, z'
loop_
 _atom_site_type_symbol
 _atom_site_label
 _atom_site_symmetry_multiplicity
 _atom_site_fract_x
 _atom_site_fract_y
 _atom_site_fract_z
 _atom_site_occupancy
  K  K0  1  0.066903  0.066785  0.533345  1
  K  K1  1  0.298576  0.296241  0.148247  1
  K  K2  1  0.433688  0.934112  0.282732  1
  K  K3  1  0.433648  0.932895  0.783474  1
  K  K4  1  0.566352  0.432895  0.466526  1
  K  K5  1  0.566312  0.434112  0.967268  1
  K  K6  1  0.701424  0.796241  0.101753  1
  K  K7  1  0.933097  0.566785  0.716655  1
  Ba  Ba8  1  0.069205  0.068569  0.034717  1
  Ba  Ba9  1  0.206620  0.705597  0.397667  1
  Ba  Ba10  1  0.207120  0.703491  0.897587  1
  Ba  Ba11  1  0.294863  0.294714  0.647319  1
  Ba  Ba12  1  0.705137  0.794714  0.602681  1
  Ba  Ba13  1  0.792880  0.203491  0.352413  1
  Ba  Ba14  1  0.793380  0.205597  0.852333  1
  Ba  Ba15  1  0.930795  0.568569  0.215283  1
  Cr  Cr16  1  0.088532  0.913680  0.207140  1
  Cr  Cr17  1  0.086521  0.912903  0.706364  1
  Cr  Cr18  1  0.149761  0.351574  0.323304  1
  Cr  Cr19  1  0.147174  0.353492  0.823696  1
  Cr  Cr20  1  0.355175  0.646893  0.074016  1
  Cr  Cr21  1  0.353094  0.646972  0.573514  1
  Cr  Cr22  1  0.413547  0.087100  0.456367  1
  Cr  Cr23  1  0.414899  0.086094  0.956904  1
  Cr  Cr24  1  0.585101  0.586094  0.293096  1
  Cr  Cr25  1  0.586453  0.587100  0.793633  1
  Cr  Cr26  1  0.644825  0.146893  0.175984  1
  Cr  Cr27  1  0.646906  0.146972  0.676486  1
  Cr  Cr28  1  0.852826  0.853492  0.426304  1
  Cr  Cr29  1  0.850239  0.851574  0.926696  1
  Cr  Cr30  1  0.911468  0.413680  0.042860  1
  Cr  Cr31  1  0.913479  0.412903  0.543636  1
  P  P32  1  0.039954  0.725555  0.063464  1
  P  P33  1  0.040240  0.725631  0.563710  1
  P  P34  1  0.127645  0.040347  0.362955  1
  P  P35  1  0.127734  0.040219  0.862327  1
  P  P36  1  0.225715  0.372472  0.479866  1
  P  P37  1  0.226718  0.373218  0.980395  1
  P  P38  1  0.275277  0.626886  0.229229  1
  P  P39  1  0.274369  0.627611  0.729823  1
  P  P40  1  0.372470  0.959729  0.612759  1
  P  P41  1  0.374171  0.959371  0.113326  1
  P  P42  1  0.459224  0.274070  0.313372  1
  P  P43  1  0.459696  0.274413  0.813791  1
  P  P44  1  0.540776  0.774070  0.936628  1
  P  P45  1  0.540304  0.774413  0.436209  1
  P  P46  1  0.625829  0.459371  0.136674  1
  P  P47  1  0.627530  0.459729  0.637241  1
  P  P48  1  0.724723  0.126886  0.020771  1
  P  P49  1  0.725631  0.127611  0.520177  1
  P  P50  1  0.773282  0.873218  0.269605  1
  P  P51  1  0.774285  0.872472  0.770134  1
  P  P52  1  0.872266  0.540219  0.387673  1
  P  P53  1  0.872355  0.540347  0.887045  1
  P  P54  1  0.960046  0.225555  0.186536  1
  P  P55  1  0.959760  0.225631  0.686290  1
  O  O56  1  0.004997  0.577535  0.076854  1
  O  O57  1  0.005453  0.577770  0.576113  1
  O  O58  1  0.014827  0.801248  0.130484  1
  O  O59  1  0.013158  0.802079  0.630134  1
  O  O60  1  0.023364  0.947421  0.397597  1
  O  O61  1  0.023381  0.948569  0.898382  1
  O  O62  1  0.049403  0.297165  0.238896  1
  O  O63  1  0.052418  0.294957  0.738398  1
  O  O64  1  0.077708  0.347860  0.497240  1
  O  O65  1  0.077421  0.345946  0.997296  1
  O  O66  1  0.076268  0.187822  0.370096  1
  O  O67  1  0.076126  0.187578  0.870458  1
  O  O68  1  0.152090  0.005511  0.288981  1
  O  O69  1  0.152295  0.005369  0.788711  1
  O  O70  1  0.187452  0.740531  0.038013  1
  O  O71  1  0.187961  0.740205  0.538127  1
  O  O72  1  0.196339  0.759119  0.243769  1
  O  O73  1  0.197764  0.760376  0.743309  1
  O  O74  1  0.202322  0.524804  0.276424  1
  O  O75  1  0.204795  0.523390  0.776198  1
  O  O76  1  0.239629  0.986687  0.651101  1
  O  O77  1  0.237644  0.985784  0.149571  1
  O  O78  1  0.239524  0.423526  0.906069  1
  O  O79  1  0.240169  0.424004  0.406126  1
  O  O80  1  0.258097  0.578005  0.155995  1
  O  O81  1  0.259721  0.576211  0.656060  1
  O  O82  1  0.260302  0.013123  0.401113  1
  O  O83  1  0.259260  0.013522  0.901782  1
  O  O84  1  0.294647  0.478697  0.024923  1
  O  O85  1  0.295082  0.476674  0.526233  1
  O  O86  1  0.302034  0.239683  0.493380  1
  O  O87  1  0.299397  0.237770  0.992429  1
  O  O88  1  0.311930  0.259078  0.289033  1
  O  O89  1  0.312059  0.259737  0.788176  1
  O  O90  1  0.347895  0.994621  0.538876  1
  O  O91  1  0.345709  0.994881  0.038852  1
  O  O92  1  0.421746  0.811756  0.120207  1
  O  O93  1  0.423761  0.812109  0.620111  1
  O  O94  1  0.422031  0.652431  0.247613  1
  O  O95  1  0.422180  0.652203  0.747190  1
  O  O96  1  0.447557  0.704839  0.488383  1
  O  O97  1  0.446256  0.704611  0.987772  1
  O  O98  1  0.476980  0.051270  0.147756  1
  O  O99  1  0.476621  0.052387  0.647575  1
  O  O100  1  0.487223  0.198307  0.380286  1
  O  O101  1  0.486879  0.197800  0.880081  1
  O  O102  1  0.494649  0.422178  0.326249  1
  O  O103  1  0.494425  0.422216  0.826070  1
  O  O104  1  0.505575  0.922216  0.423930  1
  O  O105  1  0.505351  0.922178  0.923751  1
  O  O106  1  0.513121  0.697800  0.369919  1
  O  O107  1  0.512777  0.698307  0.869714  1
  O  O108  1  0.523020  0.551270  0.102244  1
  O  O109  1  0.523379  0.552387  0.602425  1
  O  O110  1  0.553744  0.204611  0.262228  1
  O  O111  1  0.552443  0.204839  0.761617  1
  O  O112  1  0.577969  0.152431  0.002387  1
  O  O113  1  0.577820  0.152203  0.502810  1
  O  O114  1  0.578254  0.311756  0.129793  1
  O  O115  1  0.576239  0.312109  0.629889  1
  O  O116  1  0.654291  0.494881  0.211148  1
  O  O117  1  0.652105  0.494621  0.711124  1
  O  O118  1  0.687941  0.759737  0.461824  1
  O  O119  1  0.688070  0.759078  0.960967  1
  O  O120  1  0.700603  0.737770  0.257570  1
  O  O121  1  0.697966  0.739683  0.756620  1
  O  O122  1  0.705353  0.978697  0.225077  1
  O  O123  1  0.704918  0.976674  0.723767  1
  O  O124  1  0.740740  0.513522  0.348218  1
  O  O125  1  0.739698  0.513123  0.848887  1
  O  O126  1  0.741903  0.078005  0.094005  1
  O  O127  1  0.740279  0.076211  0.593940  1
  O  O128  1  0.760476  0.923526  0.343931  1
  O  O129  1  0.759831  0.924004  0.843874  1
  O  O130  1  0.762356  0.485784  0.100429  1
  O  O131  1  0.760371  0.486687  0.598899  1
  O  O132  1  0.795205  0.023390  0.473802  1
  O  O133  1  0.797678  0.024804  0.973576  1
  O  O134  1  0.803661  0.259119  0.006231  1
  O  O135  1  0.802236  0.260376  0.506691  1
  O  O136  1  0.812548  0.240531  0.211987  1
  O  O137  1  0.812039  0.240205  0.711873  1
  O  O138  1  0.847705  0.505369  0.461289  1
  O  O139  1  0.847910  0.505511  0.961019  1
  O  O140  1  0.923874  0.687578  0.379542  1
  O  O141  1  0.923732  0.687822  0.879904  1
  O  O142  1  0.922579  0.845946  0.252704  1
  O  O143  1  0.922292  0.847860  0.752760  1
  O  O144  1  0.950597  0.797165  0.011104  1
  O  O145  1  0.947582  0.794957  0.511602  1
  O  O146  1  0.976619  0.448569  0.351618  1
  O  O147  1  0.976636  0.447421  0.852403  1
  O  O148  1  0.985173  0.301248  0.119516  1
  O  O149  1  0.986842  0.302079  0.619866  1
  O  O150  1  0.995003  0.077535  0.173146  1
  O  O151  1  0.994547  0.077770  0.673887  1
