# generated using pymatgen
data_SmH12(NO5)3
_symmetry_space_group_name_H-M   'P 1'
_cell_length_a   9.94094109
_cell_length_b   11.95611921
_cell_length_c   7.18382980
_cell_angle_alpha   97.27276647
_cell_angle_beta   110.13724471
_cell_angle_gamma   105.89065512
_symmetry_Int_Tables_number   1
_chemical_formula_structural   SmH12(NO5)3
_chemical_formula_sum   'Sm2 H24 N6 O30'
_cell_volume   747.59000217
_cell_formula_units_Z   2
loop_
 _symmetry_equiv_pos_site_id
 _symmetry_equiv_pos_as_xyz
  1  'x, y, z'
loop_
 _atom_site_type_symbol
 _atom_site_label
 _atom_site_symmetry_multiplicity
 _atom_site_fract_x
 _atom_site_fract_y
 _atom_site_fract_z
 _atom_site_occupancy
  Sm  Sm0  1  0.624008  0.785853  0.885104  1
  Sm  Sm1  1  0.375992  0.214147  0.114896  1
  H  H2  1  0.608238  -0.006304  0.720813  1
  H  H3  1  0.391762  0.006304  0.279187  1
  H  H4  1  0.459478  0.982422  0.763030  1
  H  H5  1  0.540522  0.017578  0.236970  1
  H  H6  1  0.218034  0.525539  0.828808  1
  H  H7  1  0.781966  0.474461  0.171192  1
  H  H8  1  0.558372  0.554088  0.658890  1
  H  H9  1  0.441628  0.445912  0.341110  1
  H  H10  1  0.892111  0.773463  0.723349  1
  H  H11  1  0.107889  0.226537  0.276651  1
  H  H12  1  0.709385  0.837184  0.565580  1
  H  H13  1  0.290615  0.162816  0.434420  1
  H  H14  1  0.151161  0.932523  0.206053  1
  H  H15  1  0.848839  0.067477  0.793947  1
  H  H16  1  0.349819  0.573927  0.449632  1
  H  H17  1  0.650181  0.426073  0.550368  1
  H  H18  1  0.153768  0.903790  0.449727  1
  H  H19  1  0.846232  0.096210  0.550273  1
  H  H20  1  0.169019  0.804308  0.224848  1
  H  H21  1  0.830981  0.195692  0.775152  1
  H  H22  1  0.148829  0.348940  0.411179  1
  H  H23  1  0.851171  0.651060  0.588821  1
  H  H24  1  0.174625  0.508332  0.295669  1
  H  H25  1  0.825375  0.491668  0.704331  1
  N  N26  1  0.803422  0.666604  0.153946  1
  N  N27  1  0.196578  0.333396  0.846054  1
  N  N28  1  0.822060  0.008141  0.272753  1
  N  N29  1  0.177940  0.991859  0.727247  1
  N  N30  1  0.279148  0.697595  0.962758  1
  N  N31  1  0.720852  0.302405  0.037242  1
  O  O32  1  0.530927  0.940738  0.756780  1
  O  O33  1  0.469073  0.059262  0.243220  1
  O  O34  1  0.938250  0.711977  0.699457  1
  O  O35  1  0.061750  0.288023  0.300543  1
  O  O36  1  0.762170  0.865372  0.713782  1
  O  O37  1  0.237830  0.134628  0.286218  1
  O  O38  1  0.516378  0.618911  0.659489  1
  O  O39  1  0.483622  0.381089  0.340511  1
  O  O40  1  0.201978  0.889312  0.300467  1
  O  O41  1  0.798022  0.110688  0.699533  1
  O  O42  1  0.276876  0.546515  0.302495  1
  O  O43  1  0.723124  0.453485  0.697505  1
  O  O44  1  0.665733  0.643059  0.132125  1
  O  O45  1  0.334267  0.356941  0.867875  1
  O  O46  1  0.863203  0.758591  0.098135  1
  O  O47  1  0.136797  0.241409  0.901865  1
  O  O48  1  0.880637  0.602386  0.223756  1
  O  O49  1  0.119363  0.397614  0.776244  1
  O  O50  1  0.688139  0.945036  0.246513  1
  O  O51  1  0.311861  0.054964  0.753487  1
  O  O52  1  0.875383  0.994470  0.144041  1
  O  O53  1  0.124617  0.005530  0.855959  1
  O  O54  1  0.907280  0.090459  0.443936  1
  O  O55  1  0.092720  0.909541  0.556064  1
  O  O56  1  0.379820  0.797666  0.000272  1
  O  O57  1  0.620180  0.202334  0.999728  1
  O  O58  1  0.296042  0.609270  0.845198  1
  O  O59  1  0.703958  0.390730  0.154802  1
  O  O60  1  0.176039  0.677217  0.021589  1
  O  O61  1  0.823961  0.322783  -0.021589  1
