# generated using pymatgen
data_Na3SiBiBO7
_symmetry_space_group_name_H-M   'P 1'
_cell_length_a   9.30122890
_cell_length_b   7.01833432
_cell_length_c   5.37527361
_cell_angle_alpha   90.00000000
_cell_angle_beta   90.50934896
_cell_angle_gamma   90.00000000
_symmetry_Int_Tables_number   1
_chemical_formula_structural   Na3SiBiBO7
_chemical_formula_sum   'Na6 Si2 Bi2 B2 O14'
_cell_volume   350.87934073
_cell_formula_units_Z   2
loop_
 _symmetry_equiv_pos_site_id
 _symmetry_equiv_pos_as_xyz
  1  'x, y, z'
loop_
 _atom_site_type_symbol
 _atom_site_label
 _atom_site_symmetry_multiplicity
 _atom_site_fract_x
 _atom_site_fract_y
 _atom_site_fract_z
 _atom_site_occupancy
  Na  Na0  1  0.076381  0.250000  0.758486  1
  Na  Na1  1  0.246054  0.007522  0.250188  1
  Na  Na2  1  0.246054  0.492478  0.250188  1
  Na  Na3  1  0.753946  0.507522  0.749812  1
  Na  Na4  1  0.753946  0.992478  0.749812  1
  Na  Na5  1  0.923619  0.750000  0.241514  1
  Si  Si6  1  0.414304  0.250000  0.704094  1
  Si  Si7  1  0.585696  0.750000  0.295906  1
  Bi  Bi8  1  0.346217  0.750000  0.778846  1
  Bi  Bi9  1  0.653783  0.250000  0.221154  1
  B  B10  1  0.056242  0.750000  0.735151  1
  B  B11  1  0.943758  0.250000  0.264849  1
  O  O12  1  0.087289  0.250000  0.290518  1
  O  O13  1  0.129219  0.750000  0.966891  1
  O  O14  1  0.148567  0.750000  0.524526  1
  O  O15  1  0.314934  0.068765  0.797037  1
  O  O16  1  0.314934  0.431235  0.797037  1
  O  O17  1  0.426181  0.250000  0.397093  1
  O  O18  1  0.420493  0.750000  0.182581  1
  O  O19  1  0.579507  0.250000  0.817419  1
  O  O20  1  0.573819  0.750000  0.602907  1
  O  O21  1  0.685066  0.568765  0.202963  1
  O  O22  1  0.685066  0.931235  0.202963  1
  O  O23  1  0.851433  0.250000  0.475474  1
  O  O24  1  0.870781  0.250000  0.033109  1
  O  O25  1  0.912711  0.750000  0.709482  1
