# generated using pymatgen
data_Rb14Na3Al17Si31O96
_symmetry_space_group_name_H-M   'P 1'
_cell_length_a   17.86837793
_cell_length_b   17.60675411
_cell_length_c   17.69619561
_cell_angle_alpha   60.75125334
_cell_angle_beta   60.48014597
_cell_angle_gamma   60.58391010
_symmetry_Int_Tables_number   1
_chemical_formula_structural   Rb14Na3Al17Si31O96
_chemical_formula_sum   'Rb14 Na3 Al17 Si31 O96'
_cell_volume   3990.42625953
_cell_formula_units_Z   1
loop_
 _symmetry_equiv_pos_site_id
 _symmetry_equiv_pos_as_xyz
  1  'x, y, z'
loop_
 _atom_site_type_symbol
 _atom_site_label
 _atom_site_symmetry_multiplicity
 _atom_site_fract_x
 _atom_site_fract_y
 _atom_site_fract_z
 _atom_site_occupancy
  Rb  Rb0  1  0.249923  0.256932  0.256532  1
  Rb  Rb1  1  0.261036  0.249852  0.734561  1
  Rb  Rb2  1  0.263381  0.738147  0.254217  1
  Rb  Rb3  1  0.743281  0.263722  0.265267  1
  Rb  Rb4  1  0.274937  0.739775  0.738414  1
  Rb  Rb5  1  0.742276  0.752261  0.253699  1
  Rb  Rb6  1  0.742971  0.256625  0.753279  1
  Rb  Rb7  1  0.685009  0.977324  0.413267  1
  Rb  Rb8  1  0.685386  0.416742  0.979295  1
  Rb  Rb9  1  0.961987  0.699680  0.407320  1
  Rb  Rb10  1  0.962896  0.409473  0.702900  1
  Rb  Rb11  1  0.743468  0.751867  0.753168  1
  Rb  Rb12  1  0.894292  0.912052  0.738987  1
  Rb  Rb13  1  0.902698  0.933835  0.946788  1
  Na  Na14  1  0.001811  0.014524  0.477956  1
  Na  Na15  1  0.974082  0.527711  0.007365  1
  Na  Na16  1  0.568973  0.977553  0.976764  1
  Al  Al17  1  0.219584  0.850865  0.399559  1
  Al  Al18  1  0.855079  0.217421  0.400815  1
  Al  Al19  1  0.854512  0.401314  0.215996  1
  Al  Al20  1  0.597712  0.153917  0.969280  1
  Al  Al21  1  0.597114  0.970854  0.152991  1
  Al  Al22  1  0.776629  0.153552  0.965439  1
  Al  Al23  1  0.776050  0.966021  0.153649  1
  Al  Al24  1  0.964207  0.150373  0.602509  1
  Al  Al25  1  0.964925  0.601167  0.151390  1
  Al  Al26  1  0.964153  0.147369  0.782948  1
  Al  Al27  1  0.963782  0.782578  0.147907  1
  Al  Al28  1  0.599509  0.780389  0.965058  1
  Al  Al29  1  0.598115  0.967930  0.778212  1
  Al  Al30  1  0.782040  0.603254  0.961388  1
  Al  Al31  1  0.781193  0.962279  0.600752  1
  Al  Al32  1  0.969619  0.599389  0.778242  1
  Al  Al33  1  0.969374  0.777550  0.600065  1
  Si  Si34  1  0.034761  0.391685  0.210221  1
  Si  Si35  1  0.034915  0.212136  0.392167  1
  Si  Si36  1  0.212854  0.396232  0.034293  1
  Si  Si37  1  0.210069  0.033745  0.399473  1
  Si  Si38  1  0.386856  0.036523  0.216695  1
  Si  Si39  1  0.387216  0.214870  0.038241  1
  Si  Si40  1  0.036113  0.867296  0.205568  1
  Si  Si41  1  0.037407  0.204701  0.867765  1
  Si  Si42  1  0.040742  0.388433  0.863458  1
  Si  Si43  1  0.038602  0.860709  0.389649  1
  Si  Si44  1  0.214200  0.030032  0.857345  1
  Si  Si45  1  0.214131  0.856640  0.032044  1
  Si  Si46  1  0.386909  0.036097  0.859241  1
  Si  Si47  1  0.388616  0.860581  0.033349  1
  Si  Si48  1  0.144782  0.602267  0.787012  1
  Si  Si49  1  0.147010  0.780994  0.606026  1
  Si  Si50  1  0.218530  0.396364  0.855245  1
  Si  Si51  1  0.392274  0.214529  0.858556  1
  Si  Si52  1  0.395466  0.856598  0.212855  1
  Si  Si53  1  0.144383  0.603734  0.966681  1
  Si  Si54  1  0.143787  0.964676  0.605515  1
  Si  Si55  1  0.865245  0.033648  0.208966  1
  Si  Si56  1  0.865221  0.209245  0.033247  1
  Si  Si57  1  0.144531  0.783682  0.964223  1
  Si  Si58  1  0.143636  0.963151  0.784823  1
  Si  Si59  1  0.864867  0.030922  0.392573  1
  Si  Si60  1  0.865162  0.392694  0.031912  1
  Si  Si61  1  0.599030  0.146920  0.785433  1
  Si  Si62  1  0.601885  0.787067  0.141887  1
  Si  Si63  1  0.781033  0.144464  0.608458  1
  Si  Si64  1  0.782282  0.608511  0.141683  1
  O  O65  1  0.998660  0.224564  0.489544  1
  O  O66  1  0.042530  0.605415  0.033696  1
  O  O67  1  0.040656  0.031460  0.609147  1
  O  O68  1  0.045996  0.307200  0.306098  1
  O  O69  1  0.141837  0.368915  0.136980  1
  O  O70  1  0.142165  0.140305  0.373744  1
  O  O71  1  0.041960  0.031138  0.813756  1
  O  O72  1  0.042824  0.811724  0.032255  1
  O  O73  1  0.217625  0.499822  0.999678  1
  O  O74  1  0.216643  0.999571  0.502665  1
  O  O75  1  0.000051  0.221601  0.792823  1
  O  O76  1  0.998951  0.792433  0.221083  1
  O  O77  1  0.308282  0.039008  0.318994  1
  O  O78  1  0.310433  0.318243  0.040604  1
  O  O79  1  0.354485  0.141970  0.142832  1
  O  O80  1  0.216903  0.995076  0.785345  1
  O  O81  1  0.216987  0.784637  0.996385  1
  O  O82  1  0.482469  0.223493  0.009073  1
  O  O83  1  0.041102  0.839672  0.306550  1
  O  O84  1  0.049307  0.303207  0.840685  1
  O  O85  1  0.141873  0.133735  0.852801  1
  O  O86  1  0.141186  0.852600  0.135225  1
  O  O87  1  0.006352  0.480275  0.785255  1
  O  O88  1  0.996836  0.787402  0.483584  1
  O  O89  1  0.604002  0.039900  0.038733  1
  O  O90  1  0.310108  0.043109  0.826585  1
  O  O91  1  0.310500  0.827796  0.042503  1
  O  O92  1  0.142255  0.843905  0.371176  1
  O  O93  1  0.146288  0.368801  0.849862  1
  O  O94  1  0.045570  0.597194  0.820465  1
  O  O95  1  0.044549  0.814214  0.606754  1
  O  O96  1  0.802839  0.047462  0.047308  1
  O  O97  1  0.222557  0.499052  0.782533  1
  O  O98  1  0.224538  0.772738  0.508918  1
  O  O99  1  0.183392  0.395221  0.960125  1
  O  O100  1  0.172566  0.964218  0.403877  1
  O  O101  1  0.173412  0.681873  0.688773  1
  O  O102  1  0.364955  0.856829  0.137685  1
  O  O103  1  0.359629  0.143161  0.855419  1
  O  O104  1  0.323086  0.823974  0.312770  1
  O  O105  1  0.317620  0.318377  0.826812  1
  O  O106  1  0.153475  0.856187  0.633045  1
  O  O107  1  0.156028  0.626868  0.859416  1
  O  O108  1  0.484422  0.788318  0.999611  1
  O  O109  1  0.482771  0.006384  0.785169  1
  O  O110  1  0.792627  0.231395  0.990971  1
  O  O111  1  0.381775  0.186172  0.965011  1
  O  O112  1  0.386690  0.964007  0.183397  1
  O  O113  1  0.849259  0.140403  0.139785  1
  O  O114  1  0.843940  0.035707  0.309386  1
  O  O115  1  0.844916  0.310135  0.033685  1
  O  O116  1  0.492264  0.217651  0.783676  1
  O  O117  1  0.497054  0.782597  0.212180  1
  O  O118  1  0.178681  0.955147  0.682545  1
  O  O119  1  0.180109  0.680680  0.956044  1
  O  O120  1  0.155083  0.855153  0.856707  1
  O  O121  1  0.794530  0.485419  0.986382  1
  O  O122  1  0.597438  0.044069  0.818931  1
  O  O123  1  0.599966  0.821564  0.039497  1
  O  O124  1  0.482061  0.011192  0.223603  1
  O  O125  1  0.847035  0.134193  0.379121  1
  O  O126  1  0.847975  0.374469  0.135794  1
  O  O127  1  0.679592  0.686180  0.167227  1
  O  O128  1  0.676690  0.172412  0.684132  1
  O  O129  1  0.617978  0.162110  0.856065  1
  O  O130  1  0.620206  0.857869  0.158101  1
  O  O131  1  0.825154  0.318862  0.318408  1
  O  O132  1  0.814866  0.040951  0.603904  1
  O  O133  1  0.818319  0.602430  0.039161  1
  O  O134  1  0.779460  0.222161  0.510108  1
  O  O135  1  0.776461  0.510351  0.219497  1
  O  O136  1  0.186160  0.960660  0.961467  1
  O  O137  1  0.669647  0.203119  0.954438  1
  O  O138  1  0.668857  0.955763  0.202431  1
  O  O139  1  0.854641  0.141312  0.641179  1
  O  O140  1  0.857096  0.635456  0.143633  1
  O  O141  1  0.972211  0.169851  0.392283  1
  O  O142  1  0.970739  0.395398  0.167851  1
  O  O143  1  0.372560  0.969605  0.966835  1
  O  O144  1  0.004541  0.488018  0.222639  1
  O  O145  1  0.856792  0.146324  0.857738  1
  O  O146  1  0.856933  0.858302  0.145564  1
  O  O147  1  0.966426  0.670712  0.192267  1
  O  O148  1  0.967609  0.191017  0.671161  1
  O  O149  1  0.792341  0.991206  0.231334  1
  O  O150  1  0.626453  0.860524  0.857439  1
  O  O151  1  0.671310  0.669697  0.965014  1
  O  O152  1  0.670861  0.965667  0.668487  1
  O  O153  1  0.795113  0.983089  0.485149  1
  O  O154  1  0.973176  0.973806  0.170324  1
  O  O155  1  0.973442  0.170943  0.973400  1
  O  O156  1  0.862086  0.855443  0.635771  1
  O  O157  1  0.860978  0.630951  0.852306  1
  O  O158  1  0.979713  0.663457  0.664586  1
  O  O159  1  0.973254  0.968213  0.386884  1
  O  O160  1  0.974137  0.386898  0.968379  1
