# generated using pymatgen
data_Li9FeCo12(PO4)12
_symmetry_space_group_name_H-M   'P 1'
_cell_length_a   22.33550030
_cell_length_b   6.39136499
_cell_length_c   11.13888848
_cell_angle_alpha   93.21853719
_cell_angle_beta   39.91880767
_cell_angle_gamma   90.40407504
_symmetry_Int_Tables_number   1
_chemical_formula_structural   Li9FeCo12(PO4)12
_chemical_formula_sum   'Li9 Fe1 Co12 P12 O48'
_cell_volume   1017.16547575
_cell_formula_units_Z   1
loop_
 _symmetry_equiv_pos_site_id
 _symmetry_equiv_pos_as_xyz
  1  'x, y, z'
loop_
 _atom_site_type_symbol
 _atom_site_label
 _atom_site_symmetry_multiplicity
 _atom_site_fract_x
 _atom_site_fract_y
 _atom_site_fract_z
 _atom_site_occupancy
  Li  Li0  1  0.023676  0.500025  0.445833  1
  Li  Li1  1  0.308519  0.044596  0.104874  1
  Li  Li2  1  0.268166  0.507928  0.140605  1
  Li  Li3  1  0.283177  0.997638  0.610251  1
  Li  Li4  1  0.309657  0.499975  0.554167  1
  Li  Li5  1  0.666667  0.000000  0.000000  1
  Li  Li6  1  0.024814  0.955404  0.895126  1
  Li  Li7  1  0.065167  0.492072  0.859395  1
  Li  Li8  1  0.050156  0.002362  0.389749  1
  Fe  Fe9  1  0.666667  0.500000  0.500000  1
  Co  Co10  1  0.160456  0.694359  0.044366  1
  Co  Co11  1  0.473016  0.284830  0.807265  1
  Co  Co12  1  0.860317  0.715170  0.192735  1
  Co  Co13  1  0.266943  0.744127  0.373489  1
  Co  Co14  1  0.172877  0.305641  0.955634  1
  Co  Co15  1  0.429721  0.822271  0.234729  1
  Co  Co16  1  0.401893  0.507591  0.668150  1
  Co  Co17  1  0.471156  0.012617  0.570030  1
  Co  Co18  1  0.862177  0.987383  0.429970  1
  Co  Co19  1  0.931440  0.492409  0.331850  1
  Co  Co20  1  0.903613  0.177729  0.765271  1
  Co  Co21  1  0.066391  0.255873  0.626511  1
  P  P22  1  0.216464  0.266038  0.450932  1
  P  P23  1  0.756577  0.555087  0.022558  1
  P  P24  1  0.576756  0.444913  0.977442  1
  P  P25  1  0.483357  0.222605  0.312137  1
  P  P26  1  0.116870  0.733962  0.549068  1
  P  P27  1  0.082706  0.887943  0.037777  1
  P  P28  1  0.876487  0.229928  0.110712  1
  P  P29  1  0.714528  0.381710  0.627369  1
  P  P30  1  0.618805  0.618290  0.372631  1
  P  P31  1  0.456847  0.770072  0.889288  1
  P  P32  1  0.250627  0.112057  0.962223  1
  P  P33  1  0.849976  0.777395  0.687863  1
  O  O34  1  0.797823  0.927948  0.685305  1
  O  O35  1  0.897002  0.574984  0.560091  1
  O  O36  1  0.264725  0.509605  0.823682  1
  O  O37  1  0.186106  0.938706  0.105233  1
  O  O38  1  0.201551  0.301197  0.610498  1
  O  O39  1  0.328579  0.009165  0.758932  1
  O  O40  1  0.274782  0.244645  0.038110  1
  O  O41  1  0.398772  0.587263  0.918967  1
  O  O42  1  0.934561  0.412737  0.081033  1
  O  O43  1  0.058552  0.755355  0.961890  1
  O  O44  1  0.004755  0.990835  0.241068  1
  O  O45  1  0.131782  0.698803  0.389502  1
  O  O46  1  0.147227  0.061294  0.894767  1
  O  O47  1  0.270069  0.441306  0.310293  1
  O  O48  1  0.261141  0.050265  0.336346  1
  O  O49  1  0.068609  0.490395  0.176318  1
  O  O50  1  0.656066  0.442299  0.209368  1
  O  O51  1  0.535510  0.072052  0.314695  1
  O  O52  1  0.436331  0.425016  0.439909  1
  O  O53  1  0.695589  0.767059  0.208284  1
  O  O54  1  0.795523  0.354405  0.889077  1
  O  O55  1  0.415775  0.825134  0.079476  1
  O  O56  1  0.571907  0.270241  0.088740  1
  O  O57  1  0.772508  0.291659  0.271682  1
  O  O58  1  0.594022  0.272419  0.605028  1
  O  O59  1  0.482495  0.436169  0.035568  1
  O  O60  1  0.432318  0.968717  0.851310  1
  O  O61  1  0.868177  0.744906  0.016315  1
  O  O62  1  0.303988  0.749387  0.477372  1
  O  O63  1  0.459196  0.287426  0.662097  1
  O  O64  1  0.517200  0.709395  0.505580  1
  O  O65  1  0.409275  0.112136  0.348770  1
  O  O66  1  0.924058  0.887864  0.651230  1
  O  O67  1  0.816134  0.290605  0.494420  1
  O  O68  1  0.874138  0.712574  0.337903  1
  O  O69  1  0.029346  0.250613  0.522628  1
  O  O70  1  0.465157  0.255094  0.983685  1
  O  O71  1  0.901015  0.031283  0.148690  1
  O  O72  1  0.850838  0.563831  0.964432  1
  O  O73  1  0.739311  0.727581  0.394972  1
  O  O74  1  0.560826  0.708341  0.728318  1
  O  O75  1  0.761426  0.729759  0.911260  1
  O  O76  1  0.917558  0.174866  0.920524  1
  O  O77  1  0.537810  0.645595  0.110923  1
  O  O78  1  0.637744  0.232941  0.791716  1
  O  O79  1  0.677267  0.557701  0.790632  1
  O  O80  1  0.072192  0.949735  0.663654  1
  O  O81  1  0.063264  0.558694  0.689707  1
