# generated using pymatgen
data_Mn6O5F7
_symmetry_space_group_name_H-M   'P 1'
_cell_length_a   5.69664321
_cell_length_b   5.09247295
_cell_length_c   14.79817369
_cell_angle_alpha   95.11505814
_cell_angle_beta   92.40111423
_cell_angle_gamma   89.88440103
_symmetry_Int_Tables_number   1
_chemical_formula_structural   Mn6O5F7
_chemical_formula_sum   'Mn12 O10 F14'
_cell_volume   427.20939486
_cell_formula_units_Z   2
loop_
 _symmetry_equiv_pos_site_id
 _symmetry_equiv_pos_as_xyz
  1  'x, y, z'
loop_
 _atom_site_type_symbol
 _atom_site_label
 _atom_site_symmetry_multiplicity
 _atom_site_fract_x
 _atom_site_fract_y
 _atom_site_fract_z
 _atom_site_occupancy
  Mn  Mn0  1  0.092813  0.956971  0.001041  1
  Mn  Mn1  1  0.854931  0.491574  0.167642  1
  Mn  Mn2  1  0.090662  0.035384  0.340304  1
  Mn  Mn3  1  0.083948  0.535139  0.496407  1
  Mn  Mn4  1  0.018177  0.962760  0.671878  1
  Mn  Mn5  1  0.112467  0.507623  0.841049  1
  Mn  Mn6  1  0.565562  0.994540  0.162299  1
  Mn  Mn7  1  0.395945  0.443066  0.011652  1
  Mn  Mn8  1  0.423744  0.516780  0.664353  1
  Mn  Mn9  1  0.528708  0.007581  0.498877  1
  Mn  Mn10  1  0.418943  0.513875  0.327435  1
  Mn  Mn11  1  0.518291  0.950573  0.840362  1
  O  O12  1  0.178210  0.716835  0.397055  1
  O  O13  1  0.158712  0.267014  0.930366  1
  O  O14  1  0.229397  0.733653  0.751827  1
  O  O15  1  0.347767  0.130795  0.077028  1
  O  O16  1  0.306048  0.751296  0.572793  1
  O  O17  1  0.316659  0.735212  0.931725  1
  O  O18  1  0.346552  0.227103  0.410267  1
  O  O19  1  0.582633  0.273071  0.588555  1
  O  O20  1  0.619038  0.328969  0.236494  1
  O  O21  1  0.610449  0.650902  0.096995  1
  F  F22  1  0.104862  0.335889  0.251508  1
  F  F23  1  0.091986  0.632214  0.088528  1
  F  F24  1  0.087316  0.293687  0.592407  1
  F  F25  1  0.353992  0.829508  0.251527  1
  F  F26  1  0.394664  0.252705  0.755026  1
  F  F27  1  0.629048  0.263290  0.926405  1
  F  F28  1  0.647351  0.768170  0.399568  1
  F  F29  1  0.701469  0.764414  0.730717  1
  F  F30  1  0.875771  0.283152  0.422225  1
  F  F31  1  0.861572  0.127532  0.084603  1
  F  F32  1  0.914967  0.265242  0.764516  1
  F  F33  1  0.822110  0.801959  0.557070  1
  F  F34  1  0.858001  0.786554  0.912737  1
  F  F35  1  0.857234  0.864966  0.246764  1
