# generated using pymatgen
data_LiFePO4
_symmetry_space_group_name_H-M   'P 1'
_cell_length_a   5.14273642
_cell_length_b   5.15529099
_cell_length_c   8.20332368
_cell_angle_alpha   87.72865891
_cell_angle_beta   94.55738369
_cell_angle_gamma   119.91946790
_symmetry_Int_Tables_number   1
_chemical_formula_structural   LiFePO4
_chemical_formula_sum   'Li2 Fe2 P2 O8'
_cell_volume   187.90765892
_cell_formula_units_Z   2
loop_
 _symmetry_equiv_pos_site_id
 _symmetry_equiv_pos_as_xyz
  1  'x, y, z'
loop_
 _atom_site_type_symbol
 _atom_site_label
 _atom_site_symmetry_multiplicity
 _atom_site_fract_x
 _atom_site_fract_y
 _atom_site_fract_z
 _atom_site_occupancy
  Li  Li0  1  0.966053  0.154509  0.963259  1
  Li  Li1  1  0.811544  0.845491  0.463259  1
  Fe  Fe2  1  0.250467  0.594884  0.296258  1
  Fe  Fe3  1  0.655582  0.405116  0.796258  1
  P  P4  1  0.321747  0.687421  0.705396  1
  P  P5  1  0.634326  0.312579  0.205396  1
  O  O6  1  0.027837  0.703249  0.687422  1
  O  O7  1  0.400825  0.614379  0.540440  1
  O  O8  1  0.282574  0.429246  0.825033  1
  O  O9  1  0.591511  0.982876  0.773591  1
  O  O10  1  0.324588  0.296751  0.187422  1
  O  O11  1  0.786445  0.385621  0.040440  1
  O  O12  1  0.853328  0.570754  0.325033  1
  O  O13  1  0.608635  0.017124  0.273591  1
