# generated using pymatgen
data_LiMo2(PO4)3
_symmetry_space_group_name_H-M   'P 1'
_cell_length_a   8.92967767
_cell_length_b   8.92124749
_cell_length_c   8.92967774
_cell_angle_alpha   120.51043471
_cell_angle_beta   120.71755657
_cell_angle_gamma   59.48956656
_symmetry_Int_Tables_number   1
_chemical_formula_structural   LiMo2(PO4)3
_chemical_formula_sum   'Li2 Mo4 P6 O24'
_cell_volume   496.37967333
_cell_formula_units_Z   2
loop_
 _symmetry_equiv_pos_site_id
 _symmetry_equiv_pos_as_xyz
  1  'x, y, z'
loop_
 _atom_site_type_symbol
 _atom_site_label
 _atom_site_symmetry_multiplicity
 _atom_site_fract_x
 _atom_site_fract_y
 _atom_site_fract_z
 _atom_site_occupancy
  Li  Li0  1  0.040736  0.647192  0.642321  1
  Li  Li1  1  0.357679  0.147192  0.959264  1
  Mo  Mo2  1  0.360510  0.861011  0.143848  1
  Mo  Mo3  1  0.145090  0.635936  0.354491  1
  Mo  Mo4  1  0.856152  0.361011  0.639490  1
  Mo  Mo5  1  0.645509  0.135936  0.854910  1
  O  O6  1  0.116807  0.807945  0.982696  1
  O  O7  1  0.003753  0.700486  0.114522  1
  O  O8  1  0.212545  0.866896  0.495846  1
  O  O9  1  0.058940  0.417858  0.222587  1
  O  O10  1  0.591459  0.929368  0.281002  1
  O  O11  1  0.017304  0.307945  0.883193  1
  O  O12  1  0.276723  0.565421  0.595875  1
  O  O13  1  0.704740  0.975394  0.620201  1
  O  O14  1  0.445349  0.713784  0.923269  1
  O  O15  1  0.492362  0.623992  0.210354  1
  O  O16  1  0.777413  0.917858  0.941060  1
  O  O17  1  0.076731  0.213784  0.554651  1
  O  O18  1  0.379799  0.475394  0.295260  1
  O  O19  1  0.624005  0.517510  0.710766  1
  O  O20  1  0.926295  0.778195  0.454849  1
  O  O21  1  0.232605  0.094792  0.056542  1
  O  O22  1  0.504154  0.366896  0.787455  1
  O  O23  1  0.289234  0.017510  0.375995  1
  O  O24  1  0.545151  0.278195  0.073705  1
  O  O25  1  0.718998  0.429368  0.408541  1
  O  O26  1  0.404125  0.065421  0.723277  1
  O  O27  1  0.943458  0.594792  0.767395  1
  O  O28  1  0.789646  0.123992  0.507638  1
  O  O29  1  0.885478  0.200486  0.996247  1
  P  P30  1  0.752712  0.956145  0.466075  1
  P  P31  1  0.042541  0.253611  0.037778  1
  P  P32  1  0.466682  0.538028  0.753451  1
  P  P33  1  0.533925  0.456145  0.247288  1
  P  P34  1  0.962222  0.753611  0.957459  1
  P  P35  1  0.246549  0.038028  0.533318  1
