# generated using pymatgen
data_Li4Fe3NiO8
_symmetry_space_group_name_H-M   'P 1'
_cell_length_a   5.54519296
_cell_length_b   6.49334081
_cell_length_c   5.11107325
_cell_angle_alpha   89.95394934
_cell_angle_beta   90.13192056
_cell_angle_gamma   90.07568119
_symmetry_Int_Tables_number   1
_chemical_formula_structural   Li4Fe3NiO8
_chemical_formula_sum   'Li4 Fe3 Ni1 O8'
_cell_volume   184.03282654
_cell_formula_units_Z   1
loop_
 _symmetry_equiv_pos_site_id
 _symmetry_equiv_pos_as_xyz
  1  'x, y, z'
loop_
 _atom_site_type_symbol
 _atom_site_label
 _atom_site_symmetry_multiplicity
 _atom_site_fract_x
 _atom_site_fract_y
 _atom_site_fract_z
 _atom_site_occupancy
  Li  Li0  1  0.081846  0.625299  0.993048  1
  Li  Li1  1  0.418772  0.123043  0.497962  1
  Li  Li2  1  0.584434  0.875949  0.993412  1
  Li  Li3  1  0.915911  0.375538  0.497697  1
  Fe  Fe4  1  0.082275  0.122833  0.000799  1
  Fe  Fe5  1  0.415854  0.629718  0.497775  1
  Fe  Fe6  1  0.582724  0.374271  0.998126  1
  Ni  Ni7  1  0.915925  0.872477  0.499790  1
  O  O8  1  0.068631  0.108802  0.370165  1
  O  O9  1  0.089800  0.641624  0.391966  1
  O  O10  1  0.411473  0.132920  0.890953  1
  O  O11  1  0.426283  0.617064  0.873811  1
  O  O12  1  0.569351  0.385446  0.373663  1
  O  O13  1  0.596021  0.863226  0.392112  1
  O  O14  1  0.912109  0.365144  0.891543  1
  O  O15  1  0.928591  0.886645  0.863578  1
