# generated using pymatgen
data_Na3MnSiCO7
_symmetry_space_group_name_H-M   'P 1'
_cell_length_a   9.15891175
_cell_length_b   6.49056337
_cell_length_c   5.31201909
_cell_angle_alpha   90.00000000
_cell_angle_beta   88.43678299
_cell_angle_gamma   90.00000000
_symmetry_Int_Tables_number   1
_chemical_formula_structural   Na3MnSiCO7
_chemical_formula_sum   'Na6 Mn2 Si2 C2 O14'
_cell_volume   315.66340496
_cell_formula_units_Z   2
loop_
 _symmetry_equiv_pos_site_id
 _symmetry_equiv_pos_as_xyz
  1  'x, y, z'
loop_
 _atom_site_type_symbol
 _atom_site_label
 _atom_site_symmetry_multiplicity
 _atom_site_fract_x
 _atom_site_fract_y
 _atom_site_fract_z
 _atom_site_occupancy
  Na  Na0  1  0.087946  0.250000  0.774657  1
  Na  Na1  1  0.267184  0.007863  0.256139  1
  Na  Na2  1  0.267184  0.492137  0.256139  1
  Na  Na3  1  0.732816  0.507863  0.743861  1
  Na  Na4  1  0.732816  0.992137  0.743861  1
  Na  Na5  1  0.912054  0.750000  0.225343  1
  Mn  Mn6  1  0.351912  0.750000  0.781259  1
  Mn  Mn7  1  0.648088  0.250000  0.218741  1
  Si  Si8  1  0.427762  0.250000  0.697564  1
  Si  Si9  1  0.572238  0.750000  0.302436  1
  C  C10  1  0.057262  0.750000  0.715621  1
  C  C11  1  0.942738  0.250000  0.284379  1
  O  O12  1  0.083234  0.250000  0.251850  1
  O  O13  1  0.137723  0.750000  0.916936  1
  O  O14  1  0.119331  0.750000  0.495323  1
  O  O15  1  0.319859  0.050275  0.760885  1
  O  O16  1  0.319859  0.449725  0.760885  1
  O  O17  1  0.459926  0.250000  0.387465  1
  O  O18  1  0.421208  0.750000  0.152952  1
  O  O19  1  0.578792  0.250000  0.847048  1
  O  O20  1  0.540074  0.750000  0.612535  1
  O  O21  1  0.680141  0.550275  0.239115  1
  O  O22  1  0.680141  0.949725  0.239115  1
  O  O23  1  0.880669  0.250000  0.504677  1
  O  O24  1  0.862277  0.250000  0.083064  1
  O  O25  1  0.916766  0.750000  0.748150  1
