# generated using pymatgen
data_Li3V3P8O29
_symmetry_space_group_name_H-M   'P 1'
_cell_length_a   9.76165171
_cell_length_b   9.76987865
_cell_length_c   14.02539624
_cell_angle_alpha   89.98243322
_cell_angle_beta   90.50507305
_cell_angle_gamma   60.02058055
_symmetry_Int_Tables_number   1
_chemical_formula_structural   Li3V3P8O29
_chemical_formula_sum   'Li6 V6 P16 O58'
_cell_volume   1158.57720131
_cell_formula_units_Z   2
loop_
 _symmetry_equiv_pos_site_id
 _symmetry_equiv_pos_as_xyz
  1  'x, y, z'
loop_
 _atom_site_type_symbol
 _atom_site_label
 _atom_site_symmetry_multiplicity
 _atom_site_fract_x
 _atom_site_fract_y
 _atom_site_fract_z
 _atom_site_occupancy
  Li  Li0  1  0.776316  0.317575  0.053503  1
  Li  Li1  1  0.314703  0.910214  0.058266  1
  Li  Li2  1  0.669815  0.233522  0.443486  1
  Li  Li3  1  0.333124  0.765341  0.561578  1
  Li  Li4  1  0.683950  0.086446  0.936729  1
  Li  Li5  1  0.999623  0.000640  0.504751  1
  V  V6  1  0.564449  0.437295  0.249593  1
  V  V7  1  0.428048  0.566107  0.755110  1
  V  V8  1  0.570202  0.990668  0.743968  1
  V  V9  1  0.431964  0.007078  0.254938  1
  V  V10  1  0.998894  0.565403  0.250613  1
  V  V11  1  0.000065  0.437556  0.748553  1
  P  P12  1  0.918087  0.771107  0.844441  1
  P  P13  1  0.777942  0.913388  0.339909  1
  P  P14  1  0.917160  0.307588  0.345231  1
  P  P15  1  0.663449  0.669495  0.129961  1
  P  P16  1  0.663828  0.662757  0.628007  1
  P  P17  1  0.773255  0.318295  0.839144  1
  P  P18  1  0.682812  0.228522  0.658313  1
  P  P19  1  0.317532  0.914015  0.843346  1
  P  P20  1  0.681465  0.088345  0.155519  1
  P  P21  1  0.313839  0.774076  0.342468  1
  P  P22  1  0.224256  0.686077  0.159181  1
  P  P23  1  0.334215  0.336169  0.371307  1
  P  P24  1  0.337282  0.326022  0.871213  1
  P  P25  1  0.082134  0.694559  0.655915  1
  P  P26  1  0.221484  0.087903  0.659839  1
  P  P27  1  0.083779  0.229577  0.158254  1
  O  O28  1  0.006009  0.787894  0.568424  1
  O  O29  1  0.914466  0.741495  0.335248  1
  O  O30  1  0.747969  0.012344  0.063165  1
  O  O31  1  0.744501  0.914711  0.836374  1
  O  O32  1  0.910766  0.617163  0.821903  1
  O  O33  1  0.813210  0.663268  0.177567  1
  O  O34  1  0.916813  0.465647  0.328921  1
  O  O35  1  0.993055  0.238872  0.070903  1
  O  O36  1  0.915435  0.344049  0.835451  1
  O  O37  1  0.667425  0.812438  0.673591  1
  O  O38  1  0.617952  0.913860  0.327282  1
  O  O39  1  0.812296  0.517829  0.673728  1
  O  O40  1  0.665279  0.658919  0.024398  1
  O  O41  1  0.659041  0.672020  0.522336  1
  O  O42  1  0.665532  0.516037  0.173557  1
  O  O43  1  0.477394  0.905495  0.821339  1
  O  O44  1  0.514740  0.818455  0.170290  1
  O  O45  1  0.741425  0.342663  0.336501  1
  O  O46  1  0.794710  0.206467  0.749390  1
  O  O47  1  0.765522  0.218746  0.567535  1
  O  O48  1  0.757127  0.243511  0.928591  1
  O  O49  1  0.618748  0.478584  0.821260  1
  O  O50  1  0.510524  0.670541  0.668105  1
  O  O51  1  0.659070  0.258026  0.162617  1
  O  O52  1  0.473005  0.618116  0.325210  1
  O  O53  1  0.345198  0.913865  0.330397  1
  O  O54  1  0.796857  0.993887  0.243441  1
  O  O55  1  0.781042  0.006012  0.423413  1
  O  O56  1  0.216058  0.995202  0.576732  1
  O  O57  1  0.652150  0.087787  0.668188  1
  O  O58  1  0.527011  0.384584  0.673507  1
  O  O59  1  0.344408  0.743430  0.832558  1
  O  O60  1  0.488967  0.328935  0.329653  1
  O  O61  1  0.380537  0.524689  0.179164  1
  O  O62  1  0.240202  0.765554  0.074028  1
  O  O63  1  0.240047  0.777225  0.435271  1
  O  O64  1  0.201045  0.791770  0.254336  1
  O  O65  1  0.258174  0.658117  0.663580  1
  O  O66  1  0.487018  0.178773  0.830284  1
  O  O67  1  0.522005  0.096326  0.178994  1
  O  O68  1  0.339463  0.476615  0.824583  1
  O  O69  1  0.340149  0.333020  0.976654  1
  O  O70  1  0.344992  0.327342  0.476800  1
  O  O71  1  0.187534  0.481856  0.326344  1
  O  O72  1  0.381751  0.085664  0.671811  1
  O  O73  1  0.332446  0.186589  0.326019  1
  O  O74  1  0.084404  0.655639  0.164920  1
  O  O75  1  0.000682  0.794677  0.750723  1
  O  O76  1  0.000166  0.764769  0.934023  1
  O  O77  1  0.082972  0.535560  0.670229  1
  O  O78  1  0.186690  0.336030  0.823409  1
  O  O79  1  0.091199  0.382889  0.177275  1
  O  O80  1  0.255049  0.085596  0.161170  1
  O  O81  1  0.250132  0.990386  0.935358  1
  O  O82  1  0.201012  0.008499  0.756261  1
  O  O83  1  0.085301  0.259981  0.664476  1
  O  O84  1  0.993753  0.214539  0.432549  1
  O  O85  1  0.001008  0.205115  0.250921  1
