# generated using pymatgen
data_Na3SnAsCO7
_symmetry_space_group_name_H-M   'P 1'
_cell_length_a   9.59757553
_cell_length_b   7.45314710
_cell_length_c   5.34704075
_cell_angle_alpha   90.00000000
_cell_angle_beta   91.41101041
_cell_angle_gamma   90.00000000
_symmetry_Int_Tables_number   1
_chemical_formula_structural   Na3SnAsCO7
_chemical_formula_sum   'Na6 Sn2 As2 C2 O14'
_cell_volume   382.36930067
_cell_formula_units_Z   2
loop_
 _symmetry_equiv_pos_site_id
 _symmetry_equiv_pos_as_xyz
  1  'x, y, z'
loop_
 _atom_site_type_symbol
 _atom_site_label
 _atom_site_symmetry_multiplicity
 _atom_site_fract_x
 _atom_site_fract_y
 _atom_site_fract_z
 _atom_site_occupancy
  Na  Na0  1  0.079268  0.250000  0.768382  1
  Na  Na1  1  0.251106  0.008082  0.245337  1
  Na  Na2  1  0.251106  0.491918  0.245337  1
  Na  Na3  1  0.748894  0.508082  0.754663  1
  Na  Na4  1  0.748894  0.991918  0.754663  1
  Na  Na5  1  0.920732  0.750000  0.231618  1
  Sn  Sn6  1  0.356837  0.750000  0.766968  1
  Sn  Sn7  1  0.643163  0.250000  0.233032  1
  As  As8  1  0.399205  0.250000  0.708752  1
  As  As9  1  0.600795  0.750000  0.291248  1
  C  C10  1  0.049347  0.750000  0.730447  1
  C  C11  1  0.950653  0.250000  0.269553  1
  O  O12  1  0.085204  0.250000  0.274756  1
  O  O13  1  0.118012  0.750000  0.946409  1
  O  O14  1  0.117557  0.750000  0.521976  1
  O  O15  1  0.305491  0.067539  0.813395  1
  O  O16  1  0.305491  0.432461  0.813395  1
  O  O17  1  0.394673  0.250000  0.386872  1
  O  O18  1  0.425479  0.750000  0.194864  1
  O  O19  1  0.574521  0.250000  0.805136  1
  O  O20  1  0.605327  0.750000  0.613128  1
  O  O21  1  0.694509  0.567539  0.186605  1
  O  O22  1  0.694509  0.932461  0.186605  1
  O  O23  1  0.882443  0.250000  0.478024  1
  O  O24  1  0.881988  0.250000  0.053591  1
  O  O25  1  0.914796  0.750000  0.725244  1
