# generated using pymatgen
data_Li2TiCo3(PO4)6
_symmetry_space_group_name_H-M   'P 1'
_cell_length_a   8.57004617
_cell_length_b   8.57004589
_cell_length_c   8.57004581
_cell_angle_alpha   59.92858478
_cell_angle_beta   59.92858533
_cell_angle_gamma   59.92858191
_symmetry_Int_Tables_number   1
_chemical_formula_structural   Li2TiCo3(PO4)6
_chemical_formula_sum   'Li2 Ti1 Co3 P6 O24'
_cell_volume   444.35530360
_cell_formula_units_Z   1
loop_
 _symmetry_equiv_pos_site_id
 _symmetry_equiv_pos_as_xyz
  1  'x, y, z'
loop_
 _atom_site_type_symbol
 _atom_site_label
 _atom_site_symmetry_multiplicity
 _atom_site_fract_x
 _atom_site_fract_y
 _atom_site_fract_z
 _atom_site_occupancy
  Li  Li0  1  0.008972  0.008972  0.008972  1
  Li  Li1  1  0.502527  0.502527  0.502527  1
  Ti  Ti2  1  0.858284  0.858284  0.858284  1
  Co  Co3  1  0.145265  0.145265  0.145265  1
  Co  Co4  1  0.356661  0.356661  0.356661  1
  Co  Co5  1  0.642562  0.642562  0.642562  1
  P  P6  1  0.035933  0.750331  0.459717  1
  P  P7  1  0.459717  0.035933  0.750331  1
  P  P8  1  0.750331  0.459717  0.035933  1
  P  P9  1  0.257435  0.539740  0.954821  1
  P  P10  1  0.539740  0.954821  0.257435  1
  P  P11  1  0.954821  0.257435  0.539740  1
  O  O12  1  0.122385  0.305790  0.504710  1
  O  O13  1  0.305790  0.504710  0.122385  1
  O  O14  1  0.058921  0.914267  0.265446  1
  O  O15  1  0.504710  0.122385  0.305790  1
  O  O16  1  0.228216  0.582254  0.446922  1
  O  O17  1  0.995363  0.808427  0.623497  1
  O  O18  1  0.265446  0.058921  0.914267  1
  O  O19  1  0.446922  0.228216  0.582254  1
  O  O20  1  0.582254  0.446922  0.228216  1
  O  O21  1  0.206305  0.375969  0.987184  1
  O  O22  1  0.090405  0.732260  0.932962  1
  O  O23  1  0.375969  0.987184  0.206305  1
  O  O24  1  0.623497  0.995363  0.808427  1
  O  O25  1  0.914267  0.265446  0.058921  1
  O  O26  1  0.808427  0.623497  0.995363  1
  O  O27  1  0.427060  0.556225  0.761674  1
  O  O28  1  0.556225  0.761674  0.427060  1
  O  O29  1  0.732260  0.932962  0.090405  1
  O  O30  1  0.987184  0.206305  0.375969  1
  O  O31  1  0.761674  0.427060  0.556225  1
  O  O32  1  0.489003  0.869278  0.703228  1
  O  O33  1  0.932962  0.090405  0.732260  1
  O  O34  1  0.703228  0.489003  0.869278  1
  O  O35  1  0.869278  0.703228  0.489003  1
