# generated using pymatgen
data_Li2Ti3CoO8
_symmetry_space_group_name_H-M   'P 1'
_cell_length_a   5.95391183
_cell_length_b   5.95391232
_cell_length_c   5.95391175
_cell_angle_alpha   60.28030545
_cell_angle_beta   60.28030091
_cell_angle_gamma   60.28030151
_symmetry_Int_Tables_number   1
_chemical_formula_structural   Li2Ti3CoO8
_chemical_formula_sum   'Li2 Ti3 Co1 O8'
_cell_volume   150.18917063
_cell_formula_units_Z   1
loop_
 _symmetry_equiv_pos_site_id
 _symmetry_equiv_pos_as_xyz
  1  'x, y, z'
loop_
 _atom_site_type_symbol
 _atom_site_label
 _atom_site_symmetry_multiplicity
 _atom_site_fract_x
 _atom_site_fract_y
 _atom_site_fract_z
 _atom_site_occupancy
  Li  Li0  1  0.119945  0.119945  0.119945  1
  Li  Li1  1  0.500563  0.500563  0.500563  1
  Ti  Ti2  1  0.006944  0.498515  0.498515  1
  Ti  Ti3  1  0.498515  0.498515  0.006944  1
  Ti  Ti4  1  0.498515  0.006944  0.498515  1
  Co  Co5  1  0.882583  0.882583  0.882583  1
  O  O6  1  0.259570  0.259570  0.259570  1
  O  O7  1  0.250898  0.709167  0.250898  1
  O  O8  1  0.250898  0.250898  0.709167  1
  O  O9  1  0.709167  0.250898  0.250898  1
  O  O10  1  0.286678  0.746783  0.746783  1
  O  O11  1  0.746783  0.746783  0.286678  1
  O  O12  1  0.746783  0.286678  0.746783  1
  O  O13  1  0.742159  0.742159  0.742159  1
