# generated using pymatgen
data_Li5Mn2Cu5O12
_symmetry_space_group_name_H-M   'P 1'
_cell_length_a   5.08283248
_cell_length_b   5.08283202
_cell_length_c   9.74759777
_cell_angle_alpha   92.81525002
_cell_angle_beta   92.81525052
_cell_angle_gamma   118.35355516
_symmetry_Int_Tables_number   1
_chemical_formula_structural   Li5Mn2Cu5O12
_chemical_formula_sum   'Li5 Mn2 Cu5 O12'
_cell_volume   220.59927446
_cell_formula_units_Z   1
loop_
 _symmetry_equiv_pos_site_id
 _symmetry_equiv_pos_as_xyz
  1  'x, y, z'
loop_
 _atom_site_type_symbol
 _atom_site_label
 _atom_site_symmetry_multiplicity
 _atom_site_fract_x
 _atom_site_fract_y
 _atom_site_fract_z
 _atom_site_occupancy
  Li  Li0  1  0.830034  0.656475  0.489605  1
  Li  Li1  1  0.343525  0.169966  0.010395  1
  Li  Li2  1  0.668868  0.838513  0.006159  1
  Li  Li3  1  0.161487  0.331132  0.493841  1
  Li  Li4  1  0.091690  0.908306  0.250000  1
  Mn  Mn5  1  0.750912  0.249088  0.250000  1
  Mn  Mn6  1  0.248347  0.751653  0.750000  1
  Cu  Cu7  1  0.911967  0.088033  0.750000  1
  Cu  Cu8  1  0.585075  0.414925  0.750000  1
  Cu  Cu9  1  0.415807  0.584193  0.250000  1
  Cu  Cu10  1  0.494983  -0.000132  0.496960  1
  Cu  Cu11  1  0.000132  0.505017  0.003040  1
  O  O12  1  0.924861  0.427917  0.635913  1
  O  O13  1  0.953626  0.761890  0.869919  1
  O  O14  1  0.572083  0.075139  0.864087  1
  O  O15  1  0.716228  0.529394  0.129354  1
  O  O16  1  0.470606  0.283772  0.370646  1
  O  O17  1  0.758093  0.954702  0.370193  1
  O  O18  1  0.238110  0.046374  0.630081  1
  O  O19  1  0.545862  0.741640  0.633172  1
  O  O20  1  0.258360  0.454138  0.866828  1
  O  O21  1  0.425016  0.912400  0.139990  1
  O  O22  1  0.045298  0.241907  0.129807  1
  O  O23  1  0.087600  0.574984  0.360010  1
