# generated using pymatgen
data_Na4(WO3)9
_symmetry_space_group_name_H-M   'P 1'
_cell_length_a   11.69819707
_cell_length_b   9.54649899
_cell_length_c   5.51417328
_cell_angle_alpha   106.78706749
_cell_angle_beta   89.99816749
_cell_angle_gamma   114.08953396
_symmetry_Int_Tables_number   1
_chemical_formula_structural   Na4(WO3)9
_chemical_formula_sum   'Na4 W9 O27'
_cell_volume   533.30146532
_cell_formula_units_Z   1
loop_
 _symmetry_equiv_pos_site_id
 _symmetry_equiv_pos_as_xyz
  1  'x, y, z'
loop_
 _atom_site_type_symbol
 _atom_site_label
 _atom_site_symmetry_multiplicity
 _atom_site_fract_x
 _atom_site_fract_y
 _atom_site_fract_z
 _atom_site_occupancy
  Na  Na0  1  0.889312  0.666659  0.333322  1
  Na  Na1  1  0.333510  0.000127  0.000065  1
  Na  Na2  1  0.555146  0.666669  0.333321  1
  Na  Na3  1  0.110921  0.333216  0.666614  1
  W  W4  1  0.942321  0.330499  0.165266  1
  W  W5  1  0.832852  0.002164  0.501087  1
  W  W6  1  0.722221  0.666659  0.833352  1
  W  W7  1  0.502128  0.002809  0.501437  1
  W  W8  1  0.611579  0.331146  0.165578  1
  W  W9  1  0.389324  0.667900  0.833963  1
  W  W10  1  0.166551  0.999697  0.499838  1
  W  W11  1  0.277890  0.333645  0.166801  1
  W  W12  1  0.055119  0.665402  0.832698  1
  O  O13  1  0.890736  0.168042  0.831572  1
  O  O14  1  0.890741  0.168045  0.336468  1
  O  O15  1  0.888993  0.666693  0.833335  1
  O  O16  1  0.665747  0.997342  0.498679  1
  O  O17  1  0.778693  0.335983  0.168007  1
  O  O18  1  0.776660  0.830213  0.660591  1
  O  O19  1  0.667795  0.503133  0.006080  1
  O  O20  1  0.553706  0.165309  0.835086  1
  O  O21  1  0.667790  0.503139  0.497043  1
  O  O22  1  0.553706  0.165303  0.330208  1
  O  O23  1  0.776660  0.830218  0.169621  1
  O  O24  1  0.555457  0.666667  0.833321  1
  O  O25  1  0.333347  0.000257  0.500126  1
  O  O26  1  0.444256  0.333041  0.166526  1
  O  O27  1  0.222221  0.166672  0.333328  1
  O  O28  1  0.222224  0.166680  0.833320  1
  O  O29  1  0.333412  0.500263  0.500309  1
  O  O30  1  0.444614  0.833629  0.666783  1
  O  O31  1  0.333411  0.500264  0.999950  1
  O  O32  1  0.444612  0.833622  0.166864  1
  O  O33  1  0.222224  0.666679  0.833327  1
  O  O34  1  0.000186  0.000283  0.500139  1
  O  O35  1  0.111095  0.333066  0.166538  1
  O  O36  1  0.111036  0.833069  0.666717  1
  O  O37  1  0.999830  0.499702  0.499813  1
  O  O38  1  0.999831  0.499701  0.999881  1
  O  O39  1  0.111032  0.833060  0.166361  1
