# generated using pymatgen
data_FeOF
_symmetry_space_group_name_H-M   'P 1'
_cell_length_a   14.19304955
_cell_length_b   9.52001945
_cell_length_c   3.07153478
_cell_angle_alpha   90.00000000
_cell_angle_beta   90.00000000
_cell_angle_gamma   90.34994849
_symmetry_Int_Tables_number   1
_chemical_formula_structural   FeOF
_chemical_formula_sum   'Fe12 O12 F12'
_cell_volume   415.01222639
_cell_formula_units_Z   12
loop_
 _symmetry_equiv_pos_site_id
 _symmetry_equiv_pos_as_xyz
  1  'x, y, z'
loop_
 _atom_site_type_symbol
 _atom_site_label
 _atom_site_symmetry_multiplicity
 _atom_site_fract_x
 _atom_site_fract_y
 _atom_site_fract_z
 _atom_site_occupancy
  Fe  Fe0  1  0.014102  -0.004204  0.000000  1
  Fe  Fe1  1  0.004647  0.507224  0.000000  1
  Fe  Fe2  1  0.171583  0.223308  0.500000  1
  Fe  Fe3  1  0.151409  0.743789  0.500000  1
  Fe  Fe4  1  0.340260  0.006798  0.000000  1
  Fe  Fe5  1  0.344658  0.500715  0.000000  1
  Fe  Fe6  1  0.484277  0.755276  0.500000  1
  Fe  Fe7  1  0.487211  0.251666  0.500000  1
  Fe  Fe8  1  0.680308  0.005417  0.000000  1
  Fe  Fe9  1  0.680709  0.495065  0.000000  1
  Fe  Fe10  1  0.823777  0.252382  0.500000  1
  Fe  Fe11  1  0.817768  0.751901  0.500000  1
  O  O12  1  0.065648  0.896753  0.500000  1
  O  O13  1  0.101593  0.154592  0.000000  1
  O  O14  1  0.099306  0.650180  0.000000  1
  O  O15  1  0.271683  0.091270  0.500000  1
  O  O16  1  0.396931  0.406205  0.500000  1
  O  O17  1  0.395032  0.905290  0.500000  1
  O  O18  1  0.440301  0.154015  0.000000  1
  O  O19  1  0.434631  0.656227  0.000000  1
  O  O20  1  0.735283  0.398854  0.500000  1
  O  O21  1  0.730796  0.906831  0.500000  1
  O  O22  1  0.770223  0.160553  0.000000  1
  O  O23  1  0.768885  0.653241  0.000000  1
  F  F24  1  0.067066  0.401457  0.500000  1
  F  F25  1  0.231144  0.349872  0.000000  1
  F  F26  1  0.222671  0.833261  0.000000  1
  F  F27  1  0.263352  0.597588  0.500000  1
  F  F28  1  0.567769  0.352314  0.000000  1
  F  F29  1  0.564858  0.851356  0.000000  1
  F  F30  1  0.602406  0.100330  0.500000  1
  F  F31  1  0.603911  0.594386  0.500000  1
  F  F32  1  0.899315  0.348903  0.000000  1
  F  F33  1  0.899275  0.849061  0.000000  1
  F  F34  1  0.934682  0.096731  0.500000  1
  F  F35  1  0.932526  0.601393  0.500000  1
