# generated using pymatgen
data_Mn3O5F
_symmetry_space_group_name_H-M   'P 1'
_cell_length_a   4.55773324
_cell_length_b   7.53482470
_cell_length_c   5.44883258
_cell_angle_alpha   93.70808099
_cell_angle_beta   92.10287996
_cell_angle_gamma   88.59192737
_symmetry_Int_Tables_number   1
_chemical_formula_structural   Mn3O5F
_chemical_formula_sum   'Mn6 O10 F2'
_cell_volume   186.55855175
_cell_formula_units_Z   2
loop_
 _symmetry_equiv_pos_site_id
 _symmetry_equiv_pos_as_xyz
  1  'x, y, z'
loop_
 _atom_site_type_symbol
 _atom_site_label
 _atom_site_symmetry_multiplicity
 _atom_site_fract_x
 _atom_site_fract_y
 _atom_site_fract_z
 _atom_site_occupancy
  Mn  Mn0  1  0.494908  0.999136  0.504651  1
  Mn  Mn1  1  0.500000  0.666667  0.166667  1
  Mn  Mn2  1  0.505092  0.334198  0.828682  1
  Mn  Mn3  1  0.000000  0.666667  0.666667  1
  Mn  Mn4  1  0.979513  0.317911  0.336349  1
  Mn  Mn5  1  0.020487  0.015422  0.996984  1
  O  O6  1  0.798955  0.429882  0.623090  1
  O  O7  1  0.805527  0.099340  0.291669  1
  O  O8  1  0.693212  0.102625  0.798396  1
  O  O9  1  0.687141  0.767463  0.469683  1
  O  O10  1  0.705144  0.435860  0.121084  1
  O  O11  1  0.312859  0.565871  0.863650  1
  O  O12  1  0.306788  0.230708  0.534937  1
  O  O13  1  0.294856  0.897473  0.212249  1
  O  O14  1  0.194473  0.233993  0.041664  1
  O  O15  1  0.201045  0.903451  0.710243  1
  F  F16  1  0.816876  0.786693  0.973283  1
  F  F17  1  0.183124  0.546641  0.360051  1
