# generated using pymatgen
data_Fe4O5F3
_symmetry_space_group_name_H-M   'P 1'
_cell_length_a   4.74062824
_cell_length_b   9.94229035
_cell_length_c   6.07288022
_cell_angle_alpha   72.29935183
_cell_angle_beta   90.10271515
_cell_angle_gamma   87.82458859
_symmetry_Int_Tables_number   1
_chemical_formula_structural   Fe4O5F3
_chemical_formula_sum   'Fe8 O10 F6'
_cell_volume   272.45725684
_cell_formula_units_Z   2
loop_
 _symmetry_equiv_pos_site_id
 _symmetry_equiv_pos_as_xyz
  1  'x, y, z'
loop_
 _atom_site_type_symbol
 _atom_site_label
 _atom_site_symmetry_multiplicity
 _atom_site_fract_x
 _atom_site_fract_y
 _atom_site_fract_z
 _atom_site_occupancy
  Fe  Fe0  1  0.490779  0.245530  0.627467  1
  Fe  Fe1  1  0.489619  0.743230  0.871392  1
  Fe  Fe2  1  0.542234  0.769020  0.371092  1
  Fe  Fe3  1  0.520692  0.263617  0.116255  1
  Fe  Fe4  1  0.003545  0.008879  0.497312  1
  Fe  Fe5  1  0.978123  0.482957  0.754128  1
  Fe  Fe6  1  0.039167  0.990401  0.003723  1
  Fe  Fe7  1  0.938436  0.497306  0.260243  1
  O  O8  1  0.781416  0.396641  0.553203  1
  O  O9  1  0.794114  0.406742  0.046623  1
  O  O10  1  0.840519  0.911964  0.293966  1
  O  O11  1  0.697439  0.156277  0.419075  1
  O  O12  1  0.677169  0.657118  0.170643  1
  O  O13  1  0.685250  0.652806  0.673541  1
  O  O14  1  0.326571  0.845017  0.076138  1
  O  O15  1  0.318669  0.851481  0.575818  1
  O  O16  1  0.300107  0.340536  0.830308  1
  O  O17  1  0.198604  0.092120  0.704843  1
  F  F18  1  0.815064  0.899846  0.802362  1
  F  F19  1  0.711353  0.145492  0.929413  1
  F  F20  1  0.285231  0.352338  0.321299  1
  F  F21  1  0.180183  0.595508  0.953126  1
  F  F22  1  0.216988  0.104589  0.196306  1
  F  F23  1  0.168730  0.590584  0.451723  1
