# generated using pymatgen
data_Mn3(P2O7)2
_symmetry_space_group_name_H-M   'P 1'
_cell_length_a   8.91395963
_cell_length_b   12.46576398
_cell_length_c   10.59680320
_cell_angle_alpha   90.00000000
_cell_angle_beta   90.00000000
_cell_angle_gamma   90.00000000
_symmetry_Int_Tables_number   1
_chemical_formula_structural   Mn3(P2O7)2
_chemical_formula_sum   'Mn12 P16 O56'
_cell_volume   1177.50953264
_cell_formula_units_Z   4
loop_
 _symmetry_equiv_pos_site_id
 _symmetry_equiv_pos_as_xyz
  1  'x, y, z'
loop_
 _atom_site_type_symbol
 _atom_site_label
 _atom_site_symmetry_multiplicity
 _atom_site_fract_x
 _atom_site_fract_y
 _atom_site_fract_z
 _atom_site_occupancy
  Mn  Mn0  1  0.231777  0.750000  0.618621  1
  Mn  Mn1  1  0.246865  0.010929  0.122165  1
  Mn  Mn2  1  0.246865  0.489071  0.122165  1
  Mn  Mn3  1  0.253135  0.510929  0.622165  1
  Mn  Mn4  1  0.253135  0.989071  0.622165  1
  Mn  Mn5  1  0.268223  0.250000  0.118621  1
  Mn  Mn6  1  0.731777  0.750000  0.881379  1
  Mn  Mn7  1  0.746865  0.010929  0.377835  1
  Mn  Mn8  1  0.746865  0.489071  0.377835  1
  Mn  Mn9  1  0.753135  0.510929  0.877835  1
  Mn  Mn10  1  0.753135  0.989071  0.877835  1
  Mn  Mn11  1  0.768223  0.250000  0.381379  1
  P  P12  1  0.066094  0.627596  0.365433  1
  P  P13  1  0.066094  0.872404  0.365433  1
  P  P14  1  0.082073  0.630951  0.879344  1
  P  P15  1  0.082073  0.869049  0.879344  1
  P  P16  1  0.417927  0.369049  0.379344  1
  P  P17  1  0.417927  0.130951  0.379344  1
  P  P18  1  0.433906  0.127596  0.865433  1
  P  P19  1  0.433906  0.372404  0.865433  1
  P  P20  1  0.566094  0.872404  0.134567  1
  P  P21  1  0.566094  0.627596  0.134567  1
  P  P22  1  0.582073  0.869049  0.620656  1
  P  P23  1  0.582073  0.630951  0.620656  1
  P  P24  1  0.917927  0.130951  0.120656  1
  P  P25  1  0.917927  0.369049  0.120656  1
  P  P26  1  0.933906  0.127596  0.634567  1
  P  P27  1  0.933906  0.372404  0.634567  1
  O  O28  1  0.036887  0.750000  0.321148  1
  O  O29  1  0.089145  0.417926  0.601786  1
  O  O30  1  0.089145  0.082074  0.601786  1
  O  O31  1  0.092596  0.126759  0.127880  1
  O  O32  1  0.092596  0.373241  0.127880  1
  O  O33  1  0.116332  0.750000  0.933242  1
  O  O34  1  0.146692  0.551022  0.968214  1
  O  O35  1  0.146692  0.948978  0.968214  1
  O  O36  1  0.145032  0.573048  0.257876  1
  O  O37  1  0.145032  0.926952  0.257876  1
  O  O38  1  0.148193  0.627492  0.745761  1
  O  O39  1  0.148193  0.872508  0.745761  1
  O  O40  1  0.157334  0.632367  0.488371  1
  O  O41  1  0.157334  0.867633  0.488371  1
  O  O42  1  0.342666  0.132367  0.988371  1
  O  O43  1  0.342666  0.367633  0.988371  1
  O  O44  1  0.351807  0.127492  0.245761  1
  O  O45  1  0.351807  0.372508  0.245761  1
  O  O46  1  0.354968  0.073048  0.757876  1
  O  O47  1  0.354968  0.426952  0.757876  1
  O  O48  1  0.353308  0.051022  0.468214  1
  O  O49  1  0.353308  0.448978  0.468214  1
  O  O50  1  0.383668  0.250000  0.433242  1
  O  O51  1  0.407404  0.626759  0.627880  1
  O  O52  1  0.407404  0.873241  0.627880  1
  O  O53  1  0.410855  0.582074  0.101786  1
  O  O54  1  0.410855  0.917926  0.101786  1
  O  O55  1  0.463113  0.250000  0.821148  1
  O  O56  1  0.536887  0.750000  0.178852  1
  O  O57  1  0.589145  0.082074  0.898214  1
  O  O58  1  0.589145  0.417926  0.898214  1
  O  O59  1  0.592596  0.126759  0.372120  1
  O  O60  1  0.592596  0.373241  0.372120  1
  O  O61  1  0.616332  0.750000  0.566758  1
  O  O62  1  0.646692  0.551022  0.531786  1
  O  O63  1  0.646692  0.948978  0.531786  1
  O  O64  1  0.645032  0.573048  0.242124  1
  O  O65  1  0.645032  0.926952  0.242124  1
  O  O66  1  0.648193  0.872508  0.754239  1
  O  O67  1  0.648193  0.627492  0.754239  1
  O  O68  1  0.657334  0.867633  0.011629  1
  O  O69  1  0.657334  0.632367  0.011629  1
  O  O70  1  0.842666  0.132367  0.511629  1
  O  O71  1  0.842666  0.367633  0.511629  1
  O  O72  1  0.851807  0.127492  0.254239  1
  O  O73  1  0.851807  0.372508  0.254239  1
  O  O74  1  0.854968  0.073048  0.742124  1
  O  O75  1  0.854968  0.426952  0.742124  1
  O  O76  1  0.853308  0.051022  0.031786  1
  O  O77  1  0.853308  0.448978  0.031786  1
  O  O78  1  0.883668  0.250000  0.066758  1
  O  O79  1  0.907404  0.626759  0.872120  1
  O  O80  1  0.907404  0.873241  0.872120  1
  O  O81  1  0.910855  0.917926  0.398214  1
  O  O82  1  0.910855  0.582074  0.398214  1
  O  O83  1  0.963113  0.250000  0.678852  1
