# generated using pymatgen
data_Ba2La2Fe2Cu2O11
_symmetry_space_group_name_H-M   'P 1'
_cell_length_a   5.60291211
_cell_length_b   5.60291264
_cell_length_c   22.52770113
_cell_angle_alpha   119.83899895
_cell_angle_beta   119.83900222
_cell_angle_gamma   89.99122998
_symmetry_Int_Tables_number   1
_chemical_formula_structural   Ba2La2Fe2Cu2O11
_chemical_formula_sum   'Ba4 La4 Fe4 Cu4 O22'
_cell_volume   502.53025297
_cell_formula_units_Z   2
loop_
 _symmetry_equiv_pos_site_id
 _symmetry_equiv_pos_as_xyz
  1  'x, y, z'
loop_
 _atom_site_type_symbol
 _atom_site_label
 _atom_site_symmetry_multiplicity
 _atom_site_fract_x
 _atom_site_fract_y
 _atom_site_fract_z
 _atom_site_occupancy
  Ba  Ba0  1  0.257455  0.757441  0.378724  1
  Ba  Ba1  1  0.252536  0.752511  0.126255  1
  Ba  Ba2  1  0.757441  0.257455  0.378724  1
  Ba  Ba3  1  0.752511  0.252536  0.126255  1
  La  La4  1  0.254068  0.754073  0.877044  1
  La  La5  1  0.258881  0.758798  0.629405  1
  La  La6  1  0.754073  0.254068  0.877044  1
  La  La7  1  0.758798  0.258881  0.629405  1
  Fe  Fe8  1  0.495702  0.495702  0.747847  1
  Fe  Fe9  1  0.537474  0.537474  0.518733  1
  Fe  Fe10  1  0.531820  0.531820  0.265900  1
  Fe  Fe11  1  0.492910  0.492910  0.996447  1
  Cu  Cu12  1  0.006074  0.006074  0.753033  1
  Cu  Cu13  1  0.008782  0.008782  0.504398  1
  Cu  Cu14  1  0.976453  0.976453  0.238206  1
  Cu  Cu15  1  0.978486  0.978486  0.989233  1
  O  O16  1  0.249166  0.249166  0.874618  1
  O  O17  1  0.247176  0.247176  0.747257  1
  O  O18  1  0.247051  0.741879  0.747236  1
  O  O19  1  0.254910  0.254910  0.627510  1
  O  O20  1  0.728591  0.728591  0.864206  1
  O  O21  1  0.741879  0.247051  0.747236  1
  O  O22  1  0.741739  0.741739  0.747182  1
  O  O23  1  0.278217  0.278217  0.509787  1
  O  O24  1  0.278118  0.760795  0.509733  1
  O  O25  1  0.768175  0.768175  0.634065  1
  O  O26  1  0.760795  0.278118  0.509733  1
  O  O27  1  0.760574  0.760574  0.509639  1
  O  O28  1  0.249217  0.249217  0.247979  1
  O  O29  1  0.249038  0.742893  0.247988  1
  O  O30  1  0.764328  0.764328  0.382165  1
  O  O31  1  0.742893  0.249038  0.247988  1
  O  O32  1  0.742569  0.742569  0.247927  1
  O  O33  1  0.218896  0.218896  0.986770  1
  O  O34  1  0.218891  0.728243  0.986804  1
  O  O35  1  0.725906  0.725906  0.112953  1
  O  O36  1  0.728243  0.218891  0.986804  1
  O  O37  1  0.728167  0.728167  0.986764  1
