# generated using pymatgen
data_Na2SnBAsO7
_symmetry_space_group_name_H-M   'P 1'
_cell_length_a   9.51545982
_cell_length_b   6.94737977
_cell_length_c   5.52506566
_cell_angle_alpha   90.00000000
_cell_angle_beta   87.18629491
_cell_angle_gamma   90.00000000
_symmetry_Int_Tables_number   1
_chemical_formula_structural   Na2SnBAsO7
_chemical_formula_sum   'Na4 Sn2 B2 As2 O14'
_cell_volume   364.80801586
_cell_formula_units_Z   2
loop_
 _symmetry_equiv_pos_site_id
 _symmetry_equiv_pos_as_xyz
  1  'x, y, z'
loop_
 _atom_site_type_symbol
 _atom_site_label
 _atom_site_symmetry_multiplicity
 _atom_site_fract_x
 _atom_site_fract_y
 _atom_site_fract_z
 _atom_site_occupancy
  Na  Na0  1  0.177772  0.516650  0.235027  1
  Na  Na1  1  0.177772  0.983350  0.235027  1
  Na  Na2  1  0.822228  0.483350  0.764973  1
  Na  Na3  1  0.822228  0.016650  0.764973  1
  Sn  Sn4  1  0.337898  0.750000  0.775640  1
  Sn  Sn5  1  0.662102  0.250000  0.224360  1
  B  B6  1  0.073484  0.750000  0.722475  1
  B  B7  1  0.926516  0.250000  0.277525  1
  As  As8  1  0.431838  0.250000  0.728277  1
  As  As9  1  0.568162  0.750000  0.271723  1
  O  O10  1  0.062892  0.250000  0.310030  1
  O  O11  1  0.139701  0.750000  0.949760  1
  O  O12  1  0.182584  0.750000  0.529746  1
  O  O13  1  0.329862  0.055115  0.808572  1
  O  O14  1  0.329862  0.444885  0.808572  1
  O  O15  1  0.408732  0.750000  0.134721  1
  O  O16  1  0.467979  0.250000  0.414694  1
  O  O17  1  0.532021  0.750000  0.585306  1
  O  O18  1  0.591268  0.250000  0.865279  1
  O  O19  1  0.670138  0.555115  0.191428  1
  O  O20  1  0.670138  0.944885  0.191428  1
  O  O21  1  0.817416  0.250000  0.470254  1
  O  O22  1  0.860299  0.250000  0.050240  1
  O  O23  1  0.937108  0.750000  0.689970  1
