# generated using pymatgen
data_Li14Mn5F24
_symmetry_space_group_name_H-M   'P 1'
_cell_length_a   15.26753513
_cell_length_b   10.15400819
_cell_length_c   6.06882494
_cell_angle_alpha   90.00000000
_cell_angle_beta   90.00000000
_cell_angle_gamma   90.00000000
_symmetry_Int_Tables_number   1
_chemical_formula_structural   Li14Mn5F24
_chemical_formula_sum   'Li28 Mn10 F48'
_cell_volume   940.82976223
_cell_formula_units_Z   2
loop_
 _symmetry_equiv_pos_site_id
 _symmetry_equiv_pos_as_xyz
  1  'x, y, z'
loop_
 _atom_site_type_symbol
 _atom_site_label
 _atom_site_symmetry_multiplicity
 _atom_site_fract_x
 _atom_site_fract_y
 _atom_site_fract_z
 _atom_site_occupancy
  Li  Li0  1  0.000000  0.000000  0.500000  1
  Li  Li1  1  0.000000  0.500000  0.500000  1
  Li  Li2  1  0.010753  0.747855  0.250499  1
  Li  Li3  1  0.010753  0.747855  0.749501  1
  Li  Li4  1  0.165410  0.919860  0.256805  1
  Li  Li5  1  0.165410  0.919860  0.743195  1
  Li  Li6  1  0.167206  0.644759  0.500000  1
  Li  Li7  1  0.178912  0.179304  0.000000  1
  Li  Li8  1  0.321088  0.679304  0.000000  1
  Li  Li9  1  0.332794  0.144759  0.500000  1
  Li  Li10  1  0.334590  0.419860  0.256805  1
  Li  Li11  1  0.334590  0.419860  0.743195  1
  Li  Li12  1  0.489247  0.247855  0.250499  1
  Li  Li13  1  0.489247  0.247855  0.749501  1
  Li  Li14  1  0.500000  0.000000  0.500000  1
  Li  Li15  1  0.500000  0.500000  0.500000  1
  Li  Li16  1  0.510753  0.752145  0.250499  1
  Li  Li17  1  0.510753  0.752145  0.749501  1
  Li  Li18  1  0.665410  0.580140  0.256805  1
  Li  Li19  1  0.665410  0.580140  0.743195  1
  Li  Li20  1  0.667206  0.855241  0.500000  1
  Li  Li21  1  0.678912  0.320696  0.000000  1
  Li  Li22  1  0.821088  0.820696  0.000000  1
  Li  Li23  1  0.832794  0.355241  0.500000  1
  Li  Li24  1  0.834590  0.080140  0.256805  1
  Li  Li25  1  0.834590  0.080140  0.743195  1
  Li  Li26  1  0.989247  0.252145  0.250499  1
  Li  Li27  1  0.989247  0.252145  0.749501  1
  Mn  Mn28  1  0.000000  0.000000  0.000000  1
  Mn  Mn29  1  0.137972  0.507851  0.000000  1
  Mn  Mn30  1  0.178247  0.302845  0.500000  1
  Mn  Mn31  1  0.321753  0.802845  0.500000  1
  Mn  Mn32  1  0.362028  0.007851  0.000000  1
  Mn  Mn33  1  0.500000  0.500000  0.000000  1
  Mn  Mn34  1  0.637972  0.992149  0.000000  1
  Mn  Mn35  1  0.678247  0.197155  0.500000  1
  Mn  Mn36  1  0.821753  0.697155  0.500000  1
  Mn  Mn37  1  0.862028  0.492149  0.000000  1
  F  F38  1  0.051469  0.329228  0.500000  1
  F  F39  1  0.078071  0.085078  0.252604  1
  F  F40  1  0.078071  0.085078  0.747396  1
  F  F41  1  0.079211  0.830641  0.000000  1
  F  F42  1  0.084841  0.321465  0.000000  1
  F  F43  1  0.084010  0.584390  0.273901  1
  F  F44  1  0.084010  0.584390  0.726099  1
  F  F45  1  0.088261  0.842059  0.500000  1
  F  F46  1  0.255966  0.244976  0.250053  1
  F  F47  1  0.255966  0.244976  0.749947  1
  F  F48  1  0.245260  0.482979  0.500000  1
  F  F49  1  0.271026  0.499864  0.000000  1
  F  F50  1  0.228974  0.999864  0.000000  1
  F  F51  1  0.254740  0.982979  0.500000  1
  F  F52  1  0.244034  0.744976  0.250053  1
  F  F53  1  0.244034  0.744976  0.749947  1
  F  F54  1  0.411739  0.342059  0.500000  1
  F  F55  1  0.415990  0.084390  0.273901  1
  F  F56  1  0.415990  0.084390  0.726099  1
  F  F57  1  0.415159  0.821465  0.000000  1
  F  F58  1  0.420789  0.330641  0.000000  1
  F  F59  1  0.421929  0.585078  0.252604  1
  F  F60  1  0.421929  0.585078  0.747396  1
  F  F61  1  0.448531  0.829228  0.500000  1
  F  F62  1  0.551469  0.170772  0.500000  1
  F  F63  1  0.578071  0.414922  0.252604  1
  F  F64  1  0.578071  0.414922  0.747396  1
  F  F65  1  0.579211  0.669359  0.000000  1
  F  F66  1  0.584841  0.178535  0.000000  1
  F  F67  1  0.584010  0.915610  0.273901  1
  F  F68  1  0.584010  0.915610  0.726099  1
  F  F69  1  0.588261  0.657941  0.500000  1
  F  F70  1  0.755966  0.255024  0.250053  1
  F  F71  1  0.755966  0.255024  0.749947  1
  F  F72  1  0.745260  0.017021  0.500000  1
  F  F73  1  0.771026  0.000136  0.000000  1
  F  F74  1  0.728974  0.500136  0.000000  1
  F  F75  1  0.754740  0.517021  0.500000  1
  F  F76  1  0.744034  0.755024  0.250053  1
  F  F77  1  0.744034  0.755024  0.749947  1
  F  F78  1  0.911739  0.157941  0.500000  1
  F  F79  1  0.915990  0.415610  0.273901  1
  F  F80  1  0.915990  0.415610  0.726099  1
  F  F81  1  0.915159  0.678535  0.000000  1
  F  F82  1  0.920789  0.169359  0.000000  1
  F  F83  1  0.921929  0.914922  0.252604  1
  F  F84  1  0.921929  0.914922  0.747396  1
  F  F85  1  0.948531  0.670772  0.500000  1
