# generated using pymatgen
data_Li6Mn(BO3)3
_symmetry_space_group_name_H-M   'P 1'
_cell_length_a   6.98972382
_cell_length_b   16.35957647
_cell_length_c   6.97857922
_cell_angle_alpha   90.00000000
_cell_angle_beta   105.28876433
_cell_angle_gamma   90.00000000
_symmetry_Int_Tables_number   1
_chemical_formula_structural   Li6Mn(BO3)3
_chemical_formula_sum   'Li24 Mn4 B12 O36'
_cell_volume   769.75135178
_cell_formula_units_Z   4
loop_
 _symmetry_equiv_pos_site_id
 _symmetry_equiv_pos_as_xyz
  1  'x, y, z'
loop_
 _atom_site_type_symbol
 _atom_site_label
 _atom_site_symmetry_multiplicity
 _atom_site_fract_x
 _atom_site_fract_y
 _atom_site_fract_z
 _atom_site_occupancy
  Li  Li0  1  0.062446  0.992512  0.670034  1
  Li  Li1  1  0.144871  0.551117  0.583068  1
  Li  Li2  1  0.062446  0.507488  0.170034  1
  Li  Li3  1  0.316180  0.460776  0.954247  1
  Li  Li4  1  0.144871  0.948883  0.083068  1
  Li  Li5  1  0.268571  0.700921  0.620401  1
  Li  Li6  1  0.316180  0.039224  0.454247  1
  Li  Li7  1  0.396757  0.290192  0.949843  1
  Li  Li8  1  0.458974  0.951889  0.831437  1
  Li  Li9  1  0.268571  0.799079  0.120401  1
  Li  Li10  1  0.396757  0.209808  0.449843  1
  Li  Li11  1  0.458974  0.548111  0.331437  1
  Li  Li12  1  0.541026  0.451889  0.668563  1
  Li  Li13  1  0.603243  0.790192  0.550157  1
  Li  Li14  1  0.731429  0.200921  0.879599  1
  Li  Li15  1  0.541026  0.048111  0.168563  1
  Li  Li16  1  0.603243  0.709808  0.050157  1
  Li  Li17  1  0.683820  0.960776  0.545753  1
  Li  Li18  1  0.731429  0.299079  0.379599  1
  Li  Li19  1  0.855129  0.051117  0.916932  1
  Li  Li20  1  0.683820  0.539224  0.045753  1
  Li  Li21  1  0.937554  0.492512  0.829966  1
  Li  Li22  1  0.855129  0.448883  0.416932  1
  Li  Li23  1  0.937554  0.007488  0.329966  1
  Mn  Mn24  1  0.057515  0.194603  0.677252  1
  Mn  Mn25  1  0.057515  0.305397  0.177252  1
  Mn  Mn26  1  0.942485  0.694603  0.822748  1
  Mn  Mn27  1  0.942485  0.805397  0.322748  1
  B  B28  1  0.081858  0.365196  0.641355  1
  B  B29  1  0.081858  0.134804  0.141355  1
  B  B30  1  0.270753  0.869343  0.491682  1
  B  B31  1  0.422107  0.109000  0.804309  1
  B  B32  1  0.270753  0.630657  0.991682  1
  B  B33  1  0.422107  0.391000  0.304309  1
  B  B34  1  0.577893  0.609000  0.695691  1
  B  B35  1  0.729247  0.369343  0.008318  1
  B  B36  1  0.577893  0.891000  0.195691  1
  B  B37  1  0.729247  0.130657  0.508318  1
  B  B38  1  0.918142  0.865196  0.858645  1
  B  B39  1  0.918142  0.634804  0.358645  1
  O  O40  1  0.996434  0.655682  0.554095  1
  O  O41  1  0.092605  0.588220  0.959347  1
  O  O42  1  0.113514  0.446722  0.694360  1
  O  O43  1  0.115993  0.305018  0.787486  1
  O  O44  1  0.996434  0.844318  0.054095  1
  O  O45  1  0.092605  0.911780  0.459347  1
  O  O46  1  0.242107  0.711553  0.921326  1
  O  O47  1  0.113514  0.053278  0.194361  1
  O  O48  1  0.115993  0.194982  0.287486  1
  O  O49  1  0.300746  0.045054  0.728241  1
  O  O50  1  0.242107  0.788447  0.421326  1
  O  O51  1  0.300746  0.454946  0.228241  1
  O  O52  1  0.358188  0.189507  0.746153  1
  O  O53  1  0.394421  0.596328  0.565248  1
  O  O54  1  0.544905  0.399581  0.923784  1
  O  O55  1  0.455095  0.899581  0.576216  1
  O  O56  1  0.358188  0.310493  0.246153  1
  O  O57  1  0.605579  0.096328  0.934752  1
  O  O58  1  0.394421  0.903672  0.065248  1
  O  O59  1  0.641812  0.689507  0.753847  1
  O  O60  1  0.544905  0.100419  0.423784  1
  O  O61  1  0.455095  0.600419  0.076216  1
  O  O62  1  0.605579  0.403672  0.434752  1
  O  O63  1  0.641812  0.810493  0.253847  1
  O  O64  1  0.699254  0.545054  0.771759  1
  O  O65  1  0.757893  0.211553  0.578674  1
  O  O66  1  0.699254  0.954946  0.271760  1
  O  O67  1  0.884007  0.805018  0.712514  1
  O  O68  1  0.886486  0.946722  0.805640  1
  O  O69  1  0.757893  0.288447  0.078674  1
  O  O70  1  0.907395  0.088220  0.540653  1
  O  O71  1  0.003566  0.155682  0.945905  1
  O  O72  1  0.884007  0.694982  0.212514  1
  O  O73  1  0.886486  0.553278  0.305640  1
  O  O74  1  0.907395  0.411780  0.040653  1
  O  O75  1  0.003566  0.344318  0.445905  1
