# generated using pymatgen
data_Mn3Cu2Ni(PO4)6
_symmetry_space_group_name_H-M   'P 1'
_cell_length_a   8.50962201
_cell_length_b   8.50962188
_cell_length_c   8.50962193
_cell_angle_alpha   60.15069759
_cell_angle_beta   60.15069372
_cell_angle_gamma   60.15069620
_symmetry_Int_Tables_number   1
_chemical_formula_structural   Mn3Cu2Ni(PO4)6
_chemical_formula_sum   'Mn3 Cu2 Ni1 P6 O24'
_cell_volume   437.21564411
_cell_formula_units_Z   1
loop_
 _symmetry_equiv_pos_site_id
 _symmetry_equiv_pos_as_xyz
  1  'x, y, z'
loop_
 _atom_site_type_symbol
 _atom_site_label
 _atom_site_symmetry_multiplicity
 _atom_site_fract_x
 _atom_site_fract_y
 _atom_site_fract_z
 _atom_site_occupancy
  Mn  Mn0  1  0.141934  0.141934  0.141934  1
  Mn  Mn1  1  0.357841  0.357841  0.357841  1
  Mn  Mn2  1  0.642192  0.642192  0.642192  1
  Cu  Cu3  1  0.997668  0.997668  0.997668  1
  Cu  Cu4  1  0.499185  0.499185  0.499185  1
  Ni  Ni5  1  0.858070  0.858070  0.858070  1
  P  P6  1  0.039946  0.751074  0.458738  1
  P  P7  1  0.458738  0.039946  0.751074  1
  P  P8  1  0.751074  0.458738  0.039946  1
  P  P9  1  0.250634  0.540617  0.962452  1
  P  P10  1  0.540617  0.962452  0.250634  1
  P  P11  1  0.962452  0.250634  0.540617  1
  O  O12  1  0.123713  0.311114  0.502613  1
  O  O13  1  0.311114  0.502613  0.123713  1
  O  O14  1  0.054822  0.916936  0.257550  1
  O  O15  1  0.502613  0.123713  0.311114  1
  O  O16  1  0.015620  0.807041  0.612631  1
  O  O17  1  0.239663  0.581781  0.437938  1
  O  O18  1  0.257550  0.054822  0.916936  1
  O  O19  1  0.437938  0.239663  0.581781  1
  O  O20  1  0.195320  0.378794  0.991957  1
  O  O21  1  0.581781  0.437938  0.239663  1
  O  O22  1  0.090035  0.737144  0.946228  1
  O  O23  1  0.378794  0.991957  0.195320  1
  O  O24  1  0.612631  0.015620  0.807041  1
  O  O25  1  0.916936  0.257550  0.054822  1
  O  O26  1  0.421449  0.549641  0.764584  1
  O  O27  1  0.807041  0.612631  0.015620  1
  O  O28  1  0.549641  0.764584  0.421449  1
  O  O29  1  0.737144  0.946228  0.090035  1
  O  O30  1  0.764584  0.421449  0.549641  1
  O  O31  1  0.991957  0.195320  0.378794  1
  O  O32  1  0.489348  0.877900  0.695828  1
  O  O33  1  0.946228  0.090035  0.737144  1
  O  O34  1  0.695828  0.489348  0.877900  1
  O  O35  1  0.877900  0.695828  0.489348  1
