# generated using pymatgen
data_Fe35SiO48
_symmetry_space_group_name_H-M   'P 1'
_cell_length_a   10.53574782
_cell_length_b   10.46859461
_cell_length_c   10.46859461
_cell_angle_alpha   60.39616743
_cell_angle_beta   99.92623904
_cell_angle_gamma   80.07376096
_symmetry_Int_Tables_number   1
_chemical_formula_structural   Fe35SiO48
_chemical_formula_sum   'Fe35 Si1 O48'
_cell_volume   943.10978489
_cell_formula_units_Z   1
loop_
 _symmetry_equiv_pos_site_id
 _symmetry_equiv_pos_as_xyz
  1  'x, y, z'
loop_
 _atom_site_type_symbol
 _atom_site_label
 _atom_site_symmetry_multiplicity
 _atom_site_fract_x
 _atom_site_fract_y
 _atom_site_fract_z
 _atom_site_occupancy
  Fe  Fe0  1  0.814120  0.734437  0.104776  1
  Fe  Fe1  1  0.814120  0.895224  0.265563  1
  Fe  Fe2  1  0.563775  0.811838  0.188162  1
  Fe  Fe3  1  0.812048  0.898941  0.769298  1
  Fe  Fe4  1  0.809518  0.561745  0.438255  1
  Fe  Fe5  1  0.812048  0.230702  0.101059  1
  Fe  Fe6  1  0.622289  0.795083  0.542651  1
  Fe  Fe7  1  0.622289  0.457349  0.204917  1
  Fe  Fe8  1  0.814950  0.058898  0.435211  1
  Fe  Fe9  1  0.312995  0.893300  0.278085  1
  Fe  Fe10  1  0.814950  0.564789  0.941102  1
  Fe  Fe11  1  0.809967  0.396592  0.773510  1
  Fe  Fe12  1  0.312995  0.721915  0.106700  1
  Fe  Fe13  1  0.809967  0.226490  0.603408  1
  Fe  Fe14  1  0.500224  0.503524  0.496476  1
  Fe  Fe15  1  0.501321  0.831720  0.837659  1
  Fe  Fe16  1  0.501321  0.162341  0.168280  1
  Fe  Fe17  1  0.313123  0.726292  0.605201  1
  Fe  Fe18  1  0.313123  0.394799  0.273708  1
  Fe  Fe19  1  0.067000  0.973409  0.359503  1
  Fe  Fe20  1  0.557760  0.485594  0.850037  1
  Fe  Fe21  1  0.067000  0.640497  0.026591  1
  Fe  Fe22  1  0.557760  0.149963  0.514406  1
  Fe  Fe23  1  0.125373  0.623828  0.376172  1
  Fe  Fe24  1  0.126311  0.292323  0.042244  1
  Fe  Fe25  1  0.621323  0.127665  0.872335  1
  Fe  Fe26  1  0.126311  0.957756  0.707677  1
  Fe  Fe27  1  0.312041  0.561713  0.937914  1
  Fe  Fe28  1  0.312041  0.062086  0.438287  1
  Fe  Fe29  1  0.314024  0.402126  0.768791  1
  Fe  Fe30  1  0.314024  0.231209  0.597874  1
  Fe  Fe31  1  0.998355  0.666926  0.667338  1
  Fe  Fe32  1  0.998355  0.332662  0.333074  1
  Fe  Fe33  1  0.309908  0.063705  0.936295  1
  Fe  Fe34  1  0.065810  0.311721  0.688279  1
  Si  Si35  1  0.002025  0.003335  0.996665  1
  O  O36  1  0.939363  0.872530  0.464558  1
  O  O37  1  0.939363  0.535442  0.127470  1
  O  O38  1  0.931694  0.683564  0.316436  1
  O  O39  1  0.675549  0.937521  0.062479  1
  O  O40  1  0.696453  0.950700  0.566804  1
  O  O41  1  0.687200  0.762412  0.385525  1
  O  O42  1  0.687200  0.614475  0.237588  1
  O  O43  1  0.696453  0.433196  0.049300  1
  O  O44  1  0.932600  0.171580  0.304969  1
  O  O45  1  0.945903  0.026399  0.126324  1
  O  O46  1  0.932600  0.695031  0.828420  1
  O  O47  1  0.931668  0.498579  0.650884  1
  O  O48  1  0.945903  0.873676  0.973601  1
  O  O49  1  0.931668  0.349116  0.501421  1
  O  O50  1  0.425023  0.708175  0.291825  1
  O  O51  1  0.707013  0.769962  0.895204  1
  O  O52  1  0.172383  0.947435  0.052565  1
  O  O53  1  0.709213  0.422233  0.577767  1
  O  O54  1  0.707013  0.104796  0.230038  1
  O  O55  1  0.944076  0.175849  0.824151  1
  O  O56  1  0.420928  0.859667  0.469939  1
  O  O57  1  0.695030  0.251054  0.414886  1
  O  O58  1  0.918660  0.360241  0.971443  1
  O  O59  1  0.420928  0.530061  0.140333  1
  O  O60  1  0.695030  0.585114  0.748946  1
  O  O61  1  0.918660  0.028557  0.639759  1
  O  O62  1  0.193623  0.936591  0.547728  1
  O  O63  1  0.690683  0.103208  0.723398  1
  O  O64  1  0.193623  0.452272  0.063409  1
  O  O65  1  0.187206  0.609415  0.220607  1
  O  O66  1  0.187206  0.779393  0.390585  1
  O  O67  1  0.690683  0.276602  0.896792  1
  O  O68  1  0.420566  0.859239  0.991705  1
  O  O69  1  0.435331  0.515718  0.660927  1
  O  O70  1  0.435331  0.339073  0.484282  1
  O  O71  1  0.420566  0.008295  0.140761  1
  O  O72  1  0.434701  0.182530  0.329021  1
  O  O73  1  0.434701  0.670979  0.817470  1
  O  O74  1  0.433621  0.037923  0.630373  1
  O  O75  1  0.204036  0.262578  0.403770  1
  O  O76  1  0.204036  0.596230  0.737422  1
  O  O77  1  0.433621  0.369627  0.962077  1
  O  O78  1  0.425894  0.193008  0.806992  1
  O  O79  1  0.191019  0.428582  0.571418  1
  O  O80  1  0.192168  0.084570  0.247814  1
  O  O81  1  0.192168  0.752186  0.915430  1
  O  O82  1  0.195541  0.270748  0.878630  1
  O  O83  1  0.195541  0.121370  0.729252  1
