# generated using pymatgen
data_Li4Ti3Fe3(TeO8)2
_symmetry_space_group_name_H-M   'P 1'
_cell_length_a   6.10629554
_cell_length_b   5.95958610
_cell_length_c   10.28278885
_cell_angle_alpha   89.91273235
_cell_angle_beta   90.00443322
_cell_angle_gamma   119.68646503
_symmetry_Int_Tables_number   1
_chemical_formula_structural   Li4Ti3Fe3(TeO8)2
_chemical_formula_sum   'Li4 Ti3 Fe3 Te2 O16'
_cell_volume   325.08601377
_cell_formula_units_Z   1
loop_
 _symmetry_equiv_pos_site_id
 _symmetry_equiv_pos_as_xyz
  1  'x, y, z'
loop_
 _atom_site_type_symbol
 _atom_site_label
 _atom_site_symmetry_multiplicity
 _atom_site_fract_x
 _atom_site_fract_y
 _atom_site_fract_z
 _atom_site_occupancy
  Li  Li0  1  0.328925  0.664247  0.904681  1
  Li  Li1  1  0.004767  0.002870  0.985655  1
  Li  Li2  1  0.002466  0.997576  0.495606  1
  Li  Li3  1  0.670680  0.337643  0.397184  1
  Ti  Ti4  1  0.183901  0.843043  0.219375  1
  Ti  Ti5  1  0.180652  0.345685  0.219521  1
  Ti  Ti6  1  0.355522  0.171061  0.731042  1
  Fe  Fe7  1  0.663348  0.833296  0.211406  1
  Fe  Fe8  1  0.827691  0.653432  0.716963  1
  Fe  Fe9  1  0.835389  0.174825  0.716055  1
  Te  Te10  1  0.340537  0.666380  0.510171  1
  Te  Te11  1  0.693510  0.348487  0.995871  1
  O  O12  1  0.162995  0.825901  0.606014  1
  O  O13  1  0.024582  0.513449  0.318041  1
  O  O14  1  0.322822  0.662957  0.109436  1
  O  O15  1  0.992812  0.997599  0.310645  1
  O  O16  1  0.017751  0.999173  0.802075  1
  O  O17  1  0.171459  0.331462  0.599896  1
  O  O18  1  0.481276  0.985705  0.313869  1
  O  O19  1  0.478286  0.500652  0.317386  1
  O  O20  1  0.283104  0.144978  0.109783  1
  O  O21  1  0.674120  0.825215  0.597575  1
  O  O22  1  0.506824  0.482753  0.829378  1
  O  O23  1  0.498405  0.021030  0.832371  1
  O  O24  1  0.642360  0.329898  0.609298  1
  O  O25  1  0.846293  0.684051  0.095506  1
  O  O26  1  0.960601  0.490777  0.858589  1
  O  O27  1  0.848921  0.166152  0.094449  1
