# generated using pymatgen
data_Li8Mn3Fe5(BO3)8
_symmetry_space_group_name_H-M   'P 1'
_cell_length_a   5.25711557
_cell_length_b   5.22860030
_cell_length_c   20.80277162
_cell_angle_alpha   89.38544603
_cell_angle_beta   91.05166457
_cell_angle_gamma   60.02192844
_symmetry_Int_Tables_number   1
_chemical_formula_structural   Li8Mn3Fe5(BO3)8
_chemical_formula_sum   'Li8 Mn3 Fe5 B8 O24'
_cell_volume   495.09999652
_cell_formula_units_Z   1
loop_
 _symmetry_equiv_pos_site_id
 _symmetry_equiv_pos_as_xyz
  1  'x, y, z'
loop_
 _atom_site_type_symbol
 _atom_site_label
 _atom_site_symmetry_multiplicity
 _atom_site_fract_x
 _atom_site_fract_y
 _atom_site_fract_z
 _atom_site_occupancy
  Li  Li0  1  0.328830  0.651800  0.665789  1
  Li  Li1  1  0.347397  0.677178  0.916176  1
  Li  Li2  1  0.325432  0.656528  0.166666  1
  Li  Li3  1  0.345032  0.676436  0.417629  1
  Li  Li4  1  0.654961  0.332271  0.791291  1
  Li  Li5  1  0.656413  0.355211  0.541582  1
  Li  Li6  1  0.652191  0.329358  0.293057  1
  Li  Li7  1  0.662440  0.349451  0.042187  1
  Mn  Mn8  1  0.326016  0.008895  0.059657  1
  Mn  Mn9  1  0.677471  0.000061  0.932476  1
  Mn  Mn10  1  0.674412  0.998478  0.432858  1
  Fe  Fe11  1  0.325096  0.021439  0.560625  1
  Fe  Fe12  1  0.996459  0.321036  0.684546  1
  Fe  Fe13  1  0.992598  0.325517  0.184710  1
  Fe  Fe14  1  0.002048  0.670366  0.807254  1
  Fe  Fe15  1  0.003942  0.663147  0.307798  1
  B  B16  1  0.003983  0.340318  0.935897  1
  B  B17  1  0.003430  0.337619  0.437037  1
  B  B18  1  0.331093  0.002390  0.810057  1
  B  B19  1  0.329574  0.999670  0.310936  1
  B  B20  1  0.668328  0.992401  0.686555  1
  B  B21  1  0.663906  0.000214  0.187998  1
  B  B22  1  0.992421  0.672748  0.563014  1
  B  B23  1  0.992461  0.669180  0.063254  1
  O  O24  1  0.067346  0.250723  0.790826  1
  O  O25  1  0.064801  0.248655  0.292163  1
  O  O26  1  0.253721  0.069406  0.951831  1
  O  O27  1  0.033899  0.577091  0.914793  1
  O  O28  1  0.252787  0.067193  0.452747  1
  O  O29  1  0.032345  0.575563  0.416268  1
  O  O30  1  0.579832  0.025473  0.824532  1
  O  O31  1  0.261076  0.656937  0.569345  1
  O  O32  1  0.579159  0.020963  0.324789  1
  O  O33  1  0.267322  0.643568  0.069804  1
  O  O34  1  0.349383  0.729846  0.817078  1
  O  O35  1  0.346675  0.727545  0.318206  1
  O  O36  1  0.646506  0.268061  0.692213  1
  O  O37  1  0.640432  0.276619  0.194208  1
  O  O38  1  0.728301  0.370480  0.943196  1
  O  O39  1  0.422651  0.973409  0.668304  1
  O  O40  1  0.727269  0.367344  0.443810  1
  O  O41  1  0.418356  0.981533  0.169150  1
  O  O42  1  0.967844  0.421442  0.577711  1
  O  O43  1  0.959479  0.426513  0.079177  1
  O  O44  1  0.741729  0.932644  0.542935  1
  O  O45  1  0.750661  0.932302  0.041328  1
  O  O46  1  0.937430  0.739413  0.701240  1
  O  O47  1  0.933862  0.746763  0.201499  1
