# generated using pymatgen
data_Co3(P2O7)2
_symmetry_space_group_name_H-M   'P 1'
_cell_length_a   6.38685479
_cell_length_b   8.41795892
_cell_length_c   10.02048191
_cell_angle_alpha   107.90580557
_cell_angle_beta   91.52843203
_cell_angle_gamma   92.17151708
_symmetry_Int_Tables_number   1
_chemical_formula_structural   Co3(P2O7)2
_chemical_formula_sum   'Co6 P8 O28'
_cell_volume   511.86464378
_cell_formula_units_Z   2
loop_
 _symmetry_equiv_pos_site_id
 _symmetry_equiv_pos_as_xyz
  1  'x, y, z'
loop_
 _atom_site_type_symbol
 _atom_site_label
 _atom_site_symmetry_multiplicity
 _atom_site_fract_x
 _atom_site_fract_y
 _atom_site_fract_z
 _atom_site_occupancy
  Co  Co0  1  0.000000  0.500000  0.500000  1
  Co  Co1  1  0.285322  0.897178  0.620834  1
  Co  Co2  1  0.347885  0.878899  0.062831  1
  Co  Co3  1  0.500000  0.500000  0.000000  1
  Co  Co4  1  0.652115  0.121101  0.937169  1
  Co  Co5  1  0.714678  0.102822  0.379166  1
  P  P6  1  0.161572  0.202952  0.010341  1
  P  P7  1  0.181583  0.184393  0.308777  1
  P  P8  1  0.272669  0.551763  0.723315  1
  P  P9  1  0.477689  0.748920  0.317779  1
  P  P10  1  0.522311  0.251080  0.682221  1
  P  P11  1  0.727331  0.448237  0.276685  1
  P  P12  1  0.818417  0.815607  0.691223  1
  P  P13  1  0.838428  0.797048  0.989659  1
  O  O14  1  0.038295  0.849755  0.076848  1
  O  O15  1  0.006800  0.084203  0.353686  1
  O  O16  1  0.058312  0.456038  0.675782  1
  O  O17  1  0.095367  0.217055  0.167372  1
  O  O18  1  0.252576  0.376390  0.013676  1
  O  O19  1  0.216700  0.358088  0.417157  1
  O  O20  1  0.281161  0.676856  0.639576  1
  O  O21  1  0.304787  0.809532  0.419239  1
  O  O22  1  0.328031  0.625803  0.880332  1
  O  O23  1  0.332533  0.124377  0.650762  1
  O  O24  1  0.334642  0.073764  0.970194  1
  O  O25  1  0.406736  0.704054  0.161891  1
  O  O26  1  0.382160  0.088896  0.274928  1
  O  O27  1  0.451901  0.421972  0.662299  1
  O  O28  1  0.548099  0.578028  0.337701  1
  O  O29  1  0.617840  0.911104  0.725072  1
  O  O30  1  0.593264  0.295946  0.838109  1
  O  O31  1  0.665358  0.926236  0.029806  1
  O  O32  1  0.667467  0.875623  0.349238  1
  O  O33  1  0.671969  0.374197  0.119668  1
  O  O34  1  0.695213  0.190468  0.580761  1
  O  O35  1  0.718839  0.323145  0.360424  1
  O  O36  1  0.783300  0.641912  0.582843  1
  O  O37  1  0.747425  0.623610  0.986324  1
  O  O38  1  0.904633  0.782945  0.832628  1
  O  O39  1  0.941688  0.543962  0.324218  1
  O  O40  1  0.993200  0.915797  0.646314  1
  O  O41  1  0.961705  0.150245  0.923152  1
