# generated using pymatgen
data_ZnH16C6S2(N2Cl)2
_symmetry_space_group_name_H-M   'P 1'
_cell_length_a   8.04047637
_cell_length_b   8.04047637
_cell_length_c   12.64437030
_cell_angle_alpha   76.04193623
_cell_angle_beta   103.95806377
_cell_angle_gamma   111.02103396
_symmetry_Int_Tables_number   1
_chemical_formula_structural   ZnH16C6S2(N2Cl)2
_chemical_formula_sum   'Zn2 H32 C12 S4 N8 Cl4'
_cell_volume   729.64028744
_cell_formula_units_Z   2
loop_
 _symmetry_equiv_pos_site_id
 _symmetry_equiv_pos_as_xyz
  1  'x, y, z'
loop_
 _atom_site_type_symbol
 _atom_site_label
 _atom_site_symmetry_multiplicity
 _atom_site_fract_x
 _atom_site_fract_y
 _atom_site_fract_z
 _atom_site_occupancy
  Zn  Zn0  1  0.849559  0.849559  0.750000  1
  Zn  Zn1  1  0.150441  0.150441  0.250000  1
  H  H2  1  0.148601  0.621545  0.155140  1
  H  H3  1  0.621545  0.148601  0.344860  1
  H  H4  1  0.851399  0.378455  0.844860  1
  H  H5  1  0.378455  0.851399  0.655140  1
  H  H6  1  0.794980  0.742532  0.969426  1
  H  H7  1  0.742532  0.794980  0.530574  1
  H  H8  1  0.205020  0.257468  0.030574  1
  H  H9  1  0.257468  0.205020  0.469426  1
  H  H10  1  0.389916  0.747899  0.991917  1
  H  H11  1  0.747899  0.389916  0.508083  1
  H  H12  1  0.610084  0.252101  0.008083  1
  H  H13  1  0.252101  0.610084  0.491917  1
  H  H14  1  0.451561  0.892310  0.092601  1
  H  H15  1  0.892310  0.451561  0.407399  1
  H  H16  1  0.548439  0.107690  0.907399  1
  H  H17  1  0.107690  0.548439  0.592601  1
  H  H18  1  0.432462  0.658308  0.135780  1
  H  H19  1  0.658308  0.432462  0.364220  1
  H  H20  1  0.567538  0.341692  0.864220  1
  H  H21  1  0.341692  0.567538  0.635780  1
  H  H22  1  0.867812  0.462092  0.151000  1
  H  H23  1  0.462092  0.867812  0.349000  1
  H  H24  1  0.132188  0.537908  0.849000  1
  H  H25  1  0.537908  0.132188  0.651000  1
  H  H26  1  0.901968  0.664940  0.200879  1
  H  H27  1  0.664940  0.901968  0.299121  1
  H  H28  1  0.098032  0.335060  0.799121  1
  H  H29  1  0.335060  0.098032  0.700879  1
  H  H30  1  0.689317  0.554563  0.123741  1
  H  H31  1  0.554563  0.689317  0.376259  1
  H  H32  1  0.310683  0.445437  0.876259  1
  H  H33  1  0.445437  0.310683  0.623741  1
  C  C34  1  0.058276  0.756547  0.007022  1
  C  C35  1  0.756547  0.058276  0.492978  1
  C  C36  1  0.941724  0.243453  0.992978  1
  C  C37  1  0.243453  0.941724  0.507022  1
  C  C38  1  0.375802  0.755133  0.074758  1
  C  C39  1  0.755133  0.375802  0.425242  1
  C  C40  1  0.624198  0.244867  0.925242  1
  C  C41  1  0.244867  0.624198  0.574758  1
  C  C42  1  0.835728  0.589650  0.131590  1
  C  C43  1  0.589650  0.835728  0.368410  1
  C  C44  1  0.164272  0.410350  0.868410  1
  C  C45  1  0.410350  0.164272  0.631590  1
  S  S46  1  0.114918  0.897204  0.885185  1
  S  S47  1  0.897204  0.114918  0.614815  1
  S  S48  1  0.885082  0.102796  0.114815  1
  S  S49  1  0.102796  0.885082  0.385185  1
  N  N50  1  0.186227  0.704802  0.083639  1
  N  N51  1  0.704802  0.186227  0.416361  1
  N  N52  1  0.813773  0.295198  0.916361  1
  N  N53  1  0.295198  0.813773  0.583639  1
  N  N54  1  0.889244  0.697537  0.028038  1
  N  N55  1  0.697537  0.889244  0.471962  1
  N  N56  1  0.110756  0.302463  0.971962  1
  N  N57  1  0.302463  0.110756  0.528038  1
  Cl  Cl58  1  0.593415  0.803797  0.820510  1
  Cl  Cl59  1  0.803797  0.593415  0.679490  1
  Cl  Cl60  1  0.406585  0.196203  0.179490  1
  Cl  Cl61  1  0.196203  0.406585  0.320510  1
