# generated using pymatgen
data_TiFe3Sn2(PO4)6
_symmetry_space_group_name_H-M   'P 1'
_cell_length_a   8.92523116
_cell_length_b   8.92523072
_cell_length_c   8.92523140
_cell_angle_alpha   58.14928963
_cell_angle_beta   58.14929029
_cell_angle_gamma   58.14928777
_symmetry_Int_Tables_number   1
_chemical_formula_structural   TiFe3Sn2(PO4)6
_chemical_formula_sum   'Ti1 Fe3 Sn2 P6 O24'
_cell_volume   481.41431925
_cell_formula_units_Z   1
loop_
 _symmetry_equiv_pos_site_id
 _symmetry_equiv_pos_as_xyz
  1  'x, y, z'
loop_
 _atom_site_type_symbol
 _atom_site_label
 _atom_site_symmetry_multiplicity
 _atom_site_fract_x
 _atom_site_fract_y
 _atom_site_fract_z
 _atom_site_occupancy
  Ti  Ti0  1  0.853593  0.853593  0.853593  1
  Fe  Fe1  1  0.149016  0.149016  0.149016  1
  Fe  Fe2  1  0.350708  0.350708  0.350708  1
  Fe  Fe3  1  0.648614  0.648614  0.648614  1
  Sn  Sn4  1  0.004587  0.004587  0.004587  1
  Sn  Sn5  1  0.500709  0.500709  0.500709  1
  P  P6  1  0.039857  0.750467  0.461532  1
  P  P7  1  0.461532  0.039857  0.750467  1
  P  P8  1  0.248434  0.538436  0.959012  1
  P  P9  1  0.538436  0.959012  0.248434  1
  P  P10  1  0.959012  0.248434  0.538436  1
  P  P11  1  0.750467  0.461532  0.039857  1
  O  O12  1  0.116132  0.297050  0.509709  1
  O  O13  1  0.297050  0.509709  0.116132  1
  O  O14  1  0.061943  0.919096  0.275950  1
  O  O15  1  0.509709  0.116132  0.297050  1
  O  O16  1  0.997683  0.798991  0.625849  1
  O  O17  1  0.231008  0.580471  0.446410  1
  O  O18  1  0.275950  0.061943  0.919096  1
  O  O19  1  0.446410  0.231008  0.580471  1
  O  O20  1  0.202739  0.379097  0.992944  1
  O  O21  1  0.580471  0.446410  0.231008  1
  O  O22  1  0.078187  0.725178  0.933989  1
  O  O23  1  0.379097  0.992944  0.202739  1
  O  O24  1  0.625849  0.997683  0.798991  1
  O  O25  1  0.919096  0.275950  0.061943  1
  O  O26  1  0.418410  0.560114  0.767352  1
  O  O27  1  0.798991  0.625849  0.997683  1
  O  O28  1  0.560114  0.767352  0.418410  1
  O  O29  1  0.725178  0.933989  0.078187  1
  O  O30  1  0.767352  0.418410  0.560114  1
  O  O31  1  0.992944  0.202739  0.379097  1
  O  O32  1  0.494425  0.884039  0.698271  1
  O  O33  1  0.933989  0.078187  0.725178  1
  O  O34  1  0.698271  0.494425  0.884039  1
  O  O35  1  0.884039  0.698271  0.494425  1
