# generated using pymatgen
data_Li3V3P8O29
_symmetry_space_group_name_H-M   'P 1'
_cell_length_a   9.78049521
_cell_length_b   9.78045846
_cell_length_c   14.22839547
_cell_angle_alpha   89.99704104
_cell_angle_beta   90.00017778
_cell_angle_gamma   60.00351837
_symmetry_Int_Tables_number   1
_chemical_formula_structural   Li3V3P8O29
_chemical_formula_sum   'Li6 V6 P16 O58'
_cell_volume   1178.75083241
_cell_formula_units_Z   2
loop_
 _symmetry_equiv_pos_site_id
 _symmetry_equiv_pos_as_xyz
  1  'x, y, z'
loop_
 _atom_site_type_symbol
 _atom_site_label
 _atom_site_symmetry_multiplicity
 _atom_site_fract_x
 _atom_site_fract_y
 _atom_site_fract_z
 _atom_site_occupancy
  Li  Li0  1  0.911807  0.774654  0.057722  1
  Li  Li1  1  0.774608  0.911808  0.557747  1
  Li  Li2  1  0.911817  0.313585  0.557704  1
  Li  Li3  1  0.774559  0.313706  0.057735  1
  Li  Li4  1  0.313710  0.911749  0.057757  1
  Li  Li5  1  0.313564  0.774665  0.557717  1
  V  V6  1  0.564852  0.433880  0.251878  1
  V  V7  1  0.433878  0.564920  0.751770  1
  V  V8  1  0.564877  0.001268  0.751814  1
  V  V9  1  0.433902  0.001209  0.251833  1
  V  V10  1  0.001270  0.564835  0.251844  1
  V  V11  1  0.001253  0.433840  0.751818  1
  P  P12  1  0.912541  0.770488  0.842126  1
  P  P13  1  0.770505  0.912489  0.342144  1
  P  P14  1  0.912541  0.316924  0.342145  1
  P  P15  1  0.666634  0.666633  0.130170  1
  P  P16  1  0.666686  0.666703  0.630125  1
  P  P17  1  0.770432  0.316985  0.842162  1
  P  P18  1  0.685072  0.228568  0.660603  1
  P  P19  1  0.317010  0.912524  0.842133  1
  P  P20  1  0.685066  0.086395  0.160623  1
  P  P21  1  0.316985  0.770472  0.342139  1
  P  P22  1  0.228557  0.685031  0.160611  1
  P  P23  1  0.333324  0.333308  0.369507  1
  P  P24  1  0.333319  0.333357  0.869380  1
  P  P25  1  0.086362  0.685097  0.660583  1
  P  P26  1  0.228564  0.086384  0.660601  1
  P  P27  1  0.086364  0.228534  0.160605  1
  O  O28  1  0.991584  0.770917  0.577569  1
  O  O29  1  0.914147  0.743883  0.329719  1
  O  O30  1  0.770917  0.991597  0.077616  1
  O  O31  1  0.743899  0.914160  0.829671  1
  O  O32  1  0.903527  0.617638  0.820527  1
  O  O33  1  0.816698  0.667987  0.171064  1
  O  O34  1  0.903514  0.478811  0.320523  1
  O  O35  1  0.991540  0.237535  0.077602  1
  O  O36  1  0.914087  0.341964  0.829719  1
  O  O37  1  0.668063  0.816769  0.671055  1
  O  O38  1  0.617687  0.903461  0.320508  1
  O  O39  1  0.816700  0.515272  0.671050  1
  O  O40  1  0.666497  0.666565  0.025599  1
  O  O41  1  0.666635  0.666742  0.525554  1
  O  O42  1  0.667971  0.515262  0.171152  1
  O  O43  1  0.478919  0.903504  0.820483  1
  O  O44  1  0.515257  0.816704  0.171095  1
  O  O45  1  0.743924  0.341888  0.329739  1
  O  O46  1  0.785485  0.203322  0.756710  1
  O  O47  1  0.770967  0.237488  0.577580  1
  O  O48  1  0.759996  0.252820  0.933854  1
  O  O49  1  0.617582  0.478860  0.820494  1
  O  O50  1  0.515226  0.668094  0.671067  1
  O  O51  1  0.659585  0.256612  0.160400  1
  O  O52  1  0.478867  0.617669  0.320530  1
  O  O53  1  0.341918  0.914139  0.329718  1
  O  O54  1  0.785535  0.011123  0.256703  1
  O  O55  1  0.759998  0.987159  0.433860  1
  O  O56  1  0.237439  0.991647  0.577565  1
  O  O57  1  0.659571  0.083835  0.660349  1
  O  O58  1  0.524000  0.382017  0.677946  1
  O  O59  1  0.341946  0.743904  0.829681  1
  O  O60  1  0.480551  0.335710  0.324516  1
  O  O61  1  0.381919  0.523953  0.178037  1
  O  O62  1  0.237558  0.770886  0.077585  1
  O  O63  1  0.252803  0.759991  0.433850  1
  O  O64  1  0.203360  0.785501  0.256683  1
  O  O65  1  0.256583  0.659621  0.660344  1
  O  O66  1  0.480567  0.183728  0.824334  1
  O  O67  1  0.523988  0.094072  0.177987  1
  O  O68  1  0.335659  0.480564  0.824291  1
  O  O69  1  0.333382  0.333353  0.973018  1
  O  O70  1  0.333206  0.333394  0.473126  1
  O  O71  1  0.183746  0.480541  0.324437  1
  O  O72  1  0.381981  0.094039  0.677987  1
  O  O73  1  0.335782  0.183726  0.324478  1
  O  O74  1  0.083771  0.659616  0.160354  1
  O  O75  1  0.011130  0.785571  0.756662  1
  O  O76  1  0.987164  0.760082  0.933812  1
  O  O77  1  0.094037  0.524032  0.677996  1
  O  O78  1  0.183814  0.335622  0.824370  1
  O  O79  1  0.094049  0.381943  0.177995  1
  O  O80  1  0.256581  0.083792  0.160376  1
  O  O81  1  0.252889  0.987154  0.933852  1
  O  O82  1  0.203326  0.011153  0.756685  1
  O  O83  1  0.083816  0.256617  0.660370  1
  O  O84  1  0.987228  0.252700  0.433838  1
  O  O85  1  0.011144  0.203291  0.256690  1
