# generated using pymatgen
data_Ge2N2O
_symmetry_space_group_name_H-M   'P 1'
_cell_length_a   5.46876007
_cell_length_b   5.61919144
_cell_length_c   10.47608361
_cell_angle_alpha   90.27603479
_cell_angle_beta   104.89705295
_cell_angle_gamma   62.54038413
_symmetry_Int_Tables_number   1
_chemical_formula_structural   Ge2N2O
_chemical_formula_sum   'Ge8 N8 O4'
_cell_volume   273.62029435
_cell_formula_units_Z   4
loop_
 _symmetry_equiv_pos_site_id
 _symmetry_equiv_pos_as_xyz
  1  'x, y, z'
loop_
 _atom_site_type_symbol
 _atom_site_label
 _atom_site_symmetry_multiplicity
 _atom_site_fract_x
 _atom_site_fract_y
 _atom_site_fract_z
 _atom_site_occupancy
  Ge  Ge0  1  0.460058  0.991911  0.065816  1
  Ge  Ge1  1  0.246744  0.900400  0.311555  1
  Ge  Ge2  1  0.626772  0.740664  0.818818  1
  Ge  Ge3  1  0.137714  0.641192  0.067066  1
  Ge  Ge4  1  0.460150  0.486245  0.568379  1
  Ge  Ge5  1  0.280140  0.393638  0.813817  1
  Ge  Ge6  1  0.646426  0.257625  0.315006  1
  Ge  Ge7  1  0.139379  0.135167  0.566660  1
  N  N8  1  0.351190  0.832922  0.494691  1
  N  N9  1  0.750044  0.742372  0.002492  1
  N  N10  1  0.311233  0.576760  0.247154  1
  N  N11  1  0.519570  0.484970  0.752751  1
  N  N12  1  0.336573  0.337993  0.993702  1
  N  N13  1  0.904765  0.171579  0.226717  1
  N  N14  1  0.748953  0.238297  0.500935  1
  N  N15  1  0.312071  0.078065  0.747244  1
  O  O16  1  0.504221  0.992923  0.248870  1
  O  O17  1  0.920511  0.669634  0.751333  1
  O  O18  1  0.166208  0.417124  0.505431  1
  O  O19  1  0.176878  0.911316  0.001562  1
