# generated using pymatgen
data_Li9Al(CoO4)2
_symmetry_space_group_name_H-M   'P 1'
_cell_length_a   15.93186883
_cell_length_b   6.38820751
_cell_length_c   7.57898251
_cell_angle_alpha   90.00001215
_cell_angle_beta   89.99827490
_cell_angle_gamma   90.00003825
_symmetry_Int_Tables_number   1
_chemical_formula_structural   Li9Al(CoO4)2
_chemical_formula_sum   'Li36 Al4 Co8 O32'
_cell_volume   771.35916122
_cell_formula_units_Z   4
loop_
 _symmetry_equiv_pos_site_id
 _symmetry_equiv_pos_as_xyz
  1  'x, y, z'
loop_
 _atom_site_type_symbol
 _atom_site_label
 _atom_site_symmetry_multiplicity
 _atom_site_fract_x
 _atom_site_fract_y
 _atom_site_fract_z
 _atom_site_occupancy
  Li  Li0  1  0.069122  0.518355  0.533938  1
  Li  Li1  1  0.069122  0.981645  0.533938  1
  Li  Li2  1  0.141425  0.250000  0.338133  1
  Li  Li3  1  0.119960  0.508837  0.100877  1
  Li  Li4  1  0.119961  0.991164  0.100877  1
  Li  Li5  1  0.161465  0.750000  0.330403  1
  Li  Li6  1  0.194058  0.250000  0.804903  1
  Li  Li7  1  0.211409  0.009296  0.550696  1
  Li  Li8  1  0.211409  0.490704  0.550696  1
  Li  Li9  1  0.288576  0.509329  0.050691  1
  Li  Li10  1  0.288576  0.990671  0.050691  1
  Li  Li11  1  0.305928  0.750000  0.304890  1
  Li  Li12  1  0.338531  0.250000  0.830384  1
  Li  Li13  1  0.380044  0.491178  0.600879  1
  Li  Li14  1  0.380044  0.008823  0.600879  1
  Li  Li15  1  0.358586  0.750000  0.838142  1
  Li  Li16  1  0.430869  0.018359  0.033945  1
  Li  Li17  1  0.430869  0.481641  0.033945  1
  Li  Li18  1  0.569107  0.518355  0.966059  1
  Li  Li19  1  0.569107  0.981645  0.966059  1
  Li  Li20  1  0.641390  0.250000  0.161840  1
  Li  Li21  1  0.619963  0.991175  0.399112  1
  Li  Li22  1  0.619962  0.508825  0.399112  1
  Li  Li23  1  0.661464  0.750000  0.169587  1
  Li  Li24  1  0.694075  0.249999  0.695111  1
  Li  Li25  1  0.711412  0.009317  0.949317  1
  Li  Li26  1  0.711412  0.490683  0.949317  1
  Li  Li27  1  0.788590  0.509351  0.449330  1
  Li  Li28  1  0.788590  0.990649  0.449331  1
  Li  Li29  1  0.805933  0.750000  0.195135  1
  Li  Li30  1  0.838544  0.250000  0.669592  1
  Li  Li31  1  0.880051  0.491210  0.899127  1
  Li  Li32  1  0.880051  0.008790  0.899128  1
  Li  Li33  1  0.858605  0.750001  0.661819  1
  Li  Li34  1  0.930896  0.018328  0.466054  1
  Li  Li35  1  0.930897  0.481672  0.466055  1
  Al  Al36  1  0.004757  0.749999  0.839352  1
  Al  Al37  1  0.495255  0.250000  0.339355  1
  Al  Al38  1  0.504719  0.750000  0.660650  1
  Al  Al39  1  0.995276  0.250001  0.160655  1
  Co  Co40  1  0.033005  0.249999  0.768255  1
  Co  Co41  1  0.198419  0.750001  0.796459  1
  Co  Co42  1  0.301580  0.250001  0.296470  1
  Co  Co43  1  0.466984  0.750000  0.268241  1
  Co  Co44  1  0.532993  0.250003  0.731776  1
  Co  Co45  1  0.698398  0.749998  0.703515  1
  Co  Co46  1  0.801619  0.250001  0.203531  1
  Co  Co47  1  0.967022  0.750000  0.231760  1
  O  O48  1  0.023667  0.476591  0.289475  1
  O  O49  1  0.023667  0.023409  0.289476  1
  O  O50  1  0.083343  0.250000  0.005144  1
  O  O51  1  0.129298  0.250000  0.591365  1
  O  O52  1  0.141568  0.749999  0.568507  1
  O  O53  1  0.100601  0.749999  0.960228  1
  O  O54  1  0.223233  0.003179  0.278821  1
  O  O55  1  0.223233  0.496821  0.278820  1
  O  O56  1  0.276750  0.503162  0.778823  1
  O  O57  1  0.276749  0.996840  0.778823  1
  O  O58  1  0.399419  0.250001  0.460257  1
  O  O59  1  0.358413  0.249999  0.068487  1
  O  O60  1  0.370691  0.749999  0.091354  1
  O  O61  1  0.416662  0.750000  0.505147  1
  O  O62  1  0.476323  0.976593  0.789483  1
  O  O63  1  0.476324  0.523407  0.789485  1
  O  O64  1  0.523655  0.476559  0.210504  1
  O  O65  1  0.523654  0.023442  0.210505  1
  O  O66  1  0.583328  0.250001  0.494888  1
  O  O67  1  0.629298  0.249998  0.908607  1
  O  O68  1  0.641552  0.750001  0.931454  1
  O  O69  1  0.600583  0.750000  0.539804  1
  O  O70  1  0.723237  0.003179  0.221198  1
  O  O71  1  0.723238  0.496821  0.221200  1
  O  O72  1  0.776766  0.503208  0.721186  1
  O  O73  1  0.776766  0.996793  0.721185  1
  O  O74  1  0.899422  0.250002  0.039767  1
  O  O75  1  0.858448  0.249999  0.431452  1
  O  O76  1  0.870702  0.749999  0.408628  1
  O  O77  1  0.916691  0.750000  0.994900  1
  O  O78  1  0.976344  0.976559  0.710507  1
  O  O79  1  0.976344  0.523439  0.710508  1
