# generated using pymatgen
data_Li9Fe3(WO4)7
_symmetry_space_group_name_H-M   'P 1'
_cell_length_a   8.54878764
_cell_length_b   8.54878764
_cell_length_c   8.54878764
_cell_angle_alpha   89.86856532
_cell_angle_beta   90.13143468
_cell_angle_gamma   90.13143468
_symmetry_Int_Tables_number   1
_chemical_formula_structural   Li9Fe3(WO4)7
_chemical_formula_sum   'Li9 Fe3 W7 O28'
_cell_volume   624.75560989
_cell_formula_units_Z   1
loop_
 _symmetry_equiv_pos_site_id
 _symmetry_equiv_pos_as_xyz
  1  'x, y, z'
loop_
 _atom_site_type_symbol
 _atom_site_label
 _atom_site_symmetry_multiplicity
 _atom_site_fract_x
 _atom_site_fract_y
 _atom_site_fract_z
 _atom_site_occupancy
  Li  Li0  1  0.097628  0.360369  0.643440  1
  Li  Li1  1  0.097628  0.643440  0.360369  1
  Li  Li2  1  0.356560  0.360369  0.902372  1
  Li  Li3  1  0.356560  0.902372  0.360369  1
  Li  Li4  1  0.646032  0.095676  0.353968  1
  Li  Li5  1  0.646032  0.353968  0.095676  1
  Li  Li6  1  0.639631  0.643440  0.902372  1
  Li  Li7  1  0.639631  0.902372  0.643440  1
  Li  Li8  1  0.904324  0.353968  0.353968  1
  Fe  Fe9  1  0.362606  0.099806  0.637394  1
  Fe  Fe10  1  0.362606  0.637394  0.099806  1
  Fe  Fe11  1  0.900194  0.637394  0.637394  1
  W  W12  1  0.999479  0.000521  0.499006  1
  W  W13  1  0.999479  0.499006  0.000521  1
  W  W14  1  0.357685  0.358728  0.358728  1
  W  W15  1  0.354598  0.645402  0.645402  1
  W  W16  1  0.500994  0.000521  0.000521  1
  W  W17  1  0.641272  0.358728  0.642315  1
  W  W18  1  0.641272  0.642315  0.358728  1
  O  O19  1  0.148189  0.382364  0.382364  1
  O  O20  1  0.138058  0.613664  0.613664  1
  O  O21  1  0.122813  0.125608  0.622211  1
  O  O22  1  0.122813  0.622211  0.125608  1
  O  O23  1  0.121235  0.378008  0.878765  1
  O  O24  1  0.121235  0.878765  0.378008  1
  O  O25  1  0.377789  0.125608  0.877187  1
  O  O26  1  0.377789  0.877187  0.125608  1
  O  O27  1  0.391163  0.384783  0.608837  1
  O  O28  1  0.391163  0.608837  0.384783  1
  O  O29  1  0.384748  0.145800  0.385724  1
  O  O30  1  0.384748  0.385724  0.145800  1
  O  O31  1  0.386336  0.613664  0.861942  1
  O  O32  1  0.386336  0.861942  0.613664  1
  O  O33  1  0.614276  0.145800  0.615252  1
  O  O34  1  0.614276  0.615252  0.145800  1
  O  O35  1  0.617636  0.382364  0.851811  1
  O  O36  1  0.617636  0.851811  0.382364  1
  O  O37  1  0.608058  0.391942  0.391942  1
  O  O38  1  0.615217  0.608837  0.608837  1
  O  O39  1  0.621070  0.122987  0.122987  1
  O  O40  1  0.621992  0.878765  0.878765  1
  O  O41  1  0.877013  0.122987  0.378930  1
  O  O42  1  0.877013  0.378930  0.122987  1
  O  O43  1  0.874392  0.622211  0.877187  1
  O  O44  1  0.874392  0.877187  0.622211  1
  O  O45  1  0.854200  0.385724  0.615252  1
  O  O46  1  0.854200  0.615252  0.385724  1
