# generated using pymatgen
data_LiSn(PO3)3
_symmetry_space_group_name_H-M   'P 1'
_cell_length_a   10.91386365
_cell_length_b   12.66435931
_cell_length_c   5.61287474
_cell_angle_alpha   90.00000000
_cell_angle_beta   90.00000000
_cell_angle_gamma   90.00000000
_symmetry_Int_Tables_number   1
_chemical_formula_structural   LiSn(PO3)3
_chemical_formula_sum   'Li4 Sn4 P12 O36'
_cell_volume   775.79521716
_cell_formula_units_Z   4
loop_
 _symmetry_equiv_pos_site_id
 _symmetry_equiv_pos_as_xyz
  1  'x, y, z'
loop_
 _atom_site_type_symbol
 _atom_site_label
 _atom_site_symmetry_multiplicity
 _atom_site_fract_x
 _atom_site_fract_y
 _atom_site_fract_z
 _atom_site_occupancy
  Li  Li0  1  0.104643  0.097308  0.132298  1
  Li  Li1  1  0.395357  0.902692  0.632298  1
  Li  Li2  1  0.604643  0.402692  0.867702  1
  Li  Li3  1  0.895357  0.597308  0.367702  1
  Sn  Sn4  1  0.028469  0.867798  0.583183  1
  Sn  Sn5  1  0.471531  0.132202  0.083183  1
  Sn  Sn6  1  0.528469  0.632202  0.416817  1
  Sn  Sn7  1  0.971531  0.367798  0.916817  1
  P  P8  1  0.071653  0.631182  0.894765  1
  P  P9  1  0.159406  0.358175  0.397753  1
  P  P10  1  0.206154  0.819253  0.077810  1
  P  P11  1  0.293846  0.180747  0.577810  1
  P  P12  1  0.340594  0.641825  0.897753  1
  P  P13  1  0.428347  0.368818  0.394765  1
  P  P14  1  0.571653  0.868818  0.105235  1
  P  P15  1  0.659406  0.141825  0.602247  1
  P  P16  1  0.706154  0.680747  0.922190  1
  P  P17  1  0.793846  0.319253  0.422190  1
  P  P18  1  0.840594  0.858175  0.102247  1
  P  P19  1  0.928347  0.131182  0.605235  1
  O  O20  1  0.007935  0.059793  0.455157  1
  O  O21  1  0.030031  0.659489  0.647186  1
  O  O22  1  0.065157  0.430572  0.499262  1
  O  O23  1  0.089961  0.739116  0.049702  1
  O  O24  1  0.137953  0.305297  0.160222  1
  O  O25  1  0.218887  0.886645  0.857660  1
  O  O26  1  0.194047  0.872444  0.315803  1
  O  O27  1  0.183255  0.265128  0.595124  1
  O  O28  1  0.208671  0.582063  0.896701  1
  O  O29  1  0.291329  0.417937  0.396701  1
  O  O30  1  0.316745  0.734872  0.095124  1
  O  O31  1  0.305953  0.127556  0.815803  1
  O  O32  1  0.281113  0.113355  0.357660  1
  O  O33  1  0.362047  0.694703  0.660222  1
  O  O34  1  0.410039  0.260884  0.549702  1
  O  O35  1  0.434843  0.569428  0.999263  1
  O  O36  1  0.469969  0.340511  0.147186  1
  O  O37  1  0.492065  0.940207  0.955157  1
  O  O38  1  0.507935  0.440207  0.544843  1
  O  O39  1  0.530031  0.840511  0.352814  1
  O  O40  1  0.565157  0.069428  0.500737  1
  O  O41  1  0.589961  0.760884  0.950298  1
  O  O42  1  0.637953  0.194703  0.839778  1
  O  O43  1  0.718887  0.613355  0.142340  1
  O  O44  1  0.694047  0.627556  0.684197  1
  O  O45  1  0.683255  0.234872  0.404876  1
  O  O46  1  0.708671  0.917937  0.103299  1
  O  O47  1  0.791329  0.082063  0.603299  1
  O  O48  1  0.816745  0.765128  0.904876  1
  O  O49  1  0.805953  0.372444  0.184197  1
  O  O50  1  0.781113  0.386645  0.642340  1
  O  O51  1  0.862047  0.805297  0.339778  1
  O  O52  1  0.910039  0.239116  0.450298  1
  O  O53  1  0.934843  0.930572  0.000737  1
  O  O54  1  0.969969  0.159489  0.852814  1
  O  O55  1  0.992065  0.559793  0.044843  1
