# generated using pymatgen
data_Li7V6Ni5O24
_symmetry_space_group_name_H-M   'P 1'
_cell_length_a   5.83460094
_cell_length_b   5.89768180
_cell_length_c   13.10150141
_cell_angle_alpha   103.50071359
_cell_angle_beta   102.58188738
_cell_angle_gamma   90.25817976
_symmetry_Int_Tables_number   1
_chemical_formula_structural   Li7V6Ni5O24
_chemical_formula_sum   'Li7 V6 Ni5 O24'
_cell_volume   427.11714700
_cell_formula_units_Z   1
loop_
 _symmetry_equiv_pos_site_id
 _symmetry_equiv_pos_as_xyz
  1  'x, y, z'
loop_
 _atom_site_type_symbol
 _atom_site_label
 _atom_site_symmetry_multiplicity
 _atom_site_fract_x
 _atom_site_fract_y
 _atom_site_fract_z
 _atom_site_occupancy
  Li  Li0  1  0.500094  0.503893  0.001111  1
  Li  Li1  1  0.000820  0.504457  0.001719  1
  Li  Li2  1  0.328991  0.832530  0.165340  1
  Li  Li3  1  0.166667  0.166667  0.333333  1
  Li  Li4  1  0.004342  0.500803  0.501327  1
  Li  Li5  1  0.332513  0.828877  0.664948  1
  Li  Li6  1  0.833239  0.829441  0.665556  1
  V  V7  1  0.790689  0.043317  0.081689  1
  V  V8  1  0.872614  0.622328  0.250855  1
  V  V9  1  0.460718  0.711005  0.415812  1
  V  V10  1  0.542644  0.290017  0.584978  1
  V  V11  1  0.124720  0.374023  0.749623  1
  V  V12  1  0.208613  0.959310  0.917044  1
  Ni  Ni13  1  0.329548  0.333542  0.165485  1
  Ni  Ni14  1  0.666667  0.166667  0.333333  1
  Ni  Ni15  1  0.003786  0.999791  0.501182  1
  Ni  Ni16  1  0.666667  0.666667  0.833333  1
  Ni  Ni17  1  0.666667  0.166667  0.833333  1
  O  O18  1  0.749001  0.237568  0.998785  1
  O  O19  1  0.749529  0.759619  0.999324  1
  O  O20  1  0.074963  0.086567  0.161989  1
  O  O21  1  0.585653  0.088179  0.167120  1
  O  O22  1  0.590479  0.578221  0.168967  1
  O  O23  1  0.079561  0.580387  0.170865  1
  O  O24  1  0.907495  0.419719  0.329678  1
  O  O25  1  0.912476  0.914455  0.334248  1
  O  O26  1  0.425839  0.913615  0.336988  1
  O  O27  1  0.420857  0.418879  0.332418  1
  O  O28  1  0.742855  0.755112  0.497700  1
  O  O29  1  0.253772  0.752947  0.495802  1
  O  O30  1  0.258371  0.246766  0.504678  1
  O  O31  1  0.747681  0.245155  0.499547  1
  O  O32  1  0.583804  0.573715  0.667343  1
  O  O33  1  0.584332  0.095765  0.667882  1
  O  O34  1  0.085927  0.572186  0.673226  1
  O  O35  1  0.082568  0.093365  0.666585  1
  O  O36  1  0.418012  0.414878  0.831529  1
  O  O37  1  0.911327  0.415515  0.831877  1
  O  O38  1  0.915322  0.918456  0.835137  1
  O  O39  1  0.422006  0.917819  0.834790  1
  O  O40  1  0.250766  0.239969  0.000082  1
  O  O41  1  0.247406  0.761147  0.993441  1
