# generated using pymatgen
data_Li3Cr2(PS4)3
_symmetry_space_group_name_H-M   'P 1'
_cell_length_a   17.50965460
_cell_length_b   10.73783634
_cell_length_c   9.70839810
_cell_angle_alpha   90.00000000
_cell_angle_beta   85.55444750
_cell_angle_gamma   90.00000000
_symmetry_Int_Tables_number   1
_chemical_formula_structural   Li3Cr2(PS4)3
_chemical_formula_sum   'Li12 Cr8 P12 S48'
_cell_volume   1819.84067197
_cell_formula_units_Z   4
loop_
 _symmetry_equiv_pos_site_id
 _symmetry_equiv_pos_as_xyz
  1  'x, y, z'
loop_
 _atom_site_type_symbol
 _atom_site_label
 _atom_site_symmetry_multiplicity
 _atom_site_fract_x
 _atom_site_fract_y
 _atom_site_fract_z
 _atom_site_occupancy
  Li  Li0  1  0.040209  0.419688  0.237937  1
  Li  Li1  1  0.148977  0.910256  0.513336  1
  Li  Li2  1  0.224809  0.126494  0.993878  1
  Li  Li3  1  0.275191  0.626494  0.506122  1
  Li  Li4  1  0.351023  0.410256  0.986664  1
  Li  Li5  1  0.459791  0.919688  0.262063  1
  Li  Li6  1  0.540209  0.080312  0.737937  1
  Li  Li7  1  0.648977  0.589744  0.013336  1
  Li  Li8  1  0.724809  0.373506  0.493878  1
  Li  Li9  1  0.775191  0.873506  0.006122  1
  Li  Li10  1  0.851023  0.089744  0.486664  1
  Li  Li11  1  0.959791  0.580312  0.762063  1
  Cr  Cr12  1  0.098523  0.776979  0.102152  1
  Cr  Cr13  1  0.213668  0.266734  0.574582  1
  Cr  Cr14  1  0.286332  0.766734  0.925418  1
  Cr  Cr15  1  0.401477  0.276979  0.397848  1
  Cr  Cr16  1  0.598523  0.723021  0.602152  1
  Cr  Cr17  1  0.713668  0.233266  0.074582  1
  Cr  Cr18  1  0.786332  0.733266  0.425418  1
  Cr  Cr19  1  0.901477  0.223021  0.897848  1
  P  P20  1  0.056111  0.236531  0.729742  1
  P  P21  1  0.131974  0.697019  0.793120  1
  P  P22  1  0.249518  0.858400  0.228811  1
  P  P23  1  0.250482  0.358400  0.271189  1
  P  P24  1  0.368026  0.197019  0.706880  1
  P  P25  1  0.443889  0.736531  0.770258  1
  P  P26  1  0.556111  0.263469  0.229742  1
  P  P27  1  0.631974  0.802981  0.293120  1
  P  P28  1  0.749518  0.641600  0.728811  1
  P  P29  1  0.750482  0.141600  0.771189  1
  P  P30  1  0.868026  0.302981  0.206880  1
  P  P31  1  0.943889  0.763469  0.270258  1
  S  S32  1  0.042817  0.663478  0.295452  1
  S  S33  1  0.022661  0.119368  0.887900  1
  S  S34  1  0.061009  0.616370  0.945123  1
  S  S35  1  0.099021  0.146574  0.551743  1
  S  S36  1  0.081060  0.716644  0.618529  1
  S  S37  1  0.144854  0.946282  0.240546  1
  S  S38  1  0.142056  0.358001  0.764546  1
  S  S39  1  0.177735  0.437750  0.423660  1
  S  S40  1  0.162210  0.864257  0.890474  1
  S  S41  1  0.205903  0.347300  0.086002  1
  S  S42  1  0.223689  0.685676  0.140717  1
  S  S43  1  0.238234  0.612087  0.772952  1
  S  S44  1  0.261766  0.112087  0.727048  1
  S  S45  1  0.276311  0.185676  0.359283  1
  S  S46  1  0.294097  0.847300  0.413998  1
  S  S47  1  0.322265  0.937750  0.076340  1
  S  S48  1  0.337790  0.364257  0.609526  1
  S  S49  1  0.355146  0.446282  0.259454  1
  S  S50  1  0.357944  0.858001  0.735454  1
  S  S51  1  0.418940  0.216644  0.881471  1
  S  S52  1  0.400979  0.646574  0.948257  1
  S  S53  1  0.438991  0.116370  0.554877  1
  S  S54  1  0.457183  0.163478  0.204548  1
  S  S55  1  0.477339  0.619368  0.612100  1
  S  S56  1  0.522661  0.380632  0.387900  1
  S  S57  1  0.542817  0.836522  0.795452  1
  S  S58  1  0.561009  0.883630  0.445123  1
  S  S59  1  0.599021  0.353426  0.051743  1
  S  S60  1  0.581060  0.783356  0.118529  1
  S  S61  1  0.642056  0.141999  0.264546  1
  S  S62  1  0.644854  0.553718  0.740546  1
  S  S63  1  0.662210  0.635743  0.390474  1
  S  S64  1  0.677735  0.062250  0.923660  1
  S  S65  1  0.705903  0.152700  0.586002  1
  S  S66  1  0.723689  0.814324  0.640717  1
  S  S67  1  0.738234  0.887913  0.272952  1
  S  S68  1  0.761766  0.387913  0.227048  1
  S  S69  1  0.776311  0.314324  0.859283  1
  S  S70  1  0.794097  0.652700  0.913998  1
  S  S71  1  0.837790  0.135743  0.109526  1
  S  S72  1  0.822265  0.562250  0.576340  1
  S  S73  1  0.857944  0.641999  0.235454  1
  S  S74  1  0.855146  0.053718  0.759454  1
  S  S75  1  0.918940  0.283356  0.381471  1
  S  S76  1  0.900979  0.853426  0.448257  1
  S  S77  1  0.938991  0.383630  0.054877  1
  S  S78  1  0.977339  0.880632  0.112100  1
  S  S79  1  0.957183  0.336522  0.704548  1
