# generated using pymatgen
data_SrLa2Cl8
_symmetry_space_group_name_H-M   'P 1'
_cell_length_a   7.70469559
_cell_length_b   7.70469559
_cell_length_c   5.53791098
_cell_angle_alpha   81.82211904
_cell_angle_beta   98.17788096
_cell_angle_gamma   68.89632712
_symmetry_Int_Tables_number   1
_chemical_formula_structural   SrLa2Cl8
_chemical_formula_sum   'Sr1 La2 Cl8'
_cell_volume   296.83902495
_cell_formula_units_Z   1
loop_
 _symmetry_equiv_pos_site_id
 _symmetry_equiv_pos_as_xyz
  1  'x, y, z'
loop_
 _atom_site_type_symbol
 _atom_site_label
 _atom_site_symmetry_multiplicity
 _atom_site_fract_x
 _atom_site_fract_y
 _atom_site_fract_z
 _atom_site_occupancy
  Sr  Sr0  1  0.000000  0.000000  0.000000  1
  La  La1  1  0.682027  0.682027  0.500000  1
  La  La2  1  0.317973  0.317973  0.500000  1
  Cl  Cl3  1  0.322139  0.938380  0.578056  1
  Cl  Cl4  1  0.061620  0.677861  0.578056  1
  Cl  Cl5  1  0.370796  0.629204  0.188132  1
  Cl  Cl6  1  0.238499  0.238499  0.000000  1
  Cl  Cl7  1  0.761501  0.761501  0.000000  1
  Cl  Cl8  1  0.629204  0.370796  0.811868  1
  Cl  Cl9  1  0.677861  0.061620  0.421944  1
  Cl  Cl10  1  0.938380  0.322139  0.421944  1
