# generated using pymatgen
data_Be(FeO2)2
_symmetry_space_group_name_H-M   'P 1'
_cell_length_a   4.64980841
_cell_length_b   10.05975990
_cell_length_c   5.87237444
_cell_angle_alpha   89.71121138
_cell_angle_beta   89.90116311
_cell_angle_gamma   90.05832848
_symmetry_Int_Tables_number   1
_chemical_formula_structural   Be(FeO2)2
_chemical_formula_sum   'Be4 Fe8 O16'
_cell_volume   274.68188699
_cell_formula_units_Z   4
loop_
 _symmetry_equiv_pos_site_id
 _symmetry_equiv_pos_as_xyz
  1  'x, y, z'
loop_
 _atom_site_type_symbol
 _atom_site_label
 _atom_site_symmetry_multiplicity
 _atom_site_fract_x
 _atom_site_fract_y
 _atom_site_fract_z
 _atom_site_occupancy
  Be  Be0  1  0.072291  0.592227  0.249466  1
  Be  Be1  1  0.427521  0.093401  0.249071  1
  Be  Be2  1  0.570119  0.907613  0.750428  1
  Be  Be3  1  0.930603  0.406631  0.750887  1
  Fe  Fe4  1  0.998532  0.000481  0.000031  1
  Fe  Fe5  1  0.998613  0.000510  0.499696  1
  Fe  Fe6  1  0.009655  0.726929  0.749451  1
  Fe  Fe7  1  0.490671  0.226522  0.748401  1
  Fe  Fe8  1  0.501567  0.500123  0.500532  1
  Fe  Fe9  1  0.501754  0.499957  -0.000037  1
  Fe  Fe10  1  0.507450  0.773563  0.251470  1
  Fe  Fe11  1  0.989586  0.274032  0.250668  1
  O  O12  1  0.231590  0.439830  0.250305  1
  O  O13  1  0.234799  0.662576  0.025826  1
  O  O14  1  0.236334  0.662596  0.472512  1
  O  O15  1  0.228173  0.908260  0.749312  1
  O  O16  1  0.271831  0.408101  0.749430  1
  O  O17  1  0.264625  0.163625  0.026286  1
  O  O18  1  0.263461  0.163111  0.472307  1
  O  O19  1  0.270051  0.940235  0.250083  1
  O  O20  1  0.727822  0.060063  0.749698  1
  O  O21  1  0.735230  0.837025  0.527630  1
  O  O22  1  0.733364  0.836567  0.973522  1
  O  O23  1  0.730586  0.590944  0.250797  1
  O  O24  1  0.769368  0.092077  0.250364  1
  O  O25  1  0.765300  0.336607  0.528508  1
  O  O26  1  0.766358  0.336711  0.973441  1
  O  O27  1  0.772745  0.559684  0.749911  1
