# generated using pymatgen
data_Mn6O5F7
_symmetry_space_group_name_H-M   'P 1'
_cell_length_a   4.77165227
_cell_length_b   4.73215584
_cell_length_c   9.49334399
_cell_angle_alpha   90.00000000
_cell_angle_beta   90.00000000
_cell_angle_gamma   94.48669244
_symmetry_Int_Tables_number   1
_chemical_formula_structural   Mn6O5F7
_chemical_formula_sum   'Mn6 O5 F7'
_cell_volume   213.70472160
_cell_formula_units_Z   1
loop_
 _symmetry_equiv_pos_site_id
 _symmetry_equiv_pos_as_xyz
  1  'x, y, z'
loop_
 _atom_site_type_symbol
 _atom_site_label
 _atom_site_symmetry_multiplicity
 _atom_site_fract_x
 _atom_site_fract_y
 _atom_site_fract_z
 _atom_site_occupancy
  Mn  Mn0  1  0.993931  0.981609  0.000000  1
  Mn  Mn1  1  0.025187  0.012399  0.339127  1
  Mn  Mn2  1  0.025187  0.012399  0.660873  1
  Mn  Mn3  1  0.491791  0.481904  0.841758  1
  Mn  Mn4  1  0.491791  0.481904  0.158242  1
  Mn  Mn5  1  0.459013  0.510775  0.500000  1
  O  O6  1  0.188535  0.832990  0.500000  1
  O  O7  1  0.295530  0.281241  0.000000  1
  O  O8  1  0.307199  0.316845  0.324980  1
  O  O9  1  0.307199  0.316845  0.675020  1
  O  O10  1  0.693111  0.678930  0.000000  1
  F  F11  1  0.194144  0.798827  0.164167  1
  F  F12  1  0.194144  0.798827  0.835833  1
  F  F13  1  0.704732  0.707304  0.326251  1
  F  F14  1  0.704732  0.707304  0.673749  1
  F  F15  1  0.818474  0.179693  0.174356  1
  F  F16  1  0.786827  0.220509  0.500000  1
  F  F17  1  0.818474  0.179693  0.825644  1
