# generated using pymatgen
data_K2P2H2O7
_symmetry_space_group_name_H-M   'P 1'
_cell_length_a   7.78221800
_cell_length_b   9.05047492
_cell_length_c   7.25687345
_cell_angle_alpha   105.86141204
_cell_angle_beta   100.33665523
_cell_angle_gamma   111.55928427
_symmetry_Int_Tables_number   1
_chemical_formula_structural   K2P2H2O7
_chemical_formula_sum   'K4 P4 H4 O14'
_cell_volume   434.31336127
_cell_formula_units_Z   2
loop_
 _symmetry_equiv_pos_site_id
 _symmetry_equiv_pos_as_xyz
  1  'x, y, z'
loop_
 _atom_site_type_symbol
 _atom_site_label
 _atom_site_symmetry_multiplicity
 _atom_site_fract_x
 _atom_site_fract_y
 _atom_site_fract_z
 _atom_site_occupancy
  K  K0  1  0.216250  0.097423  0.824013  1
  K  K1  1  0.783750  0.902577  0.175987  1
  K  K2  1  0.698525  0.458409  0.220852  1
  K  K3  1  0.301475  0.541591  0.779148  1
  P  P4  1  0.643914  0.316132  0.681548  1
  P  P5  1  0.356086  0.683868  0.318452  1
  P  P6  1  0.247989  0.088186  0.329643  1
  P  P7  1  0.752011  0.911814  0.670357  1
  H  H8  1  0.151846  0.781853  0.375456  1
  H  H9  1  0.848154  0.218147  0.624544  1
  H  H10  1  0.673166  0.099353  0.863466  1
  H  H11  1  0.326834  0.900647  0.136534  1
  O  O12  1  0.714121  0.604954  0.937064  1
  O  O13  1  0.285879  0.395046  0.062936  1
  O  O14  1  0.403792  0.761365  0.163700  1
  O  O15  1  0.596208  0.238635  0.836300  1
  O  O16  1  0.849330  0.342937  0.658926  1
  O  O17  1  0.150670  0.657063  0.341074  1
  O  O18  1  0.500302  0.203824  0.460501  1
  O  O19  1  0.499698  0.796176  0.539499  1
  O  O20  1  0.171974  0.951607  0.425046  1
  O  O21  1  0.828026  0.048393  0.574954  1
  O  O22  1  0.280705  -0.009948  0.122873  1
  O  O23  1  0.719295  0.009948  0.877127  1
  O  O24  1  0.625072  0.491131  0.718718  1
  O  O25  1  0.374928  0.508869  0.281282  1
