# generated using pymatgen
data_Li5Mn2V5O12
_symmetry_space_group_name_H-M   'P 1'
_cell_length_a   5.24706162
_cell_length_b   5.24706183
_cell_length_c   9.97902498
_cell_angle_alpha   85.01259185
_cell_angle_beta   94.98741082
_cell_angle_gamma   60.64990393
_symmetry_Int_Tables_number   1
_chemical_formula_structural   Li5Mn2V5O12
_chemical_formula_sum   'Li5 Mn2 V5 O12'
_cell_volume   235.89723819
_cell_formula_units_Z   1
loop_
 _symmetry_equiv_pos_site_id
 _symmetry_equiv_pos_as_xyz
  1  'x, y, z'
loop_
 _atom_site_type_symbol
 _atom_site_label
 _atom_site_symmetry_multiplicity
 _atom_site_fract_x
 _atom_site_fract_y
 _atom_site_fract_z
 _atom_site_occupancy
  Li  Li0  1  0.170456  0.661574  0.511583  1
  Li  Li1  1  0.314167  0.846811  0.987732  1
  Li  Li2  1  0.661574  0.170456  0.988417  1
  Li  Li3  1  0.846811  0.314167  0.512268  1
  Li  Li4  1  0.918084  0.918084  0.750000  1
  Mn  Mn5  1  0.246108  0.246108  0.750000  1
  Mn  Mn6  1  0.752252  0.752252  0.250000  1
  V  V7  1  0.999392  0.513513  0.991054  1
  V  V8  1  0.513513  0.999392  0.508946  1
  V  V9  1  0.421349  0.421349  0.250000  1
  V  V10  1  0.577124  0.577124  0.750000  1
  V  V11  1  0.082710  0.082710  0.250000  1
  O  O12  1  0.933831  0.239300  0.872970  1
  O  O13  1  0.239300  0.933831  0.627030  1
  O  O14  1  0.157791  0.348673  0.371400  1
  O  O15  1  0.348673  0.157791  0.128600  1
  O  O16  1  0.284260  0.542988  0.877922  1
  O  O17  1  0.542988  0.284260  0.622078  1
  O  O18  1  0.434791  0.731824  0.367241  1
  O  O19  1  0.731824  0.434791  0.132759  1
  O  O20  1  0.638179  0.840659  0.880184  1
  O  O21  1  0.840659  0.638179  0.619816  1
  O  O22  1  0.779405  0.064760  0.368857  1
  O  O23  1  0.064760  0.779405  0.131143  1
