# generated using pymatgen
data_Li4Ti3Mn2Ni3O16
_symmetry_space_group_name_H-M   'P 1'
_cell_length_a   5.86290739
_cell_length_b   5.83923266
_cell_length_c   9.43493173
_cell_angle_alpha   90.00093408
_cell_angle_beta   91.40476782
_cell_angle_gamma   119.87033140
_symmetry_Int_Tables_number   1
_chemical_formula_structural   Li4Ti3Mn2Ni3O16
_chemical_formula_sum   'Li4 Ti3 Mn2 Ni3 O16'
_cell_volume   279.98221653
_cell_formula_units_Z   1
loop_
 _symmetry_equiv_pos_site_id
 _symmetry_equiv_pos_as_xyz
  1  'x, y, z'
loop_
 _atom_site_type_symbol
 _atom_site_label
 _atom_site_symmetry_multiplicity
 _atom_site_fract_x
 _atom_site_fract_y
 _atom_site_fract_z
 _atom_site_occupancy
  Li  Li0  1  0.333593  0.666796  0.894280  1
  Li  Li1  1  0.973595  0.986820  0.990298  1
  Li  Li2  1  0.992467  0.996224  0.494889  1
  Li  Li3  1  0.672889  0.336463  0.400024  1
  Ti  Ti4  1  0.175206  0.835806  0.212219  1
  Ti  Ti5  1  0.175212  0.339431  0.212219  1
  Ti  Ti6  1  0.338148  0.169077  0.715315  1
  Mn  Mn7  1  0.340417  0.670215  0.486075  1
  Mn  Mn8  1  0.676986  0.338505  0.981106  1
  Ni  Ni9  1  0.656992  0.828505  0.211358  1
  Ni  Ni10  1  0.826489  0.658830  0.710420  1
  Ni  Ni11  1  0.826570  0.167726  0.710392  1
  O  O12  1  0.186869  0.843428  0.598569  1
  O  O13  1  0.044864  0.522434  0.341894  1
  O  O14  1  0.314580  0.657319  0.100859  1
  O  O15  1  0.007713  0.003859  0.305902  1
  O  O16  1  0.989279  0.994613  0.800813  1
  O  O17  1  0.186869  0.343457  0.598581  1
  O  O18  1  0.470681  0.958556  0.349962  1
  O  O19  1  0.470648  0.512117  0.349971  1
  O  O20  1  0.340915  0.170481  0.103648  1
  O  O21  1  0.669221  0.834620  0.594108  1
  O  O22  1  0.509559  0.469000  0.849441  1
  O  O23  1  0.509533  0.040560  0.849430  1
  O  O24  1  0.669479  0.334792  0.608414  1
  O  O25  1  0.843556  0.662430  0.096571  1
  O  O26  1  0.954092  0.477060  0.844516  1
  O  O27  1  0.843578  0.181176  0.096567  1
