# generated using pymatgen
data_Li2MnFe(BO3)2
_symmetry_space_group_name_H-M   'P 1'
_cell_length_a   11.02317167
_cell_length_b   5.24275904
_cell_length_c   5.21773077
_cell_angle_alpha   60.17474240
_cell_angle_beta   87.53112853
_cell_angle_gamma   75.91099381
_symmetry_Int_Tables_number   1
_chemical_formula_structural   Li2MnFe(BO3)2
_chemical_formula_sum   'Li4 Mn2 Fe2 B4 O12'
_cell_volume   252.64020017
_cell_formula_units_Z   2
loop_
 _symmetry_equiv_pos_site_id
 _symmetry_equiv_pos_as_xyz
  1  'x, y, z'
loop_
 _atom_site_type_symbol
 _atom_site_label
 _atom_site_symmetry_multiplicity
 _atom_site_fract_x
 _atom_site_fract_y
 _atom_site_fract_z
 _atom_site_occupancy
  Li  Li0  1  0.160526  0.375701  0.395249  1
  Li  Li1  1  0.339474  0.624299  0.104751  1
  Li  Li2  1  0.659405  0.373526  0.892814  1
  Li  Li3  1  0.840595  0.626474  0.607186  1
  Mn  Mn4  1  0.116323  0.756928  0.719666  1
  Mn  Mn5  1  0.383677  0.243072  0.780334  1
  Fe  Fe6  1  0.621373  0.743020  0.230245  1
  Fe  Fe7  1  0.878627  0.256980  0.269755  1
  B  B8  1  0.128698  0.080037  0.057272  1
  B  B9  1  0.371302  0.919963  0.442728  1
  B  B10  1  0.632138  0.075727  0.553966  1
  B  B11  1  0.867862  0.924273  0.946034  1
  O  O12  1  0.158951  0.311723  0.799045  1
  O  O13  1  0.083940  0.137341  0.283849  1
  O  O14  1  0.147828  0.792918  0.094853  1
  O  O15  1  0.341049  0.688277  0.700955  1
  O  O16  1  0.352172  0.207082  0.405147  1
  O  O17  1  0.416060  0.862659  0.216151  1
  O  O18  1  0.592428  0.118661  0.790394  1
  O  O19  1  0.648751  0.792619  0.581931  1
  O  O20  1  0.658214  0.314508  0.293856  1
  O  O21  1  0.851249  0.207381  0.918069  1
  O  O22  1  0.907572  0.881339  0.709606  1
  O  O23  1  0.841786  0.685492  0.206144  1
