# generated using pymatgen
data_LiAgF3
_symmetry_space_group_name_H-M   'P 1'
_cell_length_a   6.55647090
_cell_length_b   6.55647069
_cell_length_c   10.94797526
_cell_angle_alpha   40.12865276
_cell_angle_beta   40.12865472
_cell_angle_gamma   73.88997133
_symmetry_Int_Tables_number   1
_chemical_formula_structural   LiAgF3
_chemical_formula_sum   'Li2 Ag2 F6'
_cell_volume   131.62251641
_cell_formula_units_Z   2
loop_
 _symmetry_equiv_pos_site_id
 _symmetry_equiv_pos_as_xyz
  1  'x, y, z'
loop_
 _atom_site_type_symbol
 _atom_site_label
 _atom_site_symmetry_multiplicity
 _atom_site_fract_x
 _atom_site_fract_y
 _atom_site_fract_z
 _atom_site_occupancy
  Li  Li0  1  0.997384  0.498868  0.999706  1
  Li  Li1  1  0.498868  0.997384  0.999706  1
  Ag  Ag2  1  0.500498  0.500498  0.498581  1
  Ag  Ag3  1  0.996030  0.996030  0.499965  1
  F  F4  1  0.143334  0.143334  0.999321  1
  F  F5  1  0.669370  0.047263  0.500317  1
  F  F6  1  0.047263  0.669370  0.500317  1
  F  F7  1  0.943765  0.321813  0.499522  1
  F  F8  1  0.321813  0.943765  0.499522  1
  F  F9  1  0.856947  0.856947  0.998173  1
