# generated using pymatgen
data_SrLaCl5
_symmetry_space_group_name_H-M   'P 1'
_cell_length_a   13.88667430
_cell_length_b   9.26424091
_cell_length_c   12.66715619
_cell_angle_alpha   90.00000000
_cell_angle_beta   86.78132760
_cell_angle_gamma   90.00000000
_symmetry_Int_Tables_number   1
_chemical_formula_structural   SrLaCl5
_chemical_formula_sum   'Sr8 La8 Cl40'
_cell_volume   1627.05256296
_cell_formula_units_Z   8
loop_
 _symmetry_equiv_pos_site_id
 _symmetry_equiv_pos_as_xyz
  1  'x, y, z'
loop_
 _atom_site_type_symbol
 _atom_site_label
 _atom_site_symmetry_multiplicity
 _atom_site_fract_x
 _atom_site_fract_y
 _atom_site_fract_z
 _atom_site_occupancy
  Sr  Sr0  1  0.231200  0.755368  0.843219  1
  Sr  Sr1  1  0.282777  0.753857  0.481743  1
  Sr  Sr2  1  0.268800  0.255368  0.656781  1
  Sr  Sr3  1  0.217223  0.253857  0.018257  1
  Sr  Sr4  1  0.782777  0.746143  0.981743  1
  Sr  Sr5  1  0.731200  0.744632  0.343219  1
  Sr  Sr6  1  0.717223  0.246143  0.518257  1
  Sr  Sr7  1  0.768800  0.244632  0.156781  1
  La  La8  1  0.975429  0.252835  0.806774  1
  La  La9  1  0.096716  0.254908  0.362988  1
  La  La10  1  0.403284  0.754908  0.137012  1
  La  La11  1  0.524571  0.752835  0.693226  1
  La  La12  1  0.475429  0.247165  0.306774  1
  La  La13  1  0.596716  0.245092  0.862988  1
  La  La14  1  0.903284  0.745092  0.637012  1
  La  La15  1  0.024571  0.747165  0.193226  1
  Cl  Cl16  1  0.040667  0.272757  0.596646  1
  Cl  Cl17  1  0.107672  0.744210  0.641032  1
  Cl  Cl18  1  0.051274  0.763461  0.980034  1
  Cl  Cl19  1  0.150260  0.429601  0.834989  1
  Cl  Cl20  1  0.077534  0.045841  0.204388  1
  Cl  Cl21  1  0.084099  0.442362  0.186575  1
  Cl  Cl22  1  0.154007  0.078622  0.826738  1
  Cl  Cl23  1  0.213306  0.452864  0.464460  1
  Cl  Cl24  1  0.200649  0.050748  0.473972  1
  Cl  Cl25  1  0.214086  0.743813  0.265800  1
  Cl  Cl26  1  0.345993  0.578622  0.673262  1
  Cl  Cl27  1  0.285914  0.243813  0.234200  1
  Cl  Cl28  1  0.299351  0.550748  0.026028  1
  Cl  Cl29  1  0.286694  0.952864  0.035540  1
  Cl  Cl30  1  0.349740  0.929601  0.665011  1
  Cl  Cl31  1  0.392328  0.244210  0.858968  1
  Cl  Cl32  1  0.415901  0.942362  0.313425  1
  Cl  Cl33  1  0.422466  0.545841  0.295612  1
  Cl  Cl34  1  0.459333  0.772757  0.903354  1
  Cl  Cl35  1  0.448726  0.263461  0.519966  1
  Cl  Cl36  1  0.551274  0.736539  0.480034  1
  Cl  Cl37  1  0.540667  0.227243  0.096646  1
  Cl  Cl38  1  0.577534  0.454159  0.704388  1
  Cl  Cl39  1  0.584099  0.057638  0.686575  1
  Cl  Cl40  1  0.607672  0.755790  0.141032  1
  Cl  Cl41  1  0.650260  0.070399  0.334989  1
  Cl  Cl42  1  0.713306  0.047136  0.964460  1
  Cl  Cl43  1  0.700649  0.449252  0.973972  1
  Cl  Cl44  1  0.714086  0.756187  0.765800  1
  Cl  Cl45  1  0.654007  0.421378  0.326738  1
  Cl  Cl46  1  0.785914  0.256187  0.734200  1
  Cl  Cl47  1  0.799351  0.949252  0.526028  1
  Cl  Cl48  1  0.786694  0.547136  0.535540  1
  Cl  Cl49  1  0.845993  0.921378  0.173262  1
  Cl  Cl50  1  0.915901  0.557638  0.813425  1
  Cl  Cl51  1  0.922466  0.954159  0.795612  1
  Cl  Cl52  1  0.849740  0.570399  0.165011  1
  Cl  Cl53  1  0.948726  0.236539  0.019966  1
  Cl  Cl54  1  0.892328  0.255790  0.358968  1
  Cl  Cl55  1  0.959333  0.727243  0.403354  1
