# generated using pymatgen
data_K2SrTa2O7
_symmetry_space_group_name_H-M   'P 1'
_cell_length_a   4.01787117
_cell_length_b   4.01787117
_cell_length_c   11.40392275
_cell_angle_alpha   100.14627485
_cell_angle_beta   100.14627487
_cell_angle_gamma   90.00000008
_symmetry_Int_Tables_number   1
_chemical_formula_structural   K2SrTa2O7
_chemical_formula_sum   'K2 Sr1 Ta2 O7'
_cell_volume   178.29223565
_cell_formula_units_Z   1
loop_
 _symmetry_equiv_pos_site_id
 _symmetry_equiv_pos_as_xyz
  1  'x, y, z'
loop_
 _atom_site_type_symbol
 _atom_site_label
 _atom_site_symmetry_multiplicity
 _atom_site_fract_x
 _atom_site_fract_y
 _atom_site_fract_z
 _atom_site_occupancy
  O  O0  1  0.500000  0.500000  0.000000  1
  O  O1  1  0.319089  0.319089  0.638177  1
  O  O2  1  0.680911  0.680911  0.361823  1
  O  O3  1  0.412617  0.912617  0.825233  1
  O  O4  1  0.912617  0.412617  0.825233  1
  O  O5  1  0.087383  0.587383  0.174767  1
  O  O6  1  0.587383  0.087383  0.174767  1
  K  K7  1  0.806830  0.806830  0.613659  1
  K  K8  1  0.193170  0.193170  0.386341  1
  Sr  Sr9  1  0.000000  0.000000  0.000000  1
  Ta  Ta10  1  0.596066  0.596066  0.192132  1
  Ta  Ta11  1  0.403934  0.403934  0.807868  1
