# generated using pymatgen
data_LiMnPO4F
_symmetry_space_group_name_H-M   'P 1'
_cell_length_a   12.87747760
_cell_length_b   5.11096059
_cell_length_c   13.11363565
_cell_angle_alpha   89.69880291
_cell_angle_beta   60.24123797
_cell_angle_gamma   89.65125825
_symmetry_Int_Tables_number   1
_chemical_formula_structural   LiMnPO4F
_chemical_formula_sum   'Li8 Mn8 P8 O32 F8'
_cell_volume   749.25247348
_cell_formula_units_Z   8
loop_
 _symmetry_equiv_pos_site_id
 _symmetry_equiv_pos_as_xyz
  1  'x, y, z'
loop_
 _atom_site_type_symbol
 _atom_site_label
 _atom_site_symmetry_multiplicity
 _atom_site_fract_x
 _atom_site_fract_y
 _atom_site_fract_z
 _atom_site_occupancy
  Li  Li0  1  0.158241  0.207763  0.171151  1
  Li  Li1  1  0.158494  0.275417  0.668276  1
  Li  Li2  1  0.083887  0.748647  0.844113  1
  Li  Li3  1  0.406487  0.262221  0.414394  1
  Li  Li4  1  0.580127  0.755237  0.081132  1
  Li  Li5  1  0.671781  0.257482  0.163597  1
  Li  Li6  1  0.593655  0.737573  0.589721  1
  Li  Li7  1  0.892417  0.243585  0.676817  1
  Mn  Mn8  1  0.063673  0.717879  0.119043  1
  Mn  Mn9  1  0.070569  0.771877  0.604564  1
  Mn  Mn10  1  0.423338  0.211857  0.179430  1
  Mn  Mn11  1  0.576448  0.710124  0.322192  1
  Mn  Mn12  1  0.430937  0.302401  0.687903  1
  Mn  Mn13  1  0.570094  0.790281  0.818300  1
  Mn  Mn14  1  0.932566  0.213164  0.386536  1
  Mn  Mn15  1  0.925635  0.283123  0.895768  1
  P  P16  1  0.161888  0.266844  0.423562  1
  P  P17  1  0.337488  0.721103  0.079311  1
  P  P18  1  0.157645  0.235751  0.925500  1
  P  P19  1  0.339669  0.771897  0.577510  1
  P  P20  1  0.657935  0.223074  0.425482  1
  P  P21  1  0.836592  0.769641  0.077314  1
  P  P22  1  0.656300  0.274165  0.924069  1
  P  P23  1  0.843907  0.736386  0.574685  1
  O  O24  1  0.129327  0.381902  0.039740  1
  O  O25  1  0.209174  0.824313  0.121439  1
  O  O26  1  0.095718  0.152850  0.362991  1
  O  O27  1  0.137522  0.555284  0.453690  1
  O  O28  1  0.127215  0.117834  0.542120  1
  O  O29  1  0.335372  0.427881  0.108918  1
  O  O30  1  0.389031  0.868353  0.149196  1
  O  O31  1  0.298278  0.211199  0.345329  1
  O  O32  1  0.206778  0.679053  0.630109  1
  O  O33  1  0.086414  0.369369  0.868742  1
  O  O34  1  0.120818  0.947345  0.949909  1
  O  O35  1  0.410202  0.660422  0.449973  1
  O  O36  1  0.346104  0.073572  0.580271  1
  O  O37  1  0.596918  0.153936  0.051919  1
  O  O38  1  0.385046  0.641731  0.653986  1
  O  O39  1  0.289445  0.274655  0.836220  1
  O  O40  1  0.703622  0.673214  0.154422  1
  O  O41  1  0.618027  0.359435  0.342056  1
  O  O42  1  0.411306  0.793087  0.949124  1
  O  O43  1  0.626735  0.930497  0.430057  1
  O  O44  1  0.585462  0.355414  0.547281  1
  O  O45  1  0.835093  0.068052  0.059635  1
  O  O46  1  0.906232  0.673640  0.136526  1
  O  O47  1  0.789628  0.282622  0.376820  1
  O  O48  1  0.709302  0.788628  0.658717  1
  O  O49  1  0.615191  0.127018  0.849636  1
  O  O50  1  0.625600  0.566597  0.932442  1
  O  O51  1  0.876290  0.876994  0.458767  1
  O  O52  1  0.873092  0.442690  0.555162  1
  O  O53  1  0.912921  0.866726  0.632454  1
  O  O54  1  0.794193  0.228031  0.865199  1
  O  O55  1  0.882657  0.637178  0.955524  1
  F  F56  1  0.012608  0.488376  0.275206  1
  F  F57  1  0.019737  0.002587  0.780404  1
  F  F58  1  0.493711  0.495948  0.219669  1
  F  F59  1  0.525228  0.011254  0.271883  1
  F  F60  1  0.494030  0.993959  0.713564  1
  F  F61  1  0.521743  0.505975  0.760419  1
  F  F62  1  0.002903  0.014749  0.215681  1
  F  F63  1  0.999008  0.475058  0.711448  1
