# generated using pymatgen
data_Li2FeBO4
_symmetry_space_group_name_H-M   'P 1'
_cell_length_a   5.82714844
_cell_length_b   10.78449099
_cell_length_c   4.81521527
_cell_angle_alpha   89.99946645
_cell_angle_beta   90.00016394
_cell_angle_gamma   90.00011411
_symmetry_Int_Tables_number   1
_chemical_formula_structural   Li2FeBO4
_chemical_formula_sum   'Li8 Fe4 B4 O16'
_cell_volume   302.60175389
_cell_formula_units_Z   4
loop_
 _symmetry_equiv_pos_site_id
 _symmetry_equiv_pos_as_xyz
  1  'x, y, z'
loop_
 _atom_site_type_symbol
 _atom_site_label
 _atom_site_symmetry_multiplicity
 _atom_site_fract_x
 _atom_site_fract_y
 _atom_site_fract_z
 _atom_site_occupancy
  Li  Li0  1  0.996622  0.416037  0.197323  1
  Li  Li1  1  0.996625  0.916039  0.302679  1
  Li  Li2  1  0.503375  0.916040  0.302678  1
  Li  Li3  1  0.503379  0.416037  0.197324  1
  Li  Li4  1  0.496623  0.083962  0.697325  1
  Li  Li5  1  0.496624  0.583962  0.802677  1
  Li  Li6  1  0.003378  0.583962  0.802675  1
  Li  Li7  1  0.003377  0.083962  0.697324  1
  Fe  Fe8  1  0.249997  0.178217  0.188392  1
  Fe  Fe9  1  0.250001  0.678228  0.311604  1
  Fe  Fe10  1  0.750001  0.321768  0.688391  1
  Fe  Fe11  1  0.750000  0.821786  0.811612  1
  B  B12  1  0.249998  0.335766  0.682442  1
  B  B13  1  0.250000  0.835778  0.817554  1
  B  B14  1  0.750001  0.664232  0.317558  1
  B  B15  1  0.749998  0.164224  0.182444  1
  O  O16  1  0.037060  0.402634  0.780404  1
  O  O17  1  0.037058  0.902634  0.719597  1
  O  O18  1  0.250000  0.333117  0.373699  1
  O  O19  1  0.250001  0.704080  0.707256  1
  O  O20  1  0.250000  0.833105  0.126314  1
  O  O21  1  0.250000  0.204085  0.792729  1
  O  O22  1  0.462943  0.902634  0.719596  1
  O  O23  1  0.462938  0.402635  0.780407  1
  O  O24  1  0.537064  0.597365  0.219595  1
  O  O25  1  0.537055  0.097368  0.280406  1
  O  O26  1  0.749999  0.666884  0.626297  1
  O  O27  1  0.750001  0.166894  0.873685  1
  O  O28  1  0.750000  0.295921  0.292735  1
  O  O29  1  0.750002  0.795914  0.207270  1
  O  O30  1  0.962942  0.597364  0.219598  1
  O  O31  1  0.962941  0.097366  0.280409  1
