# generated using pymatgen
data_LiNbNiO4
_symmetry_space_group_name_H-M   'P 1'
_cell_length_a   6.02914855
_cell_length_b   6.07717659
_cell_length_c   6.07717628
_cell_angle_alpha   61.28974968
_cell_angle_beta   60.26108018
_cell_angle_gamma   60.26108184
_symmetry_Int_Tables_number   1
_chemical_formula_structural   LiNbNiO4
_chemical_formula_sum   'Li2 Nb2 Ni2 O8'
_cell_volume   159.56450385
_cell_formula_units_Z   2
loop_
 _symmetry_equiv_pos_site_id
 _symmetry_equiv_pos_as_xyz
  1  'x, y, z'
loop_
 _atom_site_type_symbol
 _atom_site_label
 _atom_site_symmetry_multiplicity
 _atom_site_fract_x
 _atom_site_fract_y
 _atom_site_fract_z
 _atom_site_occupancy
  Li  Li0  1  0.136018  0.113982  0.113982  1
  Li  Li1  1  0.863982  0.886018  0.886018  1
  Nb  Nb2  1  0.500000  0.000000  0.500000  1
  Nb  Nb3  1  0.500000  0.500000  0.000000  1
  Ni  Ni4  1  0.000000  0.500000  0.500000  1
  Ni  Ni5  1  0.500000  0.500000  0.500000  1
  O  O6  1  0.278243  0.248415  0.248415  1
  O  O7  1  0.269973  0.251003  0.709050  1
  O  O8  1  0.269973  0.709050  0.251003  1
  O  O9  1  0.724929  0.248415  0.248415  1
  O  O10  1  0.275071  0.751585  0.751585  1
  O  O11  1  0.730027  0.748997  0.290950  1
  O  O12  1  0.730027  0.290950  0.748997  1
  O  O13  1  0.721757  0.751585  0.751585  1
