# generated using pymatgen
data_Li4Cr(WO4)3
_symmetry_space_group_name_H-M   'P 1'
_cell_length_a   5.14736487
_cell_length_b   5.02265382
_cell_length_c   8.63672132
_cell_angle_alpha   90.00000000
_cell_angle_beta   90.00000000
_cell_angle_gamma   90.37617383
_symmetry_Int_Tables_number   1
_chemical_formula_structural   Li4Cr(WO4)3
_chemical_formula_sum   'Li4 Cr1 W3 O12'
_cell_volume   223.28407354
_cell_formula_units_Z   1
loop_
 _symmetry_equiv_pos_site_id
 _symmetry_equiv_pos_as_xyz
  1  'x, y, z'
loop_
 _atom_site_type_symbol
 _atom_site_label
 _atom_site_symmetry_multiplicity
 _atom_site_fract_x
 _atom_site_fract_y
 _atom_site_fract_z
 _atom_site_occupancy
  Li  Li0  1  0.000000  0.000000  0.700644  1
  Li  Li1  1  0.000000  0.500000  0.838756  1
  Li  Li2  1  0.500000  0.000000  0.307613  1
  Li  Li3  1  0.500000  0.500000  0.183920  1
  Cr  Cr4  1  0.000000  0.000000  0.096196  1
  W  W5  1  0.500000  0.500000  0.607440  1
  W  W6  1  0.000000  0.500000  0.395653  1
  W  W7  1  0.500000  0.000000  0.925437  1
  O  O8  1  0.150322  0.258013  0.258742  1
  O  O9  1  0.177470  0.300379  0.582514  1
  O  O10  1  0.179755  0.198799  0.924546  1
  O  O11  1  0.314649  0.707133  0.427649  1
  O  O12  1  0.330660  0.795898  0.086014  1
  O  O13  1  0.361323  0.754717  0.763246  1
  O  O14  1  0.638677  0.245283  0.763246  1
  O  O15  1  0.669340  0.204102  0.086014  1
  O  O16  1  0.685351  0.292867  0.427649  1
  O  O17  1  0.820245  0.801201  0.924546  1
  O  O18  1  0.822530  0.699621  0.582514  1
  O  O19  1  0.849678  0.741987  0.258742  1
