# generated using pymatgen
data_LaH16C2N11O17
_symmetry_space_group_name_H-M   'P 1'
_cell_length_a   7.22794742
_cell_length_b   7.22794742
_cell_length_c   20.89997390
_cell_angle_alpha   86.58798172
_cell_angle_beta   93.41201828
_cell_angle_gamma   101.02260585
_symmetry_Int_Tables_number   1
_chemical_formula_structural   LaH16C2N11O17
_chemical_formula_sum   'La2 H32 C4 N22 O34'
_cell_volume   1068.54712494
_cell_formula_units_Z   2
loop_
 _symmetry_equiv_pos_site_id
 _symmetry_equiv_pos_as_xyz
  1  'x, y, z'
loop_
 _atom_site_type_symbol
 _atom_site_label
 _atom_site_symmetry_multiplicity
 _atom_site_fract_x
 _atom_site_fract_y
 _atom_site_fract_z
 _atom_site_occupancy
  La  La0  1  0.361376  0.361376  0.750000  1
  La  La1  1  0.638624  0.638624  0.250000  1
  H  H2  1  0.532011  0.992119  0.782270  1
  H  H3  1  0.992119  0.532011  0.717730  1
  H  H4  1  0.467989  0.007881  0.217730  1
  H  H5  1  0.007881  0.467989  0.282270  1
  H  H6  1  0.718728  0.145999  0.777458  1
  H  H7  1  0.145999  0.718728  0.722542  1
  H  H8  1  0.281272  0.854001  0.222542  1
  H  H9  1  0.854001  0.281272  0.277458  1
  H  H10  1  0.895663  0.319790  0.413439  1
  H  H11  1  0.319790  0.895663  0.086561  1
  H  H12  1  0.104337  0.680210  0.586561  1
  H  H13  1  0.680210  0.104337  0.913439  1
  H  H14  1  0.040167  0.283343  0.480431  1
  H  H15  1  0.283343  0.040167  0.019569  1
  H  H16  1  0.959833  0.716657  0.519569  1
  H  H17  1  0.716657  0.959833  0.980431  1
  H  H18  1  0.468882  0.205498  0.497995  1
  H  H19  1  0.205498  0.468882  0.002005  1
  H  H20  1  0.531118  0.794502  0.502005  1
  H  H21  1  0.794502  0.531118  0.997995  1
  H  H22  1  0.562921  0.272739  0.423067  1
  H  H23  1  0.272739  0.562921  0.076933  1
  H  H24  1  0.437079  0.727261  0.576933  1
  H  H25  1  0.727261  0.437079  0.923067  1
  H  H26  1  0.667037  0.169563  0.587636  1
  H  H27  1  0.169563  0.667037  0.912364  1
  H  H28  1  0.332963  0.830437  0.412364  1
  H  H29  1  0.830437  0.332963  0.087636  1
  H  H30  1  0.912329  0.209050  0.581567  1
  H  H31  1  0.209050  0.912329  0.918433  1
  H  H32  1  0.087671  0.790950  0.418433  1
  H  H33  1  0.790950  0.087671  0.081567  1
  C  C34  1  0.757461  0.238641  0.497011  1
  C  C35  1  0.238641  0.757461  0.002989  1
  C  C36  1  0.242539  0.761359  0.502989  1
  C  C37  1  0.761359  0.242539  0.997011  1
  N  N38  1  0.908484  0.287994  0.461152  1
  N  N39  1  0.287994  0.908484  0.038848  1
  N  N40  1  0.091516  0.712006  0.538848  1
  N  N41  1  0.712006  0.091516  0.961152  1
  N  N42  1  0.584198  0.232976  0.470250  1
  N  N43  1  0.232976  0.584198  0.029750  1
  N  N44  1  0.415802  0.767024  0.529750  1
  N  N45  1  0.767024  0.415802  0.970250  1
  N  N46  1  0.781073  0.193569  0.559603  1
  N  N47  1  0.193569  0.781073  0.940397  1
  N  N48  1  0.218927  0.806431  0.440397  1
  N  N49  1  0.806431  0.218927  0.059603  1
  N  N50  1  0.018795  0.018795  0.750000  1
  N  N51  1  0.981205  0.981205  0.250000  1
  N  N52  1  0.660456  0.594888  0.660063  1
  N  N53  1  0.594888  0.660456  0.839937  1
  N  N54  1  0.339544  0.405112  0.339937  1
  N  N55  1  0.405112  0.339544  0.160063  1
  N  N56  1  0.278950  0.228833  0.604836  1
  N  N57  1  0.228833  0.278950  0.895164  1
  N  N58  1  0.721050  0.771167  0.395164  1
  N  N59  1  0.771167  0.721050  0.104836  1
  O  O60  1  0.185599  0.998535  0.737182  1
  O  O61  1  0.998535  0.185599  0.762818  1
  O  O62  1  0.814401  0.001465  0.262818  1
  O  O63  1  0.001465  0.814401  0.237182  1
  O  O64  1  0.884556  0.884556  0.750000  1
  O  O65  1  0.115444  0.115444  0.250000  1
  O  O66  1  0.485156  0.611043  0.658245  1
  O  O67  1  0.611043  0.485156  0.841755  1
  O  O68  1  0.514844  0.388957  0.341755  1
  O  O69  1  0.388957  0.514844  0.158245  1
  O  O70  1  0.712915  0.485554  0.705040  1
  O  O71  1  0.485554  0.712915  0.794960  1
  O  O72  1  0.287085  0.514446  0.294960  1
  O  O73  1  0.514446  0.287085  0.205040  1
  O  O74  1  0.768509  0.680102  0.619930  1
  O  O75  1  0.680102  0.768509  0.880070  1
  O  O76  1  0.231491  0.319898  0.380070  1
  O  O77  1  0.319898  0.231491  0.119930  1
  O  O78  1  0.155381  0.288775  0.634811  1
  O  O79  1  0.288775  0.155381  0.865189  1
  O  O80  1  0.844619  0.711225  0.365189  1
  O  O81  1  0.711225  0.844619  0.134811  1
  O  O82  1  0.431649  0.208469  0.635597  1
  O  O83  1  0.208469  0.431649  0.864403  1
  O  O84  1  0.568351  0.791531  0.364403  1
  O  O85  1  0.791531  0.568351  0.135597  1
  O  O86  1  0.249653  0.192045  0.546626  1
  O  O87  1  0.192045  0.249653  0.953374  1
  O  O88  1  0.750347  0.807955  0.453374  1
  O  O89  1  0.807955  0.750347  0.046626  1
  O  O90  1  0.580994  0.128811  0.780182  1
  O  O91  1  0.128811  0.580994  0.719818  1
  O  O92  1  0.419006  0.871189  0.219818  1
  O  O93  1  0.871189  0.419006  0.280182  1
