# generated using pymatgen
data_Li2Co(SiO3)2
_symmetry_space_group_name_H-M   'P 1'
_cell_length_a   9.71412523
_cell_length_b   4.78309315
_cell_length_c   5.49910373
_cell_angle_alpha   90.00004988
_cell_angle_beta   87.19344902
_cell_angle_gamma   89.99975518
_symmetry_Int_Tables_number   1
_chemical_formula_structural   Li2Co(SiO3)2
_chemical_formula_sum   'Li4 Co2 Si4 O12'
_cell_volume   255.20149791
_cell_formula_units_Z   2
loop_
 _symmetry_equiv_pos_site_id
 _symmetry_equiv_pos_as_xyz
  1  'x, y, z'
loop_
 _atom_site_type_symbol
 _atom_site_label
 _atom_site_symmetry_multiplicity
 _atom_site_fract_x
 _atom_site_fract_y
 _atom_site_fract_z
 _atom_site_occupancy
  Li  Li0  1  0.333608  0.798553  0.354611  1
  Li  Li1  1  0.486838  0.298921  0.162378  1
  Li  Li2  1  0.513162  0.798921  0.837622  1
  Li  Li3  1  0.666393  0.298553  0.645388  1
  Co  Co4  1  0.147944  0.305405  0.233429  1
  Co  Co5  1  0.852058  0.805402  0.766573  1
  Si  Si6  1  0.176545  0.790667  0.877020  1
  Si  Si7  1  0.339195  0.292809  0.693911  1
  Si  Si8  1  0.660804  0.792810  0.306090  1
  Si  Si9  1  0.823454  0.290662  0.122982  1
  O  O10  1  0.041355  0.720710  0.738275  1
  O  O11  1  0.187915  0.697445  0.157340  1
  O  O12  1  0.217626  0.135087  0.873872  1
  O  O13  1  0.313987  0.641007  0.718110  1
  O  O14  1  0.320606  0.207307  0.410195  1
  O  O15  1  0.486496  0.216395  0.800499  1
  O  O16  1  0.513504  0.716393  0.199500  1
  O  O17  1  0.679397  0.707306  0.589800  1
  O  O18  1  0.686012  0.141011  0.281892  1
  O  O19  1  0.782371  0.635082  0.126131  1
  O  O20  1  0.812084  0.197447  0.842660  1
  O  O21  1  0.958644  0.220705  0.261724  1
