# generated using pymatgen
data_NaMnPCO7
_symmetry_space_group_name_H-M   'P 1'
_cell_length_a   8.18021417
_cell_length_b   8.18021417
_cell_length_c   10.62847111
_cell_angle_alpha   70.35037076
_cell_angle_beta   109.64962924
_cell_angle_gamma   79.79093537
_symmetry_Int_Tables_number   1
_chemical_formula_structural   NaMnPCO7
_chemical_formula_sum   'Na4 Mn4 P4 C4 O28'
_cell_volume   596.04253685
_cell_formula_units_Z   4
loop_
 _symmetry_equiv_pos_site_id
 _symmetry_equiv_pos_as_xyz
  1  'x, y, z'
loop_
 _atom_site_type_symbol
 _atom_site_label
 _atom_site_symmetry_multiplicity
 _atom_site_fract_x
 _atom_site_fract_y
 _atom_site_fract_z
 _atom_site_occupancy
  Na  Na0  1  0.517553  0.522425  0.756504  1
  Na  Na1  1  0.227575  0.232447  0.756504  1
  Na  Na2  1  0.742077  0.757649  0.233865  1
  Na  Na3  1  0.992351  0.007923  0.233865  1
  Mn  Mn4  1  0.598567  0.151433  0.654609  1
  Mn  Mn5  1  0.088972  0.661028  0.660903  1
  Mn  Mn6  1  0.905532  0.344039  0.343193  1
  Mn  Mn7  1  0.405961  0.844468  0.343193  1
  P  P8  1  0.768316  0.479412  0.568291  1
  P  P9  1  0.270588  0.981684  0.568291  1
  P  P10  1  0.729397  0.020603  0.428044  1
  P  P11  1  0.232012  0.517988  0.436065  1
  C  C12  1  0.699052  0.050948  0.918594  1
  C  C13  1  0.203416  0.546584  0.927903  1
  C  C14  1  0.807440  0.455543  0.077966  1
  C  C15  1  0.294457  0.942560  0.077966  1
  O  O16  1  0.244129  0.992780  0.944484  1
  O  O17  1  0.757220  0.505871  0.944484  1
  O  O18  1  0.280465  0.469535  0.859697  1
  O  O19  1  0.778911  0.971089  0.857899  1
  O  O20  1  0.553234  0.196766  0.816397  1
  O  O21  1  0.058438  0.691562  0.828693  1
  O  O22  1  0.949761  0.491527  0.668899  1
  O  O23  1  0.753364  0.302260  0.670751  1
  O  O24  1  0.447740  0.996636  0.670751  1
  O  O25  1  0.258473  0.800239  0.668899  1
  O  O26  1  0.719276  0.030724  0.566200  1
  O  O27  1  0.104413  0.149203  0.524926  1
  O  O28  1  0.600797  0.645587  0.524926  1
  O  O29  1  0.229543  0.520457  0.580450  1
  O  O30  1  0.775188  0.474084  0.426757  1
  O  O31  1  0.898048  0.851952  0.473132  1
  O  O32  1  0.396956  0.353044  0.478535  1
  O  O33  1  0.275916  0.974812  0.426757  1
  O  O34  1  0.557603  0.997515  0.325124  1
  O  O35  1  0.752485  0.192397  0.325124  1
  O  O36  1  0.045666  0.512425  0.335980  1
  O  O37  1  0.237575  0.704334  0.335980  1
  O  O38  1  0.951721  0.310253  0.180950  1
  O  O39  1  0.439747  0.798279  0.180950  1
  O  O40  1  0.726381  0.533889  0.141047  1
  O  O41  1  0.216111  0.023619  0.141047  1
  O  O42  1  0.748733  0.001267  0.053848  1
  O  O43  1  0.258842  0.491158  0.061557  1
