# generated using pymatgen
data_LiMn2P4H11O18
_symmetry_space_group_name_H-M   'P 1'
_cell_length_a   5.44044554
_cell_length_b   11.97586530
_cell_length_c   6.17249115
_cell_angle_alpha   104.91385751
_cell_angle_beta   113.61790972
_cell_angle_gamma   83.61503693
_symmetry_Int_Tables_number   1
_chemical_formula_structural   LiMn2P4H11O18
_chemical_formula_sum   'Li1 Mn2 P4 H11 O18'
_cell_volume   356.04916470
_cell_formula_units_Z   1
loop_
 _symmetry_equiv_pos_site_id
 _symmetry_equiv_pos_as_xyz
  1  'x, y, z'
loop_
 _atom_site_type_symbol
 _atom_site_label
 _atom_site_symmetry_multiplicity
 _atom_site_fract_x
 _atom_site_fract_y
 _atom_site_fract_z
 _atom_site_occupancy
  Li  Li0  1  0.470241  0.538618  0.010795  1
  Mn  Mn1  1  0.005660  0.905769  0.704499  1
  Mn  Mn2  1  0.993259  0.101204  0.297003  1
  P  P3  1  0.141091  0.637708  0.365643  1
  P  P4  1  0.498940  0.096443  0.789682  1
  P  P5  1  0.496232  0.911420  0.212926  1
  P  P6  1  0.836859  0.368878  0.615463  1
  H  H7  1  0.986974  0.499017  0.496593  1
  H  H8  1  0.007063  0.295496  0.070738  1
  H  H9  1  0.252994  0.305434  0.320481  1
  H  H10  1  0.472345  0.513929  0.508758  1
  H  H11  1  0.360581  0.817315  0.418545  1
  H  H12  1  0.633596  0.805039  0.922088  1
  H  H13  1  0.366788  0.206750  0.076673  1
  H  H14  1  0.634688  0.186142  0.580788  1
  H  H15  1  0.749332  0.699126  0.680580  1
  H  H16  1  0.979400  0.484501  0.983064  1
  H  H17  1  0.983376  0.706561  0.937166  1
  O  O18  1  0.066141  0.436746  0.612043  1
  O  O19  1  0.239739  0.030471  0.683061  1
  O  O20  1  0.124554  0.770521  0.439024  1
  O  O21  1  0.132872  0.248406  0.179514  1
  O  O22  1  0.169096  0.595733  0.114696  1
  O  O23  1  0.467163  0.824184  0.962013  1
  O  O24  1  0.463047  0.167717  0.593627  1
  O  O25  1  0.407307  0.599853  0.567027  1
  O  O26  1  0.764781  0.031363  0.853526  1
  O  O27  1  0.227843  0.974075  0.147298  1
  O  O28  1  0.560959  0.400388  0.443320  1
  O  O29  1  0.533667  0.837883  0.404516  1
  O  O30  1  0.853985  0.414382  0.892814  1
  O  O31  1  0.533704  0.186840  0.038665  1
  O  O32  1  0.863369  0.754921  0.826038  1
  O  O33  1  0.889725  0.238490  0.573822  1
  O  O34  1  0.752818  0.980816  0.323852  1
  O  O35  1  0.895512  0.578334  0.353458  1
