# generated using pymatgen
data_Li4Fe2TeWO12
_symmetry_space_group_name_H-M   'P 1'
_cell_length_a   5.41869738
_cell_length_b   10.84776558
_cell_length_c   9.54498100
_cell_angle_alpha   28.28359606
_cell_angle_beta   51.29073356
_cell_angle_gamma   56.59523048
_symmetry_Int_Tables_number   1
_chemical_formula_structural   Li4Fe2TeWO12
_chemical_formula_sum   'Li4 Fe2 Te1 W1 O12'
_cell_volume   207.45135206
_cell_formula_units_Z   1
loop_
 _symmetry_equiv_pos_site_id
 _symmetry_equiv_pos_as_xyz
  1  'x, y, z'
loop_
 _atom_site_type_symbol
 _atom_site_label
 _atom_site_symmetry_multiplicity
 _atom_site_fract_x
 _atom_site_fract_y
 _atom_site_fract_z
 _atom_site_occupancy
  Li  Li0  1  0.292697  0.005332  0.283353  1
  Li  Li1  1  0.284853  0.492134  0.298925  1
  Li  Li2  1  0.786225  0.999460  0.786901  1
  Li  Li3  1  0.789214  0.500551  0.782846  1
  Fe  Fe4  1  0.500532  0.000415  0.503381  1
  Fe  Fe5  1  0.505465  0.499445  0.502990  1
  Te  Te6  1  0.999192  0.501401  0.998538  1
  W  W7  1  0.004458  0.997489  0.005708  1
  O  O8  1  0.373291  0.310872  0.110129  1
  O  O9  1  0.231298  0.114638  0.635244  1
  O  O10  1  0.126066  0.313996  0.734752  1
  O  O11  1  0.880080  0.204125  0.218473  1
  O  O12  1  0.366836  0.808137  0.126021  1
  O  O13  1  0.735223  0.368451  0.373720  1
  O  O14  1  0.220051  0.631223  0.623590  1
  O  O15  1  0.634796  0.180487  0.866950  1
  O  O16  1  0.111833  0.820354  0.734515  1
  O  O17  1  0.870637  0.697909  0.236045  1
  O  O18  1  0.737714  0.881846  0.364023  1
  O  O19  1  0.620742  0.671738  0.885099  1
