# generated using pymatgen
data_Na5Bi2P(CO4)4
_symmetry_space_group_name_H-M   'P 1'
_cell_length_a   10.46516859
_cell_length_b   10.34180482
_cell_length_c   10.46516859
_cell_angle_alpha   60.18670837
_cell_angle_beta   89.00466894
_cell_angle_gamma   119.81329163
_symmetry_Int_Tables_number   1
_chemical_formula_structural   Na5Bi2P(CO4)4
_chemical_formula_sum   'Na10 Bi4 P2 C8 O32'
_cell_volume   798.27988961
_cell_formula_units_Z   2
loop_
 _symmetry_equiv_pos_site_id
 _symmetry_equiv_pos_as_xyz
  1  'x, y, z'
loop_
 _atom_site_type_symbol
 _atom_site_label
 _atom_site_symmetry_multiplicity
 _atom_site_fract_x
 _atom_site_fract_y
 _atom_site_fract_z
 _atom_site_occupancy
  Na  Na0  1  0.931145  0.250000  0.318855  1
  Na  Na1  1  0.683768  0.367536  0.066232  1
  Na  Na2  1  0.684617  0.750000  0.065383  1
  Na  Na3  1  0.932417  0.250000  0.932417  1
  Na  Na4  1  0.930506  0.861012  0.319494  1
  Na  Na5  1  0.317583  0.250000  0.317583  1
  Na  Na6  1  0.066232  0.132464  0.683768  1
  Na  Na7  1  0.318855  0.250000  0.931145  1
  Na  Na8  1  0.319494  0.638988  0.930506  1
  Na  Na9  1  0.065383  0.750000  0.684617  1
  Bi  Bi10  1  0.492766  0.996044  0.998851  1
  Bi  Bi11  1  0.503279  0.996044  0.505105  1
  Bi  Bi12  1  0.505105  0.503956  0.503279  1
  Bi  Bi13  1  0.998851  0.503956  0.492766  1
  P  P14  1  0.125000  0.250000  0.125000  1
  P  P15  1  0.875000  0.750000  0.875000  1
  C  C16  1  0.720002  0.057989  0.723022  1
  C  C17  1  0.718990  0.442011  0.337987  1
  C  C18  1  0.723022  0.442011  0.720002  1
  C  C19  1  0.337987  0.057989  0.718990  1
  C  C20  1  0.668346  0.950556  0.268527  1
  C  C21  1  0.280919  0.549444  0.282210  1
  C  C22  1  0.282210  0.950556  0.280919  1
  C  C23  1  0.268527  0.549444  0.668346  1
  O  O24  1  0.667090  0.068360  0.138819  1
  O  O25  1  0.849680  0.185252  0.600876  1
  O  O26  1  0.713871  0.314747  0.335572  1
  O  O27  1  0.401270  0.068360  0.292822  1
  O  O28  1  0.841220  0.558131  0.347287  1
  O  O29  1  0.308451  0.372792  0.063306  1
  O  O30  1  0.063901  0.127208  0.064342  1
  O  O31  1  0.714831  0.048070  0.852499  1
  O  O32  1  0.599431  0.451930  0.333239  1
  O  O33  1  0.333239  0.048070  0.599431  1
  O  O34  1  0.852499  0.451930  0.714831  1
  O  O35  1  0.064342  0.372792  0.063901  1
  O  O36  1  0.063306  0.127208  0.308451  1
  O  O37  1  0.670283  0.820223  0.279680  1
  O  O38  1  0.400096  0.679777  0.149940  1
  O  O39  1  0.716911  0.558131  0.594582  1
  O  O40  1  0.292822  0.431640  0.401270  1
  O  O41  1  0.335572  0.185252  0.713871  1
  O  O42  1  0.600876  0.314747  0.849680  1
  O  O43  1  0.943124  0.876442  0.690687  1
  O  O44  1  0.932872  0.623558  0.933318  1
  O  O45  1  0.150580  0.535718  0.294009  1
  O  O46  1  0.670273  0.964282  0.385138  1
  O  O47  1  0.294009  0.964282  0.150580  1
  O  O48  1  0.385138  0.535718  0.670273  1
  O  O49  1  0.933318  0.876442  0.932872  1
  O  O50  1  0.690687  0.623558  0.943124  1
  O  O51  1  0.138819  0.431640  0.667090  1
  O  O52  1  0.594582  0.941869  0.716911  1
  O  O53  1  0.279680  0.679777  0.670283  1
  O  O54  1  0.149940  0.820223  0.400096  1
  O  O55  1  0.347287  0.941869  0.841220  1
