# generated using pymatgen
data_Li5Mn2P2(CO7)2
_symmetry_space_group_name_H-M   'P 1'
_cell_length_a   9.59506231
_cell_length_b   8.19807291
_cell_length_c   8.21550894
_cell_angle_alpha   76.62789993
_cell_angle_beta   73.01172599
_cell_angle_gamma   106.97495916
_symmetry_Int_Tables_number   1
_chemical_formula_structural   Li5Mn2P2(CO7)2
_chemical_formula_sum   'Li10 Mn4 P4 C4 O28'
_cell_volume   554.58272498
_cell_formula_units_Z   2
loop_
 _symmetry_equiv_pos_site_id
 _symmetry_equiv_pos_as_xyz
  1  'x, y, z'
loop_
 _atom_site_type_symbol
 _atom_site_label
 _atom_site_symmetry_multiplicity
 _atom_site_fract_x
 _atom_site_fract_y
 _atom_site_fract_z
 _atom_site_occupancy
  Li  Li0  1  0.907990  0.198090  0.046267  1
  Li  Li1  1  0.744345  0.973308  0.508910  1
  Li  Li2  1  0.747351  0.745106  0.265827  1
  Li  Li3  1  0.747110  0.498984  0.983036  1
  Li  Li4  1  0.741540  0.260391  0.763121  1
  Li  Li5  1  0.252649  0.754894  0.234173  1
  Li  Li6  1  0.255655  0.526692  0.991090  1
  Li  Li7  1  0.258460  0.239609  0.736879  1
  Li  Li8  1  0.252890  0.001016  0.516964  1
  Li  Li9  1  0.092010  0.301910  0.453733  1
  Mn  Mn10  1  0.660624  0.305676  0.444010  1
  Mn  Mn11  1  0.657902  0.814906  0.937844  1
  Mn  Mn12  1  0.339376  0.194324  0.055990  1
  Mn  Mn13  1  0.342098  0.685094  0.562156  1
  P  P14  1  0.583237  0.059991  0.192783  1
  P  P15  1  0.583671  0.550800  0.698067  1
  P  P16  1  0.416329  0.949200  0.801933  1
  P  P17  1  0.416763  0.440009  0.307217  1
  C  C18  1  0.960325  0.496258  0.257751  1
  C  C19  1  0.955694  0.002478  0.744606  1
  C  C20  1  0.039675  0.003742  0.242249  1
  C  C21  1  0.044306  0.497522  0.755394  1
  O  O22  1  0.911201  0.866300  0.886607  1
  O  O23  1  0.924456  0.353238  0.393646  1
  O  O24  1  0.898407  0.899173  0.347342  1
  O  O25  1  0.838093  0.526500  0.231585  1
  O  O26  1  0.896052  0.395313  0.856432  1
  O  O27  1  0.848252  0.046787  0.697435  1
  O  O28  1  0.689169  0.969391  0.101049  1
  O  O29  1  0.672941  0.441621  0.613320  1
  O  O30  1  0.675669  0.637116  0.800088  1
  O  O31  1  0.683040  0.149806  0.292603  1
  O  O32  1  0.584434  0.576324  0.178093  1
  O  O33  1  0.570753  0.695902  0.549306  1
  O  O34  1  0.570906  0.208571  0.046578  1
  O  O35  1  0.589324  0.079498  0.667697  1
  O  O36  1  0.415566  0.923676  0.321907  1
  O  O37  1  0.429247  0.804098  0.950694  1
  O  O38  1  0.429094  0.291429  0.453422  1
  O  O39  1  0.410676  0.420502  0.832303  1
  O  O40  1  0.324331  0.862884  0.699912  1
  O  O41  1  0.310831  0.530609  0.398951  1
  O  O42  1  0.316960  0.350194  0.207397  1
  O  O43  1  0.327059  0.058379  0.886680  1
  O  O44  1  0.161907  0.973500  0.268416  1
  O  O45  1  0.101593  0.600827  0.152658  1
  O  O46  1  0.151748  0.453213  0.802565  1
  O  O47  1  0.103948  0.104687  0.643568  1
  O  O48  1  0.075544  0.146762  0.106354  1
  O  O49  1  0.088799  0.633700  0.613393  1
