# generated using pymatgen
data_Mn2V3P6WO24
_symmetry_space_group_name_H-M   'P 1'
_cell_length_a   8.73067613
_cell_length_b   8.72321791
_cell_length_c   8.72321745
_cell_angle_alpha   60.00000277
_cell_angle_beta   60.02826115
_cell_angle_gamma   60.02825946
_symmetry_Int_Tables_number   1
_chemical_formula_structural   Mn2V3P6WO24
_chemical_formula_sum   'Mn2 V3 P6 W1 O24'
_cell_volume   469.97168027
_cell_formula_units_Z   1
loop_
 _symmetry_equiv_pos_site_id
 _symmetry_equiv_pos_as_xyz
  1  'x, y, z'
loop_
 _atom_site_type_symbol
 _atom_site_label
 _atom_site_symmetry_multiplicity
 _atom_site_fract_x
 _atom_site_fract_y
 _atom_site_fract_z
 _atom_site_occupancy
  Mn  Mn0  1  0.014341  0.995219  0.995219  1
  Mn  Mn1  1  0.500544  0.499819  0.499819  1
  V  V2  1  0.070040  0.643320  0.643320  1
  V  V3  1  0.433020  0.855660  0.855660  1
  V  V4  1  0.929934  0.356689  0.356689  1
  P  P5  1  0.244750  0.252641  0.546160  1
  P  P6  1  0.244750  0.956449  0.252641  1
  P  P7  1  0.244750  0.546160  0.956449  1
  P  P8  1  0.749603  0.461916  0.042951  1
  P  P9  1  0.749603  0.042951  0.745529  1
  P  P10  1  0.749603  0.745529  0.461916  1
  W  W11  1  0.569231  0.143589  0.143589  1
  O  O12  1  0.072521  0.114123  0.310185  1
  O  O13  1  0.072521  0.503171  0.114123  1
  O  O14  1  0.072521  0.310185  0.503171  1
  O  O15  1  0.236281  0.087820  0.735224  1
  O  O16  1  0.429120  0.187730  0.385684  1
  O  O17  1  0.268928  0.411698  0.555028  1
  O  O18  1  0.236281  0.940676  0.087820  1
  O  O19  1  0.268928  0.764346  0.411698  1
  O  O20  1  0.569811  0.613605  0.007093  1
  O  O21  1  0.268928  0.555028  0.764346  1
  O  O22  1  0.757798  0.263548  0.064500  1
  O  O23  1  0.569811  0.007093  0.809491  1
  O  O24  1  0.429120  0.997466  0.187730  1
  O  O25  1  0.236281  0.735224  0.940676  1
  O  O26  1  0.736294  0.437456  0.237309  1
  O  O27  1  0.429120  0.385684  0.997466  1
  O  O28  1  0.736294  0.237309  0.588941  1
  O  O29  1  0.757798  0.064500  0.914154  1
  O  O30  1  0.736294  0.588941  0.437456  1
  O  O31  1  0.569811  0.809491  0.613605  1
  O  O32  1  0.757798  0.914154  0.263548  1
  O  O33  1  0.929189  0.697061  0.489028  1
  O  O34  1  0.929189  0.489028  0.884723  1
  O  O35  1  0.929189  0.884723  0.697061  1
