# generated using pymatgen
data_Li3MnFe2(BO3)3
_symmetry_space_group_name_H-M   'P 1'
_cell_length_a   8.26020776
_cell_length_b   14.30411983
_cell_length_c   3.14897988
_cell_angle_alpha   90.00000000
_cell_angle_beta   90.00000000
_cell_angle_gamma   90.11243794
_symmetry_Int_Tables_number   1
_chemical_formula_structural   Li3MnFe2(BO3)3
_chemical_formula_sum   'Li6 Mn2 Fe4 B6 O18'
_cell_volume   372.06700622
_cell_formula_units_Z   2
loop_
 _symmetry_equiv_pos_site_id
 _symmetry_equiv_pos_as_xyz
  1  'x, y, z'
loop_
 _atom_site_type_symbol
 _atom_site_label
 _atom_site_symmetry_multiplicity
 _atom_site_fract_x
 _atom_site_fract_y
 _atom_site_fract_z
 _atom_site_occupancy
  Li  Li0  1  0.292708  0.992662  0.500000  1
  Li  Li1  1  0.339408  0.357944  0.500000  1
  Li  Li2  1  0.365025  0.649838  0.500000  1
  Li  Li3  1  0.793086  0.490148  0.500000  1
  Li  Li4  1  0.843230  0.856831  0.500000  1
  Li  Li5  1  0.867974  0.151664  0.500000  1
  Mn  Mn6  1  0.633534  0.005966  0.000000  1
  Mn  Mn7  1  0.692052  0.679879  0.000000  1
  Fe  Fe8  1  0.136654  0.503755  0.000000  1
  Fe  Fe9  1  0.175986  0.816594  0.000000  1
  Fe  Fe10  1  0.187829  0.180162  0.000000  1
  Fe  Fe11  1  0.675351  0.316511  0.000000  1
  B  B12  1  0.002825  0.665919  0.500000  1
  B  B13  1  0.001227  0.999292  0.000000  1
  B  B14  1  0.999822  0.333334  0.500000  1
  B  B15  1  0.499304  0.168566  0.500000  1
  B  B16  1  0.497931  0.499812  0.000000  1
  B  B17  1  0.497446  0.833185  0.500000  1
  O  O18  1  0.012288  0.430378  0.500000  1
  O  O19  1  0.018800  0.762660  0.500000  1
  O  O20  1  0.138520  0.608351  0.500000  1
  O  O21  1  0.138883  0.278438  0.500000  1
  O  O22  1  0.154290  0.958231  0.000000  1
  O  O23  1  0.345900  0.127999  0.500000  1
  O  O24  1  0.347400  0.789363  0.500000  1
  O  O25  1  0.359503  0.443702  0.000000  1
  O  O26  1  0.483604  0.596194  0.000000  1
  O  O27  1  0.507418  0.930385  0.500000  1
  O  O28  1  0.516883  0.265389  0.500000  1
  O  O29  1  0.637474  0.112049  0.500000  1
  O  O30  1  0.639160  0.780440  0.500000  1
  O  O31  1  0.651051  0.457809  0.000000  1
  O  O32  1  0.848431  0.625135  0.500000  1
  O  O33  1  0.847540  0.291037  0.500000  1
  O  O34  1  0.863563  0.943551  0.000000  1
  O  O35  1  0.987899  0.096827  0.000000  1
