# generated using pymatgen
data_LiFeF4
_symmetry_space_group_name_H-M   'P 1'
_cell_length_a   3.92831463
_cell_length_b   7.95013813
_cell_length_c   12.54811658
_cell_angle_alpha   60.12777232
_cell_angle_beta   90.00000000
_cell_angle_gamma   75.69642225
_symmetry_Int_Tables_number   1
_chemical_formula_structural   LiFeF4
_chemical_formula_sum   'Li4 Fe4 F16'
_cell_volume   325.73472290
_cell_formula_units_Z   4
loop_
 _symmetry_equiv_pos_site_id
 _symmetry_equiv_pos_as_xyz
  1  'x, y, z'
loop_
 _atom_site_type_symbol
 _atom_site_label
 _atom_site_symmetry_multiplicity
 _atom_site_fract_x
 _atom_site_fract_y
 _atom_site_fract_z
 _atom_site_occupancy
  Li  Li0  1  0.806075  0.387850  0.837482  1
  Li  Li1  1  0.656056  0.687886  0.322493  1
  Li  Li2  1  0.343944  0.312114  0.677507  1
  Li  Li3  1  0.193925  0.612150  0.162518  1
  Fe  Fe4  1  0.035171  0.929659  0.866745  1
  Fe  Fe5  1  0.137897  0.724205  0.639054  1
  Fe  Fe6  1  0.862103  0.275795  0.360946  1
  Fe  Fe7  1  0.964829  0.070341  0.133255  1
  F  F8  1  0.513002  0.973996  0.844093  1
  F  F9  1  0.072817  0.854365  0.740752  1
  F  F10  1  0.168122  0.663755  0.998703  1
  F  F11  1  0.646162  0.707675  0.655564  1
  F  F12  1  0.274969  0.450062  0.785955  1
  F  F13  1  0.201002  0.597996  0.544081  1
  F  F14  1  0.114705  0.770590  0.255945  1
  F  F15  1  0.885295  0.229410  0.744055  1
  F  F16  1  0.798998  0.402004  0.455919  1
  F  F17  1  0.725031  0.549938  0.214045  1
  F  F18  1  0.353838  0.292325  0.344436  1
  F  F19  1  0.831878  0.336245  0.001297  1
  F  F20  1  0.000000  0.000000  0.500000  1
  F  F21  1  0.927183  0.145635  0.259248  1
  F  F22  1  0.486998  0.026004  0.155907  1
  F  F23  1  0.000000  0.000000  0.000000  1
