# generated using pymatgen
data_LiCu2PO4
_symmetry_space_group_name_H-M   'P 1'
_cell_length_a   6.20900151
_cell_length_b   5.53605936
_cell_length_c   5.16790269
_cell_angle_alpha   90.32945151
_cell_angle_beta   90.02727402
_cell_angle_gamma   89.38329269
_symmetry_Int_Tables_number   1
_chemical_formula_structural   LiCu2PO4
_chemical_formula_sum   'Li2 Cu4 P2 O8'
_cell_volume   177.62514928
_cell_formula_units_Z   2
loop_
 _symmetry_equiv_pos_site_id
 _symmetry_equiv_pos_as_xyz
  1  'x, y, z'
loop_
 _atom_site_type_symbol
 _atom_site_label
 _atom_site_symmetry_multiplicity
 _atom_site_fract_x
 _atom_site_fract_y
 _atom_site_fract_z
 _atom_site_occupancy
  Li  Li0  1  0.999972  0.155679  0.496828  1
  Li  Li1  1  0.248050  0.329368  0.996128  1
  Cu  Cu2  1  0.264764  0.656227  0.498522  1
  Cu  Cu3  1  0.500680  0.805163  0.985099  1
  Cu  Cu4  1  0.733590  0.655393  0.488309  1
  Cu  Cu5  1  0.748740  0.335229  0.000256  1
  P  P6  1  0.004836  0.838306  0.001815  1
  P  P7  1  0.495397  0.181380  0.498597  1
  O  O8  1  0.012416  0.097312  0.886591  1
  O  O9  1  0.000846  0.847253  0.302207  1
  O  O10  1  0.203495  0.683826  0.907560  1
  O  O11  1  0.289232  0.305982  0.383953  1
  O  O12  1  0.488233  0.188644  0.798680  1
  O  O13  1  0.498597  0.916014  0.396535  1
  O  O14  1  0.709602  0.301730  0.403513  1
  O  O15  1  0.801550  0.702491  0.897998  1
