# generated using pymatgen
data_Li32Ti3Cr13O48
_symmetry_space_group_name_H-M   'P 1'
_cell_length_a   5.04741753
_cell_length_b   8.72896631
_cell_length_c   19.51627086
_cell_angle_alpha   98.47042203
_cell_angle_beta   94.78255338
_cell_angle_gamma   90.19676361
_symmetry_Int_Tables_number   1
_chemical_formula_structural   Li32Ti3Cr13O48
_chemical_formula_sum   'Li32 Ti3 Cr13 O48'
_cell_volume   847.41404704
_cell_formula_units_Z   1
loop_
 _symmetry_equiv_pos_site_id
 _symmetry_equiv_pos_as_xyz
  1  'x, y, z'
loop_
 _atom_site_type_symbol
 _atom_site_label
 _atom_site_symmetry_multiplicity
 _atom_site_fract_x
 _atom_site_fract_y
 _atom_site_fract_z
 _atom_site_occupancy
  Li  Li0  1  0.993175  0.169545  0.249963  1
  Li  Li1  1  0.874090  0.375761  0.374845  1
  Li  Li2  1  0.753446  0.248801  0.999937  1
  Li  Li3  1  0.746190  0.920003  0.000063  1
  Li  Li4  1  0.986214  0.167803  0.750235  1
  Li  Li5  1  0.758118  0.580617  0.500091  1
  Li  Li6  1  0.874282  0.373905  0.874962  1
  Li  Li7  1  0.742979  0.252772  0.500121  1
  Li  Li8  1  0.746812  0.919643  0.499452  1
  Li  Li9  1  0.625072  0.125247  0.124948  1
  Li  Li10  1  0.755602  0.579318  0.000124  1
  Li  Li11  1  0.508014  0.331703  0.249477  1
  Li  Li12  1  0.625498  0.126016  0.625021  1
  Li  Li13  1  0.501965  0.999369  0.249401  1
  Li  Li14  1  0.491155  0.667638  0.249374  1
  Li  Li15  1  0.513510  0.332126  0.749683  1
  Li  Li16  1  0.373541  0.874999  0.375511  1
  Li  Li17  1  0.498679  0.001778  0.749207  1
  Li  Li18  1  0.246616  0.751396  0.000373  1
  Li  Li19  1  0.490668  0.666897  0.748871  1
  Li  Li20  1  0.243761  0.419881  0.000903  1
  Li  Li21  1  0.372676  0.875305  0.875738  1
  Li  Li22  1  0.255074  0.078228  0.499556  1
  Li  Li23  1  0.249547  0.749129  0.499824  1
  Li  Li24  1  0.125156  0.624932  0.125021  1
  Li  Li25  1  0.245409  0.420985  0.500707  1
  Li  Li26  1  0.008718  0.830121  0.250169  1
  Li  Li27  1  0.256091  0.079982  0.999729  1
  Li  Li28  1  0.127457  0.624837  0.624382  1
  Li  Li29  1  0.995503  0.501308  0.250068  1
  Li  Li30  1  0.009213  0.833078  0.751071  1
  Li  Li31  1  0.001421  0.498415  0.750725  1
  Ti  Ti32  1  0.374504  0.537621  0.373225  1
  Ti  Ti33  1  0.370978  0.211266  0.873230  1
  Ti  Ti34  1  0.128745  0.288807  0.626775  1
  Cr  Cr35  1  0.870379  0.711604  0.374957  1
  Cr  Cr36  1  0.878942  0.047448  0.376064  1
  Cr  Cr37  1  0.878883  0.703435  0.876184  1
  Cr  Cr38  1  0.870113  0.038258  0.875200  1
  Cr  Cr39  1  0.620501  0.789451  0.124589  1
  Cr  Cr40  1  0.629670  0.460079  0.125011  1
  Cr  Cr41  1  0.620929  0.796693  0.623858  1
  Cr  Cr42  1  0.629892  0.462004  0.624999  1
  Cr  Cr43  1  0.376378  0.202741  0.374827  1
  Cr  Cr44  1  0.378368  0.547454  0.875604  1
  Cr  Cr45  1  0.130349  0.960232  0.125543  1
  Cr  Cr46  1  0.120181  0.289600  0.124924  1
  Cr  Cr47  1  0.121522  0.952777  0.624637  1
  O  O48  1  0.964774  0.111347  0.068961  1
  O  O49  1  0.925355  0.785893  0.069531  1
  O  O50  1  0.918164  0.429045  0.067471  1
  O  O51  1  0.964674  0.103238  0.568790  1
  O  O52  1  0.824650  0.963911  0.180893  1
  O  O53  1  0.831942  0.320918  0.182409  1
  O  O54  1  0.935671  0.787234  0.568566  1
  O  O55  1  0.920996  0.428839  0.567505  1
  O  O56  1  0.785317  0.638588  0.181058  1
  O  O57  1  0.717659  0.855237  0.319915  1
  O  O58  1  0.814598  0.959587  0.681524  1
  O  O59  1  0.825056  0.321667  0.683686  1
  O  O60  1  0.675304  0.532572  0.316995  1
  O  O61  1  0.684501  0.172030  0.317324  1
  O  O62  1  0.783235  0.642280  0.679911  1
  O  O63  1  0.716799  0.857847  0.820229  1
  O  O64  1  0.463123  0.611309  0.068549  1
  O  O65  1  0.579717  0.716972  0.431465  1
  O  O66  1  0.564966  0.075420  0.432386  1
  O  O67  1  0.685109  0.540477  0.818609  1
  O  O68  1  0.674823  0.178541  0.816453  1
  O  O69  1  0.417936  0.928656  0.067745  1
  O  O70  1  0.426566  0.285681  0.069466  1
  O  O71  1  0.534986  0.390867  0.431096  1
  O  O72  1  0.462849  0.610970  0.568420  1
  O  O73  1  0.564692  0.712879  0.931702  1
  O  O74  1  0.579203  0.071385  0.932689  1
  O  O75  1  0.332395  0.821008  0.182626  1
  O  O76  1  0.323356  0.464481  0.180455  1
  O  O77  1  0.433471  0.925156  0.567343  1
  O  O78  1  0.431313  0.286937  0.568777  1
  O  O79  1  0.534694  0.397019  0.931447  1
  O  O80  1  0.286689  0.138431  0.181420  1
  O  O81  1  0.213083  0.352240  0.318153  1
  O  O82  1  0.314219  0.825240  0.682242  1
  O  O83  1  0.325617  0.467508  0.681382  1
  O  O84  1  0.175088  0.679168  0.317531  1
  O  O85  1  0.186766  0.037346  0.318618  1
  O  O86  1  0.286622  0.140337  0.681755  1
  O  O87  1  0.213286  0.359903  0.818386  1
  O  O88  1  0.069262  0.574625  0.432008  1
  O  O89  1  0.065257  0.212895  0.431602  1
  O  O90  1  0.185857  0.674811  0.817930  1
  O  O91  1  0.174347  0.032725  0.818743  1
  O  O92  1  0.038192  0.898511  0.431200  1
  O  O93  1  0.065990  0.574961  0.932855  1
  O  O94  1  0.068462  0.213181  0.931397  1
  O  O95  1  0.037380  0.889118  0.931599  1
