# generated using pymatgen
data_Hf2N2O
_symmetry_space_group_name_H-M   'P 1'
_cell_length_a   8.70968281
_cell_length_b   8.76081295
_cell_length_c   8.72005256
_cell_angle_alpha   109.57336718
_cell_angle_beta   109.39046193
_cell_angle_gamma   109.48550353
_symmetry_Int_Tables_number   1
_chemical_formula_structural   Hf2N2O
_chemical_formula_sum   'Hf16 N16 O8'
_cell_volume   511.97858349
_cell_formula_units_Z   8
loop_
 _symmetry_equiv_pos_site_id
 _symmetry_equiv_pos_as_xyz
  1  'x, y, z'
loop_
 _atom_site_type_symbol
 _atom_site_label
 _atom_site_symmetry_multiplicity
 _atom_site_fract_x
 _atom_site_fract_y
 _atom_site_fract_z
 _atom_site_occupancy
  Hf  Hf0  1  0.493017  0.010308  0.001604  1
  Hf  Hf1  1  0.970125  0.246707  0.220378  1
  Hf  Hf2  1  0.787943  0.033050  0.749439  1
  Hf  Hf3  1  0.715514  0.465969  0.250930  1
  Hf  Hf4  1  0.749466  0.782844  0.041622  1
  Hf  Hf5  1  0.757587  0.299014  0.533106  1
  Hf  Hf6  1  0.011975  0.497745  0.998479  1
  Hf  Hf7  1  0.504284  0.509703  0.513549  1
  Hf  Hf8  1  0.535644  0.749020  0.291418  1
  Hf  Hf9  1  0.010466  0.998406  0.499917  1
  Hf  Hf10  1  0.457225  0.252054  0.721767  1
  Hf  Hf11  1  0.255841  0.717651  0.468689  1
  Hf  Hf12  1  0.238064  0.206676  0.956405  1
  Hf  Hf13  1  0.214747  0.962518  0.249963  1
  Hf  Hf14  1  0.282548  0.533465  0.742548  1
  Hf  Hf15  1  0.040828  0.751505  0.782213  1
  N  N16  1  0.009167  0.039791  0.265543  1
  N  N17  1  0.743088  0.224670  0.274014  1
  N  N18  1  0.767016  0.724450  0.258541  1
  N  N19  1  0.767883  0.542981  0.530653  1
  N  N20  1  0.226201  0.454429  0.463655  1
  N  N21  1  0.271787  0.732728  0.219558  1
  N  N22  1  0.514379  0.240944  0.967436  1
  N  N23  1  0.537107  0.772259  0.545479  1
  N  N24  1  0.223024  0.271668  0.736140  1
  N  N25  1  0.272677  0.011821  0.048572  1
  N  N26  1  0.549053  0.537061  0.774880  1
  N  N27  1  0.241271  0.967536  0.511905  1
  N  N28  1  0.042104  0.273654  0.012433  1
  N  N29  1  0.263918  0.775092  0.729708  1
  N  N30  1  0.032162  0.488142  0.762395  1
  N  N31  1  0.982793  0.951883  0.723995  1
  O  O32  1  0.963271  0.514642  0.236626  1
  O  O33  1  0.952392  0.722569  0.992644  1
  O  O34  1  0.754400  0.033145  0.488889  1
  O  O35  1  0.451502  0.465502  0.225999  1
  O  O36  1  0.722514  0.983635  0.948276  1
  O  O37  1  0.466076  0.226818  0.455609  1
  O  O38  1  0.725244  0.258745  0.766499  1
  O  O39  1  0.495692  0.769196  0.038519  1
