# generated using pymatgen
data_Li4V3P8O29
_symmetry_space_group_name_H-M   'P 1'
_cell_length_a   9.76571385
_cell_length_b   9.76507618
_cell_length_c   14.15267625
_cell_angle_alpha   90.14818231
_cell_angle_beta   90.22191067
_cell_angle_gamma   59.81164683
_symmetry_Int_Tables_number   1
_chemical_formula_structural   Li4V3P8O29
_chemical_formula_sum   'Li8 V6 P16 O58'
_cell_volume   1166.58945583
_cell_formula_units_Z   2
loop_
 _symmetry_equiv_pos_site_id
 _symmetry_equiv_pos_as_xyz
  1  'x, y, z'
loop_
 _atom_site_type_symbol
 _atom_site_label
 _atom_site_symmetry_multiplicity
 _atom_site_fract_x
 _atom_site_fract_y
 _atom_site_fract_z
 _atom_site_occupancy
  Li  Li0  1  0.765982  0.330213  0.054567  1
  Li  Li1  1  0.323132  0.910816  0.055860  1
  Li  Li2  1  0.671598  0.234271  0.444629  1
  Li  Li3  1  0.329074  0.764147  0.562153  1
  Li  Li4  1  0.232305  0.666189  0.940220  1
  Li  Li5  1  0.232542  0.098973  0.451752  1
  Li  Li6  1  0.951358  0.007070  0.988129  1
  Li  Li7  1  0.963178  0.984213  0.510108  1
  V  V8  1  0.568068  0.433626  0.252792  1
  V  V9  1  0.434692  0.563457  0.749891  1
  V  V10  1  0.569930  0.996921  0.754206  1
  V  V11  1  0.440259  0.002350  0.246814  1
  V  V12  1  0.998792  0.565091  0.250123  1
  V  V13  1  0.000913  0.437450  0.746382  1
  P  P14  1  0.919089  0.778032  0.840402  1
  P  P15  1  0.780832  0.914815  0.338751  1
  P  P16  1  0.920023  0.306254  0.344464  1
  P  P17  1  0.666781  0.664771  0.132320  1
  P  P18  1  0.662773  0.671133  0.631469  1
  P  P19  1  0.780053  0.312620  0.838489  1
  P  P20  1  0.688822  0.219695  0.659294  1
  P  P21  1  0.312976  0.911571  0.844557  1
  P  P22  1  0.696102  0.084738  0.153989  1
  P  P23  1  0.316107  0.778187  0.342404  1
  P  P24  1  0.225592  0.686177  0.162272  1
  P  P25  1  0.332863  0.331593  0.367176  1
  P  P26  1  0.331196  0.333439  0.868007  1
  P  P27  1  0.082348  0.695987  0.654233  1
  P  P28  1  0.226543  0.086562  0.662867  1
  P  P29  1  0.081805  0.223903  0.157455  1
  O  O30  1  0.006334  0.792693  0.569433  1
  O  O31  1  0.915027  0.740805  0.334773  1
  O  O32  1  0.786352  0.007265  0.067583  1
  O  O33  1  0.744052  0.913877  0.837254  1
  O  O34  1  0.926139  0.617311  0.829684  1
  O  O35  1  0.811090  0.667867  0.179903  1
  O  O36  1  0.920106  0.463938  0.329096  1
  O  O37  1  0.993559  0.212044  0.074582  1
  O  O38  1  0.916391  0.348565  0.828882  1
  O  O39  1  0.663284  0.816080  0.681286  1
  O  O40  1  0.618835  0.920492  0.325381  1
  O  O41  1  0.811365  0.524992  0.677903  1
  O  O42  1  0.660141  0.671715  0.027463  1
  O  O43  1  0.662589  0.677402  0.526967  1
  O  O44  1  0.673411  0.512324  0.171084  1
  O  O45  1  0.469603  0.911662  0.829795  1
  O  O46  1  0.512874  0.814580  0.174836  1
  O  O47  1  0.747653  0.337913  0.342126  1
  O  O48  1  0.799718  0.201961  0.749220  1
  O  O49  1  0.776669  0.199902  0.569385  1
  O  O50  1  0.792976  0.227730  0.928604  1
  O  O51  1  0.618926  0.467851  0.825817  1
  O  O52  1  0.511267  0.673662  0.669721  1
  O  O53  1  0.658343  0.259348  0.163066  1
  O  O54  1  0.472999  0.619534  0.327030  1
  O  O55  1  0.345408  0.920856  0.333632  1
  O  O56  1  0.801372  0.997809  0.246177  1
  O  O57  1  0.786958  0.004289  0.422729  1
  O  O58  1  0.223081  0.000556  0.574934  1
  O  O59  1  0.657293  0.080005  0.671514  1
  O  O60  1  0.534369  0.377453  0.670130  1
  O  O61  1  0.340559  0.740599  0.838512  1
  O  O62  1  0.488689  0.325450  0.334208  1
  O  O63  1  0.380355  0.529902  0.176094  1
  O  O64  1  0.222314  0.771995  0.073229  1
  O  O65  1  0.235610  0.789467  0.433665  1
  O  O66  1  0.204516  0.797513  0.253017  1
  O  O67  1  0.258947  0.655955  0.662262  1
  O  O68  1  0.478982  0.186010  0.823515  1
  O  O69  1  0.538433  0.081767  0.169344  1
  O  O70  1  0.327438  0.487268  0.830772  1
  O  O71  1  0.325823  0.332398  0.972609  1
  O  O72  1  0.324577  0.318252  0.471430  1
  O  O73  1  0.189341  0.477775  0.319624  1
  O  O74  1  0.383907  0.084219  0.675162  1
  O  O75  1  0.330732  0.184174  0.319102  1
  O  O76  1  0.083064  0.658163  0.168216  1
  O  O77  1  0.998918  0.800800  0.746979  1
  O  O78  1  0.005685  0.795131  0.923005  1
  O  O79  1  0.076436  0.541397  0.666540  1
  O  O80  1  0.185662  0.336433  0.816772  1
  O  O81  1  0.077798  0.383709  0.170389  1
  O  O82  1  0.257742  0.084447  0.159246  1
  O  O83  1  0.227890  0.988838  0.933567  1
  O  O84  1  0.203014  0.000703  0.753302  1
  O  O85  1  0.085713  0.258910  0.664472  1
  O  O86  1  0.009874  0.210854  0.428112  1
  O  O87  1  0.002331  0.201131  0.251094  1
