# generated using pymatgen
data_Mn3(O2F)2
_symmetry_space_group_name_H-M   'P 1'
_cell_length_a   4.71234556
_cell_length_b   7.72585534
_cell_length_c   5.54310166
_cell_angle_alpha   95.84292269
_cell_angle_beta   94.93195642
_cell_angle_gamma   85.26384908
_symmetry_Int_Tables_number   1
_chemical_formula_structural   Mn3(O2F)2
_chemical_formula_sum   'Mn6 O8 F4'
_cell_volume   199.45990802
_cell_formula_units_Z   2
loop_
 _symmetry_equiv_pos_site_id
 _symmetry_equiv_pos_as_xyz
  1  'x, y, z'
loop_
 _atom_site_type_symbol
 _atom_site_label
 _atom_site_symmetry_multiplicity
 _atom_site_fract_x
 _atom_site_fract_y
 _atom_site_fract_z
 _atom_site_occupancy
  Mn  Mn0  1  0.519556  0.005344  0.489050  1
  Mn  Mn1  1  0.493475  0.664259  0.171067  1
  Mn  Mn2  1  0.518065  0.339228  0.817410  1
  Mn  Mn3  1  0.987098  0.656885  0.669535  1
  Mn  Mn4  1  0.980825  0.324757  0.341214  1
  Mn  Mn5  1  0.999218  0.005618  0.008735  1
  O  O6  1  0.800167  0.428623  0.619415  1
  O  O7  1  0.823322  0.111470  0.289846  1
  O  O8  1  0.694236  0.105467  0.796993  1
  O  O9  1  0.696781  0.765607  0.466252  1
  O  O10  1  0.705367  0.436442  0.121766  1
  O  O11  1  0.306109  0.565268  0.864070  1
  O  O12  1  0.301957  0.232348  0.537890  1
  O  O13  1  0.309299  0.899024  0.205101  1
  F  F14  1  0.805392  0.762133  0.960720  1
  F  F15  1  0.178287  0.554233  0.374640  1
  F  F16  1  0.203108  0.248768  0.049570  1
  F  F17  1  0.177739  0.894526  0.716726  1
