# generated using pymatgen
data_Hf2N2O
_symmetry_space_group_name_H-M   'P 1'
_cell_length_a   6.78214149
_cell_length_b   5.91886284
_cell_length_c   5.83132731
_cell_angle_alpha   89.73375457
_cell_angle_beta   90.00029666
_cell_angle_gamma   89.99949718
_symmetry_Int_Tables_number   1
_chemical_formula_structural   Hf2N2O
_chemical_formula_sum   'Hf8 N8 O4'
_cell_volume   234.08190982
_cell_formula_units_Z   4
loop_
 _symmetry_equiv_pos_site_id
 _symmetry_equiv_pos_as_xyz
  1  'x, y, z'
loop_
 _atom_site_type_symbol
 _atom_site_label
 _atom_site_symmetry_multiplicity
 _atom_site_fract_x
 _atom_site_fract_y
 _atom_site_fract_z
 _atom_site_occupancy
  Hf  Hf0  1  0.993593  0.327779  0.254295  1
  Hf  Hf1  1  0.007771  0.657368  0.769787  1
  Hf  Hf2  1  0.242201  0.157354  0.769761  1
  Hf  Hf3  1  0.256368  0.827781  0.254260  1
  Hf  Hf4  1  0.507766  0.342635  0.230212  1
  Hf  Hf5  1  0.493603  0.672219  0.745706  1
  Hf  Hf6  1  0.756370  0.172219  0.745734  1
  Hf  Hf7  1  0.742201  0.842641  0.230237  1
  N  N8  1  0.001532  0.008740  0.003687  1
  N  N9  1  0.007639  0.337388  0.631767  1
  N  N10  1  0.248418  0.508740  0.003694  1
  N  N11  1  0.242332  0.837369  0.631744  1
  N  N12  1  0.501528  0.991260  0.996312  1
  N  N13  1  0.507632  0.662613  0.368233  1
  N  N14  1  0.742319  0.162631  0.368256  1
  N  N15  1  0.748414  0.491266  0.996312  1
  O  O16  1  0.992076  0.669410  0.346808  1
  O  O17  1  0.257878  0.169410  0.346837  1
  O  O18  1  0.492077  0.330593  0.653194  1
  O  O19  1  0.757885  0.830587  0.653165  1
