# generated using pymatgen
data_ZrH8(NF3)2
_symmetry_space_group_name_H-M   'P 1'
_cell_length_a   14.66715778
_cell_length_b   8.11205541
_cell_length_c   13.16853615
_cell_angle_alpha   90.00000000
_cell_angle_beta   90.00000000
_cell_angle_gamma   90.00000000
_symmetry_Int_Tables_number   1
_chemical_formula_structural   ZrH8(NF3)2
_chemical_formula_sum   'Zr8 H64 N16 F48'
_cell_volume   1566.80292143
_cell_formula_units_Z   8
loop_
 _symmetry_equiv_pos_site_id
 _symmetry_equiv_pos_as_xyz
  1  'x, y, z'
loop_
 _atom_site_type_symbol
 _atom_site_label
 _atom_site_symmetry_multiplicity
 _atom_site_fract_x
 _atom_site_fract_y
 _atom_site_fract_z
 _atom_site_occupancy
  Zr  Zr0  1  0.833342  0.927346  0.267324  1
  Zr  Zr1  1  0.166658  0.072654  0.767324  1
  Zr  Zr2  1  0.666658  0.927346  0.767324  1
  Zr  Zr3  1  0.333342  0.072654  0.267324  1
  Zr  Zr4  1  0.912015  0.432274  0.231154  1
  Zr  Zr5  1  0.087985  0.567726  0.731154  1
  Zr  Zr6  1  0.587985  0.432274  0.731154  1
  Zr  Zr7  1  0.412015  0.567726  0.231154  1
  H  H8  1  0.714222  0.759371  0.077111  1
  H  H9  1  0.285778  0.240629  0.577111  1
  H  H10  1  0.785778  0.759371  0.577111  1
  H  H11  1  0.214222  0.240629  0.077111  1
  H  H12  1  0.616290  0.764048  0.993734  1
  H  H13  1  0.383710  0.235952  0.493734  1
  H  H14  1  0.883710  0.764048  0.493734  1
  H  H15  1  0.116290  0.235952  0.993734  1
  H  H16  1  0.452019  0.801470  0.995133  1
  H  H17  1  0.547981  0.198530  0.495133  1
  H  H18  1  0.047981  0.801470  0.495133  1
  H  H19  1  0.952019  0.198530  0.995133  1
  H  H20  1  0.519342  0.903002  0.208998  1
  H  H21  1  0.480658  0.096998  0.708998  1
  H  H22  1  0.980658  0.903002  0.708998  1
  H  H23  1  0.019342  0.096998  0.208998  1
  H  H24  1  0.108619  0.837470  0.158531  1
  H  H25  1  0.891381  0.162530  0.658531  1
  H  H26  1  0.391381  0.837470  0.658531  1
  H  H27  1  0.608619  0.162530  0.158531  1
  H  H28  1  0.188154  0.684276  0.137774  1
  H  H29  1  0.811846  0.315724  0.637774  1
  H  H30  1  0.311846  0.684276  0.637774  1
  H  H31  1  0.688154  0.315724  0.137774  1
  H  H32  1  0.079989  0.669972  0.092044  1
  H  H33  1  0.920011  0.330028  0.592044  1
  H  H34  1  0.420011  0.669972  0.592044  1
  H  H35  1  0.579989  0.330028  0.092044  1
  H  H36  1  0.155242  0.808837  0.042880  1
  H  H37  1  0.844758  0.191163  0.542880  1
  H  H38  1  0.344758  0.808837  0.542880  1
  H  H39  1  0.655242  0.191163  0.042880  1
  H  H40  1  0.097091  0.765690  0.330219  1
  H  H41  1  0.902909  0.234310  0.830219  1
  H  H42  1  0.402909  0.765690  0.830219  1
  H  H43  1  0.597091  0.234310  0.330219  1
  H  H44  1  0.125563  0.842956  0.329879  1
  H  H45  1  0.874437  0.157044  0.829879  1
  H  H46  1  0.374437  0.842956  0.829879  1
  H  H47  1  0.625563  0.157044  0.329879  1
  H  H48  1  0.048278  0.855267  0.541834  1
  H  H49  1  0.951722  0.144733  0.041834  1
  H  H50  1  0.451722  0.855267  0.041834  1
  H  H51  1  0.548278  0.144733  0.541834  1
  H  H52  1  0.815547  0.245858  0.394116  1
  H  H53  1  0.184453  0.754142  0.894116  1
  H  H54  1  0.684453  0.245858  0.894116  1
  H  H55  1  0.315547  0.754142  0.394116  1
  H  H56  1  0.685696  0.481102  0.437409  1
  H  H57  1  0.314304  0.518898  0.937409  1
  H  H58  1  0.814304  0.481102  0.937409  1
  H  H59  1  0.185696  0.518898  0.437409  1
  H  H60  1  0.613469  0.551477  0.350260  1
  H  H61  1  0.386531  0.448523  0.850260  1
  H  H62  1  0.886531  0.551477  0.850260  1
  H  H63  1  0.113469  0.448523  0.350260  1
  H  H64  1  0.698607  0.821110  0.451640  1
  H  H65  1  0.301393  0.178890  0.951640  1
  H  H66  1  0.801393  0.821110  0.951640  1
  H  H67  1  0.198607  0.178890  0.451640  1
  H  H68  1  0.609985  0.622156  0.466767  1
  H  H69  1  0.390015  0.377844  0.966767  1
  H  H70  1  0.890015  0.622156  0.966767  1
  H  H71  1  0.109985  0.377844  0.466767  1
  N  N72  1  0.685651  0.771510  0.006440  1
  N  N73  1  0.314349  0.228490  0.506440  1
  N  N74  1  0.814349  0.771510  0.506440  1
  N  N75  1  0.185651  0.228490  0.006440  1
  N  N76  1  0.133338  0.750020  0.108122  1
  N  N77  1  0.866662  0.249980  0.608122  1
  N  N78  1  0.366662  0.750020  0.608122  1
  N  N79  1  0.633338  0.249980  0.108122  1
  N  N80  1  0.653793  0.584243  0.410808  1
  N  N81  1  0.346207  0.415757  0.910808  1
  N  N82  1  0.846207  0.584243  0.910808  1
  N  N83  1  0.153793  0.415757  0.410808  1
  N  N84  1  0.765442  0.804194  0.431231  1
  N  N85  1  0.234558  0.195806  0.931231  1
  N  N86  1  0.734558  0.804194  0.931231  1
  N  N87  1  0.265442  0.195806  0.431231  1
  F  F88  1  0.852892  0.674207  0.264714  1
  F  F89  1  0.147108  0.325793  0.764714  1
  F  F90  1  0.647108  0.674207  0.764714  1
  F  F91  1  0.352892  0.325793  0.264714  1
  F  F92  1  0.793569  0.444658  0.147546  1
  F  F93  1  0.206431  0.555342  0.647546  1
  F  F94  1  0.706431  0.444658  0.647546  1
  F  F95  1  0.293569  0.555342  0.147546  1
  F  F96  1  0.852371  0.384003  0.376996  1
  F  F97  1  0.147629  0.615997  0.876996  1
  F  F98  1  0.647629  0.384003  0.876996  1
  F  F99  1  0.352371  0.615997  0.376996  1
  F  F100  1  0.978284  0.526533  0.109789  1
  F  F101  1  0.021716  0.473467  0.609789  1
  F  F102  1  0.521716  0.526533  0.609789  1
  F  F103  1  0.478284  0.473467  0.109789  1
  F  F104  1  0.002241  0.552613  0.317592  1
  F  F105  1  0.997759  0.447387  0.817592  1
  F  F106  1  0.497759  0.552613  0.817592  1
  F  F107  1  0.502241  0.447387  0.317592  1
  F  F108  1  0.851788  0.172644  0.223310  1
  F  F109  1  0.148212  0.827356  0.723310  1
  F  F110  1  0.648212  0.172644  0.723310  1
  F  F111  1  0.351788  0.827356  0.223310  1
  F  F112  1  0.017554  0.259791  0.235644  1
  F  F113  1  0.982446  0.740209  0.735644  1
  F  F114  1  0.482446  0.259791  0.735644  1
  F  F115  1  0.517554  0.740209  0.235644  1
  F  F116  1  0.787553  0.130475  0.415930  1
  F  F117  1  0.212447  0.869525  0.915930  1
  F  F118  1  0.712447  0.130475  0.915930  1
  F  F119  1  0.287553  0.869525  0.415930  1
  F  F120  1  0.698819  0.939081  0.260729  1
  F  F121  1  0.301181  0.060919  0.760729  1
  F  F122  1  0.801181  0.939081  0.760729  1
  F  F123  1  0.198819  0.060919  0.260729  1
  F  F124  1  0.928612  0.936571  0.373022  1
  F  F125  1  0.071388  0.063429  0.873022  1
  F  F126  1  0.571388  0.936571  0.873022  1
  F  F127  1  0.428612  0.063429  0.373022  1
  F  F128  1  0.831309  0.879565  0.116313  1
  F  F129  1  0.168691  0.120435  0.616313  1
  F  F130  1  0.668691  0.879565  0.616313  1
  F  F131  1  0.331309  0.120435  0.116313  1
  F  F132  1  0.011462  0.980726  0.183366  1
  F  F133  1  0.988538  0.019274  0.683366  1
  F  F134  1  0.488538  0.980726  0.683366  1
  F  F135  1  0.511462  0.019274  0.183366  1
