# generated using pymatgen
data_Ba2YBr7
_symmetry_space_group_name_H-M   'P 1'
_cell_length_a   7.59506187
_cell_length_b   14.43205523
_cell_length_c   13.27807931
_cell_angle_alpha   90.00000000
_cell_angle_beta   96.83220180
_cell_angle_gamma   90.00000000
_symmetry_Int_Tables_number   1
_chemical_formula_structural   Ba2YBr7
_chemical_formula_sum   'Ba8 Y4 Br28'
_cell_volume   1445.10613471
_cell_formula_units_Z   4
loop_
 _symmetry_equiv_pos_site_id
 _symmetry_equiv_pos_as_xyz
  1  'x, y, z'
loop_
 _atom_site_type_symbol
 _atom_site_label
 _atom_site_symmetry_multiplicity
 _atom_site_fract_x
 _atom_site_fract_y
 _atom_site_fract_z
 _atom_site_occupancy
  Ba  Ba0  1  0.230805  0.455652  0.744002  1
  Ba  Ba1  1  0.264865  0.863699  0.624741  1
  Ba  Ba2  1  0.252600  0.214495  0.125055  1
  Ba  Ba3  1  0.298274  0.631013  0.233184  1
  Ba  Ba4  1  0.701726  0.131013  0.766816  1
  Ba  Ba5  1  0.747400  0.714495  0.874945  1
  Ba  Ba6  1  0.735135  0.363699  0.375259  1
  Ba  Ba7  1  0.769195  0.955652  0.255998  1
  Y  Y8  1  0.186789  0.155050  0.547135  1
  Y  Y9  1  0.204679  0.923851  0.044394  1
  Y  Y10  1  0.795321  0.423851  0.955606  1
  Y  Y11  1  0.813211  0.655050  0.452865  1
  Br  Br12  1  0.037680  0.294009  0.890155  1
  Br  Br13  1  0.058861  0.562790  0.983703  1
  Br  Br14  1  0.041934  0.502809  0.502345  1
  Br  Br15  1  0.115933  0.848607  0.855580  1
  Br  Br16  1  0.089781  0.766822  0.394266  1
  Br  Br17  1  0.107292  0.228688  0.355969  1
  Br  Br18  1  0.208778  0.085176  0.744299  1
  Br  Br19  1  0.227765  0.989518  0.244554  1
  Br  Br20  1  0.383786  0.663890  0.727306  1
  Br  Br21  1  0.377230  0.412945  0.224456  1
  Br  Br22  1  0.429685  0.298485  0.607304  1
  Br  Br23  1  0.520533  0.294780  0.902703  1
  Br  Br24  1  0.481530  0.045386  0.529596  1
  Br  Br25  1  0.534792  0.549285  0.988994  1
  Br  Br26  1  0.465208  0.049285  0.011006  1
  Br  Br27  1  0.518470  0.545386  0.470404  1
  Br  Br28  1  0.479467  0.794780  0.097297  1
  Br  Br29  1  0.570315  0.798485  0.392696  1
  Br  Br30  1  0.622770  0.912945  0.775544  1
  Br  Br31  1  0.616214  0.163890  0.272694  1
  Br  Br32  1  0.772235  0.489518  0.755446  1
  Br  Br33  1  0.791222  0.585176  0.255701  1
  Br  Br34  1  0.892708  0.728688  0.644031  1
  Br  Br35  1  0.910219  0.266822  0.605734  1
  Br  Br36  1  0.884067  0.348607  0.144420  1
  Br  Br37  1  0.958066  0.002809  0.497655  1
  Br  Br38  1  0.941139  0.062790  0.016297  1
  Br  Br39  1  0.962320  0.794009  0.109845  1
