# generated using pymatgen
data_LiAsH20(C2O)4
_symmetry_space_group_name_H-M   'P 1'
_cell_length_a   8.20175268
_cell_length_b   8.20175268
_cell_length_c   12.86686395
_cell_angle_alpha   77.04769804
_cell_angle_beta   102.95230196
_cell_angle_gamma   119.20140186
_symmetry_Int_Tables_number   1
_chemical_formula_structural   LiAsH20(C2O)4
_chemical_formula_sum   'Li2 As2 H40 C16 O8'
_cell_volume   729.57997982
_cell_formula_units_Z   2
loop_
 _symmetry_equiv_pos_site_id
 _symmetry_equiv_pos_as_xyz
  1  'x, y, z'
loop_
 _atom_site_type_symbol
 _atom_site_label
 _atom_site_symmetry_multiplicity
 _atom_site_fract_x
 _atom_site_fract_y
 _atom_site_fract_z
 _atom_site_occupancy
  Li  Li0  1  0.935959  0.935959  0.750000  1
  Li  Li1  1  0.064041  0.064041  0.250000  1
  As  As2  1  0.267814  0.267814  0.750000  1
  As  As3  1  0.732186  0.732186  0.250000  1
  H  H4  1  0.769672  0.698526  0.488085  1
  H  H5  1  0.698526  0.769672  0.011915  1
  H  H6  1  0.230328  0.301474  0.511915  1
  H  H7  1  0.301474  0.230328  0.988085  1
  H  H8  1  0.701811  0.556523  0.614528  1
  H  H9  1  0.556523  0.701811  0.885472  1
  H  H10  1  0.298189  0.443477  0.385472  1
  H  H11  1  0.443477  0.298189  0.114528  1
  H  H12  1  0.572781  0.923700  0.593290  1
  H  H13  1  0.923700  0.572781  0.906710  1
  H  H14  1  0.427219  0.076300  0.406710  1
  H  H15  1  0.076300  0.427219  0.093290  1
  H  H16  1  0.484615  0.672354  0.611983  1
  H  H17  1  0.672354  0.484615  0.888017  1
  H  H18  1  0.515385  0.327646  0.388017  1
  H  H19  1  0.327646  0.515385  0.111983  1
  H  H20  1  0.551777  0.807331  0.483490  1
  H  H21  1  0.807331  0.551777  0.016510  1
  H  H22  1  0.448223  0.192669  0.516510  1
  H  H23  1  0.192669  0.448223  0.983490  1
  H  H24  1  0.022717  0.617153  0.600719  1
  H  H25  1  0.617153  0.022717  0.899281  1
  H  H26  1  0.977283  0.382847  0.399281  1
  H  H27  1  0.382847  0.977283  0.100719  1
  H  H28  1  0.101815  0.865603  0.569872  1
  H  H29  1  0.865603  0.101815  0.930128  1
  H  H30  1  0.898185  0.134397  0.430128  1
  H  H31  1  0.134397  0.898185  0.069872  1
  H  H32  1  0.256194  0.797969  0.852190  1
  H  H33  1  0.797969  0.256194  0.647810  1
  H  H34  1  0.743806  0.202031  0.147810  1
  H  H35  1  0.202031  0.743806  0.352190  1
  H  H36  1  0.333635  0.912058  0.724252  1
  H  H37  1  0.912058  0.333635  0.775748  1
  H  H38  1  0.666365  0.087942  0.275748  1
  H  H39  1  0.087942  0.666365  0.224252  1
  H  H40  1  0.250316  0.661055  0.757811  1
  H  H41  1  0.661055  0.250316  0.742189  1
  H  H42  1  0.749684  0.338945  0.242189  1
  H  H43  1  0.338945  0.749684  0.257811  1
  C  C44  1  0.800467  0.695666  0.576671  1
  C  C45  1  0.695666  0.800467  0.923329  1
  C  C46  1  0.199533  0.304334  0.423329  1
  C  C47  1  0.304334  0.199533  0.076671  1
  C  C48  1  0.584133  0.808689  0.571517  1
  C  C49  1  0.808689  0.584133  0.928483  1
  C  C50  1  0.415868  0.191311  0.428483  1
  C  C51  1  0.191311  0.415868  0.071517  1
  C  C52  1  0.002777  0.734491  0.613987  1
  C  C53  1  0.734491  0.002777  0.886013  1
  C  C54  1  0.997223  0.265509  0.386013  1
  C  C55  1  0.265509  0.997223  0.113987  1
  C  C56  1  0.231573  0.781710  0.767013  1
  C  C57  1  0.781710  0.231573  0.732987  1
  C  C58  1  0.768427  0.218290  0.232987  1
  C  C59  1  0.218290  0.768427  0.267013  1
  O  O60  1  0.774530  0.839412  0.606298  1
  O  O61  1  0.839412  0.774530  0.893702  1
  O  O62  1  0.225470  0.160588  0.393702  1
  O  O63  1  0.160588  0.225470  0.106298  1
  O  O64  1  0.042967  0.750461  0.726589  1
  O  O65  1  0.750461  0.042967  0.773411  1
  O  O66  1  0.957033  0.249539  0.273411  1
  O  O67  1  0.249539  0.957033  0.226589  1
