# generated using pymatgen
data_Mn4Si3AsHO13
_symmetry_space_group_name_H-M   'P 1'
_cell_length_a   6.77434246
_cell_length_b   20.24475631
_cell_length_c   7.67459577
_cell_angle_alpha   90.00000000
_cell_angle_beta   95.80447292
_cell_angle_gamma   90.00000000
_symmetry_Int_Tables_number   1
_chemical_formula_structural   Mn4Si3AsHO13
_chemical_formula_sum   'Mn16 Si12 As4 H4 O52'
_cell_volume   1047.13524006
_cell_formula_units_Z   4
loop_
 _symmetry_equiv_pos_site_id
 _symmetry_equiv_pos_as_xyz
  1  'x, y, z'
loop_
 _atom_site_type_symbol
 _atom_site_label
 _atom_site_symmetry_multiplicity
 _atom_site_fract_x
 _atom_site_fract_y
 _atom_site_fract_z
 _atom_site_occupancy
  Mn  Mn0  1  0.241964  0.148019  0.646453  1
  Mn  Mn1  1  0.741964  0.351981  0.146453  1
  Mn  Mn2  1  0.758036  0.851981  0.353547  1
  Mn  Mn3  1  0.258036  0.648019  0.853547  1
  Mn  Mn4  1  0.956138  0.084153  0.954713  1
  Mn  Mn5  1  0.456138  0.415847  0.454713  1
  Mn  Mn6  1  0.043862  0.915847  0.045287  1
  Mn  Mn7  1  0.543862  0.584153  0.545287  1
  Mn  Mn8  1  0.736230  0.008336  0.251588  1
  Mn  Mn9  1  0.236230  0.491664  0.751588  1
  Mn  Mn10  1  0.263770  0.991664  0.748412  1
  Mn  Mn11  1  0.763770  0.508336  0.248412  1
  Mn  Mn12  1  0.448088  0.245506  0.362129  1
  Mn  Mn13  1  0.948088  0.254494  0.862129  1
  Mn  Mn14  1  0.551912  0.754494  0.637871  1
  Mn  Mn15  1  0.051912  0.745506  0.137871  1
  Si  Si16  1  0.267083  0.867212  0.417429  1
  Si  Si17  1  0.767083  0.632788  0.917429  1
  Si  Si18  1  0.732917  0.132788  0.582571  1
  Si  Si19  1  0.232917  0.367212  0.082571  1
  Si  Si20  1  0.232927  0.019627  0.338734  1
  Si  Si21  1  0.732927  0.480373  0.838734  1
  Si  Si22  1  0.767073  0.980373  0.661266  1
  Si  Si23  1  0.267073  0.519627  0.161266  1
  Si  Si24  1  0.449659  0.097900  0.062555  1
  Si  Si25  1  0.949659  0.402100  0.562555  1
  Si  Si26  1  0.550341  0.902100  0.937445  1
  Si  Si27  1  0.050341  0.597900  0.437445  1
  As  As28  1  0.067204  0.800880  0.709324  1
  As  As29  1  0.567204  0.699120  0.209324  1
  As  As30  1  0.932796  0.199120  0.290676  1
  As  As31  1  0.432796  0.300880  0.790676  1
  H  H32  1  0.375230  0.203256  0.016270  1
  H  H33  1  0.875230  0.296744  0.516270  1
  H  H34  1  0.624770  0.796744  0.983730  1
  H  H35  1  0.124770  0.703256  0.483730  1
  O  O36  1  0.227277  0.736791  0.674760  1
  O  O37  1  0.727277  0.763209  0.174760  1
  O  O38  1  0.772723  0.263209  0.325240  1
  O  O39  1  0.272723  0.236791  0.825240  1
  O  O40  1  0.041147  0.819469  0.920930  1
  O  O41  1  0.541147  0.680531  0.420930  1
  O  O42  1  0.958853  0.180531  0.079070  1
  O  O43  1  0.458853  0.319469  0.579070  1
  O  O44  1  0.844821  0.790689  0.586907  1
  O  O45  1  0.344821  0.709311  0.086907  1
  O  O46  1  0.155179  0.209311  0.413093  1
  O  O47  1  0.655179  0.290689  0.913093  1
  O  O48  1  0.182947  0.870097  0.619177  1
  O  O49  1  0.682947  0.629903  0.119177  1
  O  O50  1  0.817053  0.129903  0.380823  1
  O  O51  1  0.317053  0.370097  0.880823  1
  O  O52  1  0.082935  0.842527  0.277637  1
  O  O53  1  0.582935  0.657473  0.777637  1
  O  O54  1  0.917065  0.157473  0.722363  1
  O  O55  1  0.417065  0.342527  0.222363  1
  O  O56  1  0.467160  0.823770  0.426508  1
  O  O57  1  0.967160  0.676230  0.926508  1
  O  O58  1  0.532840  0.176230  0.573492  1
  O  O59  1  0.032840  0.323770  0.073492  1
  O  O60  1  0.320222  0.944669  0.381875  1
  O  O61  1  0.820222  0.555331  0.881875  1
  O  O62  1  0.679778  0.055331  0.618125  1
  O  O63  1  0.179778  0.444669  0.118125  1
  O  O64  1  0.202458  0.052661  0.526450  1
  O  O65  1  0.702458  0.447339  0.026450  1
  O  O66  1  0.797542  0.947339  0.473550  1
  O  O67  1  0.297542  0.552661  0.973550  1
  O  O68  1  0.040604  0.015344  0.191586  1
  O  O69  1  0.540604  0.484656  0.691586  1
  O  O70  1  0.959396  0.984656  0.808414  1
  O  O71  1  0.459396  0.515344  0.308414  1
  O  O72  1  0.413976  0.056950  0.245943  1
  O  O73  1  0.913976  0.443050  0.745943  1
  O  O74  1  0.586024  0.943050  0.754057  1
  O  O75  1  0.086024  0.556950  0.254057  1
  O  O76  1  0.438803  0.177723  0.119061  1
  O  O77  1  0.938803  0.322277  0.619061  1
  O  O78  1  0.561197  0.822277  0.880939  1
  O  O79  1  0.061197  0.677723  0.380939  1
  O  O80  1  0.276915  0.085825  0.899678  1
  O  O81  1  0.776915  0.414175  0.399678  1
  O  O82  1  0.723085  0.914175  0.100322  1
  O  O83  1  0.223085  0.585825  0.600322  1
  O  O84  1  0.665680  0.070589  0.026235  1
  O  O85  1  0.165680  0.429411  0.526235  1
  O  O86  1  0.334320  0.929411  0.973765  1
  O  O87  1  0.834320  0.570589  0.473765  1
