# generated using pymatgen
data_LiMn2(CoO4)2
_symmetry_space_group_name_H-M   'P 1'
_cell_length_a   5.68003482
_cell_length_b   5.76597519
_cell_length_c   5.63893631
_cell_angle_alpha   59.81163642
_cell_angle_beta   61.34732959
_cell_angle_gamma   89.96052066
_symmetry_Int_Tables_number   1
_chemical_formula_structural   LiMn2(CoO4)2
_chemical_formula_sum   'Li1 Mn2 Co2 O8'
_cell_volume   132.86219111
_cell_formula_units_Z   1
loop_
 _symmetry_equiv_pos_site_id
 _symmetry_equiv_pos_as_xyz
  1  'x, y, z'
loop_
 _atom_site_type_symbol
 _atom_site_label
 _atom_site_symmetry_multiplicity
 _atom_site_fract_x
 _atom_site_fract_y
 _atom_site_fract_z
 _atom_site_occupancy
  Li  Li0  1  0.500000  0.500000  0.000000  1
  Mn  Mn1  1  0.000000  0.500000  0.500000  1
  Mn  Mn2  1  0.500000  0.000000  0.000000  1
  Co  Co3  1  0.000000  0.000000  0.500000  1
  Co  Co4  1  0.000000  0.000000  0.000000  1
  O  O5  1  0.764140  0.790888  0.967032  1
  O  O6  1  0.234333  0.766653  0.477378  1
  O  O7  1  0.208687  0.235021  0.523114  1
  O  O8  1  0.239469  0.759365  0.027850  1
  O  O9  1  0.760531  0.240635  0.972150  1
  O  O10  1  0.791313  0.764979  0.476886  1
  O  O11  1  0.765667  0.233347  0.522622  1
  O  O12  1  0.235860  0.209112  0.032968  1
