# generated using pymatgen
data_Rb5FeO4
_symmetry_space_group_name_H-M   'P 1'
_cell_length_a   8.83786148
_cell_length_b   8.04548025
_cell_length_c   6.64455899
_cell_angle_alpha   90.00000000
_cell_angle_beta   90.00000000
_cell_angle_gamma   90.00000000
_symmetry_Int_Tables_number   1
_chemical_formula_structural   Rb5FeO4
_chemical_formula_sum   'Rb10 Fe2 O8'
_cell_volume   472.46030379
_cell_formula_units_Z   2
loop_
 _symmetry_equiv_pos_site_id
 _symmetry_equiv_pos_as_xyz
  1  'x, y, z'
loop_
 _atom_site_type_symbol
 _atom_site_label
 _atom_site_symmetry_multiplicity
 _atom_site_fract_x
 _atom_site_fract_y
 _atom_site_fract_z
 _atom_site_occupancy
  Rb  Rb0  1  0.058774  0.010999  0.737719  1
  Rb  Rb1  1  0.058774  0.489001  0.737719  1
  Rb  Rb2  1  0.250000  0.750000  0.148878  1
  Rb  Rb3  1  0.441226  0.010999  0.737719  1
  Rb  Rb4  1  0.441226  0.489001  0.737719  1
  Rb  Rb5  1  0.558774  0.989001  0.262281  1
  Rb  Rb6  1  0.558774  0.510999  0.262281  1
  Rb  Rb7  1  0.750000  0.250000  0.851122  1
  Rb  Rb8  1  0.941226  0.989001  0.262281  1
  Rb  Rb9  1  0.941226  0.510999  0.262281  1
  Fe  Fe10  1  0.250000  0.250000  0.208986  1
  Fe  Fe11  1  0.750000  0.750000  0.791014  1
  O  O12  1  0.064148  0.250000  0.047877  1
  O  O13  1  0.250000  0.045886  0.367537  1
  O  O14  1  0.250000  0.454114  0.367537  1
  O  O15  1  0.435852  0.250000  0.047877  1
  O  O16  1  0.564148  0.750000  0.952123  1
  O  O17  1  0.750000  0.954114  0.632463  1
  O  O18  1  0.750000  0.545886  0.632463  1
  O  O19  1  0.935852  0.750000  0.952123  1
