# generated using pymatgen
data_Li3VS4
_symmetry_space_group_name_H-M   'P 1'
_cell_length_a   7.13297450
_cell_length_b   6.98974871
_cell_length_c   12.91653465
_cell_angle_alpha   90.00000000
_cell_angle_beta   101.28968101
_cell_angle_gamma   90.00000000
_symmetry_Int_Tables_number   1
_chemical_formula_structural   Li3VS4
_chemical_formula_sum   'Li12 V4 S16'
_cell_volume   631.52747660
_cell_formula_units_Z   4
loop_
 _symmetry_equiv_pos_site_id
 _symmetry_equiv_pos_as_xyz
  1  'x, y, z'
loop_
 _atom_site_type_symbol
 _atom_site_label
 _atom_site_symmetry_multiplicity
 _atom_site_fract_x
 _atom_site_fract_y
 _atom_site_fract_z
 _atom_site_occupancy
  Li  Li0  1  0.066874  0.653463  0.891396  1
  Li  Li1  1  0.290775  0.084379  0.884358  1
  Li  Li2  1  0.066874  0.846537  0.391396  1
  Li  Li3  1  0.514365  0.499334  0.866213  1
  Li  Li4  1  0.290775  0.415621  0.384358  1
  Li  Li5  1  0.485635  0.999334  0.633787  1
  Li  Li6  1  0.514365  0.000666  0.366213  1
  Li  Li7  1  0.709225  0.584379  0.615642  1
  Li  Li8  1  0.485635  0.500666  0.133787  1
  Li  Li9  1  0.933126  0.153463  0.608604  1
  Li  Li10  1  0.709225  0.915621  0.115642  1
  Li  Li11  1  0.933126  0.346537  0.108604  1
  V  V12  1  0.295120  0.391206  0.622348  1
  V  V13  1  0.295120  0.108794  0.122348  1
  V  V14  1  0.704880  0.891206  0.877652  1
  V  V15  1  0.704880  0.608794  0.377652  1
  S  S16  1  0.097416  0.405080  0.729107  1
  S  S17  1  0.218238  0.154865  0.510721  1
  S  S18  1  0.097416  0.094920  0.229107  1
  S  S19  1  0.300891  0.652234  0.536777  1
  S  S20  1  0.422124  0.828058  0.788042  1
  S  S21  1  0.218238  0.345135  0.010721  1
  S  S22  1  0.577876  0.328058  0.711958  1
  S  S23  1  0.699109  0.152234  0.963223  1
  S  S24  1  0.300891  0.847766  0.036777  1
  S  S25  1  0.422124  0.671942  0.288042  1
  S  S26  1  0.781762  0.654865  0.989279  1
  S  S27  1  0.577876  0.171942  0.211958  1
  S  S28  1  0.699109  0.347766  0.463223  1
  S  S29  1  0.902584  0.905080  0.770893  1
  S  S30  1  0.781762  0.845135  0.489279  1
  S  S31  1  0.902584  0.594920  0.270893  1
