# generated using pymatgen
data_Na4Fe2As(CO4)4
_symmetry_space_group_name_H-M   'P 1'
_cell_length_a   10.01363361
_cell_length_b   9.84077468
_cell_length_c   10.01363360
_cell_angle_alpha   60.80388223
_cell_angle_beta   92.36355847
_cell_angle_gamma   60.80388565
_symmetry_Int_Tables_number   1
_chemical_formula_structural   Na4Fe2As(CO4)4
_chemical_formula_sum   'Na8 Fe4 As2 C8 O32'
_cell_volume   699.67973060
_cell_formula_units_Z   2
loop_
 _symmetry_equiv_pos_site_id
 _symmetry_equiv_pos_as_xyz
  1  'x, y, z'
loop_
 _atom_site_type_symbol
 _atom_site_label
 _atom_site_symmetry_multiplicity
 _atom_site_fract_x
 _atom_site_fract_y
 _atom_site_fract_z
 _atom_site_occupancy
  Na  Na0  1  0.088979  0.822043  0.838979  1
  Na  Na1  1  0.088960  0.250000  0.838960  1
  Na  Na2  1  0.338960  0.750000  0.588960  1
  Na  Na3  1  0.338979  0.322043  0.588979  1
  Na  Na4  1  0.661021  0.677957  0.411021  1
  Na  Na5  1  0.661040  0.250000  0.411040  1
  Na  Na6  1  0.911040  0.750000  0.161040  1
  Na  Na7  1  0.911021  0.177957  0.161021  1
  Fe  Fe8  1  0.000000  0.500000  0.000000  1
  Fe  Fe9  1  0.500000  0.000000  0.500000  1
  Fe  Fe10  1  0.500000  0.500000  0.000000  1
  Fe  Fe11  1  0.500000  0.000000  0.000000  1
  As  As12  1  0.125000  0.750000  0.375000  1
  As  As13  1  0.875000  0.250000  0.625000  1
  C  C14  1  0.360741  0.927642  0.779955  1
  C  C15  1  0.279955  0.427642  0.860741  1
  C  C16  1  0.711617  0.927642  0.792403  1
  C  C17  1  0.707597  0.572358  0.788383  1
  C  C18  1  0.292403  0.427642  0.211617  1
  C  C19  1  0.288383  0.072358  0.207597  1
  C  C20  1  0.720045  0.572358  0.139259  1
  C  C21  1  0.639259  0.072358  0.220045  1
  O  O22  1  0.355624  0.788345  0.889073  1
  O  O23  1  0.060855  0.898117  0.438511  1
  O  O24  1  0.365523  0.953145  0.641242  1
  O  O25  1  0.141242  0.453145  0.865523  1
  O  O26  1  0.681331  0.953145  0.905613  1
  O  O27  1  0.308493  0.545823  0.855778  1
  O  O28  1  0.041028  0.898117  0.163372  1
  O  O29  1  0.061489  0.601883  0.439146  1
  O  O30  1  0.401601  0.954177  0.354316  1
  O  O31  1  0.594387  0.546855  0.818669  1
  O  O32  1  0.389073  0.288345  0.855624  1
  O  O33  1  0.336628  0.601883  0.458972  1
  O  O34  1  0.856031  0.788345  0.822581  1
  O  O35  1  0.677419  0.711655  0.643969  1
  O  O36  1  0.355778  0.045823  0.808493  1
  O  O37  1  0.145684  0.545823  0.098399  1
  O  O38  1  0.854316  0.454177  0.901601  1
  O  O39  1  0.644222  0.954177  0.191507  1
  O  O40  1  0.322581  0.288345  0.356031  1
  O  O41  1  0.143969  0.211655  0.177419  1
  O  O42  1  0.663372  0.398117  0.541028  1
  O  O43  1  0.610927  0.711655  0.144376  1
  O  O44  1  0.405613  0.453145  0.181331  1
  O  O45  1  0.598399  0.045823  0.645684  1
  O  O46  1  0.938511  0.398117  0.560855  1
  O  O47  1  0.958972  0.101883  0.836628  1
  O  O48  1  0.691507  0.454177  0.144222  1
  O  O49  1  0.318669  0.046855  0.094387  1
  O  O50  1  0.858758  0.546855  0.134477  1
  O  O51  1  0.634477  0.046855  0.358758  1
  O  O52  1  0.939145  0.101883  0.561489  1
  O  O53  1  0.644376  0.211655  0.110927  1
