# generated using pymatgen
data_Li24Ti7Cr5O36
_symmetry_space_group_name_H-M   'P 1'
_cell_length_a   5.06417984
_cell_length_b   13.43608650
_cell_length_c   9.81643836
_cell_angle_alpha   97.30500107
_cell_angle_beta   94.74427339
_cell_angle_gamma   100.76394467
_symmetry_Int_Tables_number   1
_chemical_formula_structural   Li24Ti7Cr5O36
_chemical_formula_sum   'Li24 Ti7 Cr5 O36'
_cell_volume   646.96335456
_cell_formula_units_Z   1
loop_
 _symmetry_equiv_pos_site_id
 _symmetry_equiv_pos_as_xyz
  1  'x, y, z'
loop_
 _atom_site_type_symbol
 _atom_site_label
 _atom_site_symmetry_multiplicity
 _atom_site_fract_x
 _atom_site_fract_y
 _atom_site_fract_z
 _atom_site_occupancy
  Li  Li0  1  0.836009  0.165605  0.001455  1
  Li  Li1  1  0.951825  0.389123  0.001541  1
  Li  Li2  1  0.000072  0.749504  0.250275  1
  Li  Li3  1  0.665413  0.083698  0.250497  1
  Li  Li4  1  0.950926  0.886701  0.501042  1
  Li  Li5  1  0.616046  0.220213  0.500667  1
  Li  Li6  1  0.831715  0.666476  0.499921  1
  Li  Li7  1  0.497386  0.000495  0.500833  1
  Li  Li8  1  0.712951  0.447128  0.500339  1
  Li  Li9  1  0.668483  0.583055  0.750529  1
  Li  Li10  1  0.505668  0.498306  0.998637  1
  Li  Li11  1  0.711716  0.944688  0.998456  1
  Li  Li12  1  0.375693  0.279428  0.999095  1
  Li  Li13  1  0.619227  0.721071  0.997153  1
  Li  Li14  1  0.289234  0.054888  0.000266  1
  Li  Li15  1  0.333064  0.416341  0.249316  1
  Li  Li16  1  0.282077  0.552805  0.499314  1
  Li  Li17  1  0.173853  0.332715  0.498961  1
  Li  Li18  1  0.387719  0.781659  0.501748  1
  Li  Li19  1  0.049602  0.111953  0.498077  1
  Li  Li20  1  0.334524  0.917619  0.749634  1
  Li  Li21  1  0.161687  0.833820  -0.000036  1
  Li  Li22  1  0.000136  0.249934  0.750080  1
  Li  Li23  1  0.048864  0.612911  0.002220  1
  Ti  Ti24  1  0.882866  0.026423  0.744283  1
  Ti  Ti25  1  0.774194  0.306689  0.246596  1
  Ti  Ti26  1  0.557462  0.859616  0.248408  1
  Ti  Ti27  1  0.443989  0.636219  0.250335  1
  Ti  Ti28  1  0.223847  0.694305  0.752023  1
  Ti  Ti29  1  0.112072  0.472378  0.752434  1
  Ti  Ti30  1  0.114648  0.974004  0.253279  1
  Cr  Cr31  1  0.892563  0.528230  0.251132  1
  Cr  Cr32  1  0.781753  0.806699  0.750121  1
  Cr  Cr33  1  0.561860  0.359114  0.750655  1
  Cr  Cr34  1  0.436977  0.140694  0.750036  1
  Cr  Cr35  1  0.217887  0.194197  0.249908  1
  O  O36  1  0.000985  0.074715  0.137878  1
  O  O37  1  0.938842  0.215447  0.364332  1
  O  O38  1  0.002824  0.571243  0.636367  1
  O  O39  1  0.848427  0.355209  0.636737  1
  O  O40  1  0.734019  0.119220  0.636166  1
  O  O41  1  0.665584  0.405909  0.137790  1
  O  O42  1  0.931799  0.714122  0.865547  1
  O  O43  1  0.813065  0.476995  0.863419  1
  O  O44  1  0.596919  0.050741  0.864785  1
  O  O45  1  0.856328  0.856836  0.136641  1
  O  O46  1  0.741128  0.615733  0.136486  1
  O  O47  1  0.519328  0.190282  0.138316  1
  O  O48  1  0.668179  0.265934  0.861263  1
  O  O49  1  0.810506  0.977658  0.363255  1
  O  O50  1  0.593333  0.547302  0.365963  1
  O  O51  1  0.473302  0.308574  0.362326  1
  O  O52  1  0.667461  0.761849  0.363066  1
  O  O53  1  0.338451  0.095593  0.363097  1
  O  O54  1  0.662044  0.905124  0.635745  1
  O  O55  1  0.330923  0.234220  0.639400  1
  O  O56  1  0.526758  0.691446  0.638405  1
  O  O57  1  0.404100  0.449363  0.635890  1
  O  O58  1  0.186663  0.022824  0.636294  1
  O  O59  1  0.332103  0.736771  0.136470  1
  O  O60  1  0.481278  0.811530  0.861014  1
  O  O61  1  0.265216  0.380204  0.863573  1
  O  O62  1  0.151768  0.143530  0.863002  1
  O  O63  1  0.403092  0.951989  0.134071  1
  O  O64  1  0.190292  0.522145  0.136908  1
  O  O65  1  0.066939  0.285701  0.133937  1
  O  O66  1  0.334580  0.595737  0.864722  1
  O  O67  1  0.262845  0.882021  0.365546  1
  O  O68  1  0.138020  0.641775  0.362023  1
  O  O69  1  -0.000669  0.431035  0.362236  1
  O  O70  1  0.062972  0.786546  0.636077  1
  O  O71  1  0.996592  0.925976  0.862028  1
