# generated using pymatgen
data_Li4Mn2V3Sn3O16
_symmetry_space_group_name_H-M   'P 1'
_cell_length_a   6.13301738
_cell_length_b   6.12509119
_cell_length_c   10.00356439
_cell_angle_alpha   89.85950008
_cell_angle_beta   90.07914670
_cell_angle_gamma   119.61164170
_symmetry_Int_Tables_number   1
_chemical_formula_structural   Li4Mn2V3Sn3O16
_chemical_formula_sum   'Li4 Mn2 V3 Sn3 O16'
_cell_volume   326.70601136
_cell_formula_units_Z   1
loop_
 _symmetry_equiv_pos_site_id
 _symmetry_equiv_pos_as_xyz
  1  'x, y, z'
loop_
 _atom_site_type_symbol
 _atom_site_label
 _atom_site_symmetry_multiplicity
 _atom_site_fract_x
 _atom_site_fract_y
 _atom_site_fract_z
 _atom_site_occupancy
  Li  Li0  1  0.349720  0.673094  0.888149  1
  Li  Li1  1  0.972627  0.989739  0.995051  1
  Li  Li2  1  0.983749  0.988821  0.500791  1
  Li  Li3  1  0.673056  0.338483  0.393462  1
  Mn  Mn4  1  0.336198  0.665022  0.501094  1
  Mn  Mn5  1  0.666642  0.335834  0.996997  1
  V  V6  1  0.661022  0.832343  0.216985  1
  V  V7  1  0.839586  0.177850  0.717365  1
  V  V8  1  0.833128  0.666041  0.713217  1
  Sn  Sn9  1  0.167033  0.831560  0.214772  1
  Sn  Sn10  1  0.167835  0.337030  0.215156  1
  Sn  Sn11  1  0.341582  0.168315  0.714979  1
  O  O12  1  0.152059  0.840390  0.603822  1
  O  O13  1  0.030658  0.519416  0.335494  1
  O  O14  1  0.341348  0.671169  0.100167  1
  O  O15  1  0.989096  0.994968  0.319544  1
  O  O16  1  0.995027  0.996100  0.814674  1
  O  O17  1  0.133759  0.303010  0.604105  1
  O  O18  1  0.502768  0.967625  0.327536  1
  O  O19  1  0.492414  0.522707  0.329874  1
  O  O20  1  0.302716  0.148448  0.096253  1
  O  O21  1  0.691321  0.832946  0.613300  1
  O  O22  1  0.526380  0.489016  0.829762  1
  O  O23  1  0.545879  0.037379  0.828246  1
  O  O24  1  0.681279  0.342054  0.604569  1
  O  O25  1  0.823449  0.689508  0.107260  1
  O  O26  1  0.967372  0.492580  0.819499  1
  O  O27  1  0.832297  0.148852  0.105716  1
