# generated using pymatgen
data_Te3WO12
_symmetry_space_group_name_H-M   'P 1'
_cell_length_a   5.30639126
_cell_length_b   10.61889123
_cell_length_c   9.32010333
_cell_angle_alpha   28.59726727
_cell_angle_beta   51.90816787
_cell_angle_gamma   57.21126580
_symmetry_Int_Tables_number   1
_chemical_formula_structural   Te3WO12
_chemical_formula_sum   'Te3 W1 O12'
_cell_volume   197.83567318
_cell_formula_units_Z   1
loop_
 _symmetry_equiv_pos_site_id
 _symmetry_equiv_pos_as_xyz
  1  'x, y, z'
loop_
 _atom_site_type_symbol
 _atom_site_label
 _atom_site_symmetry_multiplicity
 _atom_site_fract_x
 _atom_site_fract_y
 _atom_site_fract_z
 _atom_site_occupancy
  Te  Te0  1  0.496323  0.000077  0.496710  1
  Te  Te1  1  0.496804  0.499955  0.496520  1
  Te  Te2  1  0.996460  0.500022  0.996606  1
  W  W3  1  0.996890  0.999944  0.996492  1
  O  O4  1  0.378915  0.315674  0.113637  1
  O  O5  1  0.249186  0.116072  0.629649  1
  O  O6  1  0.132284  0.309541  0.742796  1
  O  O7  1  0.879253  0.184339  0.244672  1
  O  O8  1  0.363507  0.806901  0.131735  1
  O  O9  1  0.746628  0.367433  0.379071  1
  O  O10  1  0.246304  0.632472  0.614151  1
  O  O11  1  0.629289  0.192810  0.861997  1
  O  O12  1  0.113934  0.815830  0.748174  1
  O  O13  1  0.861223  0.690377  0.250293  1
  O  O14  1  0.743844  0.884205  0.363366  1
  O  O15  1  0.614356  0.684347  0.879333  1
