# generated using pymatgen
data_Li2V3SnO8
_symmetry_space_group_name_H-M   'P 1'
_cell_length_a   8.56557807
_cell_length_b   8.65861126
_cell_length_c   8.60018388
_cell_angle_alpha   89.99963335
_cell_angle_beta   89.99841475
_cell_angle_gamma   90.00762658
_symmetry_Int_Tables_number   1
_chemical_formula_structural   Li2V3SnO8
_chemical_formula_sum   'Li8 V12 Sn4 O32'
_cell_volume   637.84132397
_cell_formula_units_Z   4
loop_
 _symmetry_equiv_pos_site_id
 _symmetry_equiv_pos_as_xyz
  1  'x, y, z'
loop_
 _atom_site_type_symbol
 _atom_site_label
 _atom_site_symmetry_multiplicity
 _atom_site_fract_x
 _atom_site_fract_y
 _atom_site_fract_z
 _atom_site_occupancy
  Li  Li0  1  0.004867  0.004646  0.003008  1
  Li  Li1  1  0.245767  0.244884  0.245145  1
  Li  Li2  1  0.254128  0.755211  0.745218  1
  Li  Li3  1  0.495100  0.995321  0.502948  1
  Li  Li4  1  0.504916  0.495324  0.997086  1
  Li  Li5  1  0.745830  0.255204  0.754842  1
  Li  Li6  1  0.754174  0.744926  0.254795  1
  Li  Li7  1  0.995084  0.504600  0.497013  1
  V  V8  1  0.116404  0.132595  0.623839  1
  V  V9  1  0.123213  0.382612  0.866652  1
  V  V10  1  0.135763  0.625557  0.118868  1
  V  V11  1  0.364331  0.374614  0.618922  1
  V  V12  1  0.376884  0.617546  0.366631  1
  V  V13  1  0.383470  0.867564  0.123906  1
  V  V14  1  0.616433  0.367469  0.376134  1
  V  V15  1  0.623165  0.117324  0.133412  1
  V  V16  1  0.635779  0.874578  0.881126  1
  V  V17  1  0.864288  0.125448  0.381068  1
  V  V18  1  0.876860  0.882458  0.633361  1
  V  V19  1  0.883688  0.632438  0.876263  1
  Sn  Sn20  1  0.125005  0.874235  0.376305  1
  Sn  Sn21  1  0.374977  0.125693  0.876299  1
  Sn  Sn22  1  0.624916  0.625636  0.623590  1
  Sn  Sn23  1  0.874987  0.374341  0.123646  1
  O  O24  1  0.106961  0.118690  0.391986  1
  O  O25  1  0.119019  0.899160  0.618804  1
  O  O26  1  0.105609  0.620225  0.879616  1
  O  O27  1  0.129272  0.147224  0.859309  1
  O  O28  1  0.118119  0.384982  0.103079  1
  O  O29  1  0.130727  0.363430  0.629864  1
  O  O30  1  0.132399  0.633411  0.352283  1
  O  O31  1  0.154840  0.868347  0.130729  1
  O  O32  1  0.344959  0.131844  0.630703  1
  O  O33  1  0.367666  0.366473  0.852289  1
  O  O34  1  0.369480  0.636735  0.129882  1
  O  O35  1  0.381914  0.615163  0.603139  1
  O  O36  1  0.370830  0.852942  0.359242  1
  O  O37  1  0.394331  0.379874  0.379523  1
  O  O38  1  0.380778  0.100654  0.118961  1
  O  O39  1  0.392926  0.881265  0.891946  1
  O  O40  1  0.607059  0.381296  0.608035  1
  O  O41  1  0.619057  0.600783  0.381206  1
  O  O42  1  0.605790  0.879652  0.120321  1
  O  O43  1  0.629187  0.352681  0.140715  1
  O  O44  1  0.618127  0.115143  0.896950  1
  O  O45  1  0.630645  0.136567  0.370094  1
  O  O46  1  0.632370  0.866544  0.647767  1
  O  O47  1  0.654982  0.631747  0.869341  1
  O  O48  1  0.844991  0.368225  0.369268  1
  O  O49  1  0.867663  0.133469  0.147712  1
  O  O50  1  0.869394  0.863398  0.870094  1
  O  O51  1  0.881800  0.884910  0.396913  1
  O  O52  1  0.870829  0.647087  0.640680  1
  O  O53  1  0.894368  0.120022  0.620480  1
  O  O54  1  0.880879  0.399252  0.881092  1
  O  O55  1  0.893004  0.618716  0.108037  1
