# generated using pymatgen
data_NaLaO2
_symmetry_space_group_name_H-M   'P 1'
_cell_length_a   6.46811386
_cell_length_b   7.85862268
_cell_length_c   6.44321798
_cell_angle_alpha   76.26872682
_cell_angle_beta   114.79391830
_cell_angle_gamma   76.13608468
_symmetry_Int_Tables_number   1
_chemical_formula_structural   NaLaO2
_chemical_formula_sum   'Na4 La4 O8'
_cell_volume   266.61090778
_cell_formula_units_Z   4
loop_
 _symmetry_equiv_pos_site_id
 _symmetry_equiv_pos_as_xyz
  1  'x, y, z'
loop_
 _atom_site_type_symbol
 _atom_site_label
 _atom_site_symmetry_multiplicity
 _atom_site_fract_x
 _atom_site_fract_y
 _atom_site_fract_z
 _atom_site_occupancy
  Na  Na0  1  0.805161  0.389677  0.055161  1
  Na  Na1  1  0.430654  0.138693  0.180654  1
  Na  Na2  1  0.569346  0.861307  0.819346  1
  Na  Na3  1  0.194839  0.610323  0.944839  1
  La  La4  1  0.942745  0.114509  0.692745  1
  La  La5  1  0.682006  0.635988  0.432006  1
  La  La6  1  0.317994  0.364012  0.567994  1
  La  La7  1  0.057255  0.885491  0.307255  1
  O  O8  1  0.930062  0.626552  0.226936  1
  O  O9  1  0.834551  0.876386  0.537565  1
  O  O10  1  0.289065  0.876386  0.086051  1
  O  O11  1  0.556615  0.373448  0.353488  1
  O  O12  1  0.443385  0.626552  0.646512  1
  O  O13  1  0.710936  0.123614  0.913949  1
  O  O14  1  0.165449  0.123614  0.462435  1
  O  O15  1  0.069938  0.373448  0.773064  1
