# generated using pymatgen
data_H2Ru6(CO)17
_symmetry_space_group_name_H-M   'P 1'
_cell_length_a   8.23068395
_cell_length_b   11.16411603
_cell_length_c   15.52157899
_cell_angle_alpha   93.46974379
_cell_angle_beta   98.11084990
_cell_angle_gamma   109.37942972
_symmetry_Int_Tables_number   1
_chemical_formula_structural   H2Ru6(CO)17
_chemical_formula_sum   'H4 Ru12 C34 O34'
_cell_volume   1323.15742230
_cell_formula_units_Z   2
loop_
 _symmetry_equiv_pos_site_id
 _symmetry_equiv_pos_as_xyz
  1  'x, y, z'
loop_
 _atom_site_type_symbol
 _atom_site_label
 _atom_site_symmetry_multiplicity
 _atom_site_fract_x
 _atom_site_fract_y
 _atom_site_fract_z
 _atom_site_occupancy
  H  H0  1  0.420234  0.724344  0.761527  1
  H  H1  1  0.579766  0.275656  0.238473  1
  H  H2  1  0.160280  0.702091  0.633876  1
  H  H3  1  0.839720  0.297909  0.366124  1
  Ru  Ru4  1  0.295256  0.750850  0.848061  1
  Ru  Ru5  1  0.704744  0.249150  0.151939  1
  Ru  Ru6  1  0.037102  0.497872  0.790441  1
  Ru  Ru7  1  0.962898  0.502128  0.209559  1
  Ru  Ru8  1  0.260400  0.979506  0.781421  1
  Ru  Ru9  1  0.739600  0.020494  0.218579  1
  Ru  Ru10  1  0.016866  0.723841  0.710972  1
  Ru  Ru11  1  0.983134  0.276159  0.289028  1
  Ru  Ru12  1  0.389082  0.837001  0.672467  1
  Ru  Ru13  1  0.610918  0.162999  0.327533  1
  Ru  Ru14  1  0.272336  0.583909  0.677685  1
  Ru  Ru15  1  0.727664  0.416091  0.322315  1
  C  C16  1  0.161427  0.760890  0.936241  1
  C  C17  1  0.838573  0.239110  0.063759  1
  C  C18  1  0.492800  0.892055  0.906529  1
  C  C19  1  0.507200  0.107945  0.093471  1
  C  C20  1  0.400705  0.641099  0.906271  1
  C  C21  1  0.599295  0.358901  0.093729  1
  C  C22  1  0.864443  0.356493  0.720079  1
  C  C23  1  0.135557  0.643507  0.279921  1
  C  C24  1  0.139824  0.387170  0.843655  1
  C  C25  1  0.860176  0.612830  0.156345  1
  C  C26  1  0.894099  0.496875  0.876714  1
  C  C27  1  0.105901  0.503125  0.123286  1
  C  C28  1  0.192851  0.087118  0.706005  1
  C  C29  1  0.807149  0.912882  0.293995  1
  C  C30  1  0.461592  0.119275  0.831338  1
  C  C31  1  0.538408  0.880725  0.168662  1
  C  C32  1  0.124578  0.009535  0.864530  1
  C  C33  1  0.875422  0.990465  0.135470  1
  C  C34  1  0.840213  0.577339  0.642003  1
  C  C35  1  0.159787  0.422661  0.357997  1
  C  C36  1  0.871604  0.742512  0.791466  1
  C  C37  1  0.128396  0.257488  0.208534  1
  C  C38  1  0.958581  0.834407  0.630188  1
  C  C39  1  0.041419  0.165593  0.369812  1
  C  C40  1  0.615582  0.952160  0.709920  1
  C  C41  1  0.384418  0.047840  0.290080  1
  C  C42  1  0.354602  0.938529  0.584538  1
  C  C43  1  0.645398  0.061471  0.415462  1
  C  C44  1  0.452402  0.706065  0.595039  1
  C  C45  1  0.547598  0.293935  0.404961  1
  C  C46  1  0.133238  0.448695  0.594176  1
  C  C47  1  0.866762  0.551305  0.405824  1
  C  C48  1  0.403857  0.484472  0.715403  1
  C  C49  1  0.596143  0.515528  0.284597  1
  O  O50  1  0.087356  0.765724  0.993795  1
  O  O51  1  0.912644  0.234276  0.006205  1
  O  O52  1  0.616652  0.960344  0.952917  1
  O  O53  1  0.383348  0.039656  0.047083  1
  O  O54  1  0.483717  0.589570  0.944515  1
  O  O55  1  0.516283  0.410430  0.055485  1
  O  O56  1  0.757611  0.269050  0.678009  1
  O  O57  1  0.242389  0.730950  0.321991  1
  O  O58  1  0.200242  0.316185  0.874476  1
  O  O59  1  0.799758  0.683815  0.125524  1
  O  O60  1  0.807923  0.492137  0.930258  1
  O  O61  1  0.192077  0.507863  0.069742  1
  O  O62  1  0.152966  0.157761  0.663106  1
  O  O63  1  0.847034  0.842239  0.336894  1
  O  O64  1  0.581216  0.208172  0.862376  1
  O  O65  1  0.418784  0.791828  0.137624  1
  O  O66  1  0.042361  0.032871  0.913354  1
  O  O67  1  0.957639  0.967129  0.086646  1
  O  O68  1  0.726053  0.502097  0.593872  1
  O  O69  1  0.273947  0.497903  0.406128  1
  O  O70  1  0.773433  0.750824  0.836556  1
  O  O71  1  0.226567  0.249176  0.163444  1
  O  O72  1  0.908170  0.887039  0.576177  1
  O  O73  1  0.091830  0.112961  0.423823  1
  O  O74  1  0.758252  0.020589  0.735046  1
  O  O75  1  0.241748  0.979411  0.264954  1
  O  O76  1  0.331822  0.999396  0.529062  1
  O  O77  1  0.668178  0.000604  0.470938  1
  O  O78  1  0.530981  0.691426  0.540726  1
  O  O79  1  0.469019  0.308574  0.459274  1
  O  O80  1  0.042814  0.363515  0.543184  1
  O  O81  1  0.957186  0.636485  0.456816  1
  O  O82  1  0.486771  0.422914  0.740701  1
  O  O83  1  0.513229  0.577086  0.259299  1
