# generated using pymatgen
data_K3VPCO7
_symmetry_space_group_name_H-M   'P 1'
_cell_length_a   9.74153605
_cell_length_b   6.99236471
_cell_length_c   5.67427142
_cell_angle_alpha   90.00000000
_cell_angle_beta   89.97621436
_cell_angle_gamma   90.00000000
_symmetry_Int_Tables_number   1
_chemical_formula_structural   K3VPCO7
_chemical_formula_sum   'K6 V2 P2 C2 O14'
_cell_volume   386.51075479
_cell_formula_units_Z   2
loop_
 _symmetry_equiv_pos_site_id
 _symmetry_equiv_pos_as_xyz
  1  'x, y, z'
loop_
 _atom_site_type_symbol
 _atom_site_label
 _atom_site_symmetry_multiplicity
 _atom_site_fract_x
 _atom_site_fract_y
 _atom_site_fract_z
 _atom_site_occupancy
  K  K0  1  0.073478  0.250000  0.760425  1
  K  K1  1  0.283488  0.012215  0.256475  1
  K  K2  1  0.283488  0.487785  0.256475  1
  K  K3  1  0.716512  0.512215  0.743525  1
  K  K4  1  0.716512  0.987785  0.743525  1
  K  K5  1  0.926522  0.750000  0.239575  1
  V  V6  1  0.351124  0.750000  0.765896  1
  V  V7  1  0.648876  0.250000  0.234104  1
  P  P8  1  0.419699  0.250000  0.726694  1
  P  P9  1  0.580301  0.750000  0.273306  1
  C  C10  1  0.083498  0.750000  0.741668  1
  C  C11  1  0.916502  0.250000  0.258332  1
  O  O12  1  0.048850  0.250000  0.266704  1
  O  O13  1  0.149278  0.750000  0.942920  1
  O  O14  1  0.158383  0.750000  0.549161  1
  O  O15  1  0.327258  0.069599  0.764630  1
  O  O16  1  0.327258  0.430401  0.764630  1
  O  O17  1  0.474381  0.250000  0.468229  1
  O  O18  1  0.458264  0.750000  0.098489  1
  O  O19  1  0.541736  0.250000  0.901511  1
  O  O20  1  0.525619  0.750000  0.531771  1
  O  O21  1  0.672742  0.569599  0.235370  1
  O  O22  1  0.672742  0.930401  0.235370  1
  O  O23  1  0.841617  0.250000  0.450839  1
  O  O24  1  0.850722  0.250000  0.057080  1
  O  O25  1  0.951150  0.750000  0.733296  1
