# generated using pymatgen
data_LiMn3(BO3)3
_symmetry_space_group_name_H-M   'P 1'
_cell_length_a   11.80758933
_cell_length_b   5.23071429
_cell_length_c   6.19389479
_cell_angle_alpha   88.02248576
_cell_angle_beta   98.16220190
_cell_angle_gamma   102.37546586
_symmetry_Int_Tables_number   1
_chemical_formula_structural   LiMn3(BO3)3
_chemical_formula_sum   'Li2 Mn6 B6 O18'
_cell_volume   369.87085690
_cell_formula_units_Z   2
loop_
 _symmetry_equiv_pos_site_id
 _symmetry_equiv_pos_as_xyz
  1  'x, y, z'
loop_
 _atom_site_type_symbol
 _atom_site_label
 _atom_site_symmetry_multiplicity
 _atom_site_fract_x
 _atom_site_fract_y
 _atom_site_fract_z
 _atom_site_occupancy
  Li  Li0  1  0.461392  0.142896  0.869070  1
  Li  Li1  1  0.794959  0.809404  0.536755  1
  Mn  Mn2  1  0.789298  0.996700  0.968101  1
  Mn  Mn3  1  0.882023  0.353306  0.386435  1
  Mn  Mn4  1  0.546286  0.680179  0.709670  1
  Mn  Mn5  1  0.450852  0.316096  0.291961  1
  Mn  Mn6  1  0.128305  0.668112  0.622413  1
  Mn  Mn7  1  0.202064  0.999782  0.046788  1
  B  B8  1  0.663446  0.251105  0.588012  1
  B  B9  1  0.999205  0.929364  0.273348  1
  B  B10  1  0.331050  0.581801  0.907005  1
  B  B11  1  0.671573  0.418047  0.075503  1
  B  B12  1  0.001001  0.081216  0.739790  1
  B  B13  1  0.334247  0.743118  0.411445  1
  O  O14  1  0.995238  0.325948  0.646820  1
  O  O15  1  0.907011  0.909399  0.790460  1
  O  O16  1  0.677549  0.999762  0.640918  1
  O  O17  1  0.752274  0.438663  0.522687  1
  O  O18  1  0.556650  0.317212  0.615242  1
  O  O19  1  0.890072  0.989050  0.291529  1
  O  O20  1  0.340984  0.331806  0.972503  1
  O  O21  1  0.785782  0.367021  0.105489  1
  O  O22  1  0.423657  0.770428  0.855851  1
  O  O23  1  0.578455  0.239822  0.125225  1
  O  O24  1  0.223974  0.661849  0.909520  1
  O  O25  1  0.659584  0.654748  0.971068  1
  O  O26  1  0.110669  0.007886  0.757918  1
  O  O27  1  0.446411  0.687474  0.427420  1
  O  O28  1  0.248322  0.566975  0.491067  1
  O  O29  1  0.316823  0.973664  0.304957  1
  O  O30  1  0.081646  0.100105  0.181245  1
  O  O31  1  0.016013  0.688258  0.359942  1
