# generated using pymatgen
data_Mn3O5F
_symmetry_space_group_name_H-M   'P 1'
_cell_length_a   10.40315430
_cell_length_b   6.31262904
_cell_length_c   2.98666956
_cell_angle_alpha   90.00000000
_cell_angle_beta   90.00000000
_cell_angle_gamma   107.66302844
_symmetry_Int_Tables_number   1
_chemical_formula_structural   Mn3O5F
_chemical_formula_sum   'Mn6 O10 F2'
_cell_volume   186.89187741
_cell_formula_units_Z   2
loop_
 _symmetry_equiv_pos_site_id
 _symmetry_equiv_pos_as_xyz
  1  'x, y, z'
loop_
 _atom_site_type_symbol
 _atom_site_label
 _atom_site_symmetry_multiplicity
 _atom_site_fract_x
 _atom_site_fract_y
 _atom_site_fract_z
 _atom_site_occupancy
  Mn  Mn0  1  0.022909  0.011450  0.000000  1
  Mn  Mn1  1  0.341996  0.170951  0.500000  1
  Mn  Mn2  1  0.991390  0.495692  0.500000  1
  Mn  Mn3  1  0.666712  0.333405  0.000000  1
  Mn  Mn4  1  0.310448  0.655166  0.000000  1
  Mn  Mn5  1  0.666664  0.833377  0.500000  1
  O  O6  1  0.141960  0.071025  0.500000  1
  O  O7  1  0.996920  0.301552  0.000000  1
  O  O8  1  0.336417  0.365056  0.000000  1
  O  O9  1  0.996965  0.695370  0.000000  1
  O  O10  1  0.666633  0.028870  0.000000  1
  O  O11  1  0.539527  0.269706  0.500000  1
  O  O12  1  0.191391  0.595653  0.500000  1
  O  O13  1  0.793870  0.396986  0.500000  1
  O  O14  1  0.666621  0.637841  0.000000  1
  O  O15  1  0.336342  0.971248  0.000000  1
  F  F16  1  0.449269  0.724562  0.500000  1
  F  F17  1  0.883967  0.942089  0.500000  1
