# generated using pymatgen
data_K3VH6C4O13
_symmetry_space_group_name_H-M   'P 1'
_cell_length_a   7.93837585
_cell_length_b   11.71266936
_cell_length_c   7.89324734
_cell_angle_alpha   94.40202418
_cell_angle_beta   110.19034687
_cell_angle_gamma   91.11404155
_symmetry_Int_Tables_number   1
_chemical_formula_structural   K3VH6C4O13
_chemical_formula_sum   'K6 V2 H12 C8 O26'
_cell_volume   685.95297861
_cell_formula_units_Z   2
loop_
 _symmetry_equiv_pos_site_id
 _symmetry_equiv_pos_as_xyz
  1  'x, y, z'
loop_
 _atom_site_type_symbol
 _atom_site_label
 _atom_site_symmetry_multiplicity
 _atom_site_fract_x
 _atom_site_fract_y
 _atom_site_fract_z
 _atom_site_occupancy
  K  K0  1  0.725241  0.519959  0.431226  1
  K  K1  1  0.274759  0.480041  0.568774  1
  K  K2  1  0.731146  0.770877  0.842274  1
  K  K3  1  0.268854  0.229123  0.157726  1
  K  K4  1  0.967765  0.826733  0.411838  1
  K  K5  1  0.032235  0.173267  0.588162  1
  V  V6  1  0.185997  0.706525  0.844344  1
  V  V7  1  0.814003  0.293475  0.155656  1
  H  H8  1  0.666676  0.606731  0.095385  1
  H  H9  1  0.333324  0.393269  0.904615  1
  H  H10  1  0.571120  0.717478  0.125723  1
  H  H11  1  0.428880  0.282522  0.874277  1
  H  H12  1  0.499472  0.788025  0.378377  1
  H  H13  1  0.500528  0.211975  0.621623  1
  H  H14  1  0.426122  0.742445  0.522276  1
  H  H15  1  0.573878  0.257555  0.477724  1
  H  H16  1  0.716697  0.986281  0.593918  1
  H  H17  1  0.283303  0.013719  0.406082  1
  H  H18  1  0.633674  0.008824  0.390859  1
  H  H19  1  0.366326  0.991176  0.609141  1
  C  C20  1  0.169608  0.952527  0.916049  1
  C  C21  1  0.830392  0.047473  0.083951  1
  C  C22  1  0.328290  0.924664  0.087203  1
  C  C23  1  0.671710  0.075336  0.912797  1
  C  C24  1  0.266887  0.550851  0.129427  1
  C  C25  1  0.733113  0.449149  0.870573  1
  C  C26  1  0.130716  0.630356  0.173343  1
  C  C27  1  0.869284  0.369644  0.826657  1
  O  O28  1  0.003926  0.647245  0.681169  1
  O  O29  1  0.996074  0.352755  0.318831  1
  O  O30  1  0.343823  0.715293  0.748037  1
  O  O31  1  0.656177  0.284707  0.251963  1
  O  O32  1  0.087122  0.863462  0.808208  1
  O  O33  1  0.912878  0.136538  0.191792  1
  O  O34  1  0.369127  0.819522  0.087312  1
  O  O35  1  0.630873  0.180478  0.912688  1
  O  O36  1  0.128224  0.052912  0.889287  1
  O  O37  1  0.871776  0.947088  0.110713  1
  O  O38  1  0.401254  0.003823  0.209732  1
  O  O39  1  0.598746  0.996177  0.790268  1
  O  O40  1  0.295321  0.570094  0.980202  1
  O  O41  1  0.704679  0.429906  0.019798  1
  O  O42  1  0.061708  0.698870  0.050412  1
  O  O43  1  0.938292  0.301130  0.949588  1
  O  O44  1  0.340949  0.475796  0.229014  1
  O  O45  1  0.659051  0.524204  0.770986  1
  O  O46  1  0.099473  0.623907  0.316654  1
  O  O47  1  0.900527  0.376093  0.683346  1
  O  O48  1  0.688469  0.682897  0.161828  1
  O  O49  1  0.311531  0.317103  0.838172  1
  O  O50  1  0.525025  0.736204  0.474912  1
  O  O51  1  0.474975  0.263796  0.525088  1
  O  O52  1  0.749763  0.002181  0.488984  1
  O  O53  1  0.250237  0.997819  0.511016  1
