# generated using pymatgen
data_NbCr2Fe3(PO4)6
_symmetry_space_group_name_H-M   'P 1'
_cell_length_a   8.77078495
_cell_length_b   8.77078534
_cell_length_c   8.77078492
_cell_angle_alpha   59.65525170
_cell_angle_beta   59.65525165
_cell_angle_gamma   59.65525229
_symmetry_Int_Tables_number   1
_chemical_formula_structural   NbCr2Fe3(PO4)6
_chemical_formula_sum   'Nb1 Cr2 Fe3 P6 O24'
_cell_volume   473.35302271
_cell_formula_units_Z   1
loop_
 _symmetry_equiv_pos_site_id
 _symmetry_equiv_pos_as_xyz
  1  'x, y, z'
loop_
 _atom_site_type_symbol
 _atom_site_label
 _atom_site_symmetry_multiplicity
 _atom_site_fract_x
 _atom_site_fract_y
 _atom_site_fract_z
 _atom_site_occupancy
  Nb  Nb0  1  0.855320  0.855320  0.855320  1
  Cr  Cr1  1  0.008698  0.008698  0.008698  1
  Cr  Cr2  1  0.500710  0.500710  0.500710  1
  Fe  Fe3  1  0.148986  0.148986  0.148986  1
  Fe  Fe4  1  0.354738  0.354738  0.354738  1
  Fe  Fe5  1  0.644264  0.644264  0.644264  1
  P  P6  1  0.747861  0.450558  0.043836  1
  P  P7  1  0.254054  0.540041  0.956401  1
  P  P8  1  0.540041  0.956401  0.254054  1
  P  P9  1  0.956401  0.254054  0.540041  1
  P  P10  1  0.043836  0.747861  0.450558  1
  P  P11  1  0.450558  0.043836  0.747861  1
  O  O12  1  0.113093  0.310430  0.505040  1
  O  O13  1  0.310430  0.505040  0.113093  1
  O  O14  1  0.059728  0.913511  0.261593  1
  O  O15  1  0.505040  0.113093  0.310430  1
  O  O16  1  0.990185  0.815986  0.613860  1
  O  O17  1  0.236499  0.589374  0.445133  1
  O  O18  1  0.261593  0.059728  0.913511  1
  O  O19  1  0.445133  0.236499  0.589374  1
  O  O20  1  0.183567  0.390558  -0.001249  1
  O  O21  1  0.589374  0.445133  0.236499  1
  O  O22  1  0.088635  0.738421  0.934236  1
  O  O23  1  0.390558  -0.001249  0.183567  1
  O  O24  1  0.613860  0.990185  0.815986  1
  O  O25  1  0.913511  0.261593  0.059728  1
  O  O26  1  0.412160  0.560487  0.761727  1
  O  O27  1  0.815986  0.613860  0.990185  1
  O  O28  1  0.560487  0.761727  0.412160  1
  O  O29  1  0.738421  0.934236  0.088635  1
  O  O30  1  0.761727  0.412160  0.560487  1
  O  O31  1  -0.001249  0.183567  0.390558  1
  O  O32  1  0.499351  0.887507  0.684701  1
  O  O33  1  0.934236  0.088635  0.738421  1
  O  O34  1  0.684701  0.499351  0.887507  1
  O  O35  1  0.887507  0.684701  0.499351  1
