# generated using pymatgen
data_Li3Ti(Si2O5)3
_symmetry_space_group_name_H-M   'P 1'
_cell_length_a   11.06392693
_cell_length_b   11.06392693
_cell_length_c   10.20658880
_cell_angle_alpha   90.00000000
_cell_angle_beta   90.00000000
_cell_angle_gamma   79.89596091
_symmetry_Int_Tables_number   1
_chemical_formula_structural   Li3Ti(Si2O5)3
_chemical_formula_sum   'Li12 Ti4 Si24 O60'
_cell_volume   1230.01635122
_cell_formula_units_Z   4
loop_
 _symmetry_equiv_pos_site_id
 _symmetry_equiv_pos_as_xyz
  1  'x, y, z'
loop_
 _atom_site_type_symbol
 _atom_site_label
 _atom_site_symmetry_multiplicity
 _atom_site_fract_x
 _atom_site_fract_y
 _atom_site_fract_z
 _atom_site_occupancy
  Li  Li0  1  0.234484  0.765516  0.000000  1
  Li  Li1  1  0.478683  0.978683  0.250000  1
  Li  Li2  1  0.021317  0.521317  0.750000  1
  Li  Li3  1  0.265516  0.734484  0.500000  1
  Li  Li4  1  0.063020  0.063020  0.800872  1
  Li  Li5  1  0.563020  0.563020  0.699128  1
  Li  Li6  1  0.436980  0.436980  0.300872  1
  Li  Li7  1  0.936980  0.936980  0.199128  1
  Li  Li8  1  0.734484  0.265516  0.500000  1
  Li  Li9  1  0.521317  0.021317  0.750000  1
  Li  Li10  1  0.978683  0.478683  0.250000  1
  Li  Li11  1  0.765516  0.234484  0.000000  1
  Ti  Ti12  1  0.156029  0.656029  0.250000  1
  Ti  Ti13  1  0.343971  0.843971  0.750000  1
  Ti  Ti14  1  0.843971  0.343971  0.750000  1
  Ti  Ti15  1  0.656029  0.156029  0.250000  1
  Si  Si16  1  0.039905  0.810429  0.806910  1
  Si  Si17  1  0.189571  0.960095  0.193090  1
  Si  Si18  1  0.460095  0.689571  0.306910  1
  Si  Si19  1  0.310429  0.539905  0.693090  1
  Si  Si20  1  0.016797  0.234658  0.483403  1
  Si  Si21  1  0.265342  0.483203  0.983403  1
  Si  Si22  1  0.516797  0.734658  0.016597  1
  Si  Si23  1  0.765342  0.983203  0.516597  1
  Si  Si24  1  0.200082  0.418303  0.455148  1
  Si  Si25  1  0.700082  0.918303  0.044852  1
  Si  Si26  1  0.081697  0.299918  0.955148  1
  Si  Si27  1  0.581697  0.799918  0.544852  1
  Si  Si28  1  0.418303  0.200082  0.455148  1
  Si  Si29  1  0.299918  0.081697  0.955148  1
  Si  Si30  1  0.918303  0.700082  0.044852  1
  Si  Si31  1  0.799918  0.581697  0.544852  1
  Si  Si32  1  0.734658  0.516797  0.016597  1
  Si  Si33  1  0.234658  0.016797  0.483403  1
  Si  Si34  1  0.483203  0.265342  0.983403  1
  Si  Si35  1  0.983203  0.765342  0.516597  1
  Si  Si36  1  0.539905  0.310429  0.693090  1
  Si  Si37  1  0.689571  0.460095  0.306910  1
  Si  Si38  1  0.810429  0.039905  0.806910  1
  Si  Si39  1  0.960095  0.189571  0.193090  1
  O  O40  1  0.283088  0.988775  0.077349  1
  O  O41  1  0.011225  0.716912  0.922651  1
  O  O42  1  0.031195  0.734271  0.669764  1
  O  O43  1  0.265729  0.968805  0.330236  1
  O  O44  1  0.140262  0.834381  0.165910  1
  O  O45  1  0.165619  0.859738  0.834090  1
  O  O46  1  0.097341  0.744323  0.418156  1
  O  O47  1  0.255677  0.902659  0.581844  1
  O  O48  1  0.139278  0.488012  0.327928  1
  O  O49  1  0.639278  0.988012  0.172072  1
  O  O50  1  0.011988  0.360722  0.827928  1
  O  O51  1  0.511988  0.860722  0.672072  1
  O  O52  1  0.244323  0.597341  0.081844  1
  O  O53  1  0.402659  0.755677  0.918156  1
  O  O54  1  0.359738  0.665619  0.665910  1
  O  O55  1  0.334381  0.640262  0.334090  1
  O  O56  1  0.468805  0.765729  0.169764  1
  O  O57  1  0.234271  0.531195  0.830236  1
  O  O58  1  0.216912  0.511225  0.577349  1
  O  O59  1  0.488775  0.783088  0.422651  1
  O  O60  1  0.114480  0.326318  0.515663  1
  O  O61  1  0.173682  0.385520  0.015663  1
  O  O62  1  0.673682  0.885520  0.484337  1
  O  O63  1  0.614480  0.826318  0.984337  1
  O  O64  1  0.592948  0.592948  0.007878  1
  O  O65  1  0.339798  0.339798  0.417706  1
  O  O66  1  0.066302  0.066302  0.194827  1
  O  O67  1  0.160202  0.160202  0.917706  1
  O  O68  1  0.092948  0.092948  0.492122  1
  O  O69  1  0.433698  0.433698  0.694827  1
  O  O70  1  0.566302  0.566302  0.305173  1
  O  O71  1  0.407052  0.407052  0.992122  1
  O  O72  1  0.907052  0.907052  0.507878  1
  O  O73  1  0.660202  0.660202  0.582294  1
  O  O74  1  0.933698  0.933698  0.805173  1
  O  O75  1  0.839798  0.839798  0.082294  1
  O  O76  1  0.326318  0.114480  0.515663  1
  O  O77  1  0.385520  0.173682  0.015663  1
  O  O78  1  0.885520  0.673682  0.484337  1
  O  O79  1  0.826318  0.614480  0.984337  1
  O  O80  1  0.511225  0.216912  0.577349  1
  O  O81  1  0.783088  0.488775  0.422651  1
  O  O82  1  0.531195  0.234271  0.830236  1
  O  O83  1  0.765729  0.468805  0.169764  1
  O  O84  1  0.640262  0.334381  0.334090  1
  O  O85  1  0.665619  0.359738  0.665910  1
  O  O86  1  0.597341  0.244323  0.081844  1
  O  O87  1  0.755677  0.402659  0.918156  1
  O  O88  1  0.360722  0.011988  0.827928  1
  O  O89  1  0.488012  0.139278  0.327928  1
  O  O90  1  0.988012  0.639278  0.172072  1
  O  O91  1  0.860722  0.511988  0.672072  1
  O  O92  1  0.744323  0.097341  0.418156  1
  O  O93  1  0.902659  0.255677  0.581844  1
  O  O94  1  0.834381  0.140262  0.165910  1
  O  O95  1  0.859738  0.165619  0.834090  1
  O  O96  1  0.968805  0.265729  0.330236  1
  O  O97  1  0.734271  0.031195  0.669764  1
  O  O98  1  0.716912  0.011225  0.922651  1
  O  O99  1  0.988775  0.283088  0.077349  1
