# generated using pymatgen
data_HgH10N2Cl4O
_symmetry_space_group_name_H-M   'P 1'
_cell_length_a   8.62160486
_cell_length_b   11.96480259
_cell_length_c   9.29965167
_cell_angle_alpha   90.00000000
_cell_angle_beta   90.00000000
_cell_angle_gamma   90.00000000
_symmetry_Int_Tables_number   1
_chemical_formula_structural   HgH10N2Cl4O
_chemical_formula_sum   'Hg4 H40 N8 Cl16 O4'
_cell_volume   959.31300922
_cell_formula_units_Z   4
loop_
 _symmetry_equiv_pos_site_id
 _symmetry_equiv_pos_as_xyz
  1  'x, y, z'
loop_
 _atom_site_type_symbol
 _atom_site_label
 _atom_site_symmetry_multiplicity
 _atom_site_fract_x
 _atom_site_fract_y
 _atom_site_fract_z
 _atom_site_occupancy
  Hg  Hg0  1  0.000000  0.000000  0.278579  1
  Hg  Hg1  1  0.000000  0.000000  0.721421  1
  Hg  Hg2  1  0.500000  0.500000  0.721421  1
  Hg  Hg3  1  0.500000  0.500000  0.278579  1
  H  H4  1  0.039519  0.675760  0.500000  1
  H  H5  1  0.033973  0.298420  0.089524  1
  H  H6  1  0.033973  0.298420  0.910476  1
  H  H7  1  0.085489  0.521953  0.196754  1
  H  H8  1  0.085489  0.521953  0.803246  1
  H  H9  1  0.098582  0.389965  0.409415  1
  H  H10  1  0.098582  0.389965  0.590585  1
  H  H11  1  0.140390  0.268100  0.500000  1
  H  H12  1  0.166978  0.378130  0.000000  1
  H  H13  1  0.176594  0.233714  0.000000  1
  H  H14  1  0.323406  0.733714  0.000000  1
  H  H15  1  0.333022  0.878130  0.000000  1
  H  H16  1  0.359610  0.768100  0.500000  1
  H  H17  1  0.401418  0.889965  0.409415  1
  H  H18  1  0.401418  0.889965  0.590585  1
  H  H19  1  0.414511  0.021953  0.196754  1
  H  H20  1  0.414511  0.021953  0.803246  1
  H  H21  1  0.466027  0.798420  0.089524  1
  H  H22  1  0.466027  0.798420  0.910476  1
  H  H23  1  0.460481  0.175760  0.500000  1
  H  H24  1  0.539519  0.824240  0.500000  1
  H  H25  1  0.533973  0.201580  0.089524  1
  H  H26  1  0.533973  0.201580  0.910476  1
  H  H27  1  0.585489  0.978047  0.196754  1
  H  H28  1  0.585489  0.978047  0.803246  1
  H  H29  1  0.598582  0.110035  0.409415  1
  H  H30  1  0.598582  0.110035  0.590585  1
  H  H31  1  0.640390  0.231900  0.500000  1
  H  H32  1  0.666978  0.121870  0.000000  1
  H  H33  1  0.676594  0.266286  0.000000  1
  H  H34  1  0.823406  0.766286  0.000000  1
  H  H35  1  0.833022  0.621870  0.000000  1
  H  H36  1  0.859610  0.731900  0.500000  1
  H  H37  1  0.901418  0.610035  0.409415  1
  H  H38  1  0.901418  0.610035  0.590585  1
  H  H39  1  0.914511  0.478047  0.196754  1
  H  H40  1  0.914511  0.478047  0.803246  1
  H  H41  1  0.966027  0.701580  0.089524  1
  H  H42  1  0.966027  0.701580  0.910476  1
  H  H43  1  0.960481  0.324240  0.500000  1
  N  N44  1  0.077165  0.342447  0.500000  1
  N  N45  1  0.104248  0.303576  0.000000  1
  N  N46  1  0.395752  0.803576  0.000000  1
  N  N47  1  0.422835  0.842447  0.500000  1
  N  N48  1  0.577165  0.157553  0.500000  1
  N  N49  1  0.604248  0.196424  0.000000  1
  N  N50  1  0.895752  0.696424  0.000000  1
  N  N51  1  0.922835  0.657553  0.500000  1
  Cl  Cl52  1  0.117334  0.818977  0.249318  1
  Cl  Cl53  1  0.117334  0.818977  0.750682  1
  Cl  Cl54  1  0.201715  0.079756  0.500000  1
  Cl  Cl55  1  0.241748  0.557958  0.000000  1
  Cl  Cl56  1  0.258252  0.057958  0.000000  1
  Cl  Cl57  1  0.298285  0.579756  0.500000  1
  Cl  Cl58  1  0.382666  0.318977  0.249318  1
  Cl  Cl59  1  0.382666  0.318977  0.750682  1
  Cl  Cl60  1  0.617334  0.681023  0.249318  1
  Cl  Cl61  1  0.617334  0.681023  0.750682  1
  Cl  Cl62  1  0.701715  0.420244  0.500000  1
  Cl  Cl63  1  0.741748  0.942042  0.000000  1
  Cl  Cl64  1  0.758252  0.442042  0.000000  1
  Cl  Cl65  1  0.798285  0.920244  0.500000  1
  Cl  Cl66  1  0.882666  0.181023  0.249318  1
  Cl  Cl67  1  0.882666  0.181023  0.750682  1
  O  O68  1  0.000000  0.500000  0.261718  1
  O  O69  1  0.000000  0.500000  0.738282  1
  O  O70  1  0.500000  0.000000  0.738282  1
  O  O71  1  0.500000  0.000000  0.261718  1
