# generated using pymatgen
data_NaMnPCO7
_symmetry_space_group_name_H-M   'P 1'
_cell_length_a   10.43862361
_cell_length_b   6.24364632
_cell_length_c   10.61204262
_cell_angle_alpha   90.00000000
_cell_angle_beta   121.41305202
_cell_angle_gamma   90.00000000
_symmetry_Int_Tables_number   1
_chemical_formula_structural   NaMnPCO7
_chemical_formula_sum   'Na4 Mn4 P4 C4 O28'
_cell_volume   590.26833471
_cell_formula_units_Z   4
loop_
 _symmetry_equiv_pos_site_id
 _symmetry_equiv_pos_as_xyz
  1  'x, y, z'
loop_
 _atom_site_type_symbol
 _atom_site_label
 _atom_site_symmetry_multiplicity
 _atom_site_fract_x
 _atom_site_fract_y
 _atom_site_fract_z
 _atom_site_occupancy
  Na  Na0  1  0.997016  0.029887  0.240871  1
  Na  Na1  1  0.497016  0.470113  0.240871  1
  Na  Na2  1  0.502984  0.970113  0.759129  1
  Na  Na3  1  0.002984  0.529887  0.759129  1
  Mn  Mn4  1  0.279492  0.747630  0.341700  1
  Mn  Mn5  1  0.779492  0.752370  0.341700  1
  Mn  Mn6  1  0.220508  0.252370  0.658300  1
  Mn  Mn7  1  0.720508  0.247630  0.658300  1
  P  P8  1  0.357302  0.250236  0.432864  1
  P  P9  1  0.857302  0.249764  0.432864  1
  P  P10  1  0.142698  0.749764  0.567136  1
  P  P11  1  0.642698  0.750236  0.567136  1
  C  C12  1  0.173677  0.759219  0.076762  1
  C  C13  1  0.673677  0.740781  0.076762  1
  C  C14  1  0.326323  0.240781  0.923238  1
  C  C15  1  0.826323  0.259219  0.923238  1
  O  O16  1  0.378191  0.236559  0.057417  1
  O  O17  1  0.878191  0.263441  0.057417  1
  O  O18  1  0.094103  0.759906  0.141334  1
  O  O19  1  0.594103  0.740094  0.141334  1
  O  O20  1  0.319645  0.751187  0.178574  1
  O  O21  1  0.819645  0.748813  0.178574  1
  O  O22  1  0.269570  0.056646  0.332694  1
  O  O23  1  0.278400  0.442442  0.328084  1
  O  O24  1  0.778400  0.057558  0.328084  1
  O  O25  1  0.769570  0.443354  0.332694  1
  O  O26  1  0.024390  0.250819  0.475616  1
  O  O27  1  0.148900  0.748843  0.425846  1
  O  O28  1  0.524390  0.249181  0.475616  1
  O  O29  1  0.648900  0.751157  0.425846  1
  O  O30  1  0.351100  0.251157  0.574154  1
  O  O31  1  0.475610  0.749181  0.524384  1
  O  O32  1  0.851100  0.248843  0.574154  1
  O  O33  1  0.975610  0.750819  0.524384  1
  O  O34  1  0.221600  0.557558  0.671916  1
  O  O35  1  0.230430  0.943354  0.667306  1
  O  O36  1  0.730430  0.556646  0.667306  1
  O  O37  1  0.721600  0.942442  0.671916  1
  O  O38  1  0.180355  0.248813  0.821426  1
  O  O39  1  0.680355  0.251187  0.821426  1
  O  O40  1  0.405897  0.240094  0.858666  1
  O  O41  1  0.905897  0.259906  0.858666  1
  O  O42  1  0.121809  0.763441  0.942583  1
  O  O43  1  0.621809  0.736559  0.942583  1
