# generated using pymatgen
data_Sc2(PO4)3
_symmetry_space_group_name_H-M   'P 1'
_cell_length_a   9.08050666
_cell_length_b   12.59030238
_cell_length_c   9.12322208
_cell_angle_alpha   90.00000000
_cell_angle_beta   90.00000000
_cell_angle_gamma   90.26006280
_symmetry_Int_Tables_number   1
_chemical_formula_structural   Sc2(PO4)3
_chemical_formula_sum   'Sc8 P12 O48'
_cell_volume   1043.01370535
_cell_formula_units_Z   4
loop_
 _symmetry_equiv_pos_site_id
 _symmetry_equiv_pos_as_xyz
  1  'x, y, z'
loop_
 _atom_site_type_symbol
 _atom_site_label
 _atom_site_symmetry_multiplicity
 _atom_site_fract_x
 _atom_site_fract_y
 _atom_site_fract_z
 _atom_site_occupancy
  Sc  Sc0  1  0.251997  0.119736  0.462456  1
  Sc  Sc1  1  0.250664  0.879038  0.036410  1
  Sc  Sc2  1  0.249336  0.620962  0.536410  1
  Sc  Sc3  1  0.248003  0.380264  0.962456  1
  Sc  Sc4  1  0.751997  0.619736  0.037544  1
  Sc  Sc5  1  0.750664  0.379038  0.463590  1
  Sc  Sc6  1  0.749336  0.120962  0.963590  1
  Sc  Sc7  1  0.748003  0.880264  0.537544  1
  P  P8  1  0.033519  0.498147  0.250293  1
  P  P9  1  0.104144  0.856457  0.391162  1
  P  P10  1  0.106078  0.142240  0.105958  1
  P  P11  1  0.393922  0.357760  0.605958  1
  P  P12  1  0.395856  0.643543  0.891162  1
  P  P13  1  0.466481  0.001853  0.750293  1
  P  P14  1  0.533519  0.998147  0.249707  1
  P  P15  1  0.604144  0.356457  0.108838  1
  P  P16  1  0.606078  0.642240  0.394042  1
  P  P17  1  0.893922  0.857760  0.894042  1
  P  P18  1  0.895856  0.143543  0.608838  1
  P  P19  1  0.966481  0.501853  0.749707  1
  O  O20  1  0.063417  0.425940  0.839978  1
  O  O21  1  0.064758  0.581159  0.665248  1
  O  O22  1  0.062892  0.857814  0.908905  1
  O  O23  1  0.063334  0.148485  0.583787  1
  O  O24  1  0.126201  0.562465  0.359990  1
  O  O25  1  0.138974  0.836189  0.228375  1
  O  O26  1  0.137495  0.438365  0.146699  1
  O  O27  1  0.160947  0.968492  0.429888  1
  O  O28  1  0.165606  0.032200  0.062875  1
  O  O29  1  0.149760  0.163114  0.266406  1
  O  O30  1  0.172647  0.227777  0.005843  1
  O  O31  1  0.180926  0.773864  0.488299  1
  O  O32  1  0.319074  0.726136  0.988299  1
  O  O33  1  0.327353  0.272223  0.505843  1
  O  O34  1  0.350240  0.336886  0.766406  1
  O  O35  1  0.334394  0.467800  0.562875  1
  O  O36  1  0.339053  0.531508  0.929888  1
  O  O37  1  0.362505  0.061635  0.646699  1
  O  O38  1  0.361026  0.663811  0.728375  1
  O  O39  1  0.373799  0.937535  0.859990  1
  O  O40  1  0.436666  0.351515  0.083787  1
  O  O41  1  0.437108  0.642186  0.408905  1
  O  O42  1  0.435242  0.918841  0.165248  1
  O  O43  1  0.436583  0.074060  0.339978  1
  O  O44  1  0.563417  0.925940  0.660022  1
  O  O45  1  0.564758  0.081159  0.834752  1
  O  O46  1  0.562892  0.357814  0.591095  1
  O  O47  1  0.563334  0.648485  0.916213  1
  O  O48  1  0.626201  0.062465  0.140010  1
  O  O49  1  0.638974  0.336189  0.271625  1
  O  O50  1  0.637495  0.938365  0.353301  1
  O  O51  1  0.660947  0.468492  0.070112  1
  O  O52  1  0.665606  0.532200  0.437125  1
  O  O53  1  0.649760  0.663114  0.233594  1
  O  O54  1  0.672647  0.727777  0.494157  1
  O  O55  1  0.680926  0.273863  0.011701  1
  O  O56  1  0.819074  0.226136  0.511701  1
  O  O57  1  0.827353  0.772223  0.994157  1
  O  O58  1  0.850240  0.836886  0.733594  1
  O  O59  1  0.834394  0.967800  0.937125  1
  O  O60  1  0.839053  0.031508  0.570112  1
  O  O61  1  0.862505  0.561635  0.853301  1
  O  O62  1  0.861026  0.163811  0.771625  1
  O  O63  1  0.873799  0.437535  0.640010  1
  O  O64  1  0.936666  0.851515  0.416213  1
  O  O65  1  0.937108  0.142186  0.091095  1
  O  O66  1  0.935242  0.418841  0.334752  1
  O  O67  1  0.936583  0.574060  0.160022  1
