# generated using pymatgen
data_CoP6(WO8)3
_symmetry_space_group_name_H-M   'P 1'
_cell_length_a   8.94125599
_cell_length_b   8.94125571
_cell_length_c   8.94125568
_cell_angle_alpha   58.87544251
_cell_angle_beta   58.87544572
_cell_angle_gamma   58.87545047
_symmetry_Int_Tables_number   1
_chemical_formula_structural   CoP6(WO8)3
_chemical_formula_sum   'Co1 P6 W3 O24'
_cell_volume   492.47768846
_cell_formula_units_Z   1
loop_
 _symmetry_equiv_pos_site_id
 _symmetry_equiv_pos_as_xyz
  1  'x, y, z'
loop_
 _atom_site_type_symbol
 _atom_site_label
 _atom_site_symmetry_multiplicity
 _atom_site_fract_x
 _atom_site_fract_y
 _atom_site_fract_z
 _atom_site_occupancy
  Co  Co0  1  0.859470  0.859470  0.859470  1
  P  P1  1  0.034512  0.751792  0.469084  1
  P  P2  1  0.469084  0.034512  0.751792  1
  P  P3  1  0.751792  0.469084  0.034512  1
  P  P4  1  0.245459  0.539704  0.962929  1
  P  P5  1  0.539704  0.962929  0.245459  1
  P  P6  1  0.962929  0.245459  0.539704  1
  W  W7  1  0.142120  0.142120  0.142120  1
  W  W8  1  0.357457  0.357457  0.357457  1
  W  W9  1  0.642424  0.642424  0.642424  1
  O  O10  1  0.135385  0.291253  0.491473  1
  O  O11  1  0.291253  0.491473  0.135385  1
  O  O12  1  0.064239  0.918449  0.284995  1
  O  O13  1  0.491473  0.135385  0.291253  1
  O  O14  1  0.214305  0.578099  0.426143  1
  O  O15  1  0.017511  0.769848  0.633906  1
  O  O16  1  0.284995  0.064239  0.918449  1
  O  O17  1  0.426143  0.214305  0.578099  1
  O  O18  1  0.578099  0.426143  0.214305  1
  O  O19  1  0.221892  0.364394  0.991876  1
  O  O20  1  0.081479  0.712200  0.947781  1
  O  O21  1  0.364394  0.991876  0.221892  1
  O  O22  1  0.633906  0.017511  0.769848  1
  O  O23  1  0.918449  0.284995  0.064239  1
  O  O24  1  0.769848  0.633906  0.017511  1
  O  O25  1  0.425074  0.556724  0.790674  1
  O  O26  1  0.556724  0.790674  0.425074  1
  O  O27  1  0.712200  0.947781  0.081479  1
  O  O28  1  0.991876  0.221892  0.364394  1
  O  O29  1  0.790674  0.425074  0.556724  1
  O  O30  1  0.490702  0.868582  0.718064  1
  O  O31  1  0.947781  0.081479  0.712200  1
  O  O32  1  0.718064  0.490702  0.868582  1
  O  O33  1  0.868582  0.718064  0.490702  1
