# generated using pymatgen
data_Fe6O5F7
_symmetry_space_group_name_H-M   'P 1'
_cell_length_a   7.40481730
_cell_length_b   5.68210212
_cell_length_c   5.68210212
_cell_angle_alpha   72.12909284
_cell_angle_beta   72.09976023
_cell_angle_gamma   72.09976023
_symmetry_Int_Tables_number   1
_chemical_formula_structural   Fe6O5F7
_chemical_formula_sum   'Fe6 O5 F7'
_cell_volume   210.44880176
_cell_formula_units_Z   1
loop_
 _symmetry_equiv_pos_site_id
 _symmetry_equiv_pos_as_xyz
  1  'x, y, z'
loop_
 _atom_site_type_symbol
 _atom_site_label
 _atom_site_symmetry_multiplicity
 _atom_site_fract_x
 _atom_site_fract_y
 _atom_site_fract_z
 _atom_site_occupancy
  Fe  Fe0  1  0.835848  0.695673  0.695673  1
  Fe  Fe1  1  0.668014  0.338121  0.338121  1
  Fe  Fe2  1  0.316220  0.644990  0.644990  1
  Fe  Fe3  1  0.162181  0.328703  0.328703  1
  Fe  Fe4  1  0.516042  0.980391  0.980391  1
  Fe  Fe5  1  -0.000464  0.008314  0.008314  1
  O  O6  1  0.666956  0.033413  0.638183  1
  O  O7  1  0.959580  0.224441  0.224441  1
  O  O8  1  0.043212  0.778020  0.778020  1
  O  O9  1  0.374287  0.429060  0.429060  1
  O  O10  1  0.666956  0.638183  0.033413  1
  F  F11  1  0.349694  0.349247  0.950762  1
  F  F12  1  0.297032  0.899981  0.899981  1
  F  F13  1  0.624771  0.573677  0.573677  1
  F  F14  1  0.699011  0.099149  0.099149  1
  F  F15  1  0.349694  0.950762  0.349247  1
  F  F16  1  0.985482  0.317816  0.710056  1
  F  F17  1  0.985482  0.710056  0.317816  1
