# generated using pymatgen
data_Li5Ti2Mn3O10
_symmetry_space_group_name_H-M   'P 1'
_cell_length_a   5.24043461
_cell_length_b   5.29084128
_cell_length_c   8.03032862
_cell_angle_alpha   69.14810317
_cell_angle_beta   108.79738790
_cell_angle_gamma   101.63642908
_symmetry_Int_Tables_number   1
_chemical_formula_structural   Li5Ti2Mn3O10
_chemical_formula_sum   'Li5 Ti2 Mn3 O10'
_cell_volume   196.01606385
_cell_formula_units_Z   1
loop_
 _symmetry_equiv_pos_site_id
 _symmetry_equiv_pos_as_xyz
  1  'x, y, z'
loop_
 _atom_site_type_symbol
 _atom_site_label
 _atom_site_symmetry_multiplicity
 _atom_site_fract_x
 _atom_site_fract_y
 _atom_site_fract_z
 _atom_site_occupancy
  Li  Li0  1  0.217555  0.495177  0.399605  1
  Li  Li1  1  0.392638  0.509866  0.784503  1
  Li  Li2  1  0.505131  0.988843  0.506137  1
  Li  Li3  1  0.785488  0.500550  0.603752  1
  Li  Li4  1  0.605272  0.485539  0.221294  1
  Ti  Ti5  1  0.099535  0.029040  0.688186  1
  Ti  Ti6  1  0.901146  0.969285  0.314381  1
  Mn  Mn7  1  0.997662  0.500066  0.000740  1
  Mn  Mn8  1  0.687225  0.990433  0.895190  1
  Mn  Mn9  1  0.311489  0.008350  0.107684  1
  O  O10  1  0.050484  0.232482  0.833215  1
  O  O11  1  0.134879  0.785748  0.542205  1
  O  O12  1  0.316007  0.751866  0.935241  1
  O  O13  1  0.217166  0.261200  0.234524  1
  O  O14  1  0.424974  0.234352  0.652744  1
  O  O15  1  0.574539  0.763035  0.349544  1
  O  O16  1  0.778192  0.738164  0.765620  1
  O  O17  1  0.680089  0.247474  0.065930  1
  O  O18  1  0.864734  0.211066  0.459636  1
  O  O19  1  0.947513  0.766415  0.167784  1
