# generated using pymatgen
data_LiSnPCO7
_symmetry_space_group_name_H-M   'P 1'
_cell_length_a   8.95683671
_cell_length_b   6.54830448
_cell_length_c   5.23434996
_cell_angle_alpha   90.00000000
_cell_angle_beta   86.05729356
_cell_angle_gamma   90.00000000
_symmetry_Int_Tables_number   1
_chemical_formula_structural   LiSnPCO7
_chemical_formula_sum   'Li2 Sn2 P2 C2 O14'
_cell_volume   306.27899723
_cell_formula_units_Z   2
loop_
 _symmetry_equiv_pos_site_id
 _symmetry_equiv_pos_as_xyz
  1  'x, y, z'
loop_
 _atom_site_type_symbol
 _atom_site_label
 _atom_site_symmetry_multiplicity
 _atom_site_fract_x
 _atom_site_fract_y
 _atom_site_fract_z
 _atom_site_occupancy
  Li  Li0  1  0.161595  0.531241  0.234831  1
  Li  Li1  1  0.838405  0.031241  0.765169  1
  Sn  Sn2  1  0.342384  0.751725  0.788855  1
  Sn  Sn3  1  0.657616  0.251725  0.211145  1
  P  P4  1  0.428508  0.249012  0.730691  1
  P  P5  1  0.571492  0.749012  0.269309  1
  C  C6  1  0.061653  0.740190  0.727198  1
  C  C7  1  0.938347  0.240190  0.272802  1
  O  O8  1  0.071662  0.270127  0.309382  1
  O  O9  1  0.118789  0.737721  0.957017  1
  O  O10  1  0.169445  0.716680  0.536104  1
  O  O11  1  0.329796  0.062849  0.802573  1
  O  O12  1  0.337451  0.435574  0.829526  1
  O  O13  1  0.416659  0.740653  0.151842  1
  O  O14  1  0.461178  0.262078  0.433836  1
  O  O15  1  0.538822  0.762078  0.566164  1
  O  O16  1  0.583341  0.240653  0.848158  1
  O  O17  1  0.662549  0.935574  0.170474  1
  O  O18  1  0.670204  0.562849  0.197427  1
  O  O19  1  0.830555  0.216680  0.463896  1
  O  O20  1  0.881211  0.237721  0.042983  1
  O  O21  1  0.928338  0.770127  0.690618  1
