# generated using pymatgen
data_V3Bi2(PO4)6
_symmetry_space_group_name_H-M   'P 1'
_cell_length_a   8.81830809
_cell_length_b   8.72928396
_cell_length_c   8.72928472
_cell_angle_alpha   60.00000458
_cell_angle_beta   60.33339251
_cell_angle_gamma   60.33339422
_symmetry_Int_Tables_number   1
_chemical_formula_structural   V3Bi2(PO4)6
_chemical_formula_sum   'V3 Bi2 P6 O24'
_cell_volume   477.52685045
_cell_formula_units_Z   1
loop_
 _symmetry_equiv_pos_site_id
 _symmetry_equiv_pos_as_xyz
  1  'x, y, z'
loop_
 _atom_site_type_symbol
 _atom_site_label
 _atom_site_symmetry_multiplicity
 _atom_site_fract_x
 _atom_site_fract_y
 _atom_site_fract_z
 _atom_site_occupancy
  V  V0  1  0.054650  0.648450  0.648450  1
  V  V1  1  0.423571  0.858810  0.858810  1
  V  V2  1  0.968527  0.343824  0.343824  1
  Bi  Bi3  1  0.932931  0.022356  0.022356  1
  Bi  Bi4  1  0.503495  0.498835  0.498835  1
  P  P5  1  0.265468  0.247688  0.538995  1
  P  P6  1  0.265468  0.947849  0.247688  1
  P  P7  1  0.265468  0.538995  0.947849  1
  P  P8  1  0.746135  0.476392  0.039980  1
  P  P9  1  0.746135  0.039980  0.737493  1
  P  P10  1  0.746135  0.737493  0.476392  1
  O  O11  1  0.087760  0.121662  0.292619  1
  O  O12  1  0.087760  0.497958  0.121662  1
  O  O13  1  0.087760  0.292619  0.497958  1
  O  O14  1  0.250610  0.076597  0.727678  1
  O  O15  1  0.227481  0.413373  0.596087  1
  O  O16  1  0.444398  0.227208  0.383840  1
  O  O17  1  0.250610  0.945115  0.076597  1
  O  O18  1  0.227481  0.763059  0.413373  1
  O  O19  1  0.227481  0.596087  0.763059  1
  O  O20  1  0.567927  0.637987  0.010795  1
  O  O21  1  0.751852  0.294258  0.050971  1
  O  O22  1  0.567927  0.010795  0.783291  1
  O  O23  1  0.444398  0.944554  0.227208  1
  O  O24  1  0.250610  0.727678  0.945115  1
  O  O25  1  0.444398  0.383840  0.944554  1
  O  O26  1  0.753974  0.452833  0.227079  1
  O  O27  1  0.753974  0.227079  0.566114  1
  O  O28  1  0.751852  0.050971  0.902920  1
  O  O29  1  0.567927  0.783291  0.637987  1
  O  O30  1  0.753974  0.566114  0.452833  1
  O  O31  1  0.751852  0.902920  0.294258  1
  O  O32  1  0.921782  0.673303  0.519756  1
  O  O33  1  0.921782  0.519756  0.885160  1
  O  O34  1  0.921782  0.885160  0.673303  1
