# generated using pymatgen
data_Zr2N2O
_symmetry_space_group_name_H-M   'P 1'
_cell_length_a   8.87594852
_cell_length_b   8.87635665
_cell_length_c   8.88518347
_cell_angle_alpha   109.65461279
_cell_angle_beta   109.49908736
_cell_angle_gamma   109.36482699
_symmetry_Int_Tables_number   1
_chemical_formula_structural   Zr2N2O
_chemical_formula_sum   'Zr16 N16 O8'
_cell_volume   538.18131085
_cell_formula_units_Z   8
loop_
 _symmetry_equiv_pos_site_id
 _symmetry_equiv_pos_as_xyz
  1  'x, y, z'
loop_
 _atom_site_type_symbol
 _atom_site_label
 _atom_site_symmetry_multiplicity
 _atom_site_fract_x
 _atom_site_fract_y
 _atom_site_fract_z
 _atom_site_occupancy
  Zr  Zr0  1  0.963400  0.250055  0.211929  1
  Zr  Zr1  1  0.508860  0.006097  0.997238  1
  Zr  Zr2  1  0.785917  0.038544  0.753979  1
  Zr  Zr3  1  0.711369  0.461882  0.242535  1
  Zr  Zr4  1  0.747018  0.278049  0.526492  1
  Zr  Zr5  1  0.749191  0.778266  0.030782  1
  Zr  Zr6  1  0.010266  0.508942  0.998462  1
  Zr  Zr7  1  0.999185  0.998536  0.497073  1
  Zr  Zr8  1  0.491275  0.496433  0.509204  1
  Zr  Zr9  1  0.455689  0.247934  0.713494  1
  Zr  Zr10  1  0.543112  0.758567  0.297678  1
  Zr  Zr11  1  0.259316  0.717508  0.470773  1
  Zr  Zr12  1  0.247872  0.218225  0.960959  1
  Zr  Zr13  1  0.221810  0.961346  0.258600  1
  Zr  Zr14  1  0.280221  0.534263  0.744471  1
  Zr  Zr15  1  0.036003  0.742832  0.785081  1
  N  N16  1  0.741574  0.232287  0.273946  1
  N  N17  1  0.762432  0.035009  0.492899  1
  N  N18  1  0.468779  0.227179  0.451203  1
  N  N19  1  0.772727  0.726415  0.259930  1
  N  N20  1  0.046765  0.273645  0.011086  1
  N  N21  1  0.225265  0.450934  0.463301  1
  N  N22  1  0.273934  0.736622  0.224023  1
  N  N23  1  0.513980  0.240482  0.968248  1
  N  N24  1  0.542115  0.534333  0.772623  1
  N  N25  1  0.958428  0.732030  0.991970  1
  N  N26  1  0.535023  0.769926  0.544619  1
  N  N27  1  0.223309  0.270565  0.740562  1
  N  N28  1  0.027381  0.486628  0.759194  1
  N  N29  1  0.725697  0.985520  0.954879  1
  N  N30  1  0.233501  0.964460  0.507212  1
  N  N31  1  0.261451  0.774231  0.730620  1
  O  O32  1  0.267294  0.011298  0.039649  1
  O  O33  1  0.964336  0.509604  0.236204  1
  O  O34  1  0.458158  0.463370  0.228265  1
  O  O35  1  0.725092  0.258538  0.776440  1
  O  O36  1  0.487389  0.763782  0.036796  1
  O  O37  1  0.010862  0.048858  0.277031  1
  O  O38  1  0.774896  0.554245  0.534231  1
  O  O39  1  0.989112  0.952560  0.726320  1
