# generated using pymatgen
data_K(WO3)3
_symmetry_space_group_name_H-M   'P 1'
_cell_length_a   7.51004243
_cell_length_b   7.51035240
_cell_length_c   7.74336140
_cell_angle_alpha   90.00117243
_cell_angle_beta   89.99926139
_cell_angle_gamma   120.00030962
_symmetry_Int_Tables_number   1
_chemical_formula_structural   K(WO3)3
_chemical_formula_sum   'K2 W6 O18'
_cell_volume   378.23482400
_cell_formula_units_Z   2
loop_
 _symmetry_equiv_pos_site_id
 _symmetry_equiv_pos_as_xyz
  1  'x, y, z'
loop_
 _atom_site_type_symbol
 _atom_site_label
 _atom_site_symmetry_multiplicity
 _atom_site_fract_x
 _atom_site_fract_y
 _atom_site_fract_z
 _atom_site_occupancy
  K  K0  1  0.000003  0.999998  0.267195  1
  K  K1  1  0.999999  0.000006  0.766784  1
  W  W2  1  0.000014  0.502269  0.500169  1
  W  W3  1  0.999990  0.497588  0.000153  1
  W  W4  1  0.497697  0.497693  0.500147  1
  W  W5  1  0.502367  0.502328  0.000168  1
  W  W6  1  0.497625  0.000039  0.000165  1
  W  W7  1  0.502316  0.000030  0.500152  1
  O  O8  1  0.013429  0.506639  0.750236  1
  O  O9  1  0.208791  0.789682  0.007935  1
  O  O10  1  0.210293  0.791175  0.491834  1
  O  O11  1  0.208865  0.419147  0.491857  1
  O  O12  1  0.493185  0.986588  0.750243  1
  O  O13  1  0.210352  0.419147  0.007925  1
  O  O14  1  0.580891  0.791240  0.007904  1
  O  O15  1  0.580879  0.789731  0.491872  1
  O  O16  1  0.493390  0.506777  0.750231  1
  O  O17  1  0.506807  0.493412  0.249828  1
  O  O18  1  0.419178  0.210343  0.991874  1
  O  O19  1  0.419119  0.208823  0.507903  1
  O  O20  1  0.789740  0.580893  0.507926  1
  O  O21  1  0.506643  0.013395  0.249816  1
  O  O22  1  0.791212  0.580848  0.991849  1
  O  O23  1  0.789649  0.208772  0.991843  1
  O  O24  1  0.791163  0.210242  0.507941  1
  O  O25  1  0.986586  0.493192  0.249829  1
