# generated using pymatgen
data_Rb5FeO4
_symmetry_space_group_name_H-M   'P 1'
_cell_length_a   12.19755314
_cell_length_b   7.11007709
_cell_length_c   21.62294158
_cell_angle_alpha   90.00000000
_cell_angle_beta   90.00000000
_cell_angle_gamma   90.00000000
_symmetry_Int_Tables_number   1
_chemical_formula_structural   Rb5FeO4
_chemical_formula_sum   'Rb40 Fe8 O32'
_cell_volume   1875.26135270
_cell_formula_units_Z   8
loop_
 _symmetry_equiv_pos_site_id
 _symmetry_equiv_pos_as_xyz
  1  'x, y, z'
loop_
 _atom_site_type_symbol
 _atom_site_label
 _atom_site_symmetry_multiplicity
 _atom_site_fract_x
 _atom_site_fract_y
 _atom_site_fract_z
 _atom_site_occupancy
  Rb  Rb0  1  0.060250  0.081237  0.434207  1
  Rb  Rb1  1  0.060250  0.418763  0.934207  1
  Rb  Rb2  1  0.081284  0.605813  0.749472  1
  Rb  Rb3  1  0.081284  0.894187  0.249472  1
  Rb  Rb4  1  0.144534  0.575061  0.500913  1
  Rb  Rb5  1  0.144534  0.924939  0.000913  1
  Rb  Rb6  1  0.170825  0.099720  0.827557  1
  Rb  Rb7  1  0.170825  0.400280  0.327557  1
  Rb  Rb8  1  0.205027  0.568469  0.136696  1
  Rb  Rb9  1  0.205027  0.931531  0.636696  1
  Rb  Rb10  1  0.294973  0.068469  0.136696  1
  Rb  Rb11  1  0.294973  0.431531  0.636696  1
  Rb  Rb12  1  0.329175  0.900280  0.327557  1
  Rb  Rb13  1  0.329175  0.599720  0.827557  1
  Rb  Rb14  1  0.355466  0.424938  0.000913  1
  Rb  Rb15  1  0.355466  0.075062  0.500913  1
  Rb  Rb16  1  0.418716  0.394187  0.249472  1
  Rb  Rb17  1  0.418716  0.105813  0.749472  1
  Rb  Rb18  1  0.439750  0.918763  0.934207  1
  Rb  Rb19  1  0.439750  0.581237  0.434207  1
  Rb  Rb20  1  0.560250  0.081237  0.065793  1
  Rb  Rb21  1  0.560250  0.418763  0.565793  1
  Rb  Rb22  1  0.581284  0.605813  0.750528  1
  Rb  Rb23  1  0.581284  0.894187  0.250528  1
  Rb  Rb24  1  0.644534  0.575061  0.999087  1
  Rb  Rb25  1  0.644534  0.924939  0.499086  1
  Rb  Rb26  1  0.670825  0.099720  0.672443  1
  Rb  Rb27  1  0.670825  0.400280  0.172443  1
  Rb  Rb28  1  0.705027  0.931531  0.863304  1
  Rb  Rb29  1  0.705027  0.568469  0.363304  1
  Rb  Rb30  1  0.794973  0.068469  0.363304  1
  Rb  Rb31  1  0.794973  0.431531  0.863304  1
  Rb  Rb32  1  0.829175  0.599720  0.672443  1
  Rb  Rb33  1  0.829175  0.900280  0.172443  1
  Rb  Rb34  1  0.855466  0.424938  0.499086  1
  Rb  Rb35  1  0.855466  0.075062  0.999087  1
  Rb  Rb36  1  0.918716  0.105813  0.750528  1
  Rb  Rb37  1  0.918716  0.394187  0.250528  1
  Rb  Rb38  1  0.939750  0.918763  0.565793  1
  Rb  Rb39  1  0.939750  0.581237  0.065793  1
  Fe  Fe40  1  0.034909  0.177978  0.124777  1
  Fe  Fe41  1  0.034909  0.322022  0.624777  1
  Fe  Fe42  1  0.465091  0.677978  0.124777  1
  Fe  Fe43  1  0.465091  0.822022  0.624777  1
  Fe  Fe44  1  0.534909  0.322022  0.875223  1
  Fe  Fe45  1  0.534909  0.177978  0.375223  1
  Fe  Fe46  1  0.965091  0.677978  0.375223  1
  Fe  Fe47  1  0.965091  0.822022  0.875223  1
  O  O48  1  0.042872  0.904795  0.118030  1
  O  O49  1  0.042872  0.595205  0.618030  1
  O  O50  1  0.109088  0.257212  0.199859  1
  O  O51  1  0.109088  0.242788  0.699859  1
  O  O52  1  0.109702  0.289884  0.054173  1
  O  O53  1  0.109702  0.210116  0.554173  1
  O  O54  1  0.117873  0.751163  0.372836  1
  O  O55  1  0.117873  0.748837  0.872836  1
  O  O56  1  0.382127  0.248837  0.872836  1
  O  O57  1  0.382127  0.251163  0.372836  1
  O  O58  1  0.390298  0.789884  0.054173  1
  O  O59  1  0.390298  0.710116  0.554173  1
  O  O60  1  0.390912  0.742788  0.699859  1
  O  O61  1  0.390912  0.757212  0.199859  1
  O  O62  1  0.457128  0.404795  0.118030  1
  O  O63  1  0.457128  0.095205  0.618030  1
  O  O64  1  0.542872  0.595205  0.881970  1
  O  O65  1  0.542872  0.904795  0.381970  1
  O  O66  1  0.609088  0.242788  0.800141  1
  O  O67  1  0.609088  0.257212  0.300141  1
  O  O68  1  0.609702  0.210116  0.945827  1
  O  O69  1  0.609702  0.289884  0.445827  1
  O  O70  1  0.617873  0.751163  0.127164  1
  O  O71  1  0.617873  0.748837  0.627164  1
  O  O72  1  0.882127  0.248837  0.627164  1
  O  O73  1  0.882127  0.251163  0.127164  1
  O  O74  1  0.890298  0.789884  0.445827  1
  O  O75  1  0.890298  0.710116  0.945827  1
  O  O76  1  0.890912  0.742788  0.800141  1
  O  O77  1  0.890912  0.757212  0.300141  1
  O  O78  1  0.957128  0.404795  0.381970  1
  O  O79  1  0.957128  0.095205  0.881970  1
