# generated using pymatgen
data_Li3MnV(PO4)3
_symmetry_space_group_name_H-M   'P 1'
_cell_length_a   9.23194430
_cell_length_b   8.41751753
_cell_length_c   8.44307955
_cell_angle_alpha   60.06107506
_cell_angle_beta   63.05114699
_cell_angle_gamma   90.14924220
_symmetry_Int_Tables_number   1
_chemical_formula_structural   Li3MnV(PO4)3
_chemical_formula_sum   'Li6 Mn2 V2 P6 O24'
_cell_volume   484.08089495
_cell_formula_units_Z   2
loop_
 _symmetry_equiv_pos_site_id
 _symmetry_equiv_pos_as_xyz
  1  'x, y, z'
loop_
 _atom_site_type_symbol
 _atom_site_label
 _atom_site_symmetry_multiplicity
 _atom_site_fract_x
 _atom_site_fract_y
 _atom_site_fract_z
 _atom_site_occupancy
  Li  Li0  1  0.135192  0.740179  0.194380  1
  Li  Li1  1  0.148034  0.337581  0.926204  1
  Li  Li2  1  0.383931  0.186041  0.361807  1
  Li  Li3  1  0.856686  0.668704  0.072325  1
  Li  Li4  1  0.876429  0.934560  0.387857  1
  Li  Li5  1  0.873172  0.253746  0.803040  1
  Mn  Mn6  1  0.563031  0.852099  0.295494  1
  Mn  Mn7  1  0.439820  0.144702  0.709084  1
  V  V8  1  0.034429  0.342697  0.317012  1
  V  V9  1  0.967094  0.652719  0.691700  1
  P  P10  1  0.246690  0.054581  0.211517  1
  P  P11  1  0.248956  0.455968  0.492018  1
  P  P12  1  0.241772  0.739014  0.808379  1
  P  P13  1  0.760721  0.256973  0.191043  1
  P  P14  1  0.757117  0.545022  0.504898  1
  P  P15  1  0.752456  0.949388  0.782744  1
  O  O16  1  0.107146  0.850422  0.365811  1
  O  O17  1  0.256444  0.142391  0.997471  1
  O  O18  1  0.182246  0.181351  0.303002  1
  O  O19  1  0.170324  0.490033  0.349166  1
  O  O20  1  0.101331  0.453905  0.692153  1
  O  O21  1  0.099919  0.765960  0.742609  1
  O  O22  1  0.411172  0.040302  0.209696  1
  O  O23  1  0.272498  0.256045  0.579932  1
  O  O24  1  0.407572  0.617615  0.365998  1
  O  O25  1  0.172231  0.519838  0.001204  1
  O  O26  1  0.236362  0.862985  0.893099  1
  O  O27  1  0.407692  0.782219  0.618141  1
  O  O28  1  0.588409  0.213919  0.378069  1
  O  O29  1  0.757819  0.136541  0.103562  1
  O  O30  1  0.824171  0.477096  0.009535  1
  O  O31  1  0.594087  0.389077  0.634249  1
  O  O32  1  0.748404  0.751120  0.394681  1
  O  O33  1  0.583833  0.964157  0.802058  1
  O  O34  1  0.899857  0.212081  0.257351  1
  O  O35  1  0.901453  0.536422  0.313548  1
  O  O36  1  0.832566  0.517494  0.651280  1
  O  O37  1  0.831769  0.836682  0.677907  1
  O  O38  1  0.754825  0.868584  0.988287  1
  O  O39  1  0.884415  0.165734  0.617382  1
