# generated using pymatgen
data_VOF
_symmetry_space_group_name_H-M   'P 1'
_cell_length_a   4.70906779
_cell_length_b   7.84285613
_cell_length_c   7.84285613
_cell_angle_alpha   74.15354069
_cell_angle_beta   90.21095520
_cell_angle_gamma   89.78904480
_symmetry_Int_Tables_number   1
_chemical_formula_structural   VOF
_chemical_formula_sum   'V8 O8 F8'
_cell_volume   278.64355989
_cell_formula_units_Z   8
loop_
 _symmetry_equiv_pos_site_id
 _symmetry_equiv_pos_as_xyz
  1  'x, y, z'
loop_
 _atom_site_type_symbol
 _atom_site_label
 _atom_site_symmetry_multiplicity
 _atom_site_fract_x
 _atom_site_fract_y
 _atom_site_fract_z
 _atom_site_occupancy
  V  V0  1  0.438256  0.131386  0.618614  1
  V  V1  1  0.523669  0.884826  0.364099  1
  V  V2  1  0.547753  0.613511  0.136489  1
  V  V3  1  0.523669  0.385901  0.865174  1
  V  V4  1  0.989616  0.504334  0.513232  1
  V  V5  1  0.989479  0.754030  0.761168  1
  V  V6  1  0.989616  0.236768  0.245666  1
  V  V7  1  0.989479  0.988832  0.995970  1
  O  O8  1  0.795177  0.770396  0.979604  1
  O  O9  1  0.809814  0.538300  0.726429  1
  O  O10  1  0.809814  0.023571  0.211700  1
  O  O11  1  0.702971  0.654310  0.356702  1
  O  O12  1  0.702971  0.393298  0.095690  1
  O  O13  1  0.301549  0.355428  0.652447  1
  O  O14  1  0.301549  0.097553  0.394572  1
  O  O15  1  0.187120  0.969910  0.780090  1
  F  F16  1  0.793594  0.273297  0.476703  1
  F  F17  1  0.696159  0.910814  0.598530  1
  F  F18  1  0.696159  0.151470  0.839186  1
  F  F19  1  0.302170  0.598472  0.909618  1
  F  F20  1  0.302170  0.840382  0.151528  1
  F  F21  1  0.206427  0.219520  0.017632  1
  F  F22  1  0.206427  0.732368  0.530480  1
  F  F23  1  0.194393  0.471323  0.278677  1
