# generated using pymatgen
data_LiSbPO5
_symmetry_space_group_name_H-M   'P 1'
_cell_length_a   5.54281691
_cell_length_b   5.54293521
_cell_length_c   7.49339825
_cell_angle_alpha   73.82564700
_cell_angle_beta   73.82338022
_cell_angle_gamma   98.28886937
_symmetry_Int_Tables_number   1
_chemical_formula_structural   LiSbPO5
_chemical_formula_sum   'Li2 Sb2 P2 O10'
_cell_volume   206.12715772
_cell_formula_units_Z   2
loop_
 _symmetry_equiv_pos_site_id
 _symmetry_equiv_pos_as_xyz
  1  'x, y, z'
loop_
 _atom_site_type_symbol
 _atom_site_label
 _atom_site_symmetry_multiplicity
 _atom_site_fract_x
 _atom_site_fract_y
 _atom_site_fract_z
 _atom_site_occupancy
  Li  Li0  1  0.412607  0.791813  0.644202  1
  Li  Li1  1  0.791825  0.412616  0.144190  1
  Sb  Sb2  1  0.009448  0.013850  0.489748  1
  Sb  Sb3  1  0.013849  0.009450  0.989747  1
  P  P4  1  0.340354  0.652560  0.252457  1
  P  P5  1  0.652517  0.340292  0.752495  1
  O  O6  1  0.099715  0.913588  0.740525  1
  O  O7  1  0.330399  0.847177  0.370011  1
  O  O8  1  0.702873  0.618795  0.606818  1
  O  O9  1  0.138332  0.673450  0.142214  1
  O  O10  1  0.618766  0.702866  0.106838  1
  O  O11  1  0.373749  0.274700  0.902697  1
  O  O12  1  0.847178  0.330401  0.870008  1
  O  O13  1  0.274694  0.373718  0.402708  1
  O  O14  1  0.673439  0.138327  0.642227  1
  O  O15  1  0.913593  0.099724  0.240509  1
