# generated using pymatgen
data_Mn3CrCu2(PO4)6
_symmetry_space_group_name_H-M   'P 1'
_cell_length_a   8.53030362
_cell_length_b   8.53030385
_cell_length_c   8.53030459
_cell_angle_alpha   59.86906816
_cell_angle_beta   59.86906669
_cell_angle_gamma   59.86906969
_symmetry_Int_Tables_number   1
_chemical_formula_structural   Mn3CrCu2(PO4)6
_chemical_formula_sum   'Mn3 Cr1 Cu2 P6 O24'
_cell_volume   437.60908220
_cell_formula_units_Z   1
loop_
 _symmetry_equiv_pos_site_id
 _symmetry_equiv_pos_as_xyz
  1  'x, y, z'
loop_
 _atom_site_type_symbol
 _atom_site_label
 _atom_site_symmetry_multiplicity
 _atom_site_fract_x
 _atom_site_fract_y
 _atom_site_fract_z
 _atom_site_occupancy
  Mn  Mn0  1  0.142478  0.142478  0.142478  1
  Mn  Mn1  1  0.357819  0.357819  0.357819  1
  Mn  Mn2  1  0.642498  0.642498  0.642498  1
  Cr  Cr3  1  0.858904  0.858904  0.858904  1
  Cu  Cu4  1  0.999098  0.999098  0.999098  1
  Cu  Cu5  1  0.499820  0.499820  0.499820  1
  P  P6  1  0.039104  0.749790  0.459490  1
  P  P7  1  0.459490  0.039104  0.749790  1
  P  P8  1  0.749790  0.459490  0.039104  1
  P  P9  1  0.251112  0.539287  0.962288  1
  P  P10  1  0.539287  0.962288  0.251112  1
  P  P11  1  0.962288  0.251112  0.539287  1
  O  O12  1  0.125146  0.304848  0.506467  1
  O  O13  1  0.304848  0.506467  0.125146  1
  O  O14  1  0.055825  0.917442  0.261333  1
  O  O15  1  0.506467  0.125146  0.304848  1
  O  O16  1  0.010700  0.802458  0.619566  1
  O  O17  1  0.236763  0.579475  0.443042  1
  O  O18  1  0.261333  0.055825  0.917442  1
  O  O19  1  0.443042  0.236763  0.579475  1
  O  O20  1  0.198314  0.377886  0.990255  1
  O  O21  1  0.579475  0.443042  0.236763  1
  O  O22  1  0.085721  0.735818  0.944585  1
  O  O23  1  0.377886  0.990255  0.198314  1
  O  O24  1  0.619566  0.010700  0.802458  1
  O  O25  1  0.917442  0.261333  0.055825  1
  O  O26  1  0.421173  0.553397  0.764900  1
  O  O27  1  0.802458  0.619566  0.010700  1
  O  O28  1  0.553397  0.764900  0.421173  1
  O  O29  1  0.735818  0.944585  0.085721  1
  O  O30  1  0.764900  0.421173  0.553397  1
  O  O31  1  0.990255  0.198314  0.377886  1
  O  O32  1  0.488939  0.877049  0.697212  1
  O  O33  1  0.944585  0.085721  0.735818  1
  O  O34  1  0.697212  0.488939  0.877049  1
  O  O35  1  0.877049  0.697212  0.488939  1
