# generated using pymatgen
data_Rb(WO3)4
_symmetry_space_group_name_H-M   'P 1'
_cell_length_a   7.52549664
_cell_length_b   7.52549676
_cell_length_c   46.47782609
_cell_angle_alpha   90.00000000
_cell_angle_beta   90.00000000
_cell_angle_gamma   119.99999949
_symmetry_Int_Tables_number   1
_chemical_formula_structural   Rb(WO3)4
_chemical_formula_sum   'Rb9 W36 O108'
_cell_volume   2279.53770203
_cell_formula_units_Z   9
loop_
 _symmetry_equiv_pos_site_id
 _symmetry_equiv_pos_as_xyz
  1  'x, y, z'
loop_
 _atom_site_type_symbol
 _atom_site_label
 _atom_site_symmetry_multiplicity
 _atom_site_fract_x
 _atom_site_fract_y
 _atom_site_fract_z
 _atom_site_occupancy
  Rb  Rb0  1  0.000000  0.000000  0.412900  1
  Rb  Rb1  1  0.000000  0.000000  0.749896  1
  Rb  Rb2  1  0.000000  0.000000  0.833615  1
  Rb  Rb3  1  0.000000  0.000000  0.249944  1
  Rb  Rb4  1  0.000000  0.000000  0.499718  1
  Rb  Rb5  1  0.000000  0.000000  0.583437  1
  Rb  Rb6  1  0.000000  0.000000  0.666667  1
  Rb  Rb7  1  0.000000  0.000000  0.920434  1
  Rb  Rb8  1  0.000000  0.000000  0.083389  1
  W  W9  1  1.000000  0.504374  0.125140  1
  W  W10  1  1.000000  0.504167  0.291638  1
  W  W11  1  1.000000  0.501494  0.458169  1
  W  W12  1  1.000000  0.500505  0.625079  1
  W  W13  1  1.000000  0.500739  0.791624  1
  W  W14  1  1.000000  0.503499  0.958673  1
  W  W15  1  0.495626  0.000000  0.208193  1
  W  W16  1  0.496501  0.000000  0.374660  1
  W  W17  1  0.495626  0.495626  0.125140  1
  W  W18  1  0.495833  0.495833  0.291638  1
  W  W19  1  0.498506  0.498506  0.458169  1
  W  W20  1  0.499495  0.499495  0.625079  1
  W  W21  1  0.499261  0.499261  0.791624  1
  W  W22  1  0.496501  0.496501  0.958673  1
  W  W23  1  0.504167  0.504167  0.041696  1
  W  W24  1  0.504374  0.504374  0.208193  1
  W  W25  1  0.503499  0.503499  0.374660  1
  W  W26  1  0.500739  0.500739  0.541710  1
  W  W27  1  0.500505  0.500505  0.708254  1
  W  W28  1  0.501494  0.501494  0.875164  1
  W  W29  1  0.495833  0.000000  0.041696  1
  W  W30  1  0.499261  0.000000  0.541710  1
  W  W31  1  0.499495  0.000000  0.708254  1
  W  W32  1  0.498506  0.000000  0.875164  1
  W  W33  1  0.504374  0.000000  0.125140  1
  W  W34  1  0.504167  0.000000  0.291638  1
  W  W35  1  0.501494  0.000000  0.458169  1
  W  W36  1  0.500505  0.000000  0.625079  1
  W  W37  1  0.503499  0.000000  0.958673  1
  W  W38  1  0.500739  0.000000  0.791624  1
  W  W39  1  0.000000  0.495833  0.041696  1
  W  W40  1  0.000000  0.495626  0.208193  1
  W  W41  1  0.000000  0.496501  0.374660  1
  W  W42  1  0.000000  0.499261  0.541710  1
  W  W43  1  0.000000  0.499495  0.708254  1
  W  W44  1  0.000000  0.498506  0.875164  1
  O  O45  1  0.211103  0.786751  0.041959  1
  O  O46  1  0.211059  0.786719  0.208621  1
  O  O47  1  0.210950  0.786993  0.375363  1
  O  O48  1  0.209720  0.789492  0.541494  1
  O  O49  1  0.209639  0.789703  0.708407  1
  O  O50  1  0.209860  0.789176  0.875035  1
  O  O51  1  0.213281  0.788941  0.124712  1
  O  O52  1  0.213249  0.788897  0.291375  1
  O  O53  1  0.210824  0.790140  0.458298  1
  O  O54  1  0.210297  0.790361  0.624926  1
  O  O55  1  0.210508  0.790280  0.791840  1
  O  O56  1  0.213007  0.789050  0.957970  1
  O  O57  1  0.211059  0.424340  0.124712  1
  O  O58  1  0.211103  0.424352  0.291375  1
  O  O59  1  0.209860  0.420684  0.458298  1
  O  O60  1  0.209639  0.419936  0.624926  1
  O  O61  1  0.209720  0.420228  0.791840  1
  O  O62  1  0.210950  0.423957  0.957970  1
  O  O63  1  0.499518  0.000000  0.416775  1
  O  O64  1  0.500077  0.000000  0.750203  1
  O  O65  1  0.499927  0.000000  0.833529  1
  O  O66  1  0.213249  0.424352  0.041959  1
  O  O67  1  0.213281  0.424340  0.208621  1
  O  O68  1  0.213007  0.423957  0.375363  1
  O  O69  1  0.210508  0.420228  0.541494  1
  O  O70  1  0.210297  0.419936  0.708407  1
  O  O71  1  0.210824  0.420684  0.875035  1
  O  O72  1  0.575660  0.788941  0.208621  1
  O  O73  1  0.575648  0.788897  0.041959  1
  O  O74  1  0.576043  0.789050  0.375363  1
  O  O75  1  0.579772  0.790280  0.541494  1
  O  O76  1  0.579316  0.790140  0.875035  1
  O  O77  1  0.580064  0.790361  0.708407  1
  O  O78  1  0.575660  0.786719  0.124712  1
  O  O79  1  0.575648  0.786751  0.291375  1
  O  O80  1  0.579316  0.789176  0.458298  1
  O  O81  1  0.580064  0.789703  0.624926  1
  O  O82  1  0.576043  0.786993  0.957970  1
  O  O83  1  0.579772  0.789492  0.791840  1
  O  O84  1  0.500016  0.500016  0.083356  1
  O  O85  1  0.500482  0.500482  0.416775  1
  O  O86  1  0.499984  0.499984  0.249977  1
  O  O87  1  0.499937  0.499937  0.999975  1
  O  O88  1  0.499923  0.499923  0.750203  1
  O  O89  1  0.500000  0.500000  0.166667  1
  O  O90  1  0.500063  0.500063  0.333358  1
  O  O91  1  0.500077  0.500077  0.583130  1
  O  O92  1  0.499927  0.499927  0.499804  1
  O  O93  1  0.500073  0.500073  0.833529  1
  O  O94  1  0.499518  0.499518  0.916559  1
  O  O95  1  0.500000  0.500000  0.666667  1
  O  O96  1  0.424352  0.213249  0.041959  1
  O  O97  1  0.424340  0.213281  0.208621  1
  O  O98  1  0.423957  0.213007  0.375363  1
  O  O99  1  0.420228  0.210508  0.541494  1
  O  O100  1  0.419936  0.210297  0.708407  1
  O  O101  1  0.420684  0.210824  0.875035  1
  O  O102  1  0.424340  0.211059  0.124712  1
  O  O103  1  0.424352  0.211103  0.291375  1
  O  O104  1  0.420684  0.209860  0.458298  1
  O  O105  1  0.419936  0.209639  0.624926  1
  O  O106  1  0.423957  0.210950  0.957970  1
  O  O107  1  0.420228  0.209720  0.791840  1
  O  O108  1  0.786719  0.575660  0.124712  1
  O  O109  1  0.786751  0.575648  0.291375  1
  O  O110  1  0.789176  0.579316  0.458298  1
  O  O111  1  0.789703  0.580064  0.624926  1
  O  O112  1  0.789492  0.579772  0.791840  1
  O  O113  1  0.786993  0.576043  0.957970  1
  O  O114  1  0.500063  0.000000  0.999975  1
  O  O115  1  0.499984  0.000000  0.083356  1
  O  O116  1  0.500016  0.000000  0.249977  1
  O  O117  1  0.499937  0.000000  0.333358  1
  O  O118  1  0.500000  0.000000  0.166667  1
  O  O119  1  0.500000  0.000000  0.666667  1
  O  O120  1  0.499923  0.000000  0.583130  1
  O  O121  1  0.500073  0.000000  0.499804  1
  O  O122  1  0.500482  0.000000  0.916559  1
  O  O123  1  0.788897  0.575648  0.041959  1
  O  O124  1  0.788941  0.575660  0.208621  1
  O  O125  1  0.789050  0.576043  0.375363  1
  O  O126  1  0.790280  0.579772  0.541494  1
  O  O127  1  0.790361  0.580064  0.708407  1
  O  O128  1  0.790140  0.579316  0.875035  1
  O  O129  1  0.786751  0.211103  0.041959  1
  O  O130  1  0.786719  0.211059  0.208621  1
  O  O131  1  0.786993  0.210950  0.375363  1
  O  O132  1  0.789492  0.209720  0.541494  1
  O  O133  1  0.789703  0.209639  0.708407  1
  O  O134  1  0.789176  0.209860  0.875035  1
  O  O135  1  0.788941  0.213281  0.124712  1
  O  O136  1  0.788897  0.213249  0.291375  1
  O  O137  1  0.790140  0.210824  0.458298  1
  O  O138  1  0.790361  0.210297  0.624926  1
  O  O139  1  0.790280  0.210508  0.791840  1
  O  O140  1  0.789050  0.213007  0.957970  1
  O  O141  1  0.000000  0.499984  0.083356  1
  O  O142  1  0.000000  0.500063  0.999975  1
  O  O143  1  0.000000  0.499518  0.416775  1
  O  O144  1  0.000000  0.500016  0.249977  1
  O  O145  1  0.000000  0.500000  0.166667  1
  O  O146  1  1.000000  0.499937  0.333358  1
  O  O147  1  1.000000  0.499923  0.583130  1
  O  O148  1  0.000000  0.500073  0.499804  1
  O  O149  1  0.000000  0.500077  0.750203  1
  O  O150  1  0.000000  0.500000  0.666667  1
  O  O151  1  1.000000  0.499927  0.833529  1
  O  O152  1  1.000000  0.500482  0.916559  1
