# generated using pymatgen
data_Mn3O5F
_symmetry_space_group_name_H-M   'P 1'
_cell_length_a   4.54381196
_cell_length_b   7.56431996
_cell_length_c   5.44152567
_cell_angle_alpha   93.69187544
_cell_angle_beta   91.30481693
_cell_angle_gamma   88.76585918
_symmetry_Int_Tables_number   1
_chemical_formula_structural   Mn3O5F
_chemical_formula_sum   'Mn6 O10 F2'
_cell_volume   186.55555341
_cell_formula_units_Z   2
loop_
 _symmetry_equiv_pos_site_id
 _symmetry_equiv_pos_as_xyz
  1  'x, y, z'
loop_
 _atom_site_type_symbol
 _atom_site_label
 _atom_site_symmetry_multiplicity
 _atom_site_fract_x
 _atom_site_fract_y
 _atom_site_fract_z
 _atom_site_occupancy
  Mn  Mn0  1  0.482824  0.992502  0.511881  1
  Mn  Mn1  1  0.517176  0.674165  0.154786  1
  Mn  Mn2  1  0.500000  0.333333  0.833333  1
  Mn  Mn3  1  0.987427  0.664425  0.677457  1
  Mn  Mn4  1  0.000000  0.333333  0.333333  1
  Mn  Mn5  1  0.012573  0.002242  0.989210  1
  O  O6  1  0.805896  0.437263  0.630952  1
  O  O7  1  0.807542  0.772458  0.962229  1
  O  O8  1  0.694238  0.100665  0.796388  1
  O  O9  1  0.698114  0.769251  0.460846  1
  O  O10  1  0.689750  0.437924  0.130824  1
  O  O11  1  0.305762  0.566002  0.870278  1
  O  O12  1  0.310250  0.228743  0.535842  1
  O  O13  1  0.301886  0.897416  0.205821  1
  O  O14  1  0.194104  0.229404  0.035714  1
  O  O15  1  0.192458  0.894209  0.704438  1
  F  F16  1  0.792582  0.086951  0.295130  1
  F  F17  1  0.207418  0.579716  0.371537  1
