# generated using pymatgen
data_Li3V2(O2F)2
_symmetry_space_group_name_H-M   'P 1'
_cell_length_a   5.99744953
_cell_length_b   5.19394938
_cell_length_c   14.80286169
_cell_angle_alpha   89.94986335
_cell_angle_beta   90.00000000
_cell_angle_gamma   90.00000000
_symmetry_Int_Tables_number   1
_chemical_formula_structural   Li3V2(O2F)2
_chemical_formula_sum   'Li12 V8 O16 F8'
_cell_volume   461.11561534
_cell_formula_units_Z   4
loop_
 _symmetry_equiv_pos_site_id
 _symmetry_equiv_pos_as_xyz
  1  'x, y, z'
loop_
 _atom_site_type_symbol
 _atom_site_label
 _atom_site_symmetry_multiplicity
 _atom_site_fract_x
 _atom_site_fract_y
 _atom_site_fract_z
 _atom_site_occupancy
  Li  Li0  1  0.022591  0.333333  0.166667  1
  Li  Li1  1  0.998358  0.988964  0.038014  1
  Li  Li2  1  0.998358  0.677702  0.295319  1
  Li  Li3  1  0.241559  0.833333  0.666667  1
  Li  Li4  1  0.251263  0.833333  0.166667  1
  Li  Li5  1  0.478131  0.333333  0.166667  1
  Li  Li6  1  0.501624  0.333333  0.666667  1
  Li  Li7  1  0.503837  0.989897  0.036519  1
  Li  Li8  1  0.503837  0.676770  0.296815  1
  Li  Li9  1  0.756999  0.833333  0.666667  1
  Li  Li10  1  0.749656  0.525998  0.038559  1
  Li  Li11  1  0.749656  0.140669  0.294775  1
  V  V12  1  0.998576  0.001604  0.499994  1
  V  V13  1  0.998576  0.665062  0.833340  1
  V  V14  1  0.251263  0.501621  0.503381  1
  V  V15  1  0.251263  0.165046  0.829952  1
  V  V16  1  0.498718  0.000675  0.494391  1
  V  V17  1  0.498718  0.665992  0.838943  1
  V  V18  1  0.751393  0.493299  0.501726  1
  V  V19  1  0.751393  0.173367  0.831608  1
  O  O20  1  0.984528  0.349171  0.437313  1
  O  O21  1  0.984528  0.317496  0.896021  1
  O  O22  1  0.996138  0.987926  0.758460  1
  O  O23  1  0.996138  0.678740  0.574873  1
  O  O24  1  0.253149  0.831469  0.434179  1
  O  O25  1  0.253149  0.835198  0.899154  1
  O  O26  1  0.268598  0.514787  0.761055  1
  O  O27  1  0.268598  0.151880  0.572278  1
  O  O28  1  0.508139  0.334526  0.434437  1
  O  O29  1  0.508139  0.332141  0.898897  1
  O  O30  1  0.512156  0.004721  0.757218  1
  O  O31  1  0.512156  0.661946  0.576115  1
  O  O32  1  0.737006  0.831404  0.432429  1
  O  O33  1  0.737006  0.835263  0.900904  1
  O  O34  1  0.734502  0.504032  0.761125  1
  O  O35  1  0.734502  0.162635  0.572209  1
  F  F36  1  0.004719  0.004823  0.248406  1
  F  F37  1  0.004719  0.661844  0.084927  1
  F  F38  1  0.250644  0.523677  0.243241  1
  F  F39  1  0.250644  0.142989  0.090092  1
  F  F40  1  0.495798  0.004235  0.248596  1
  F  F41  1  0.495798  0.662432  0.084737  1
  F  F42  1  0.751738  0.479832  0.257350  1
  F  F43  1  0.751738  0.186835  0.075983  1
