# generated using pymatgen
data_LiMn2(BO3)2
_symmetry_space_group_name_H-M   'P 1'
_cell_length_a   5.33812630
_cell_length_b   5.33812579
_cell_length_c   10.03879247
_cell_angle_alpha   89.10632535
_cell_angle_beta   90.89367522
_cell_angle_gamma   60.68005912
_symmetry_Int_Tables_number   1
_chemical_formula_structural   LiMn2(BO3)2
_chemical_formula_sum   'Li2 Mn4 B4 O12'
_cell_volume   249.29761777
_cell_formula_units_Z   2
loop_
 _symmetry_equiv_pos_site_id
 _symmetry_equiv_pos_as_xyz
  1  'x, y, z'
loop_
 _atom_site_type_symbol
 _atom_site_label
 _atom_site_symmetry_multiplicity
 _atom_site_fract_x
 _atom_site_fract_y
 _atom_site_fract_z
 _atom_site_occupancy
  Li  Li0  1  0.132193  0.834254  0.665894  1
  Li  Li1  1  0.165746  0.867807  0.165894  1
  Mn  Mn2  1  0.169703  0.480810  0.377969  1
  Mn  Mn3  1  0.513386  0.185079  0.127679  1
  Mn  Mn4  1  0.519190  0.830297  0.877969  1
  Mn  Mn5  1  0.814921  0.486614  0.627679  1
  B  B6  1  0.161081  0.493757  0.873086  1
  B  B7  1  0.493058  0.157690  0.628530  1
  B  B8  1  0.506243  0.838919  0.373086  1
  B  B9  1  0.842310  0.506942  0.128530  1
  O  O10  1  0.067280  0.549716  0.180560  1
  O  O11  1  0.244946  0.404237  0.574999  1
  O  O12  1  0.203451  0.721548  0.856053  1
  O  O13  1  0.372745  0.235192  0.929923  1
  O  O14  1  0.493605  0.097434  0.331696  1
  O  O15  1  0.278452  0.796549  0.356053  1
  O  O16  1  0.752547  0.139752  0.632090  1
  O  O17  1  0.450284  0.932720  0.680560  1
  O  O18  1  0.595763  0.755054  0.074999  1
  O  O19  1  0.860248  0.247453  0.132090  1
  O  O20  1  0.764808  0.627255  0.429923  1
  O  O21  1  0.902566  0.506395  0.831696  1
