# generated using pymatgen
data_LiMn2(BO3)2
_symmetry_space_group_name_H-M   'P 1'
_cell_length_a   5.79107210
_cell_length_b   9.17793304
_cell_length_c   9.81469899
_cell_angle_alpha   98.76319790
_cell_angle_beta   79.84416267
_cell_angle_gamma   104.13941849
_symmetry_Int_Tables_number   1
_chemical_formula_structural   LiMn2(BO3)2
_chemical_formula_sum   'Li4 Mn8 B8 O24'
_cell_volume   494.64847610
_cell_formula_units_Z   4
loop_
 _symmetry_equiv_pos_site_id
 _symmetry_equiv_pos_as_xyz
  1  'x, y, z'
loop_
 _atom_site_type_symbol
 _atom_site_label
 _atom_site_symmetry_multiplicity
 _atom_site_fract_x
 _atom_site_fract_y
 _atom_site_fract_z
 _atom_site_occupancy
  Li  Li0  1  0.954209  0.805766  0.375983  1
  Li  Li1  1  0.468301  0.805007  0.874386  1
  Li  Li2  1  0.039778  0.191264  0.636168  1
  Li  Li3  1  0.209639  0.304951  0.116932  1
  Mn  Mn4  1  0.851521  0.394238  0.891891  1
  Mn  Mn5  1  0.878353  0.127226  0.373059  1
  Mn  Mn6  1  0.397094  0.117949  0.856180  1
  Mn  Mn7  1  0.633354  0.589234  0.620738  1
  Mn  Mn8  1  0.373758  0.387204  0.380001  1
  Mn  Mn9  1  0.617640  0.895312  0.139514  1
  Mn  Mn10  1  0.109883  0.860868  0.642696  1
  Mn  Mn11  1  0.140855  0.624962  0.115088  1
  B  B12  1  0.861137  0.045332  0.879374  1
  B  B13  1  0.900842  0.462267  0.355698  1
  B  B14  1  0.383333  0.461089  0.869330  1
  B  B15  1  0.645909  0.941489  0.613519  1
  B  B16  1  0.344644  0.047870  0.397070  1
  B  B17  1  0.605439  0.550561  0.133111  1
  B  B18  1  0.109320  0.525821  0.639188  1
  B  B19  1  0.143257  0.964256  0.109814  1
  O  O20  1  0.730517  0.158375  0.897084  1
  O  O21  1  0.965673  0.632441  0.663402  1
  O  O22  1  0.735138  0.079167  0.562840  1
  O  O23  1  0.979689  0.600052  0.306414  1
  O  O24  1  0.775251  0.914341  0.934210  1
  O  O25  1  0.705306  0.440261  0.461112  1
  O  O26  1  0.954787  0.944999  0.222939  1
  O  O27  1  0.502777  0.345288  0.831942  1
  O  O28  1  0.754549  0.821035  0.571134  1
  O  O29  1  0.565155  0.076964  0.306984  1
  O  O30  1  0.830999  0.582867  0.049280  1
  O  O31  1  0.462284  0.596128  0.812653  1
  O  O32  1  0.515775  0.414208  0.179322  1
  O  O33  1  0.187184  0.441841  0.976297  1
  O  O34  1  0.449435  0.928075  0.722828  1
  O  O35  1  0.213313  0.164524  0.427515  1
  O  O36  1  0.473520  0.663039  0.153718  1
  O  O37  1  0.081167  0.072036  0.784595  1
  O  O38  1  0.328675  0.561883  0.550441  1
  O  O39  1  0.214398  0.097735  0.051962  1
  O  O40  1  0.040195  0.393751  0.693971  1
  O  O41  1  0.254728  0.913842  0.445680  1
  O  O42  1  0.013492  0.341644  0.308441  1
  O  O43  1  0.262430  0.846844  0.063761  1
