# generated using pymatgen
data_CrBiO4
_symmetry_space_group_name_H-M   'P 1'
_cell_length_a   7.01298491
_cell_length_b   7.28867688
_cell_length_c   6.93853995
_cell_angle_alpha   90.00000000
_cell_angle_beta   106.30220651
_cell_angle_gamma   90.00000000
_symmetry_Int_Tables_number   1
_chemical_formula_structural   CrBiO4
_chemical_formula_sum   'Cr4 Bi4 O16'
_cell_volume   340.40657841
_cell_formula_units_Z   4
loop_
 _symmetry_equiv_pos_site_id
 _symmetry_equiv_pos_as_xyz
  1  'x, y, z'
loop_
 _atom_site_type_symbol
 _atom_site_label
 _atom_site_symmetry_multiplicity
 _atom_site_fract_x
 _atom_site_fract_y
 _atom_site_fract_z
 _atom_site_occupancy
  Cr  Cr0  1  0.200967  0.163752  0.896642  1
  Cr  Cr1  1  0.299033  0.663752  0.603358  1
  Cr  Cr2  1  0.700967  0.336248  0.396642  1
  Cr  Cr3  1  0.799033  0.836248  0.103358  1
  Bi  Bi4  1  0.202516  0.150469  0.433616  1
  Bi  Bi5  1  0.297484  0.650469  0.066384  1
  Bi  Bi6  1  0.702516  0.349531  0.933616  1
  Bi  Bi7  1  0.797484  0.849531  0.566384  1
  O  O8  1  0.030285  0.104247  0.660972  1
  O  O9  1  0.116105  0.351209  0.985081  1
  O  O10  1  0.114012  0.712964  0.725637  1
  O  O11  1  0.249322  0.486938  0.440406  1
  O  O12  1  0.385988  0.212964  0.774363  1
  O  O13  1  0.250678  0.986938  0.059594  1
  O  O14  1  0.383895  0.851209  0.514919  1
  O  O15  1  0.469715  0.604247  0.839028  1
  O  O16  1  0.530285  0.395753  0.160972  1
  O  O17  1  0.616105  0.148791  0.485081  1
  O  O18  1  0.749322  0.013062  0.940406  1
  O  O19  1  0.614012  0.787036  0.225637  1
  O  O20  1  0.750678  0.513062  0.559594  1
  O  O21  1  0.885988  0.287036  0.274363  1
  O  O22  1  0.883895  0.648791  0.014919  1
  O  O23  1  0.969715  0.895753  0.339028  1
