# generated using pymatgen
data_LiCu4(PO4)3
_symmetry_space_group_name_H-M   'P 1'
_cell_length_a   8.65512396
_cell_length_b   8.65512396
_cell_length_c   6.38726525
_cell_angle_alpha   71.36375702
_cell_angle_beta   108.63624298
_cell_angle_gamma   87.30430654
_symmetry_Int_Tables_number   1
_chemical_formula_structural   LiCu4(PO4)3
_chemical_formula_sum   'Li2 Cu8 P6 O24'
_cell_volume   423.64772394
_cell_formula_units_Z   2
loop_
 _symmetry_equiv_pos_site_id
 _symmetry_equiv_pos_as_xyz
  1  'x, y, z'
loop_
 _atom_site_type_symbol
 _atom_site_label
 _atom_site_symmetry_multiplicity
 _atom_site_fract_x
 _atom_site_fract_y
 _atom_site_fract_z
 _atom_site_occupancy
  Li  Li0  1  0.023664  0.024075  0.749235  1
  Li  Li1  1  0.975925  0.976336  0.249235  1
  Cu  Cu2  1  0.061621  0.621933  0.638232  1
  Cu  Cu3  1  0.378067  0.938379  0.138232  1
  Cu  Cu4  1  0.750500  0.750160  0.752665  1
  Cu  Cu5  1  0.498575  0.504502  0.505026  1
  Cu  Cu6  1  0.249840  0.249500  0.252665  1
  Cu  Cu7  1  0.495498  0.501425  0.005026  1
  Cu  Cu8  1  0.620824  0.065676  0.858625  1
  Cu  Cu9  1  0.934324  0.379176  0.358625  1
  P  P10  1  0.336392  0.873155  0.639319  1
  P  P11  1  0.126845  0.663608  0.139319  1
  P  P12  1  0.294891  0.297509  0.751214  1
  P  P13  1  0.702491  0.705109  0.251214  1
  P  P14  1  0.871829  0.338570  0.861449  1
  P  P15  1  0.661430  0.128171  0.361449  1
  O  O16  1  0.395818  0.961877  0.820554  1
  O  O17  1  0.155054  0.846679  0.605464  1
  O  O18  1  0.038123  0.604182  0.320554  1
  O  O19  1  0.153321  0.844946  0.105464  1
  O  O20  1  0.662879  0.003265  0.600008  1
  O  O21  1  0.461248  0.711304  0.720020  1
  O  O22  1  0.278786  0.472785  0.775778  1
  O  O23  1  0.996735  0.337121  0.100008  1
  O  O24  1  0.266224  0.179791  0.972693  1
  O  O25  1  0.179600  0.267485  0.529773  1
  O  O26  1  0.288696  0.538752  0.220020  1
  O  O27  1  0.527215  0.721214  0.275778  1
  O  O28  1  0.470918  0.285868  0.729308  1
  O  O29  1  0.712742  0.465949  0.784625  1
  O  O30  1  0.820209  0.733776  0.472693  1
  O  O31  1  0.732515  0.820400  0.029773  1
  O  O32  1  0.003748  0.663311  0.900922  1
  O  O33  1  0.714132  0.529082  0.229308  1
  O  O34  1  0.534051  0.287258  0.284625  1
  O  O35  1  0.336689  0.996252  0.400922  1
  O  O36  1  0.842377  0.157961  0.895601  1
  O  O37  1  0.959195  0.394968  0.678711  1
  O  O38  1  0.842039  0.157623  0.395601  1
  O  O39  1  0.605032  0.040805  0.178711  1
