# generated using pymatgen
data_Na4Ti5O12
_symmetry_space_group_name_H-M   'P 1'
_cell_length_a   13.43561151
_cell_length_b   5.95568936
_cell_length_c   6.45297177
_cell_angle_alpha   89.99291719
_cell_angle_beta   95.87291564
_cell_angle_gamma   83.64283589
_symmetry_Int_Tables_number   1
_chemical_formula_structural   Na4Ti5O12
_chemical_formula_sum   'Na8 Ti10 O24'
_cell_volume   510.45313823
_cell_formula_units_Z   2
loop_
 _symmetry_equiv_pos_site_id
 _symmetry_equiv_pos_as_xyz
  1  'x, y, z'
loop_
 _atom_site_type_symbol
 _atom_site_label
 _atom_site_symmetry_multiplicity
 _atom_site_fract_x
 _atom_site_fract_y
 _atom_site_fract_z
 _atom_site_occupancy
  Na  Na0  1  0.120248  0.469828  0.407625  1
  Na  Na1  1  0.196534  0.950845  0.325479  1
  Na  Na2  1  0.376099  0.405554  0.589214  1
  Na  Na3  1  0.385431  0.904132  0.599868  1
  Na  Na4  1  0.623901  0.094446  0.410786  1
  Na  Na5  1  0.614569  0.595868  0.400132  1
  Na  Na6  1  0.803466  0.549155  0.674521  1
  Na  Na7  1  0.879752  0.030172  0.592375  1
  Ti  Ti8  1  0.007478  0.998128  0.019210  1
  Ti  Ti9  1  0.992522  0.501872  0.980790  1
  Ti  Ti10  1  0.188896  0.201031  0.835029  1
  Ti  Ti11  1  0.188962  0.704339  0.835026  1
  Ti  Ti12  1  0.415580  0.898019  0.098425  1
  Ti  Ti13  1  0.411317  0.396657  0.097647  1
  Ti  Ti14  1  0.588683  0.103343  0.902353  1
  Ti  Ti15  1  0.584420  0.601981  0.901575  1
  Ti  Ti16  1  0.811104  0.298969  0.164971  1
  Ti  Ti17  1  0.811038  0.795661  0.164974  1
  O  O18  1  0.090429  0.977330  0.774531  1
  O  O19  1  0.091667  0.477070  0.770619  1
  O  O20  1  0.084283  0.226032  0.122560  1
  O  O21  1  0.084299  0.731871  0.122560  1
  O  O22  1  0.239155  0.188190  0.598295  1
  O  O23  1  0.239141  0.692090  0.598092  1
  O  O24  1  0.270536  0.432315  0.985396  1
  O  O25  1  0.269531  0.932612  0.990579  1
  O  O26  1  0.408394  0.147030  0.286828  1
  O  O27  1  0.409591  0.648354  0.286417  1
  O  O28  1  0.437351  0.139927  0.887023  1
  O  O29  1  0.436747  0.641342  0.884685  1
  O  O30  1  0.562649  0.360073  0.112977  1
  O  O31  1  0.563253  0.858658  0.115315  1
  O  O32  1  0.590409  0.851646  0.713583  1
  O  O33  1  0.591606  0.352970  0.713172  1
  O  O34  1  0.730469  0.567388  0.009421  1
  O  O35  1  0.729464  0.067685  0.014604  1
  O  O36  1  0.760845  0.311810  0.401705  1
  O  O37  1  0.760859  0.807910  0.401908  1
  O  O38  1  0.915717  0.273968  0.877440  1
  O  O39  1  0.915701  0.768129  0.877440  1
  O  O40  1  0.908333  0.022930  0.229381  1
  O  O41  1  0.909571  0.522670  0.225469  1
