# generated using pymatgen
data_Mn6O7F5
_symmetry_space_group_name_H-M   'P 1'
_cell_length_a   4.60104038
_cell_length_b   5.64094226
_cell_length_c   15.32511100
_cell_angle_alpha   89.87130627
_cell_angle_beta   89.68164794
_cell_angle_gamma   89.28746010
_symmetry_Int_Tables_number   1
_chemical_formula_structural   Mn6O7F5
_chemical_formula_sum   'Mn12 O14 F10'
_cell_volume   397.71320441
_cell_formula_units_Z   2
loop_
 _symmetry_equiv_pos_site_id
 _symmetry_equiv_pos_as_xyz
  1  'x, y, z'
loop_
 _atom_site_type_symbol
 _atom_site_label
 _atom_site_symmetry_multiplicity
 _atom_site_fract_x
 _atom_site_fract_y
 _atom_site_fract_z
 _atom_site_occupancy
  Mn  Mn0  1  0.005769  0.149479  0.407181  1
  Mn  Mn1  1  0.023513  0.835115  0.242450  1
  Mn  Mn2  1  0.997329  0.157530  0.079186  1
  Mn  Mn3  1  0.051221  0.153877  0.748973  1
  Mn  Mn4  1  0.012945  0.835013  0.577863  1
  Mn  Mn5  1  0.042137  0.847578  0.917189  1
  Mn  Mn6  1  0.489203  0.355909  0.585931  1
  Mn  Mn7  1  0.487787  0.352997  0.924945  1
  Mn  Mn8  1  0.501038  0.365703  0.259885  1
  Mn  Mn9  1  0.500469  0.648248  0.086922  1
  Mn  Mn10  1  0.498029  0.654656  0.419763  1
  Mn  Mn11  1  0.478391  0.646224  0.752128  1
  O  O12  1  0.234331  0.112654  0.300775  1
  O  O13  1  0.229285  0.108428  0.635724  1
  O  O14  1  0.227279  0.116007  0.971634  1
  O  O15  1  0.214420  0.883205  0.133146  1
  O  O16  1  0.217232  0.890906  0.468064  1
  O  O17  1  0.236482  0.885947  0.805006  1
  O  O18  1  0.279811  0.609636  0.311920  1
  O  O19  1  0.274136  0.603220  0.646939  1
  O  O20  1  0.290826  0.392492  0.812317  1
  O  O21  1  0.275952  0.609089  0.978459  1
  O  O22  1  0.720286  0.382503  0.028864  1
  O  O23  1  0.725250  0.611976  0.194875  1
  O  O24  1  0.722573  0.380324  0.362621  1
  O  O25  1  0.716929  0.616215  0.528188  1
  F  F26  1  0.255398  0.381268  0.153652  1
  F  F27  1  0.234455  0.390131  0.475571  1
  F  F28  1  0.741726  0.628876  0.859229  1
  F  F29  1  0.759082  0.385105  0.701026  1
  F  F30  1  0.746684  0.126636  0.190690  1
  F  F31  1  0.747066  0.123340  0.521890  1
  F  F32  1  0.771811  0.876739  0.349010  1
  F  F33  1  0.759573  0.881407  0.016831  1
  F  F34  1  0.771357  0.126082  0.858720  1
  F  F35  1  0.760226  0.875483  0.692436  1
