# generated using pymatgen
data_Co6O5F7
_symmetry_space_group_name_H-M   'P 1'
_cell_length_a   7.01627646
_cell_length_b   5.45796252
_cell_length_c   5.55620956
_cell_angle_alpha   72.51655813
_cell_angle_beta   74.36635638
_cell_angle_gamma   73.80553886
_symmetry_Int_Tables_number   1
_chemical_formula_structural   Co6O5F7
_chemical_formula_sum   'Co6 O5 F7'
_cell_volume   190.84359218
_cell_formula_units_Z   1
loop_
 _symmetry_equiv_pos_site_id
 _symmetry_equiv_pos_as_xyz
  1  'x, y, z'
loop_
 _atom_site_type_symbol
 _atom_site_label
 _atom_site_symmetry_multiplicity
 _atom_site_fract_x
 _atom_site_fract_y
 _atom_site_fract_z
 _atom_site_occupancy
  Co  Co0  1  0.838605  0.695256  0.672824  1
  Co  Co1  1  0.314812  0.682748  0.612958  1
  Co  Co2  1  0.668827  0.311318  0.366402  1
  Co  Co3  1  0.168587  0.312065  0.335797  1
  Co  Co4  1  0.499714  0.000311  0.995164  1
  Co  Co5  1  0.002637  0.002082  0.003348  1
  O  O6  1  0.668001  0.026597  0.661071  1
  O  O7  1  0.966039  0.219983  0.245313  1
  O  O8  1  0.370199  0.418107  0.430826  1
  O  O9  1  0.032753  0.785328  0.762277  1
  O  O10  1  0.332063  0.970401  0.338516  1
  F  F11  1  0.336677  0.374160  0.942422  1
  F  F12  1  0.635236  0.581879  0.575344  1
  F  F13  1  0.302622  0.900646  0.881828  1
  F  F14  1  0.699809  0.091530  0.112547  1
  F  F15  1  0.665709  0.623408  0.056086  1
  F  F16  1  0.990420  0.323016  0.706920  1
  F  F17  1  0.007291  0.681164  0.300356  1
