# generated using pymatgen
data_ScP2O7
_symmetry_space_group_name_H-M   'P 1'
_cell_length_a   7.23299687
_cell_length_b   8.40385860
_cell_length_c   5.10186066
_cell_angle_alpha   90.00000000
_cell_angle_beta   110.54252515
_cell_angle_gamma   90.00000000
_symmetry_Int_Tables_number   1
_chemical_formula_structural   ScP2O7
_chemical_formula_sum   'Sc2 P4 O14'
_cell_volume   290.39730371
_cell_formula_units_Z   2
loop_
 _symmetry_equiv_pos_site_id
 _symmetry_equiv_pos_as_xyz
  1  'x, y, z'
loop_
 _atom_site_type_symbol
 _atom_site_label
 _atom_site_symmetry_multiplicity
 _atom_site_fract_x
 _atom_site_fract_y
 _atom_site_fract_z
 _atom_site_occupancy
  Sc  Sc0  1  0.278784  0.006973  0.792020  1
  Sc  Sc1  1  0.721216  0.506973  0.207980  1
  P  P2  1  0.079552  0.783521  0.205830  1
  P  P3  1  0.466245  0.678282  0.591302  1
  P  P4  1  0.533755  0.178282  0.408698  1
  P  P5  1  0.920448  0.283521  0.794170  1
  O  O6  1  0.134353  0.835142  0.955241  1
  O  O7  1  0.115408  0.194632  0.873472  1
  O  O8  1  0.087633  0.928751  0.392817  1
  O  O9  1  0.240860  0.653219  0.383327  1
  O  O10  1  0.402173  0.167529  0.586348  1
  O  O11  1  0.511481  0.542119  0.803852  1
  O  O12  1  0.476708  0.839432  0.733199  1
  O  O13  1  0.523292  0.339432  0.266801  1
  O  O14  1  0.488519  0.042119  0.196148  1
  O  O15  1  0.597827  0.667529  0.413652  1
  O  O16  1  0.759140  0.153219  0.616673  1
  O  O17  1  0.912367  0.428751  0.607183  1
  O  O18  1  0.884592  0.694632  0.126528  1
  O  O19  1  0.865647  0.335142  0.044759  1
