# generated using pymatgen
data_K3Mn3H2C12O13
_symmetry_space_group_name_H-M   'P 1'
_cell_length_a   8.87079201
_cell_length_b   14.20910333
_cell_length_c   15.93311429
_cell_angle_alpha   90.00000000
_cell_angle_beta   101.30625780
_cell_angle_gamma   90.00000000
_symmetry_Int_Tables_number   1
_chemical_formula_structural   K3Mn3H2C12O13
_chemical_formula_sum   'K12 Mn12 H8 C48 O52'
_cell_volume   1969.33065194
_cell_formula_units_Z   4
loop_
 _symmetry_equiv_pos_site_id
 _symmetry_equiv_pos_as_xyz
  1  'x, y, z'
loop_
 _atom_site_type_symbol
 _atom_site_label
 _atom_site_symmetry_multiplicity
 _atom_site_fract_x
 _atom_site_fract_y
 _atom_site_fract_z
 _atom_site_occupancy
  K  K0  1  0.672834  0.411547  0.290876  1
  K  K1  1  0.327166  0.911547  0.209124  1
  K  K2  1  0.327166  0.588453  0.709124  1
  K  K3  1  0.672834  0.088453  0.790876  1
  K  K4  1  0.805928  0.263576  0.048683  1
  K  K5  1  0.194072  0.763576  0.451317  1
  K  K6  1  0.194072  0.736424  0.951317  1
  K  K7  1  0.805928  0.236424  0.548683  1
  K  K8  1  0.180378  0.466023  0.140482  1
  K  K9  1  0.819622  0.966023  0.359518  1
  K  K10  1  0.819622  0.533977  0.859518  1
  K  K11  1  0.180378  0.033977  0.640482  1
  Mn  Mn12  1  0.246682  0.166556  0.944874  1
  Mn  Mn13  1  0.753318  0.666556  0.555126  1
  Mn  Mn14  1  0.753318  0.833444  0.055126  1
  Mn  Mn15  1  0.246682  0.333444  0.444874  1
  Mn  Mn16  1  0.348650  0.339891  0.949465  1
  Mn  Mn17  1  0.651350  0.839891  0.550535  1
  Mn  Mn18  1  0.651350  0.660109  0.050535  1
  Mn  Mn19  1  0.348650  0.160109  0.449465  1
  Mn  Mn20  1  0.131153  0.283401  0.804313  1
  Mn  Mn21  1  0.868847  0.783401  0.695687  1
  Mn  Mn22  1  0.868847  0.716599  0.195687  1
  Mn  Mn23  1  0.131153  0.216599  0.304313  1
  H  H24  1  0.580287  0.318364  0.684298  1
  H  H25  1  0.419713  0.818364  0.815702  1
  H  H26  1  0.419713  0.681636  0.315702  1
  H  H27  1  0.580287  0.181636  0.184298  1
  H  H28  1  0.736777  0.362192  0.675526  1
  H  H29  1  0.263223  0.862192  0.824474  1
  H  H30  1  0.263223  0.637808  0.324474  1
  H  H31  1  0.736777  0.137808  0.175526  1
  C  C32  1  0.278998  0.081504  0.867857  1
  C  C33  1  0.721002  0.581504  0.632143  1
  C  C34  1  0.721002  0.918496  0.132143  1
  C  C35  1  0.278998  0.418496  0.367857  1
  C  C36  1  0.052033  0.132814  0.944660  1
  C  C37  1  0.947967  0.632814  0.555340  1
  C  C38  1  0.947967  0.867186  0.055340  1
  C  C39  1  0.052033  0.367186  0.444660  1
  C  C40  1  0.325484  0.101952  0.038093  1
  C  C41  1  0.674516  0.601952  0.461907  1
  C  C42  1  0.674516  0.898048  0.961907  1
  C  C43  1  0.325484  0.398048  0.538093  1
  C  C44  1  0.194507  0.277866  0.009406  1
  C  C45  1  0.805493  0.777866  0.490594  1
  C  C46  1  0.805493  0.722134  0.990594  1
  C  C47  1  0.194507  0.222134  0.509406  1
  C  C48  1  0.452095  0.217065  0.931773  1
  C  C49  1  0.547905  0.717065  0.568227  1
  C  C50  1  0.547905  0.782935  0.068227  1
  C  C51  1  0.452095  0.282935  0.431773  1
  C  C52  1  0.477065  0.367041  0.045578  1
  C  C53  1  0.522935  0.867041  0.454422  1
  C  C54  1  0.522935  0.632959  0.954422  1
  C  C55  1  0.477065  0.132959  0.545578  1
  C  C56  1  0.460671  0.388560  0.877558  1
  C  C57  1  0.539329  0.888560  0.622442  1
  C  C58  1  0.539329  0.611440  0.122442  1
  C  C59  1  0.460671  0.111440  0.377558  1
  C  C60  1  0.226824  0.440648  0.946295  1
  C  C61  1  0.773176  0.940648  0.553705  1
  C  C62  1  0.773176  0.559352  0.053705  1
  C  C63  1  0.226824  0.059352  0.446295  1
  C  C64  1  0.300874  0.245905  0.764904  1
  C  C65  1  0.699126  0.745905  0.735096  1
  C  C66  1  0.699126  0.754095  0.235096  1
  C  C67  1  0.300874  0.254095  0.264904  1
  C  C68  1  0.012774  0.197294  0.747212  1
  C  C69  1  0.987226  0.697294  0.752788  1
  C  C70  1  0.987226  0.802706  0.252788  1
  C  C71  1  0.012774  0.302706  0.247212  1
  C  C72  1  0.985093  0.317725  0.862907  1
  C  C73  1  0.014907  0.817725  0.637093  1
  C  C74  1  0.014907  0.682275  0.137093  1
  C  C75  1  0.985093  0.182275  0.362907  1
  C  C76  1  0.095733  0.380461  0.733547  1
  C  C77  1  0.904267  0.880461  0.766453  1
  C  C78  1  0.904267  0.619539  0.266453  1
  C  C79  1  0.095733  0.119539  0.233547  1
  O  O80  1  0.302037  0.025394  0.816802  1
  O  O81  1  0.697963  0.525394  0.683198  1
  O  O82  1  0.697963  0.974606  0.183198  1
  O  O83  1  0.302037  0.474606  0.316802  1
  O  O84  1  0.924558  0.111895  0.947188  1
  O  O85  1  0.075442  0.611895  0.552812  1
  O  O86  1  0.075442  0.888105  0.052812  1
  O  O87  1  0.924558  0.388105  0.447188  1
  O  O88  1  0.374705  0.057825  0.100129  1
  O  O89  1  0.625295  0.557825  0.399871  1
  O  O90  1  0.625295  0.942175  0.899871  1
  O  O91  1  0.374705  0.442175  0.600129  1
  O  O92  1  0.113643  0.299371  0.059619  1
  O  O93  1  0.886357  0.799371  0.440381  1
  O  O94  1  0.886357  0.700629  0.940381  1
  O  O95  1  0.113643  0.200629  0.559619  1
  O  O96  1  0.575482  0.189070  0.920958  1
  O  O97  1  0.424518  0.689070  0.579042  1
  O  O98  1  0.424518  0.810930  0.079042  1
  O  O99  1  0.575482  0.310930  0.420958  1
  O  O100  1  0.565179  0.386706  0.109214  1
  O  O101  1  0.434821  0.886706  0.390786  1
  O  O102  1  0.434821  0.613294  0.890786  1
  O  O103  1  0.565179  0.113294  0.609214  1
  O  O104  1  0.536638  0.423575  0.832939  1
  O  O105  1  0.463362  0.923575  0.667061  1
  O  O106  1  0.463362  0.576425  0.167061  1
  O  O107  1  0.536638  0.076425  0.332939  1
  O  O108  1  0.149964  0.508119  0.950759  1
  O  O109  1  0.850036  0.008119  0.549241  1
  O  O110  1  0.850036  0.491881  0.049241  1
  O  O111  1  0.149964  0.991881  0.450759  1
  O  O112  1  0.401707  0.218603  0.732721  1
  O  O113  1  0.598293  0.718603  0.767279  1
  O  O114  1  0.598293  0.781397  0.267279  1
  O  O115  1  0.401707  0.281397  0.232721  1
  O  O116  1  0.931871  0.138808  0.708242  1
  O  O117  1  0.068129  0.638808  0.791758  1
  O  O118  1  0.068129  0.861192  0.291758  1
  O  O119  1  0.931871  0.361192  0.208242  1
  O  O120  1  0.881255  0.340486  0.895013  1
  O  O121  1  0.118745  0.840486  0.604987  1
  O  O122  1  0.118745  0.659514  0.104987  1
  O  O123  1  0.881255  0.159514  0.395013  1
  O  O124  1  0.066945  0.443066  0.684236  1
  O  O125  1  0.933055  0.943066  0.815764  1
  O  O126  1  0.933055  0.556934  0.315764  1
  O  O127  1  0.066945  0.056934  0.184236  1
  O  O128  1  0.681410  0.302723  0.672776  1
  O  O129  1  0.318590  0.802723  0.827224  1
  O  O130  1  0.318590  0.697277  0.327224  1
  O  O131  1  0.681410  0.197277  0.172776  1
