# generated using pymatgen
data_Sr2Bi2O5
_symmetry_space_group_name_H-M   'P 1'
_cell_length_a   7.57612127
_cell_length_b   7.75618464
_cell_length_c   6.25519520
_cell_angle_alpha   90.00000000
_cell_angle_beta   90.00000000
_cell_angle_gamma   75.28639114
_symmetry_Int_Tables_number   1
_chemical_formula_structural   Sr2Bi2O5
_chemical_formula_sum   'Sr4 Bi4 O10'
_cell_volume   355.51305898
_cell_formula_units_Z   2
loop_
 _symmetry_equiv_pos_site_id
 _symmetry_equiv_pos_as_xyz
  1  'x, y, z'
loop_
 _atom_site_type_symbol
 _atom_site_label
 _atom_site_symmetry_multiplicity
 _atom_site_fract_x
 _atom_site_fract_y
 _atom_site_fract_z
 _atom_site_occupancy
  Sr  Sr0  1  0.393187  0.901203  0.250000  1
  Sr  Sr1  1  0.606813  0.598797  0.750000  1
  Sr  Sr2  1  0.370555  0.407571  0.250000  1
  Sr  Sr3  1  0.629445  0.092429  0.750000  1
  Bi  Bi4  1  0.876823  0.788534  0.250000  1
  Bi  Bi5  1  0.123177  0.711466  0.750000  1
  Bi  Bi6  1  0.870348  0.275356  0.250000  1
  Bi  Bi7  1  0.129652  0.224644  0.750000  1
  O  O8  1  0.013885  0.996576  0.750000  1
  O  O9  1  0.680588  0.824246  0.491334  1
  O  O10  1  0.680588  0.824246  0.008666  1
  O  O11  1  0.986115  0.503424  0.250000  1
  O  O12  1  0.319412  0.675754  0.991334  1
  O  O13  1  0.319412  0.675754  0.508666  1
  O  O14  1  0.675626  0.336941  0.007867  1
  O  O15  1  0.675626  0.336941  0.492133  1
  O  O16  1  0.324374  0.163059  0.992133  1
  O  O17  1  0.324374  0.163059  0.507867  1
