# generated using pymatgen
data_K2CaH8(N3O)4
_symmetry_space_group_name_H-M   'P 1'
_cell_length_a   10.96504914
_cell_length_b   10.96504914
_cell_length_c   6.21654247
_cell_angle_alpha   90.00000000
_cell_angle_beta   90.00000000
_cell_angle_gamma   118.86556411
_symmetry_Int_Tables_number   1
_chemical_formula_structural   K2CaH8(N3O)4
_chemical_formula_sum   'K4 Ca2 H16 N24 O8'
_cell_volume   654.56474590
_cell_formula_units_Z   2
loop_
 _symmetry_equiv_pos_site_id
 _symmetry_equiv_pos_as_xyz
  1  'x, y, z'
loop_
 _atom_site_type_symbol
 _atom_site_label
 _atom_site_symmetry_multiplicity
 _atom_site_fract_x
 _atom_site_fract_y
 _atom_site_fract_z
 _atom_site_occupancy
  K  K0  1  0.081495  0.418505  0.750000  1
  K  K1  1  0.918505  0.581495  0.250000  1
  K  K2  1  0.581495  0.918505  0.250000  1
  K  K3  1  0.418505  0.081495  0.750000  1
  Ca  Ca4  1  0.750000  0.750000  0.750000  1
  Ca  Ca5  1  0.250000  0.250000  0.250000  1
  H  H6  1  0.641694  0.470848  0.584034  1
  H  H7  1  0.970848  0.141694  0.084034  1
  H  H8  1  0.529152  0.358306  0.084034  1
  H  H9  1  0.858306  0.029152  0.584034  1
  H  H10  1  0.358306  0.529152  0.415966  1
  H  H11  1  0.029152  0.858306  0.915966  1
  H  H12  1  0.470848  0.641694  0.915966  1
  H  H13  1  0.141694  0.970848  0.415966  1
  H  H14  1  0.762587  0.479071  0.729684  1
  H  H15  1  0.979071  0.262587  0.229684  1
  H  H16  1  0.520929  0.237413  0.229684  1
  H  H17  1  0.737413  0.020929  0.729684  1
  H  H18  1  0.237413  0.520929  0.270316  1
  H  H19  1  0.020929  0.737413  0.770316  1
  H  H20  1  0.479071  0.762587  0.770316  1
  H  H21  1  0.262587  0.979071  0.270316  1
  N  N22  1  0.805216  0.373670  0.918320  1
  N  N23  1  0.873670  0.305216  0.418320  1
  N  N24  1  0.626330  0.194784  0.418320  1
  N  N25  1  0.694784  0.126330  0.918320  1
  N  N26  1  0.194784  0.626330  0.081680  1
  N  N27  1  0.126330  0.694784  0.581680  1
  N  N28  1  0.373670  0.805216  0.581680  1
  N  N29  1  0.305216  0.873670  0.081680  1
  N  N30  1  0.750000  0.250000  0.917011  1
  N  N31  1  0.750000  0.250000  0.417011  1
  N  N32  1  0.250000  0.750000  0.082989  1
  N  N33  1  0.250000  0.750000  0.582989  1
  N  N34  1  0.343705  0.419127  0.903320  1
  N  N35  1  0.919127  0.843705  0.403320  1
  N  N36  1  0.580873  0.656295  0.403320  1
  N  N37  1  0.156295  0.080873  0.903320  1
  N  N38  1  0.656295  0.580873  0.096680  1
  N  N39  1  0.080873  0.156295  0.596680  1
  N  N40  1  0.419127  0.343705  0.596680  1
  N  N41  1  0.843705  0.919127  0.096680  1
  N  N42  1  0.881080  0.881080  0.250000  1
  N  N43  1  0.381080  0.381080  0.750000  1
  N  N44  1  0.118920  0.118920  0.750000  1
  N  N45  1  0.618920  0.618920  0.250000  1
  O  O46  1  0.739397  0.533641  0.623836  1
  O  O47  1  0.033641  0.239397  0.123836  1
  O  O48  1  0.466359  0.260603  0.123836  1
  O  O49  1  0.760603  0.966359  0.623836  1
  O  O50  1  0.260603  0.466359  0.376164  1
  O  O51  1  0.966359  0.760603  0.876164  1
  O  O52  1  0.533641  0.739397  0.876164  1
  O  O53  1  0.239397  0.033641  0.376164  1
