# generated using pymatgen
data_LiV5O7F
_symmetry_space_group_name_H-M   'P 1'
_cell_length_a   6.14590153
_cell_length_b   6.14590153
_cell_length_c   6.01960477
_cell_angle_alpha   59.30348808
_cell_angle_beta   59.30348808
_cell_angle_gamma   60.00000000
_symmetry_Int_Tables_number   1
_chemical_formula_structural   LiV5O7F
_chemical_formula_sum   'Li1 V5 O7 F1'
_cell_volume   159.06362648
_cell_formula_units_Z   1
loop_
 _symmetry_equiv_pos_site_id
 _symmetry_equiv_pos_as_xyz
  1  'x, y, z'
loop_
 _atom_site_type_symbol
 _atom_site_label
 _atom_site_symmetry_multiplicity
 _atom_site_fract_x
 _atom_site_fract_y
 _atom_site_fract_z
 _atom_site_occupancy
  Li  Li0  1  0.241546  0.241546  0.275362  1
  V  V1  1  0.009242  0.009242  0.972274  1
  V  V2  1  0.620062  0.620062  0.139815  1
  V  V3  1  0.632100  0.128841  0.606958  1
  V  V4  1  0.128841  0.632100  0.606958  1
  V  V5  1  0.632100  0.632100  0.606958  1
  O  O6  1  0.843309  0.374863  0.406964  1
  O  O7  1  0.374863  0.374863  0.406964  1
  O  O8  1  0.374863  0.843309  0.406964  1
  O  O9  1  0.873095  0.873095  0.380714  1
  O  O10  1  0.868347  0.404145  0.859162  1
  O  O11  1  0.404145  0.868347  0.859162  1
  O  O12  1  0.868347  0.868347  0.859162  1
  F  F13  1  0.379138  0.379138  0.862584  1
