# generated using pymatgen
data_TmAsO4
_symmetry_space_group_name_H-M   'P 1'
_cell_length_a   6.72093735
_cell_length_b   6.93773986
_cell_length_c   6.63852771
_cell_angle_alpha   90.00000000
_cell_angle_beta   105.82663354
_cell_angle_gamma   90.00000000
_symmetry_Int_Tables_number   1
_chemical_formula_structural   TmAsO4
_chemical_formula_sum   'Tm4 As4 O16'
_cell_volume   297.80770369
_cell_formula_units_Z   4
loop_
 _symmetry_equiv_pos_site_id
 _symmetry_equiv_pos_as_xyz
  1  'x, y, z'
loop_
 _atom_site_type_symbol
 _atom_site_label
 _atom_site_symmetry_multiplicity
 _atom_site_fract_x
 _atom_site_fract_y
 _atom_site_fract_z
 _atom_site_occupancy
  Tm  Tm0  1  0.219338  0.143719  0.415082  1
  Tm  Tm1  1  0.280662  0.643719  0.084918  1
  Tm  Tm2  1  0.719338  0.356281  0.915082  1
  Tm  Tm3  1  0.780662  0.856281  0.584918  1
  As  As4  1  0.199846  0.160340  0.888927  1
  As  As5  1  0.300154  0.660340  0.611073  1
  As  As6  1  0.699846  0.339660  0.388927  1
  As  As7  1  0.800154  0.839660  0.111073  1
  O  O8  1  0.017072  0.103590  0.658483  1
  O  O9  1  0.109047  0.714574  0.729448  1
  O  O10  1  0.100365  0.352214  0.993282  1
  O  O11  1  0.254669  0.490898  0.413877  1
  O  O12  1  0.390953  0.214574  0.770552  1
  O  O13  1  0.245331  0.990898  0.086123  1
  O  O14  1  0.399635  0.852214  0.506718  1
  O  O15  1  0.482928  0.603590  0.841517  1
  O  O16  1  0.517072  0.396410  0.158483  1
  O  O17  1  0.600365  0.147786  0.493282  1
  O  O18  1  0.754669  0.009102  0.913877  1
  O  O19  1  0.609047  0.785426  0.229448  1
  O  O20  1  0.745331  0.509102  0.586123  1
  O  O21  1  0.899635  0.647786  0.006718  1
  O  O22  1  0.890953  0.285426  0.270552  1
  O  O23  1  0.982928  0.896410  0.341517  1
