# generated using pymatgen
data_MgH12(ClO5)2
_symmetry_space_group_name_H-M   'P 1'
_cell_length_a   7.46836995
_cell_length_b   7.46836995
_cell_length_c   10.16911468
_cell_angle_alpha   90.00000000
_cell_angle_beta   90.00000000
_cell_angle_gamma   90.00000000
_symmetry_Int_Tables_number   1
_chemical_formula_structural   MgH12(ClO5)2
_chemical_formula_sum   'Mg2 H24 Cl4 O20'
_cell_volume   567.19813046
_cell_formula_units_Z   2
loop_
 _symmetry_equiv_pos_site_id
 _symmetry_equiv_pos_as_xyz
  1  'x, y, z'
loop_
 _atom_site_type_symbol
 _atom_site_label
 _atom_site_symmetry_multiplicity
 _atom_site_fract_x
 _atom_site_fract_y
 _atom_site_fract_z
 _atom_site_occupancy
  Mg  Mg0  1  0.250000  0.750000  0.250000  1
  Mg  Mg1  1  0.750000  0.250000  0.750000  1
  H  H2  1  0.250000  0.858213  0.510526  1
  H  H3  1  0.250000  0.641787  0.510526  1
  H  H4  1  0.858213  0.250000  0.010526  1
  H  H5  1  0.641787  0.250000  0.010526  1
  H  H6  1  0.750000  0.141787  0.489474  1
  H  H7  1  0.750000  0.358213  0.489474  1
  H  H8  1  0.141787  0.750000  0.989474  1
  H  H9  1  0.358213  0.750000  0.989474  1
  H  H10  1  0.943561  0.555047  0.305231  1
  H  H11  1  0.556439  0.555047  0.305231  1
  H  H12  1  0.943561  0.944953  0.305231  1
  H  H13  1  0.556439  0.944953  0.305231  1
  H  H14  1  0.555047  0.943561  0.805231  1
  H  H15  1  0.944953  0.943561  0.805231  1
  H  H16  1  0.555047  0.556439  0.805231  1
  H  H17  1  0.944953  0.556439  0.805231  1
  H  H18  1  0.056439  0.444953  0.694769  1
  H  H19  1  0.443561  0.444953  0.694769  1
  H  H20  1  0.056439  0.055047  0.694769  1
  H  H21  1  0.443561  0.055047  0.694769  1
  H  H22  1  0.444953  0.056439  0.194769  1
  H  H23  1  0.055047  0.056439  0.194769  1
  H  H24  1  0.444953  0.443561  0.194769  1
  H  H25  1  0.055047  0.443561  0.194769  1
  Cl  Cl26  1  0.750000  0.750000  0.990639  1
  Cl  Cl27  1  0.750000  0.750000  0.490639  1
  Cl  Cl28  1  0.250000  0.250000  0.009361  1
  Cl  Cl29  1  0.250000  0.250000  0.509361  1
  O  O30  1  0.923742  0.750000  0.899656  1
  O  O31  1  0.576258  0.750000  0.899656  1
  O  O32  1  0.750000  0.923742  0.399656  1
  O  O33  1  0.750000  0.576258  0.399656  1
  O  O34  1  0.076258  0.250000  0.100344  1
  O  O35  1  0.423742  0.250000  0.100344  1
  O  O36  1  0.250000  0.076258  0.600344  1
  O  O37  1  0.250000  0.423742  0.600344  1
  O  O38  1  0.250000  0.750000  0.455698  1
  O  O39  1  0.750000  0.250000  0.955698  1
  O  O40  1  0.750000  0.250000  0.544302  1
  O  O41  1  0.250000  0.750000  0.044302  1
  O  O42  1  0.053285  0.553285  0.250000  1
  O  O43  1  0.446715  0.553285  0.250000  1
  O  O44  1  0.053285  0.946715  0.250000  1
  O  O45  1  0.446715  0.946715  0.250000  1
  O  O46  1  0.553285  0.053285  0.750000  1
  O  O47  1  0.946715  0.053285  0.750000  1
  O  O48  1  0.553285  0.446715  0.750000  1
  O  O49  1  0.946715  0.446715  0.750000  1
