# generated using pymatgen
data_Rb5FeO4
_symmetry_space_group_name_H-M   'P 1'
_cell_length_a   7.16102848
_cell_length_b   8.76387155
_cell_length_c   7.37527232
_cell_angle_alpha   90.00000000
_cell_angle_beta   90.00000000
_cell_angle_gamma   90.00000000
_symmetry_Int_Tables_number   1
_chemical_formula_structural   Rb5FeO4
_chemical_formula_sum   'Rb10 Fe2 O8'
_cell_volume   462.85980186
_cell_formula_units_Z   2
loop_
 _symmetry_equiv_pos_site_id
 _symmetry_equiv_pos_as_xyz
  1  'x, y, z'
loop_
 _atom_site_type_symbol
 _atom_site_label
 _atom_site_symmetry_multiplicity
 _atom_site_fract_x
 _atom_site_fract_y
 _atom_site_fract_z
 _atom_site_occupancy
  Rb  Rb0  1  0.077917  0.311274  0.938892  1
  Rb  Rb1  1  0.077917  0.688726  0.938892  1
  Rb  Rb2  1  0.253705  0.701882  0.375846  1
  Rb  Rb3  1  0.253705  0.298118  0.375846  1
  Rb  Rb4  1  0.248193  0.000000  0.689146  1
  Rb  Rb5  1  0.577917  0.811274  0.061108  1
  Rb  Rb6  1  0.577917  0.188726  0.061108  1
  Rb  Rb7  1  0.753705  0.798118  0.624154  1
  Rb  Rb8  1  0.753705  0.201882  0.624154  1
  Rb  Rb9  1  0.748193  0.500000  0.310854  1
  Fe  Fe10  1  0.997612  0.000000  0.179395  1
  Fe  Fe11  1  0.497612  0.500000  0.820605  1
  O  O12  1  0.266318  0.000000  0.215168  1
  O  O13  1  0.427333  0.500000  0.080853  1
  O  O14  1  0.402631  0.308067  0.720423  1
  O  O15  1  0.402631  0.691933  0.720423  1
  O  O16  1  0.766318  0.500000  0.784832  1
  O  O17  1  0.927333  0.000000  0.919147  1
  O  O18  1  0.902631  0.808067  0.279577  1
  O  O19  1  0.902631  0.191933  0.279577  1
