# generated using pymatgen
data_NaSc(SiO3)2
_symmetry_space_group_name_H-M   'P 1'
_cell_length_a   5.42133881
_cell_length_b   6.77819933
_cell_length_c   6.77819933
_cell_angle_alpha   84.95282854
_cell_angle_beta   77.10823919
_cell_angle_gamma   77.10823925
_symmetry_Int_Tables_number   1
_chemical_formula_structural   NaSc(SiO3)2
_chemical_formula_sum   'Na2 Sc2 Si4 O12'
_cell_volume   236.48799530
_cell_formula_units_Z   2
loop_
 _symmetry_equiv_pos_site_id
 _symmetry_equiv_pos_as_xyz
  1  'x, y, z'
loop_
 _atom_site_type_symbol
 _atom_site_label
 _atom_site_symmetry_multiplicity
 _atom_site_fract_x
 _atom_site_fract_y
 _atom_site_fract_z
 _atom_site_occupancy
  O  O0  1  0.475777  0.345196  0.353241  1
  O  O1  1  0.024223  0.646759  0.654804  1
  O  O2  1  0.524223  0.654804  0.646759  1
  O  O3  1  0.975777  0.353241  0.345196  1
  O  O4  1  0.196035  0.113575  0.607274  1
  O  O5  1  0.303965  0.392726  0.886425  1
  O  O6  1  0.803965  0.886425  0.392726  1
  O  O7  1  0.696035  0.607274  0.113575  1
  O  O8  1  0.854489  0.197004  0.039411  1
  O  O9  1  0.645511  0.960589  0.802996  1
  O  O10  1  0.145511  0.802996  0.960589  1
  O  O11  1  0.354489  0.039411  0.197004  1
  Na  Na12  1  0.250000  0.699744  0.300256  1
  Na  Na13  1  0.750000  0.300256  0.699744  1
  Si  Si14  1  0.255248  0.203740  0.377092  1
  Si  Si15  1  0.755247  0.377092  0.203740  1
  Si  Si16  1  0.244753  0.622908  0.796260  1
  Si  Si17  1  0.744753  0.796260  0.622908  1
  Sc  Sc18  1  0.250000  0.105570  0.894430  1
  Sc  Sc19  1  0.750000  0.894430  0.105570  1
