# generated using pymatgen
data_FeOF
_symmetry_space_group_name_H-M   'P 1'
_cell_length_a   9.46413633
_cell_length_b   14.21879778
_cell_length_c   3.11168410
_cell_angle_alpha   90.00000000
_cell_angle_beta   90.00000000
_cell_angle_gamma   89.94056945
_symmetry_Int_Tables_number   1
_chemical_formula_structural   FeOF
_chemical_formula_sum   'Fe12 O12 F12'
_cell_volume   418.73487393
_cell_formula_units_Z   12
loop_
 _symmetry_equiv_pos_site_id
 _symmetry_equiv_pos_as_xyz
  1  'x, y, z'
loop_
 _atom_site_type_symbol
 _atom_site_label
 _atom_site_symmetry_multiplicity
 _atom_site_fract_x
 _atom_site_fract_y
 _atom_site_fract_z
 _atom_site_occupancy
  Fe  Fe0  1  0.015095  0.998723  0.000000  1
  Fe  Fe1  1  0.026334  0.326057  0.000000  1
  Fe  Fe2  1  0.999944  0.674511  0.000000  1
  Fe  Fe3  1  0.235350  0.159350  0.500000  1
  Fe  Fe4  1  0.218413  0.504070  0.500000  1
  Fe  Fe5  1  0.256034  0.856287  0.500000  1
  Fe  Fe6  1  0.513012  0.329902  0.000000  1
  Fe  Fe7  1  0.522410  0.988181  0.000000  1
  Fe  Fe8  1  0.504414  0.674828  0.000000  1
  Fe  Fe9  1  0.726227  0.161800  0.500000  1
  Fe  Fe10  1  0.740931  0.487684  0.500000  1
  Fe  Fe11  1  0.747604  0.825092  0.500000  1
  O  O12  1  0.102232  0.266150  0.500000  1
  O  O13  1  0.094411  0.607707  0.500000  1
  O  O14  1  0.090570  0.934611  0.500000  1
  O  O15  1  0.152963  0.100218  0.000000  1
  O  O16  1  0.148224  0.437143  0.000000  1
  O  O17  1  0.355002  0.900991  0.000000  1
  O  O18  1  0.595819  0.269904  0.500000  1
  O  O19  1  0.607963  0.929479  0.500000  1
  O  O20  1  0.651446  0.099650  0.000000  1
  O  O21  1  0.649511  0.437271  0.000000  1
  O  O22  1  0.646888  0.762714  0.000000  1
  O  O23  1  0.900348  0.734977  0.500000  1
  F  F24  1  0.161567  0.772617  0.000000  1
  F  F25  1  0.348076  0.232498  0.000000  1
  F  F26  1  0.354452  0.569704  0.000000  1
  F  F27  1  0.404097  0.068162  0.500000  1
  F  F28  1  0.400436  0.400286  0.500000  1
  F  F29  1  0.394231  0.728158  0.500000  1
  F  F30  1  0.594626  0.601049  0.500000  1
  F  F31  1  0.848486  0.232840  0.000000  1
  F  F32  1  0.847741  0.901463  0.000000  1
  F  F33  1  0.841142  0.562031  0.000000  1
  F  F34  1  0.901286  0.067135  0.500000  1
  F  F35  1  0.902713  0.396758  0.500000  1
