# generated using pymatgen
data_Na2FePCO7
_symmetry_space_group_name_H-M   'P 1'
_cell_length_a   10.34180909
_cell_length_b   8.38652437
_cell_length_c   8.41347621
_cell_angle_alpha   77.44209052
_cell_angle_beta   71.00623219
_cell_angle_gamma   107.74020642
_symmetry_Int_Tables_number   1
_chemical_formula_structural   Na2FePCO7
_chemical_formula_sum   'Na8 Fe4 P4 C4 O28'
_cell_volume   615.22951046
_cell_formula_units_Z   4
loop_
 _symmetry_equiv_pos_site_id
 _symmetry_equiv_pos_as_xyz
  1  'x, y, z'
loop_
 _atom_site_type_symbol
 _atom_site_label
 _atom_site_symmetry_multiplicity
 _atom_site_fract_x
 _atom_site_fract_y
 _atom_site_fract_z
 _atom_site_occupancy
  Na  Na0  1  0.918712  0.722135  0.539597  1
  Na  Na1  1  0.910117  0.183440  0.076124  1
  Na  Na2  1  0.743031  0.494160  0.006721  1
  Na  Na3  1  0.742647  0.243000  0.754278  1
  Na  Na4  1  0.262891  0.751357  0.238604  1
  Na  Na5  1  0.263234  0.252774  0.738219  1
  Na  Na6  1  0.080109  0.279633  0.437701  1
  Na  Na7  1  0.082827  0.795265  0.949145  1
  Fe  Fe8  1  0.654208  0.310068  0.438791  1
  Fe  Fe9  1  0.654099  0.811236  0.939018  1
  Fe  Fe10  1  0.342340  0.195571  0.069115  1
  Fe  Fe11  1  0.348376  0.696850  0.565420  1
  P  P12  1  0.574740  0.554248  0.695033  1
  P  P13  1  0.576232  0.060876  0.188351  1
  P  P14  1  0.424165  0.445799  0.310319  1
  P  P15  1  0.423856  0.943644  0.808311  1
  C  C16  1  0.936501  0.481070  0.275366  1
  C  C17  1  0.936350  0.977525  0.772581  1
  C  C18  1  0.064664  0.019424  0.223092  1
  C  C19  1  0.063510  0.518559  0.724377  1
  O  O20  1  0.924331  0.939831  0.305897  1
  O  O21  1  0.920887  0.433147  0.812161  1
  O  O22  1  0.872458  0.339826  0.423511  1
  O  O23  1  0.872867  0.822424  0.904839  1
  O  O24  1  0.843160  0.520007  0.215937  1
  O  O25  1  0.842516  0.028939  0.724325  1
  O  O26  1  0.680143  0.994828  0.065668  1
  O  O27  1  0.670900  0.662497  0.775589  1
  O  O28  1  0.677816  0.478852  0.583346  1
  O  O29  1  0.672766  0.180298  0.259940  1
  O  O30  1  0.568355  0.593479  0.152721  1
  O  O31  1  0.568391  0.097001  0.656445  1
  O  O32  1  0.533876  0.185073  0.064101  1
  O  O33  1  0.526537  0.671395  0.577488  1
  O  O34  1  0.469429  0.828264  0.934344  1
  O  O35  1  0.469441  0.330375  0.436333  1
  O  O36  1  0.433285  0.905363  0.337617  1
  O  O37  1  0.430489  0.397812  0.844797  1
  O  O38  1  0.327001  0.827736  0.735113  1
  O  O39  1  0.323697  0.523569  0.420264  1
  O  O40  1  0.324926  0.325883  0.241680  1
  O  O41  1  0.320904  0.016572  0.922409  1
  O  O42  1  0.158177  0.969315  0.274824  1
  O  O43  1  0.156309  0.469240  0.774557  1
  O  O44  1  0.131599  0.165825  0.077976  1
  O  O45  1  0.124643  0.662740  0.581564  1
  O  O46  1  0.076448  0.571067  0.196089  1
  O  O47  1  0.076041  0.069543  0.697841  1
