# generated using pymatgen
data_Li4Mn3Fe2Sn3O16
_symmetry_space_group_name_H-M   'P 1'
_cell_length_a   6.12578599
_cell_length_b   6.14838652
_cell_length_c   9.64168844
_cell_angle_alpha   89.64986443
_cell_angle_beta   89.35081880
_cell_angle_gamma   120.35889689
_symmetry_Int_Tables_number   1
_chemical_formula_structural   Li4Mn3Fe2Sn3O16
_chemical_formula_sum   'Li4 Mn3 Fe2 Sn3 O16'
_cell_volume   313.29679186
_cell_formula_units_Z   1
loop_
 _symmetry_equiv_pos_site_id
 _symmetry_equiv_pos_as_xyz
  1  'x, y, z'
loop_
 _atom_site_type_symbol
 _atom_site_label
 _atom_site_symmetry_multiplicity
 _atom_site_fract_x
 _atom_site_fract_y
 _atom_site_fract_z
 _atom_site_occupancy
  Li  Li0  1  0.342282  0.674594  0.885802  1
  Li  Li1  1  0.968511  0.981772  0.993133  1
  Li  Li2  1  0.978797  0.988846  0.501428  1
  Li  Li3  1  0.672316  0.338818  0.395599  1
  Mn  Mn4  1  0.662060  0.831599  0.220243  1
  Mn  Mn5  1  0.827604  0.658058  0.713803  1
  Mn  Mn6  1  0.834412  0.174883  0.716755  1
  Fe  Fe7  1  0.339189  0.665819  0.496021  1
  Fe  Fe8  1  0.681301  0.343600  0.990038  1
  Sn  Sn9  1  0.172935  0.831349  0.212389  1
  Sn  Sn10  1  0.172763  0.341185  0.211330  1
  Sn  Sn11  1  0.338866  0.166960  0.713354  1
  O  O12  1  0.153579  0.828521  0.598381  1
  O  O13  1  0.039365  0.517356  0.346492  1
  O  O14  1  0.322889  0.663064  0.090995  1
  O  O15  1  0.018519  0.008271  0.318555  1
  O  O16  1  0.987647  0.975216  0.809211  1
  O  O17  1  0.150571  0.320303  0.601416  1
  O  O18  1  0.490322  0.960904  0.342354  1
  O  O19  1  0.489419  0.528811  0.340139  1
  O  O20  1  0.326730  0.164264  0.087377  1
  O  O21  1  0.665093  0.817622  0.604601  1
  O  O22  1  0.532040  0.489920  0.839239  1
  O  O23  1  0.537673  0.046642  0.838547  1
  O  O24  1  0.676059  0.356584  0.601897  1
  O  O25  1  0.828330  0.671944  0.102857  1
  O  O26  1  0.960875  0.496753  0.835552  1
  O  O27  1  0.829856  0.156643  0.100330  1
