# generated using pymatgen
data_Li8Mn3CrO12
_symmetry_space_group_name_H-M   'P 1'
_cell_length_a   4.93507787
_cell_length_b   4.96302047
_cell_length_c   8.43624493
_cell_angle_alpha   90.33773158
_cell_angle_beta   90.26337653
_cell_angle_gamma   89.86458435
_symmetry_Int_Tables_number   1
_chemical_formula_structural   Li8Mn3CrO12
_chemical_formula_sum   'Li8 Mn3 Cr1 O12'
_cell_volume   206.62170376
_cell_formula_units_Z   1
loop_
 _symmetry_equiv_pos_site_id
 _symmetry_equiv_pos_as_xyz
  1  'x, y, z'
loop_
 _atom_site_type_symbol
 _atom_site_label
 _atom_site_symmetry_multiplicity
 _atom_site_fract_x
 _atom_site_fract_y
 _atom_site_fract_z
 _atom_site_occupancy
  Li  Li0  1  0.998630  0.499035  0.079777  1
  Li  Li1  1  0.000616  0.499625  0.769601  1
  Li  Li2  1  0.999046  0.999853  0.433378  1
  Li  Li3  1  0.000241  0.000251  0.746254  1
  Li  Li4  1  0.500881  0.499966  0.242731  1
  Li  Li5  1  0.500258  0.500125  0.929630  1
  Li  Li6  1  0.499961  0.999729  0.584267  1
  Li  Li7  1  0.502446  0.999635  0.270407  1
  Mn  Mn8  1  0.998493  0.501315  0.418596  1
  Mn  Mn9  1  0.499312  0.499868  0.596231  1
  Mn  Mn10  1  0.500234  0.003061  0.916498  1
  Cr  Cr11  1  0.007285  0.998766  0.099061  1
  O  O12  1  0.143034  0.250373  0.254943  1
  O  O13  1  0.177475  0.218779  0.930281  1
  O  O14  1  0.175123  0.284796  0.581382  1
  O  O15  1  0.322443  0.783689  0.080548  1
  O  O16  1  0.324865  0.714965  0.432064  1
  O  O17  1  0.352766  0.750670  0.756538  1
  O  O18  1  0.647712  0.249299  0.756404  1
  O  O19  1  0.673929  0.283974  0.431901  1
  O  O20  1  0.672854  0.214912  0.081119  1
  O  O21  1  0.825363  0.715048  0.582294  1
  O  O22  1  0.825510  0.787067  0.932338  1
  O  O23  1  0.851490  0.745232  0.259625  1
