# generated using pymatgen
data_LiAgF4
_symmetry_space_group_name_H-M   'P 1'
_cell_length_a   5.42136900
_cell_length_b   6.39478874
_cell_length_c   5.42136931
_cell_angle_alpha   64.91959628
_cell_angle_beta   90.00000000
_cell_angle_gamma   64.91959552
_symmetry_Int_Tables_number   1
_chemical_formula_structural   LiAgF4
_chemical_formula_sum   'Li2 Ag2 F8'
_cell_volume   150.43521769
_cell_formula_units_Z   2
loop_
 _symmetry_equiv_pos_site_id
 _symmetry_equiv_pos_as_xyz
  1  'x, y, z'
loop_
 _atom_site_type_symbol
 _atom_site_label
 _atom_site_symmetry_multiplicity
 _atom_site_fract_x
 _atom_site_fract_y
 _atom_site_fract_z
 _atom_site_occupancy
  Li  Li0  1  0.750000  0.500000  0.750000  1
  Li  Li1  1  0.250000  0.500000  0.250000  1
  Ag  Ag2  1  0.500000  0.000000  0.000000  1
  Ag  Ag3  1  0.000000  0.000000  0.500000  1
  F  F4  1  0.948924  0.732113  0.818963  1
  F  F5  1  0.818963  0.732113  0.318963  1
  F  F6  1  0.681037  0.267887  0.551076  1
  F  F7  1  0.448924  0.732113  0.948924  1
  F  F8  1  0.551076  0.267887  0.051076  1
  F  F9  1  0.318963  0.732113  0.448924  1
  F  F10  1  0.181037  0.267887  0.681037  1
  F  F11  1  0.051076  0.267887  0.181037  1
