# generated using pymatgen
data_NaCoAsCO7
_symmetry_space_group_name_H-M   'P 1'
_cell_length_a   9.24573375
_cell_length_b   6.23489849
_cell_length_c   5.33174995
_cell_angle_alpha   90.00000000
_cell_angle_beta   86.86502628
_cell_angle_gamma   90.00000000
_symmetry_Int_Tables_number   1
_chemical_formula_structural   NaCoAsCO7
_chemical_formula_sum   'Na2 Co2 As2 C2 O14'
_cell_volume   306.89521988
_cell_formula_units_Z   2
loop_
 _symmetry_equiv_pos_site_id
 _symmetry_equiv_pos_as_xyz
  1  'x, y, z'
loop_
 _atom_site_type_symbol
 _atom_site_label
 _atom_site_symmetry_multiplicity
 _atom_site_fract_x
 _atom_site_fract_y
 _atom_site_fract_z
 _atom_site_occupancy
  Na  Na0  1  0.230128  0.478498  0.235730  1
  Na  Na1  1  0.769872  0.978498  0.764270  1
  Co  Co2  1  0.332435  0.758405  0.785997  1
  Co  Co3  1  0.667565  0.258405  0.214003  1
  As  As4  1  0.438779  0.252407  0.717025  1
  As  As5  1  0.561221  0.752407  0.282975  1
  C  C6  1  0.081348  0.746313  0.726204  1
  C  C7  1  0.918652  0.246313  0.273796  1
  O  O8  1  0.048887  0.245929  0.307935  1
  O  O9  1  0.140959  0.749981  0.944700  1
  O  O10  1  0.186441  0.745021  0.545075  1
  O  O11  1  0.313412  0.049731  0.787835  1
  O  O12  1  0.318456  0.457147  0.798450  1
  O  O13  1  0.407102  0.746110  0.121335  1
  O  O14  1  0.478973  0.268308  0.396446  1
  O  O15  1  0.521027  0.768308  0.603554  1
  O  O16  1  0.592898  0.246110  0.878665  1
  O  O17  1  0.681544  0.957147  0.201550  1
  O  O18  1  0.686588  0.549731  0.212165  1
  O  O19  1  0.813559  0.245021  0.454925  1
  O  O20  1  0.859041  0.249981  0.055300  1
  O  O21  1  0.951113  0.745930  0.692065  1
