# generated using pymatgen
data_V3(O2F)2
_symmetry_space_group_name_H-M   'P 1'
_cell_length_a   4.67008581
_cell_length_b   13.95015889
_cell_length_c   3.08547198
_cell_angle_alpha   89.99976651
_cell_angle_beta   89.99988468
_cell_angle_gamma   89.88380282
_symmetry_Int_Tables_number   1
_chemical_formula_structural   V3(O2F)2
_chemical_formula_sum   'V6 O8 F4'
_cell_volume   201.01327002
_cell_formula_units_Z   2
loop_
 _symmetry_equiv_pos_site_id
 _symmetry_equiv_pos_as_xyz
  1  'x, y, z'
loop_
 _atom_site_type_symbol
 _atom_site_label
 _atom_site_symmetry_multiplicity
 _atom_site_fract_x
 _atom_site_fract_y
 _atom_site_fract_z
 _atom_site_occupancy
  V  V0  1  0.946494  0.007820  0.999999  1
  V  V1  1  0.000012  0.332830  0.999999  1
  V  V2  1  0.055160  0.659874  0.999994  1
  V  V3  1  0.444250  0.159694  0.499999  1
  V  V4  1  0.553731  0.507991  0.500013  1
  V  V5  1  0.499179  0.832987  0.500004  1
  O  O6  1  0.184099  0.268049  0.499997  1
  O  O7  1  0.244223  0.594982  0.499990  1
  O  O8  1  0.316957  0.767694  0.000002  1
  O  O9  1  0.255184  0.094929  0.999996  1
  O  O10  1  0.728988  0.566780  0.000002  1
  O  O11  1  0.694918  0.903267  0.999999  1
  O  O12  1  0.771311  0.066999  0.499998  1
  O  O13  1  0.805216  0.403074  0.499994  1
  F  F14  1  0.172046  0.936160  0.500001  1
  F  F15  1  0.328253  0.436001  0.000009  1
  F  F16  1  0.672478  0.230552  0.000001  1
  F  F17  1  0.827503  0.730315  0.500004  1
