# generated using pymatgen
data_Li3CrP2HO8
_symmetry_space_group_name_H-M   'P 1'
_cell_length_a   5.03340653
_cell_length_b   6.30332484
_cell_length_c   5.12752736
_cell_angle_alpha   87.77222762
_cell_angle_beta   112.68172009
_cell_angle_gamma   89.28419581
_symmetry_Int_Tables_number   1
_chemical_formula_structural   Li3CrP2HO8
_chemical_formula_sum   'Li3 Cr1 P2 H1 O8'
_cell_volume   149.92032863
_cell_formula_units_Z   1
loop_
 _symmetry_equiv_pos_site_id
 _symmetry_equiv_pos_as_xyz
  1  'x, y, z'
loop_
 _atom_site_type_symbol
 _atom_site_label
 _atom_site_symmetry_multiplicity
 _atom_site_fract_x
 _atom_site_fract_y
 _atom_site_fract_z
 _atom_site_occupancy
  Li  Li0  1  0.276627  0.770937  0.631677  1
  Li  Li1  1  0.000000  0.500000  0.000000  1
  Li  Li2  1  0.723373  0.229063  0.368323  1
  Cr  Cr3  1  0.000000  0.000000  0.000000  1
  P  P4  1  0.362112  0.254595  0.649517  1
  P  P5  1  0.637888  0.745405  0.350483  1
  H  H6  1  0.500000  0.500000  0.000000  1
  O  O7  1  0.238902  0.062892  0.756560  1
  O  O8  1  0.299001  0.462817  0.784024  1
  O  O9  1  0.226529  0.277992  0.325329  1
  O  O10  1  0.304100  0.769838  0.249906  1
  O  O11  1  0.695900  0.230162  0.750094  1
  O  O12  1  0.773471  0.722008  0.674671  1
  O  O13  1  0.700999  0.537183  0.215976  1
  O  O14  1  0.761098  0.937108  0.243440  1
