# generated using pymatgen
data_NaLi5Mn2P2(CO7)2
_symmetry_space_group_name_H-M   'P 1'
_cell_length_a   8.63863792
_cell_length_b   6.70172211
_cell_length_c   10.00903733
_cell_angle_alpha   89.84086408
_cell_angle_beta   87.41027400
_cell_angle_gamma   89.12205097
_symmetry_Int_Tables_number   1
_chemical_formula_structural   NaLi5Mn2P2(CO7)2
_chemical_formula_sum   'Na2 Li10 Mn4 P4 C4 O28'
_cell_volume   578.79968420
_cell_formula_units_Z   2
loop_
 _symmetry_equiv_pos_site_id
 _symmetry_equiv_pos_as_xyz
  1  'x, y, z'
loop_
 _atom_site_type_symbol
 _atom_site_label
 _atom_site_symmetry_multiplicity
 _atom_site_fract_x
 _atom_site_fract_y
 _atom_site_fract_z
 _atom_site_occupancy
  Na  Na0  1  0.247631  0.501468  0.125943  1
  Na  Na1  1  0.752369  0.498532  0.374057  1
  Li  Li2  1  0.085222  0.241475  0.869333  1
  Li  Li3  1  0.091290  0.221385  0.374521  1
  Li  Li4  1  0.268363  0.033739  0.616740  1
  Li  Li5  1  0.266839  0.466474  0.615160  1
  Li  Li6  1  0.273157  0.027625  0.113809  1
  Li  Li7  1  0.733161  0.533526  0.884840  1
  Li  Li8  1  0.731637  0.966261  0.883260  1
  Li  Li9  1  0.726843  0.972375  0.386191  1
  Li  Li10  1  0.914778  0.758525  0.630667  1
  Li  Li11  1  0.908710  0.778615  0.125479  1
  Mn  Mn12  1  0.349340  0.756943  0.881970  1
  Mn  Mn13  1  0.353623  0.751338  0.393299  1
  Mn  Mn14  1  0.650660  0.243057  0.618030  1
  Mn  Mn15  1  0.646377  0.248662  0.106701  1
  P  P16  1  0.406573  0.252317  0.852301  1
  P  P17  1  0.409638  0.240771  0.360174  1
  P  P18  1  0.593427  0.747683  0.647699  1
  P  P19  1  0.590362  0.759229  0.139826  1
  C  C20  1  0.036134  0.750735  0.863419  1
  C  C21  1  0.041682  0.763047  0.362071  1
  C  C22  1  0.963866  0.249265  0.636581  1
  C  C23  1  0.958318  0.236953  0.137929  1
  O  O24  1  0.109144  0.254712  0.666607  1
  O  O25  1  0.100436  0.218586  0.174665  1
  O  O26  1  0.076070  0.748324  0.986611  1
  O  O27  1  0.075112  0.753938  0.486367  1
  O  O28  1  0.140918  0.759839  0.766098  1
  O  O29  1  0.152785  0.753818  0.269231  1
  O  O30  1  0.308335  0.075026  0.907867  1
  O  O31  1  0.313878  0.441552  0.896987  1
  O  O32  1  0.305634  0.068456  0.416061  1
  O  O33  1  0.319745  0.433700  0.405787  1
  O  O34  1  0.417576  0.242266  0.695659  1
  O  O35  1  0.423828  0.751121  0.600289  1
  O  O36  1  0.422355  0.229429  0.204072  1
  O  O37  1  0.423760  0.769730  0.088594  1
  O  O38  1  0.576172  0.248879  0.899711  1
  O  O39  1  0.582424  0.757734  0.804341  1
  O  O40  1  0.576240  0.230270  0.411406  1
  O  O41  1  0.577645  0.770571  0.295928  1
  O  O42  1  0.686122  0.558448  0.603013  1
  O  O43  1  0.691665  0.924974  0.592133  1
  O  O44  1  0.680255  0.566300  0.094213  1
  O  O45  1  0.694366  0.931544  0.083939  1
  O  O46  1  0.859082  0.240161  0.733902  1
  O  O47  1  0.847215  0.246182  0.230769  1
  O  O48  1  0.923930  0.251676  0.513389  1
  O  O49  1  0.924888  0.246062  0.013633  1
  O  O50  1  0.890856  0.745288  0.833393  1
  O  O51  1  0.899564  0.781414  0.325335  1
