# generated using pymatgen
data_Li2SnP2O7
_symmetry_space_group_name_H-M   'P 1'
_cell_length_a   6.95627308
_cell_length_b   11.30364167
_cell_length_c   9.73514017
_cell_angle_alpha   65.72029922
_cell_angle_beta   106.61404750
_cell_angle_gamma   85.88122125
_symmetry_Int_Tables_number   1
_chemical_formula_structural   Li2SnP2O7
_chemical_formula_sum   'Li8 Sn4 P8 O28'
_cell_volume   652.74097205
_cell_formula_units_Z   4
loop_
 _symmetry_equiv_pos_site_id
 _symmetry_equiv_pos_as_xyz
  1  'x, y, z'
loop_
 _atom_site_type_symbol
 _atom_site_label
 _atom_site_symmetry_multiplicity
 _atom_site_fract_x
 _atom_site_fract_y
 _atom_site_fract_z
 _atom_site_occupancy
  Li  Li0  1  0.007478  0.458101  0.220124  1
  Li  Li1  1  0.612635  0.378457  0.074558  1
  Li  Li2  1  0.687554  0.029899  0.502604  1
  Li  Li3  1  0.189072  0.787866  0.138078  1
  Li  Li4  1  0.189711  0.977089  0.466649  1
  Li  Li5  1  0.806925  0.203568  0.862103  1
  Li  Li6  1  0.364228  0.620961  0.920357  1
  Li  Li7  1  0.948135  0.511509  0.866740  1
  Sn  Sn8  1  0.353710  0.253257  0.508342  1
  Sn  Sn9  1  0.714771  0.812321  0.103422  1
  Sn  Sn10  1  0.282263  0.204152  0.875479  1
  Sn  Sn11  1  0.648508  0.743321  0.496840  1
  P  P12  1  0.072457  0.217847  0.167886  1
  P  P13  1  0.721270  0.080775  0.186633  1
  P  P14  1  0.490317  0.519963  0.268905  1
  P  P15  1  0.136583  0.692465  0.473408  1
  P  P16  1  0.835705  0.301180  0.515746  1
  P  P17  1  0.497290  0.481985  0.730704  1
  P  P18  1  0.297474  0.924104  0.797123  1
  P  P19  1  0.935737  0.799996  0.816142  1
  O  O20  1  0.090022  0.179014  0.036475  1
  O  O21  1  0.560779  0.210062  0.101759  1
  O  O22  1  0.270319  0.178962  0.311817  1
  O  O23  1  0.950488  0.361679  0.089896  1
  O  O24  1  0.987405  0.329862  0.423970  1
  O  O25  1  0.943391  0.115218  0.259748  1
  O  O26  1  0.576777  0.506511  0.146679  1
  O  O27  1  0.051093  0.721385  0.294684  1
  O  O28  1  0.309229  0.448516  0.286327  1
  O  O29  1  0.324229  0.018987  0.641348  1
  O  O30  1  0.437798  0.662758  0.238765  1
  O  O31  1  0.703576  0.203945  0.488111  1
  O  O32  1  0.743656  0.030885  0.064375  1
  O  O33  1  0.315291  0.556120  0.555044  1
  O  O34  1  0.676063  0.443129  0.444829  1
  O  O35  1  0.298288  0.982503  0.916726  1
  O  O36  1  0.241367  0.800504  0.495318  1
  O  O37  1  0.567103  0.341563  0.756362  1
  O  O38  1  0.697769  0.978246  0.338009  1
  O  O39  1  0.672177  0.560247  0.720438  1
  O  O40  1  0.938310  0.258566  0.696277  1
  O  O41  1  0.408464  0.486005  0.855324  1
  O  O42  1  0.066022  0.902451  0.728291  1
  O  O43  1  0.977491  0.655726  0.556965  1
  O  O44  1  0.053915  0.657331  0.888744  1
  O  O45  1  0.735489  0.840127  0.673494  1
  O  O46  1  0.444035  0.788843  0.884647  1
  O  O47  1  0.916480  0.837276  0.949541  1
