# generated using pymatgen
data_Fe5(O4F)2
_symmetry_space_group_name_H-M   'P 1'
_cell_length_a   4.64977588
_cell_length_b   4.64727961
_cell_length_c   15.07274809
_cell_angle_alpha   90.00000000
_cell_angle_beta   90.00000000
_cell_angle_gamma   91.60148392
_symmetry_Int_Tables_number   1
_chemical_formula_structural   Fe5(O4F)2
_chemical_formula_sum   'Fe10 O16 F4'
_cell_volume   325.57690646
_cell_formula_units_Z   2
loop_
 _symmetry_equiv_pos_site_id
 _symmetry_equiv_pos_as_xyz
  1  'x, y, z'
loop_
 _atom_site_type_symbol
 _atom_site_label
 _atom_site_symmetry_multiplicity
 _atom_site_fract_x
 _atom_site_fract_y
 _atom_site_fract_z
 _atom_site_occupancy
  Fe  Fe0  1  0.004348  0.989990  0.004681  1
  Fe  Fe1  1  0.024197  0.013770  0.200000  1
  Fe  Fe2  1  0.004348  0.989990  0.395319  1
  Fe  Fe3  1  0.998858  0.999166  0.599031  1
  Fe  Fe4  1  0.998858  0.999166  0.800969  1
  Fe  Fe5  1  0.498178  0.489944  0.095763  1
  Fe  Fe6  1  0.474272  0.523074  0.501284  1
  Fe  Fe7  1  0.498178  0.489944  0.304237  1
  Fe  Fe8  1  0.524563  0.474002  0.700000  1
  Fe  Fe9  1  0.474272  0.523074  0.898716  1
  O  O10  1  0.202069  0.805548  0.103795  1
  O  O11  1  0.202069  0.805548  0.296205  1
  O  O12  1  0.177849  0.816751  0.499489  1
  O  O13  1  0.177849  0.816751  0.900511  1
  O  O14  1  0.297431  0.307749  0.995538  1
  O  O15  1  0.326217  0.312836  0.200000  1
  O  O16  1  0.297431  0.307749  0.404462  1
  O  O17  1  0.306780  0.306362  0.600250  1
  O  O18  1  0.306780  0.306362  0.799750  1
  O  O19  1  0.686777  0.694785  0.997729  1
  O  O20  1  0.686777  0.694785  0.402271  1
  O  O21  1  0.691351  0.691173  0.600197  1
  O  O22  1  0.691351  0.691173  0.799803  1
  O  O23  1  0.814892  0.189835  0.101661  1
  O  O24  1  0.814892  0.189835  0.298339  1
  O  O25  1  0.822222  0.176088  0.700000  1
  F  F26  1  0.205230  0.793668  0.700000  1
  F  F27  1  0.707554  0.695644  0.200000  1
  F  F28  1  0.792201  0.202619  0.499656  1
  F  F29  1  0.792201  0.202619  0.900344  1
