# generated using pymatgen
data_As2HPbF13
_symmetry_space_group_name_H-M   'P 1'
_cell_length_a   10.95540985
_cell_length_b   15.99283974
_cell_length_c   11.17469112
_cell_angle_alpha   90.00000000
_cell_angle_beta   90.00006058
_cell_angle_gamma   90.00000000
_symmetry_Int_Tables_number   1
_chemical_formula_structural   As2HPbF13
_chemical_formula_sum   'As16 H8 Pb8 F104'
_cell_volume   1957.89655586
_cell_formula_units_Z   8
loop_
 _symmetry_equiv_pos_site_id
 _symmetry_equiv_pos_as_xyz
  1  'x, y, z'
loop_
 _atom_site_type_symbol
 _atom_site_label
 _atom_site_symmetry_multiplicity
 _atom_site_fract_x
 _atom_site_fract_y
 _atom_site_fract_z
 _atom_site_occupancy
  As  As0  1  0.000000  0.344331  0.250000  1
  As  As1  1  0.000000  0.245497  0.750000  1
  As  As2  1  0.000000  0.754503  0.250000  1
  As  As3  1  0.000000  0.655669  0.750000  1
  As  As4  1  0.182872  0.073857  0.419039  1
  As  As5  1  0.182872  0.926143  0.919039  1
  As  As6  1  0.317127  0.426143  0.919038  1
  As  As7  1  0.317127  0.573857  0.419038  1
  As  As8  1  0.500000  0.254502  0.250000  1
  As  As9  1  0.500000  0.844331  0.250000  1
  As  As10  1  0.500000  0.155669  0.750000  1
  As  As11  1  0.500000  0.745498  0.750000  1
  As  As12  1  0.682873  0.426143  0.580962  1
  As  As13  1  0.682873  0.573857  0.080962  1
  As  As14  1  0.817128  0.073857  0.080961  1
  As  As15  1  0.817128  0.926143  0.580961  1
  H  H16  1  0.032251  0.584996  0.021339  1
  H  H17  1  0.032251  0.415004  0.521339  1
  H  H18  1  0.467750  0.084996  0.021339  1
  H  H19  1  0.467750  0.915004  0.521339  1
  H  H20  1  0.532250  0.084996  0.478661  1
  H  H21  1  0.532250  0.915004  0.978661  1
  H  H22  1  0.967749  0.415004  0.978661  1
  H  H23  1  0.967749  0.584996  0.478661  1
  Pb  Pb24  1  0.196131  0.156165  0.043343  1
  Pb  Pb25  1  0.196131  0.843835  0.543343  1
  Pb  Pb26  1  0.303869  0.656165  0.043344  1
  Pb  Pb27  1  0.303869  0.343835  0.543344  1
  Pb  Pb28  1  0.696131  0.343835  0.956656  1
  Pb  Pb29  1  0.696131  0.656165  0.456656  1
  Pb  Pb30  1  0.803869  0.843835  0.956657  1
  Pb  Pb31  1  0.803869  0.156165  0.456657  1
  F  F32  1  0.000000  0.136952  0.750000  1
  F  F33  1  0.000000  0.646195  0.250000  1
  F  F34  1  0.000000  0.353805  0.750000  1
  F  F35  1  0.000000  0.863048  0.250000  1
  F  F36  1  0.020407  0.089247  0.426244  1
  F  F37  1  0.020407  0.910753  0.926244  1
  F  F38  1  0.055089  0.244638  0.902744  1
  F  F39  1  0.055089  0.755362  0.402744  1
  F  F40  1  0.073984  0.262765  0.165757  1
  F  F41  1  0.073984  0.737235  0.665757  1
  F  F42  1  0.072507  0.419017  0.161338  1
  F  F43  1  0.072507  0.580983  0.661338  1
  F  F44  1  0.104913  0.574407  0.064497  1
  F  F45  1  0.104913  0.425593  0.564497  1
  F  F46  1  0.123578  0.340889  0.353267  1
  F  F47  1  0.123578  0.659111  0.853267  1
  F  F48  1  0.153662  0.247261  0.696073  1
  F  F49  1  0.153662  0.752739  0.196073  1
  F  F50  1  0.158272  0.033201  0.877963  1
  F  F51  1  0.158272  0.966799  0.377963  1
  F  F52  1  0.159420  0.560245  0.404547  1
  F  F53  1  0.159420  0.439755  0.904547  1
  F  F54  1  0.173820  0.101958  0.263545  1
  F  F55  1  0.173820  0.898042  0.763545  1
  F  F56  1  0.182958  0.041661  0.569251  1
  F  F57  1  0.182958  0.958339  0.069251  1
  F  F58  1  0.203472  0.180163  0.458737  1
  F  F59  1  0.203472  0.819837  0.958737  1
  F  F60  1  0.296527  0.319837  0.958737  1
  F  F61  1  0.296527  0.680163  0.458737  1
  F  F62  1  0.317041  0.458338  0.069251  1
  F  F63  1  0.317041  0.541662  0.569251  1
  F  F64  1  0.326179  0.601959  0.263545  1
  F  F65  1  0.326179  0.398041  0.763545  1
  F  F66  1  0.340581  0.060246  0.404549  1
  F  F67  1  0.340581  0.939754  0.904549  1
  F  F68  1  0.341730  0.533201  0.877963  1
  F  F69  1  0.341730  0.466799  0.377963  1
  F  F70  1  0.346339  0.252738  0.196073  1
  F  F71  1  0.346339  0.747262  0.696072  1
  F  F72  1  0.376422  0.159110  0.853266  1
  F  F73  1  0.376422  0.840890  0.353266  1
  F  F74  1  0.395086  0.074407  0.064496  1
  F  F75  1  0.395086  0.925593  0.564496  1
  F  F76  1  0.427493  0.080983  0.661337  1
  F  F77  1  0.427493  0.919017  0.161337  1
  F  F78  1  0.426016  0.237234  0.665758  1
  F  F79  1  0.426016  0.762766  0.165758  1
  F  F80  1  0.444911  0.255362  0.402744  1
  F  F81  1  0.444911  0.744638  0.902744  1
  F  F82  1  0.479592  0.410754  0.926245  1
  F  F83  1  0.479592  0.589246  0.426245  1
  F  F84  1  0.500000  0.363048  0.250000  1
  F  F85  1  0.500000  0.146195  0.250000  1
  F  F86  1  0.500000  0.636952  0.750000  1
  F  F87  1  0.500000  0.853805  0.750000  1
  F  F88  1  0.520408  0.410754  0.573755  1
  F  F89  1  0.520408  0.589246  0.073755  1
  F  F90  1  0.555089  0.255362  0.097256  1
  F  F91  1  0.555089  0.744638  0.597256  1
  F  F92  1  0.573984  0.762766  0.334242  1
  F  F93  1  0.573984  0.237234  0.834242  1
  F  F94  1  0.572507  0.919017  0.338663  1
  F  F95  1  0.572507  0.080983  0.838663  1
  F  F96  1  0.604914  0.074407  0.435504  1
  F  F97  1  0.604914  0.925593  0.935504  1
  F  F98  1  0.623578  0.159110  0.646734  1
  F  F99  1  0.623578  0.840890  0.146734  1
  F  F100  1  0.653661  0.252738  0.303928  1
  F  F101  1  0.653661  0.747262  0.803928  1
  F  F102  1  0.658270  0.466799  0.122037  1
  F  F103  1  0.658270  0.533201  0.622037  1
  F  F104  1  0.659419  0.060246  0.095451  1
  F  F105  1  0.659419  0.939754  0.595451  1
  F  F106  1  0.673821  0.398041  0.736455  1
  F  F107  1  0.673821  0.601959  0.236455  1
  F  F108  1  0.682959  0.458338  0.430749  1
  F  F109  1  0.682959  0.541662  0.930749  1
  F  F110  1  0.703473  0.319837  0.541263  1
  F  F111  1  0.703473  0.680163  0.041263  1
  F  F112  1  0.796528  0.180163  0.041263  1
  F  F113  1  0.796528  0.819837  0.541263  1
  F  F114  1  0.817042  0.041661  0.930749  1
  F  F115  1  0.817042  0.958339  0.430749  1
  F  F116  1  0.826180  0.101958  0.236455  1
  F  F117  1  0.826180  0.898042  0.736455  1
  F  F118  1  0.840580  0.439755  0.595453  1
  F  F119  1  0.840580  0.560245  0.095453  1
  F  F120  1  0.841728  0.033201  0.622037  1
  F  F121  1  0.841728  0.966799  0.122037  1
  F  F122  1  0.846338  0.752739  0.303927  1
  F  F123  1  0.846338  0.247261  0.803927  1
  F  F124  1  0.876422  0.340889  0.146733  1
  F  F125  1  0.876422  0.659111  0.646733  1
  F  F126  1  0.895087  0.425593  0.935503  1
  F  F127  1  0.895087  0.574407  0.435503  1
  F  F128  1  0.927493  0.419017  0.338662  1
  F  F129  1  0.927493  0.580983  0.838662  1
  F  F130  1  0.926016  0.262765  0.334243  1
  F  F131  1  0.926016  0.737235  0.834243  1
  F  F132  1  0.944911  0.244638  0.597256  1
  F  F133  1  0.944911  0.755362  0.097256  1
  F  F134  1  0.979593  0.910753  0.573756  1
  F  F135  1  0.979593  0.089247  0.073756  1
