# generated using pymatgen
data_Sb2H30C9(NCl3)3
_symmetry_space_group_name_H-M   'P 1'
_cell_length_a   10.21653623
_cell_length_b   9.25154719
_cell_length_c   15.77197064
_cell_angle_alpha   90.00000000
_cell_angle_beta   89.87047282
_cell_angle_gamma   90.00000000
_symmetry_Int_Tables_number   1
_chemical_formula_structural   Sb2H30C9(NCl3)3
_chemical_formula_sum   'Sb4 H60 C18 N6 Cl18'
_cell_volume   1490.74340861
_cell_formula_units_Z   2
loop_
 _symmetry_equiv_pos_site_id
 _symmetry_equiv_pos_as_xyz
  1  'x, y, z'
loop_
 _atom_site_type_symbol
 _atom_site_label
 _atom_site_symmetry_multiplicity
 _atom_site_fract_x
 _atom_site_fract_y
 _atom_site_fract_z
 _atom_site_occupancy
  Sb  Sb0  1  -0.000180  0.207947  0.499845  1
  Sb  Sb1  1  -0.000180  0.792053  0.999845  1
  Sb  Sb2  1  0.696757  0.290683  0.826823  1
  Sb  Sb3  1  0.696757  0.709317  0.326823  1
  H  H4  1  0.058267  0.308663  0.772379  1
  H  H5  1  0.058267  0.691337  0.272379  1
  H  H6  1  0.635053  0.119320  0.453592  1
  H  H7  1  0.635053  0.880680  0.953592  1
  H  H8  1  0.822501  0.395502  0.217135  1
  H  H9  1  0.822501  0.604498  0.717135  1
  H  H10  1  0.224704  0.480550  0.736070  1
  H  H11  1  0.224704  0.519450  0.236070  1
  H  H12  1  0.293424  0.458642  0.839747  1
  H  H13  1  0.293424  0.541358  0.339747  1
  H  H14  1  0.132043  0.534269  0.828646  1
  H  H15  1  0.132043  0.465731  0.328646  1
  H  H16  1  0.253370  0.235062  0.701272  1
  H  H17  1  0.253370  0.764938  0.201272  1
  H  H18  1  0.182580  0.095567  0.765847  1
  H  H19  1  0.182580  0.904433  0.265847  1
  H  H20  1  0.324181  0.193028  0.802563  1
  H  H21  1  0.324181  0.806972  0.302563  1
  H  H22  1  0.071566  0.156665  0.895316  1
  H  H23  1  0.071566  0.843335  0.395316  1
  H  H24  1  0.042222  0.343709  0.921882  1
  H  H25  1  0.042222  0.656291  0.421882  1
  H  H26  1  0.203311  0.266869  0.933692  1
  H  H27  1  0.203311  0.733131  0.433692  1
  H  H28  1  0.431620  0.988253  0.453556  1
  H  H29  1  0.431620  0.011747  0.953556  1
  H  H30  1  0.366599  0.121721  0.525201  1
  H  H31  1  0.366599  0.878279  0.025201  1
  H  H32  1  0.501157  0.009304  0.557052  1
  H  H33  1  0.501157  0.990696  0.057052  1
  H  H34  1  0.569903  0.326524  0.370640  1
  H  H35  1  0.569903  0.673476  0.870640  1
  H  H36  1  0.406378  0.305423  0.411361  1
  H  H37  1  0.406378  0.694577  0.911361  1
  H  H38  1  0.476513  0.167182  0.344858  1
  H  H39  1  0.476513  0.832818  0.844858  1
  H  H40  1  0.652853  0.359995  0.510741  1
  H  H41  1  0.652853  0.640005  0.010741  1
  H  H42  1  0.627601  0.223567  0.591151  1
  H  H43  1  0.627601  0.776433  0.091151  1
  H  H44  1  0.494270  0.336097  0.557834  1
  H  H45  1  0.494270  0.663903  0.057834  1
  H  H46  1  0.018516  0.430079  0.135697  1
  H  H47  1  0.018516  0.569921  0.635697  1
  H  H48  1  0.020330  0.237643  0.116354  1
  H  H49  1  0.020330  0.762357  0.616354  1
  H  H50  1  0.038430  0.304053  0.222276  1
  H  H51  1  0.038430  0.695947  0.722276  1
  H  H52  1  0.699240  0.177973  0.215442  1
  H  H53  1  0.699240  0.822027  0.715442  1
  H  H54  1  0.852645  0.153311  0.269270  1
  H  H55  1  0.852645  0.846689  0.769270  1
  H  H56  1  0.831007  0.091073  0.161265  1
  H  H57  1  0.831007  0.908927  0.661265  1
  H  H58  1  0.800649  0.444068  0.063885  1
  H  H59  1  0.800649  0.555932  0.563885  1
  H  H60  1  0.669375  0.340697  0.110117  1
  H  H61  1  0.669375  0.659303  0.610117  1
  H  H62  1  0.794170  0.249731  0.051022  1
  H  H63  1  0.794170  0.750269  0.551022  1
  C  C64  1  0.203037  0.456932  0.802805  1
  C  C65  1  0.203037  0.543068  0.302805  1
  C  C66  1  0.233374  0.199926  0.766402  1
  C  C67  1  0.233374  0.800074  0.266402  1
  C  C68  1  0.113187  0.265880  0.896415  1
  C  C69  1  0.113187  0.734120  0.396415  1
  C  C70  1  0.454785  0.065668  0.503869  1
  C  C71  1  0.454785  0.934332  0.003869  1
  C  C72  1  0.496446  0.249205  0.393406  1
  C  C73  1  0.496446  0.750795  0.893406  1
  C  C74  1  0.583826  0.281570  0.537599  1
  C  C75  1  0.583826  0.718430  0.037599  1
  C  C76  1  0.992334  0.323484  0.160736  1
  C  C77  1  0.992334  0.676516  0.660736  1
  C  C78  1  0.805474  0.173920  0.208251  1
  C  C79  1  0.805474  0.826080  0.708251  1
  C  C80  1  0.773196  0.341269  0.093259  1
  C  C81  1  0.773196  0.658731  0.593259  1
  N  N82  1  0.145448  0.308610  0.807247  1
  N  N83  1  0.145448  0.691390  0.307247  1
  N  N84  1  0.549067  0.174809  0.470175  1
  N  N85  1  0.549067  0.825191  0.970175  1
  N  N86  1  0.847769  0.316429  0.173194  1
  N  N87  1  0.847769  0.683571  0.673194  1
  Cl  Cl88  1  0.116249  0.015756  0.573020  1
  Cl  Cl89  1  0.116249  0.984244  0.073020  1
  Cl  Cl90  1  0.122159  0.160577  0.369241  1
  Cl  Cl91  1  0.122159  0.839423  0.869241  1
  Cl  Cl92  1  0.173355  0.387890  0.542125  1
  Cl  Cl93  1  0.173355  0.612110  0.042125  1
  Cl  Cl94  1  0.847928  0.448406  0.383501  1
  Cl  Cl95  1  0.847928  0.551594  0.883501  1
  Cl  Cl96  1  0.885317  0.276130  0.688092  1
  Cl  Cl97  1  0.885317  0.723870  0.188092  1
  Cl  Cl98  1  0.815128  0.989639  0.447004  1
  Cl  Cl99  1  0.815128  0.010361  0.947004  1
  Cl  Cl100  1  0.570842  0.087701  0.763482  1
  Cl  Cl101  1  0.570842  0.912299  0.263482  1
  Cl  Cl102  1  0.527259  0.324418  0.939523  1
  Cl  Cl103  1  0.527259  0.675582  0.439523  1
  Cl  Cl104  1  0.578957  0.462254  0.738002  1
  Cl  Cl105  1  0.578957  0.537746  0.238002  1
