# generated using pymatgen
data_Li2MnV(P2O7)2
_symmetry_space_group_name_H-M   'P 1'
_cell_length_a   9.71202902
_cell_length_b   8.31111050
_cell_length_c   7.16634009
_cell_angle_alpha   90.00000000
_cell_angle_beta   68.80169642
_cell_angle_gamma   90.00000000
_symmetry_Int_Tables_number   1
_chemical_formula_structural   Li2MnV(P2O7)2
_chemical_formula_sum   'Li4 Mn2 V2 P8 O28'
_cell_volume   539.30966215
_cell_formula_units_Z   2
loop_
 _symmetry_equiv_pos_site_id
 _symmetry_equiv_pos_as_xyz
  1  'x, y, z'
loop_
 _atom_site_type_symbol
 _atom_site_label
 _atom_site_symmetry_multiplicity
 _atom_site_fract_x
 _atom_site_fract_y
 _atom_site_fract_z
 _atom_site_occupancy
  Li  Li0  1  0.249610  0.360207  0.326954  1
  Li  Li1  1  0.251156  0.859314  0.674065  1
  Li  Li2  1  0.748844  0.359314  0.325935  1
  Li  Li3  1  0.750390  0.860207  0.673046  1
  Mn  Mn4  1  0.242172  0.499082  0.729705  1
  Mn  Mn5  1  0.757828  0.999082  0.270295  1
  V  V6  1  0.256985  0.999709  0.272891  1
  V  V7  1  0.743015  0.499709  0.727109  1
  P  P8  1  0.061295  0.788513  0.088102  1
  P  P9  1  0.061077  0.679774  0.477399  1
  P  P10  1  0.441481  0.177973  0.516708  1
  P  P11  1  0.563886  0.783478  0.088811  1
  P  P12  1  0.436114  0.283478  0.911189  1
  P  P13  1  0.558519  0.677973  0.483291  1
  P  P14  1  0.938923  0.179774  0.522601  1
  P  P15  1  0.938705  0.288513  0.911898  1
  O  O16  1  0.077400  0.655238  0.246480  1
  O  O17  1  0.154543  0.937560  0.090128  1
  O  O18  1  0.104238  0.176810  0.395386  1
  O  O19  1  0.129614  0.842595  0.493604  1
  O  O20  1  0.147589  0.537109  0.516810  1
  O  O21  1  0.103188  0.328051  0.849015  1
  O  O22  1  0.119700  0.705495  0.886299  1
  O  O23  1  0.376235  0.195055  0.111393  1
  O  O24  1  0.401620  0.825797  0.148407  1
  O  O25  1  0.353026  0.035180  0.481532  1
  O  O26  1  0.377634  0.340175  0.492877  1
  O  O27  1  0.392018  0.671540  0.609774  1
  O  O28  1  0.342056  0.433203  0.913910  1
  O  O29  1  0.422551  0.153723  0.748791  1
  O  O30  1  0.577449  0.653723  0.251209  1
  O  O31  1  0.657944  0.933203  0.086090  1
  O  O32  1  0.607982  0.171540  0.390226  1
  O  O33  1  0.622366  0.840175  0.507123  1
  O  O34  1  0.646974  0.535180  0.518468  1
  O  O35  1  0.598380  0.325797  0.851593  1
  O  O36  1  0.623765  0.695055  0.888607  1
  O  O37  1  0.880300  0.205495  0.113701  1
  O  O38  1  0.896812  0.828051  0.150985  1
  O  O39  1  0.852411  0.037109  0.483190  1
  O  O40  1  0.870386  0.342595  0.506396  1
  O  O41  1  0.895762  0.676810  0.604614  1
  O  O42  1  0.845457  0.437560  0.909872  1
  O  O43  1  0.922600  0.155238  0.753520  1
