# generated using pymatgen
data_Li4Mn3V2Sb3O16
_symmetry_space_group_name_H-M   'P 1'
_cell_length_a   6.28061001
_cell_length_b   6.14411691
_cell_length_c   9.81812336
_cell_angle_alpha   90.03596842
_cell_angle_beta   92.41789198
_cell_angle_gamma   119.65647906
_symmetry_Int_Tables_number   1
_chemical_formula_structural   Li4Mn3V2Sb3O16
_chemical_formula_sum   'Li4 Mn3 V2 Sb3 O16'
_cell_volume   328.84656835
_cell_formula_units_Z   1
loop_
 _symmetry_equiv_pos_site_id
 _symmetry_equiv_pos_as_xyz
  1  'x, y, z'
loop_
 _atom_site_type_symbol
 _atom_site_label
 _atom_site_symmetry_multiplicity
 _atom_site_fract_x
 _atom_site_fract_y
 _atom_site_fract_z
 _atom_site_occupancy
  Li  Li0  1  0.322597  0.662938  0.885671  1
  Li  Li1  1  0.977819  0.987151  0.984876  1
  Li  Li2  1  0.994084  0.995994  0.502832  1
  Li  Li3  1  0.638149  0.320659  0.403527  1
  Mn  Mn4  1  0.661733  0.831935  0.213681  1
  Mn  Mn5  1  0.829988  0.660366  0.710396  1
  Mn  Mn6  1  0.838570  0.173575  0.709378  1
  V  V7  1  0.356677  0.675460  0.499803  1
  V  V8  1  0.701481  0.353480  0.972564  1
  Sb  Sb9  1  0.167930  0.830909  0.216386  1
  Sb  Sb10  1  0.166354  0.334995  0.214963  1
  Sb  Sb11  1  0.344471  0.173355  0.715727  1
  O  O12  1  0.193623  0.853140  0.596982  1
  O  O13  1  0.035646  0.516719  0.335837  1
  O  O14  1  0.306870  0.654225  0.102306  1
  O  O15  1  0.018170  0.007559  0.317878  1
  O  O16  1  0.017423  0.994207  0.803009  1
  O  O17  1  0.185416  0.329830  0.598812  1
  O  O18  1  0.462294  0.959922  0.341480  1
  O  O19  1  0.458128  0.501874  0.341830  1
  O  O20  1  0.309201  0.153838  0.106964  1
  O  O21  1  0.675595  0.823717  0.589731  1
  O  O22  1  0.502965  0.471640  0.846347  1
  O  O23  1  0.510398  0.043714  0.851188  1
  O  O24  1  0.651812  0.338672  0.606556  1
  O  O25  1  0.857429  0.678348  0.097585  1
  O  O26  1  0.952927  0.496025  0.845021  1
  O  O27  1  0.862253  0.176052  0.096508  1
