# generated using pymatgen
data_LiSn2(PO4)3
_symmetry_space_group_name_H-M   'P 1'
_cell_length_a   12.32149761
_cell_length_b   8.75974040
_cell_length_c   8.87811013
_cell_angle_alpha   90.00000000
_cell_angle_beta   90.00000000
_cell_angle_gamma   90.00000000
_symmetry_Int_Tables_number   1
_chemical_formula_structural   LiSn2(PO4)3
_chemical_formula_sum   'Li4 Sn8 P12 O48'
_cell_volume   958.24212961
_cell_formula_units_Z   4
loop_
 _symmetry_equiv_pos_site_id
 _symmetry_equiv_pos_as_xyz
  1  'x, y, z'
loop_
 _atom_site_type_symbol
 _atom_site_label
 _atom_site_symmetry_multiplicity
 _atom_site_fract_x
 _atom_site_fract_y
 _atom_site_fract_z
 _atom_site_occupancy
  Li  Li0  1  0.676750  0.215501  0.780365  1
  Li  Li1  1  0.676750  0.784499  0.280365  1
  Li  Li2  1  0.823250  0.284499  0.280365  1
  Li  Li3  1  0.823250  0.715501  0.780365  1
  Sn  Sn4  1  0.123160  0.250796  0.539202  1
  Sn  Sn5  1  0.123160  0.749204  0.039202  1
  Sn  Sn6  1  0.376840  0.750796  0.539202  1
  Sn  Sn7  1  0.376840  0.249204  0.039202  1
  Sn  Sn8  1  0.610093  0.252381  0.458758  1
  Sn  Sn9  1  0.610093  0.747619  0.958758  1
  Sn  Sn10  1  0.889907  0.247619  0.958758  1
  Sn  Sn11  1  0.889907  0.752381  0.458758  1
  P  P12  1  0.001108  0.042080  0.251463  1
  P  P13  1  0.001108  0.957920  0.751463  1
  P  P14  1  0.149134  0.601826  0.392331  1
  P  P15  1  0.350866  0.101826  0.392331  1
  P  P16  1  0.350866  0.898174  0.892331  1
  P  P17  1  0.498892  0.457920  0.751463  1
  P  P18  1  0.498892  0.542080  0.251463  1
  P  P19  1  0.647862  0.105143  0.105079  1
  P  P20  1  0.647862  0.894857  0.605079  1
  P  P21  1  0.852138  0.394857  0.605079  1
  P  P22  1  0.852138  0.605143  0.105079  1
  P  P23  1  0.149134  0.398174  0.892331  1
  O  O24  1  0.030879  0.648544  0.430450  1
  O  O25  1  0.030879  0.351456  0.930450  1
  O  O26  1  0.072791  0.856494  0.847631  1
  O  O27  1  0.072791  0.143506  0.347631  1
  O  O28  1  0.069711  0.054655  0.646080  1
  O  O29  1  0.069711  0.945345  0.146080  1
  O  O30  1  0.157173  0.426686  0.397067  1
  O  O31  1  0.157173  0.573314  0.897067  1
  O  O32  1  0.179271  0.347313  0.731753  1
  O  O33  1  0.179271  0.652687  0.231754  1
  O  O34  1  0.222720  0.325630  0.012246  1
  O  O35  1  0.222720  0.674370  0.512246  1
  O  O36  1  0.277280  0.825630  0.012246  1
  O  O37  1  0.277280  0.174370  0.512246  1
  O  O38  1  0.320729  0.847313  0.731753  1
  O  O39  1  0.320729  0.152687  0.231754  1
  O  O40  1  0.342827  0.073314  0.897067  1
  O  O41  1  0.342827  0.926686  0.397067  1
  O  O42  1  0.430289  0.554655  0.646080  1
  O  O43  1  0.430289  0.445345  0.146080  1
  O  O44  1  0.427209  0.643506  0.347631  1
  O  O45  1  0.427209  0.356494  0.847631  1
  O  O46  1  0.469121  0.148544  0.430450  1
  O  O47  1  0.469121  0.851456  0.930450  1
  O  O48  1  0.533817  0.155321  0.067630  1
  O  O49  1  0.533817  0.844679  0.567630  1
  O  O50  1  0.578960  0.348677  0.664387  1
  O  O51  1  0.578960  0.651323  0.164387  1
  O  O52  1  0.579458  0.446843  0.347630  1
  O  O53  1  0.579458  0.553157  0.847630  1
  O  O54  1  0.659990  0.072669  0.604646  1
  O  O55  1  0.659990  0.927331  0.104646  1
  O  O56  1  0.685551  0.160232  0.264503  1
  O  O57  1  0.685551  0.839768  0.764503  1
  O  O58  1  0.726249  0.173139  0.983577  1
  O  O59  1  0.726249  0.826861  0.483577  1
  O  O60  1  0.773751  0.326861  0.483577  1
  O  O61  1  0.773751  0.673139  0.983577  1
  O  O62  1  0.814449  0.339768  0.764503  1
  O  O63  1  0.814449  0.660232  0.264503  1
  O  O64  1  0.840010  0.427331  0.104646  1
  O  O65  1  0.840010  0.572669  0.604646  1
  O  O66  1  0.920542  0.053157  0.847630  1
  O  O67  1  0.920542  0.946843  0.347630  1
  O  O68  1  0.921040  0.151323  0.164387  1
  O  O69  1  0.921040  0.848677  0.664387  1
  O  O70  1  0.966183  0.344679  0.567630  1
  O  O71  1  0.966183  0.655321  0.067630  1
