# generated using pymatgen
data_Li2Ni(PO3)4
_symmetry_space_group_name_H-M   'P 1'
_cell_length_a   6.53503242
_cell_length_b   6.53503242
_cell_length_c   7.17954007
_cell_angle_alpha   118.17473434
_cell_angle_beta   117.80594001
_cell_angle_gamma   88.21136935
_symmetry_Int_Tables_number   1
_chemical_formula_structural   Li2Ni(PO3)4
_chemical_formula_sum   'Li2 Ni1 P4 O12'
_cell_volume   231.94216070
_cell_formula_units_Z   1
loop_
 _symmetry_equiv_pos_site_id
 _symmetry_equiv_pos_as_xyz
  1  'x, y, z'
loop_
 _atom_site_type_symbol
 _atom_site_label
 _atom_site_symmetry_multiplicity
 _atom_site_fract_x
 _atom_site_fract_y
 _atom_site_fract_z
 _atom_site_occupancy
  Li  Li0  1  0.352141  0.352141  0.000000  1
  Li  Li1  1  0.644483  0.644483  0.000000  1
  Ni  Ni2  1  0.690497  0.190497  0.500000  1
  P  P3  1  0.852927  0.262179  0.014002  1
  P  P4  1  0.151385  0.126726  0.371262  1
  P  P5  1  0.755463  0.780122  0.628738  1
  P  P6  1  0.248176  0.838926  0.985998  1
  O  O7  1  0.696571  0.405208  0.093892  1
  O  O8  1  0.092185  0.294950  0.252720  1
  O  O9  1  0.937988  0.318464  0.876242  1
  O  O10  1  0.408682  0.214012  0.568375  1
  O  O11  1  0.962768  0.089752  0.421449  1
  O  O12  1  0.668303  0.541318  0.578551  1
  O  O13  1  0.645636  0.840307  0.431625  1
  O  O14  1  0.442223  0.061747  0.123758  1
  O  O15  1  0.119140  0.868202  0.140319  1
  O  O16  1  0.727883  0.978821  0.859681  1
  O  O17  1  0.311317  0.602679  0.906108  1
  O  O18  1  0.042230  0.839464  0.747280  1
