# generated using pymatgen
data_LiNb(PO3)4
_symmetry_space_group_name_H-M   'P 1'
_cell_length_a   5.41934488
_cell_length_b   10.51927608
_cell_length_c   10.51927608
_cell_angle_alpha   70.17423539
_cell_angle_beta   99.00956160
_cell_angle_gamma   99.00956160
_symmetry_Int_Tables_number   1
_chemical_formula_structural   LiNb(PO3)4
_chemical_formula_sum   'Li2 Nb2 P8 O24'
_cell_volume   553.70753219
_cell_formula_units_Z   2
loop_
 _symmetry_equiv_pos_site_id
 _symmetry_equiv_pos_as_xyz
  1  'x, y, z'
loop_
 _atom_site_type_symbol
 _atom_site_label
 _atom_site_symmetry_multiplicity
 _atom_site_fract_x
 _atom_site_fract_y
 _atom_site_fract_z
 _atom_site_occupancy
  Li  Li0  1  0.391644  0.437600  0.437600  1
  Li  Li1  1  0.608356  0.562400  0.562400  1
  Nb  Nb2  1  0.000000  0.500000  0.000000  1
  Nb  Nb3  1  0.000000  0.000000  0.500000  1
  P  P4  1  0.178118  0.367892  0.779897  1
  P  P5  1  0.178118  0.779897  0.367892  1
  P  P6  1  0.536971  0.939202  0.700453  1
  P  P7  1  0.536971  0.700453  0.939202  1
  P  P8  1  0.463029  0.060798  0.299547  1
  P  P9  1  0.463029  0.299547  0.060798  1
  P  P10  1  0.821882  0.220103  0.632108  1
  P  P11  1  0.821882  0.632108  0.220103  1
  O  O12  1  0.000000  0.233093  0.766907  1
  O  O13  1  0.000000  0.766907  0.233093  1
  O  O14  1  0.253409  0.677555  0.923717  1
  O  O15  1  0.253409  0.923717  0.677555  1
  O  O16  1  0.984612  0.179913  0.549503  1
  O  O17  1  0.984612  0.549503  0.179913  1
  O  O18  1  0.318525  0.434349  0.659603  1
  O  O19  1  0.318525  0.659603  0.434349  1
  O  O20  1  0.368816  0.909951  0.296725  1
  O  O21  1  0.368816  0.296725  0.909951  1
  O  O22  1  0.619561  0.857218  0.857218  1
  O  O23  1  0.327182  0.102536  0.390388  1
  O  O24  1  0.327182  0.390388  0.102536  1
  O  O25  1  0.672818  0.609612  0.897464  1
  O  O26  1  0.672818  0.897464  0.609612  1
  O  O27  1  0.380439  0.142782  0.142782  1
  O  O28  1  0.631184  0.090049  0.703275  1
  O  O29  1  0.631184  0.703275  0.090049  1
  O  O30  1  0.681475  0.340397  0.565651  1
  O  O31  1  0.681475  0.565651  0.340397  1
  O  O32  1  0.015388  0.450497  0.820087  1
  O  O33  1  0.015388  0.820087  0.450497  1
  O  O34  1  0.746591  0.076283  0.322445  1
  O  O35  1  0.746591  0.322445  0.076283  1
