# generated using pymatgen
data_Li2VCrP2(HO5)2
_symmetry_space_group_name_H-M   'P 1'
_cell_length_a   7.97392440
_cell_length_b   7.38147090
_cell_length_c   6.94921498
_cell_angle_alpha   117.22489611
_cell_angle_beta   87.29141286
_cell_angle_gamma   88.97166768
_symmetry_Int_Tables_number   1
_chemical_formula_structural   Li2VCrP2(HO5)2
_chemical_formula_sum   'Li4 V2 Cr2 P4 H4 O20'
_cell_volume   362.94606716
_cell_formula_units_Z   2
loop_
 _symmetry_equiv_pos_site_id
 _symmetry_equiv_pos_as_xyz
  1  'x, y, z'
loop_
 _atom_site_type_symbol
 _atom_site_label
 _atom_site_symmetry_multiplicity
 _atom_site_fract_x
 _atom_site_fract_y
 _atom_site_fract_z
 _atom_site_occupancy
  Li  Li0  1  0.325629  0.822246  0.073059  1
  Li  Li1  1  0.174738  0.177179  0.428601  1
  Li  Li2  1  0.825262  0.822821  0.571399  1
  Li  Li3  1  0.674371  0.177754  0.926941  1
  V  V4  1  0.000000  0.000000  0.000000  1
  V  V5  1  0.500000  0.500000  0.500000  1
  Cr  Cr6  1  0.000000  0.500000  0.000000  1
  Cr  Cr7  1  0.500000  0.000000  0.500000  1
  P  P8  1  0.158295  0.767018  0.479116  1
  P  P9  1  0.341613  0.232572  0.017846  1
  P  P10  1  0.658387  0.767428  0.982154  1
  P  P11  1  0.841705  0.232982  0.520884  1
  H  H12  1  0.150778  0.659188  0.790505  1
  H  H13  1  0.650674  0.663047  0.290904  1
  H  H14  1  0.349326  0.336953  0.709096  1
  H  H15  1  0.849222  0.340812  0.209495  1
  O  O16  1  0.019503  0.658158  0.323123  1
  O  O17  1  0.226772  0.119733  0.113295  1
  O  O18  1  0.274413  0.879528  0.385334  1
  O  O19  1  0.058928  0.926039  0.686791  1
  O  O20  1  0.558965  0.927938  0.189089  1
  O  O21  1  0.261284  0.618859  0.534296  1
  O  O22  1  0.480329  0.342822  0.175114  1
  O  O23  1  0.761872  0.618713  0.034398  1
  O  O24  1  0.104604  0.722595  0.943203  1
  O  O25  1  0.607069  0.728203  0.444425  1
  O  O26  1  0.392931  0.271797  0.555575  1
  O  O27  1  0.895396  0.277405  0.056797  1
  O  O28  1  0.238128  0.381287  0.965602  1
  O  O29  1  0.519671  0.657178  0.824886  1
  O  O30  1  0.738716  0.381141  0.465704  1
  O  O31  1  0.441035  0.072062  0.810911  1
  O  O32  1  0.941071  0.073961  0.313209  1
  O  O33  1  0.725587  0.120472  0.614666  1
  O  O34  1  0.773228  0.880267  0.886705  1
  O  O35  1  0.980497  0.341842  0.676877  1
