# generated using pymatgen
data_Li3Fe5(PO4)6
_symmetry_space_group_name_H-M   'P 1'
_cell_length_a   9.11463686
_cell_length_b   8.40222423
_cell_length_c   8.85579623
_cell_angle_alpha   105.23321539
_cell_angle_beta   115.74876152
_cell_angle_gamma   112.86687164
_symmetry_Int_Tables_number   1
_chemical_formula_structural   Li3Fe5(PO4)6
_chemical_formula_sum   'Li3 Fe5 P6 O24'
_cell_volume   480.77204011
_cell_formula_units_Z   1
loop_
 _symmetry_equiv_pos_site_id
 _symmetry_equiv_pos_as_xyz
  1  'x, y, z'
loop_
 _atom_site_type_symbol
 _atom_site_label
 _atom_site_symmetry_multiplicity
 _atom_site_fract_x
 _atom_site_fract_y
 _atom_site_fract_z
 _atom_site_occupancy
  Li  Li0  1  0.318537  0.517800  0.018670  1
  Li  Li1  1  0.706158  0.650177  0.702966  1
  Li  Li2  1  0.064834  0.828483  0.538870  1
  Fe  Fe3  1  0.823684  0.540495  0.980496  1
  Fe  Fe4  1  0.553008  0.961139  0.314576  1
  Fe  Fe5  1  0.227069  0.242089  0.189725  1
  Fe  Fe6  1  0.495001  0.021604  0.813720  1
  Fe  Fe7  1  0.997655  0.309964  0.547194  1
  P  P8  1  0.844984  0.098880  0.769143  1
  P  P9  1  0.655666  0.372029  0.245172  1
  P  P10  1  0.729378  0.888361  0.118078  1
  P  P11  1  0.345449  0.247052  0.595566  1
  P  P12  1  0.244740  0.638404  0.359255  1
  P  P13  1  0.143102  0.742397  0.884916  1
  O  O14  1  0.902987  0.099983  0.301666  1
  O  O15  1  0.627342  0.288047  0.046388  1
  O  O16  1  0.824396  0.119536  0.586235  1
  O  O17  1  0.708602  0.255527  0.353223  1
  O  O18  1  0.812298  0.768427  0.077863  1
  O  O19  1  0.450291  0.327157  0.191899  1
  O  O20  1  0.728510  0.179116  0.810296  1
  O  O21  1  0.814124  0.594007  0.375107  1
  O  O22  1  0.270783  0.162474  0.379095  1
  O  O23  1  0.310452  0.075179  0.637143  1
  O  O24  1  0.584016  0.779809  0.162959  1
  O  O25  1  0.406839  0.736063  0.332537  1
  O  O26  1  0.205185  0.432385  0.329309  1
  O  O27  1  0.941354  0.661384  0.856005  1
  O  O28  1  0.572303  0.417033  0.726941  1
  O  O29  1  0.248262  0.341330  0.653695  1
  O  O30  1  0.309283  0.891106  0.109210  1
  O  O31  1  0.761534  0.885225  0.714800  1
  O  O32  1  0.309197  0.758715  0.564951  1
  O  O33  1  0.050787  0.605849  0.204947  1
  O  O34  1  0.612287  0.906396  0.944143  1
  O  O35  1  0.073403  0.243327  0.945233  1
  O  O36  1  0.142864  0.551063  0.806892  1
  O  O37  1  0.183639  0.861987  0.788966  1
