# generated using pymatgen
data_Li4VCr3O8
_symmetry_space_group_name_H-M   'P 1'
_cell_length_a   5.13407093
_cell_length_b   7.87012594
_cell_length_c   7.86984700
_cell_angle_alpha   82.08116031
_cell_angle_beta   70.98362438
_cell_angle_gamma   83.68505013
_symmetry_Int_Tables_number   1
_chemical_formula_structural   Li4VCr3O8
_chemical_formula_sum   'Li8 V2 Cr6 O16'
_cell_volume   297.04605663
_cell_formula_units_Z   2
loop_
 _symmetry_equiv_pos_site_id
 _symmetry_equiv_pos_as_xyz
  1  'x, y, z'
loop_
 _atom_site_type_symbol
 _atom_site_label
 _atom_site_symmetry_multiplicity
 _atom_site_fract_x
 _atom_site_fract_y
 _atom_site_fract_z
 _atom_site_occupancy
  Li  Li0  1  0.998857  0.999589  0.000738  1
  Li  Li1  1  0.999108  0.250145  0.250509  1
  Li  Li2  1  0.001343  0.625383  0.124094  1
  Li  Li3  1  0.999077  0.126330  0.624420  1
  Li  Li4  1  0.000916  0.498445  0.500680  1
  Li  Li5  1  0.002267  0.877531  0.371897  1
  Li  Li6  1  0.000867  0.374831  0.874492  1
  Li  Li7  1  0.997530  0.747652  0.753155  1
  V  V8  1  0.500000  0.688990  0.439024  1
  V  V9  1  0.500008  0.936011  0.685972  1
  Cr  Cr10  1  0.500017  0.064408  0.310673  1
  Cr  Cr11  1  0.500024  0.438041  0.187953  1
  Cr  Cr12  1  0.499988  0.812511  0.062511  1
  Cr  Cr13  1  0.500021  0.312505  0.562505  1
  Cr  Cr14  1  0.499912  0.186985  0.937061  1
  Cr  Cr15  1  0.500013  0.560613  0.814318  1
  O  O16  1  0.275088  0.030974  0.149194  1
  O  O17  1  0.724637  0.220558  0.098324  1
  O  O18  1  0.275299  0.404463  0.026700  1
  O  O19  1  0.727087  0.096274  0.470380  1
  O  O20  1  0.274612  0.282147  0.400397  1
  O  O21  1  0.274575  0.656632  0.275978  1
  O  O22  1  0.725352  0.469832  0.350239  1
  O  O23  1  0.274670  0.155144  0.774736  1
  O  O24  1  0.272998  0.528759  0.654554  1
  O  O25  1  0.727238  0.847756  0.222213  1
  O  O26  1  0.725371  0.342847  0.724616  1
  O  O27  1  0.268916  0.908302  0.524509  1
  O  O28  1  0.731103  0.716729  0.600515  1
  O  O29  1  0.272776  0.777219  0.902804  1
  O  O30  1  0.724910  0.594022  0.975827  1
  O  O31  1  0.725418  0.968372  0.849013  1
