# generated using pymatgen
data_SiMo12H24C6N3O40
_symmetry_space_group_name_H-M   'P 1'
_cell_length_a   13.02263001
_cell_length_b   13.02263001
_cell_length_c   13.02263010
_cell_angle_alpha   81.02943674
_cell_angle_beta   81.02943672
_cell_angle_gamma   81.02943582
_symmetry_Int_Tables_number   1
_chemical_formula_structural   SiMo12H24C6N3O40
_chemical_formula_sum   'Si2 Mo24 H48 C12 N6 O80'
_cell_volume   2135.10318052
_cell_formula_units_Z   2
loop_
 _symmetry_equiv_pos_site_id
 _symmetry_equiv_pos_as_xyz
  1  'x, y, z'
loop_
 _atom_site_type_symbol
 _atom_site_label
 _atom_site_symmetry_multiplicity
 _atom_site_fract_x
 _atom_site_fract_y
 _atom_site_fract_z
 _atom_site_occupancy
  Si  Si0  1  0.765537  0.765537  0.765537  1
  Si  Si1  1  0.234463  0.234463  0.234463  1
  Mo  Mo2  1  0.948755  0.746534  0.948755  1
  Mo  Mo3  1  0.746534  0.948755  0.948755  1
  Mo  Mo4  1  0.948755  0.948755  0.746534  1
  Mo  Mo5  1  0.051245  0.253466  0.051245  1
  Mo  Mo6  1  0.253466  0.051245  0.051245  1
  Mo  Mo7  1  0.051245  0.051245  0.253466  1
  Mo  Mo8  1  0.756134  0.553339  0.978072  1
  Mo  Mo9  1  0.553339  0.978072  0.756134  1
  Mo  Mo10  1  0.978072  0.756134  0.553339  1
  Mo  Mo11  1  0.756135  0.978074  0.553341  1
  Mo  Mo12  1  0.978074  0.553341  0.756135  1
  Mo  Mo13  1  0.553341  0.756135  0.978074  1
  Mo  Mo14  1  0.243866  0.446661  0.021928  1
  Mo  Mo15  1  0.446661  0.021928  0.243866  1
  Mo  Mo16  1  0.021928  0.243866  0.446661  1
  Mo  Mo17  1  0.243865  0.021926  0.446659  1
  Mo  Mo18  1  0.021926  0.446659  0.243865  1
  Mo  Mo19  1  0.446659  0.243865  0.021926  1
  Mo  Mo20  1  0.581455  0.581457  0.802995  1
  Mo  Mo21  1  0.581457  0.802995  0.581455  1
  Mo  Mo22  1  0.802995  0.581455  0.581457  1
  Mo  Mo23  1  0.418545  0.418542  0.197005  1
  Mo  Mo24  1  0.418542  0.197005  0.418545  1
  Mo  Mo25  1  0.197005  0.418545  0.418542  1
  H  H26  1  0.789346  0.691661  0.170617  1
  H  H27  1  0.691661  0.170617  0.789346  1
  H  H28  1  0.170617  0.789346  0.691661  1
  H  H29  1  0.789348  0.170621  0.691667  1
  H  H30  1  0.170621  0.691667  0.789348  1
  H  H31  1  0.691667  0.789348  0.170621  1
  H  H32  1  0.210654  0.308339  0.829383  1
  H  H33  1  0.308339  0.829383  0.210654  1
  H  H34  1  0.829383  0.210654  0.308339  1
  H  H35  1  0.210652  0.829379  0.308333  1
  H  H36  1  0.829379  0.308333  0.210652  1
  H  H37  1  0.308333  0.210652  0.829379  1
  H  H38  1  0.627994  0.627995  0.244811  1
  H  H39  1  0.627995  0.244811  0.627994  1
  H  H40  1  0.244811  0.627994  0.627995  1
  H  H41  1  0.372006  0.372005  0.755189  1
  H  H42  1  0.372005  0.755189  0.372006  1
  H  H43  1  0.755189  0.372006  0.372005  1
  H  H44  1  0.610838  0.717001  0.340750  1
  H  H45  1  0.717001  0.340750  0.610838  1
  H  H46  1  0.340750  0.610838  0.717001  1
  H  H47  1  0.610833  0.340751  0.717001  1
  H  H48  1  0.340751  0.717001  0.610833  1
  H  H49  1  0.717001  0.610833  0.340751  1
  H  H50  1  0.389162  0.282999  0.659250  1
  H  H51  1  0.282999  0.659250  0.389162  1
  H  H52  1  0.659250  0.389162  0.282999  1
  H  H53  1  0.389167  0.659249  0.282999  1
  H  H54  1  0.659249  0.282999  0.389167  1
  H  H55  1  0.282999  0.389167  0.659249  1
  H  H56  1  0.844446  0.844424  0.214192  1
  H  H57  1  0.844424  0.214192  0.844446  1
  H  H58  1  0.214192  0.844446  0.844424  1
  H  H59  1  0.155554  0.155576  0.785808  1
  H  H60  1  0.155576  0.785808  0.155554  1
  H  H61  1  0.785808  0.155554  0.155576  1
  H  H62  1  0.846441  0.740300  0.322385  1
  H  H63  1  0.740300  0.322385  0.846441  1
  H  H64  1  0.322385  0.846441  0.740300  1
  H  H65  1  0.846425  0.322390  0.740327  1
  H  H66  1  0.322390  0.740327  0.846425  1
  H  H67  1  0.740327  0.846425  0.322390  1
  H  H68  1  0.153559  0.259700  0.677615  1
  H  H69  1  0.259700  0.677615  0.153559  1
  H  H70  1  0.677615  0.153559  0.259700  1
  H  H71  1  0.153575  0.677610  0.259673  1
  H  H72  1  0.677610  0.259673  0.153575  1
  H  H73  1  0.259673  0.153575  0.677610  1
  C  C74  1  0.667965  0.667963  0.291796  1
  C  C75  1  0.667963  0.291796  0.667965  1
  C  C76  1  0.291796  0.667965  0.667963  1
  C  C77  1  0.332035  0.332037  0.708204  1
  C  C78  1  0.332037  0.708204  0.332035  1
  C  C79  1  0.708204  0.332035  0.332037  1
  C  C80  1  0.796579  0.796556  0.273531  1
  C  C81  1  0.796556  0.273531  0.796579  1
  C  C82  1  0.273531  0.796579  0.796556  1
  C  C83  1  0.203421  0.203444  0.726469  1
  C  C84  1  0.203444  0.726469  0.203421  1
  C  C85  1  0.726469  0.203421  0.203444  1
  N  N86  1  0.736971  0.736965  0.219073  1
  N  N87  1  0.736965  0.219073  0.736971  1
  N  N88  1  0.219073  0.736971  0.736965  1
  N  N89  1  0.263029  0.263035  0.780927  1
  N  N90  1  0.263035  0.780927  0.263029  1
  N  N91  1  0.780927  0.263029  0.263035  1
  O  O92  1  0.829117  0.829117  0.829117  1
  O  O93  1  0.170883  0.170883  0.170883  1
  O  O94  1  0.691570  0.691569  0.850362  1
  O  O95  1  0.691569  0.850362  0.691570  1
  O  O96  1  0.850362  0.691570  0.691569  1
  O  O97  1  0.308430  0.308431  0.149638  1
  O  O98  1  0.308431  0.149638  0.308430  1
  O  O99  1  0.149638  0.308430  0.308431  1
  O  O100  1  0.036980  0.712346  0.036982  1
  O  O101  1  0.712346  0.036982  0.036980  1
  O  O102  1  0.036982  0.036980  0.712346  1
  O  O103  1  0.963020  0.287654  0.963018  1
  O  O104  1  0.287654  0.963018  0.963020  1
  O  O105  1  0.963018  0.963020  0.287654  1
  O  O106  1  0.855894  0.855896  0.017472  1
  O  O107  1  0.855896  0.017472  0.855894  1
  O  O108  1  0.017472  0.855894  0.855896  1
  O  O109  1  0.144106  0.144104  0.982528  1
  O  O110  1  0.144104  0.982528  0.144106  1
  O  O111  1  0.982528  0.144106  0.144104  1
  O  O112  1  0.845778  0.651401  0.003132  1
  O  O113  1  0.651401  0.003132  0.845778  1
  O  O114  1  0.003132  0.845778  0.651401  1
  O  O115  1  0.845780  0.003130  0.651401  1
  O  O116  1  0.003130  0.651401  0.845780  1
  O  O117  1  0.651401  0.845780  0.003130  1
  O  O118  1  0.154222  0.348599  0.996868  1
  O  O119  1  0.348599  0.996868  0.154222  1
  O  O120  1  0.996868  0.154222  0.348599  1
  O  O121  1  0.154220  0.996870  0.348599  1
  O  O122  1  0.996870  0.348599  0.154220  1
  O  O123  1  0.348599  0.154220  0.996870  1
  O  O124  1  0.866941  0.517652  0.866941  1
  O  O125  1  0.517652  0.866941  0.866941  1
  O  O126  1  0.866941  0.866941  0.517652  1
  O  O127  1  0.133059  0.482348  0.133059  1
  O  O128  1  0.482348  0.133059  0.133059  1
  O  O129  1  0.133059  0.133059  0.482348  1
  O  O130  1  0.777379  0.452291  0.077606  1
  O  O131  1  0.452291  0.077606  0.777379  1
  O  O132  1  0.077606  0.777379  0.452291  1
  O  O133  1  0.777381  0.077608  0.452292  1
  O  O134  1  0.077608  0.452292  0.777381  1
  O  O135  1  0.452292  0.777381  0.077608  1
  O  O136  1  0.222621  0.547709  0.922394  1
  O  O137  1  0.547709  0.922394  0.222621  1
  O  O138  1  0.922394  0.222621  0.547709  1
  O  O139  1  0.222619  0.922392  0.547708  1
  O  O140  1  0.922392  0.547708  0.222619  1
  O  O141  1  0.547708  0.222619  0.922392  1
  O  O142  1  0.637851  0.637851  0.050126  1
  O  O143  1  0.637851  0.050126  0.637851  1
  O  O144  1  0.050126  0.637851  0.637851  1
  O  O145  1  0.362149  0.362149  0.949874  1
  O  O146  1  0.362149  0.949874  0.362149  1
  O  O147  1  0.949874  0.362149  0.362149  1
  O  O148  1  0.657776  0.496929  0.911234  1
  O  O149  1  0.496929  0.911234  0.657776  1
  O  O150  1  0.911234  0.657776  0.496929  1
  O  O151  1  0.657778  0.911234  0.496928  1
  O  O152  1  0.911234  0.496928  0.657778  1
  O  O153  1  0.496928  0.657778  0.911234  1
  O  O154  1  0.342224  0.503071  0.088766  1
  O  O155  1  0.503071  0.088766  0.342224  1
  O  O156  1  0.088766  0.342224  0.503071  1
  O  O157  1  0.342222  0.088766  0.503072  1
  O  O158  1  0.088766  0.503072  0.342222  1
  O  O159  1  0.503072  0.342222  0.088766  1
  O  O160  1  0.699179  0.543809  0.699180  1
  O  O161  1  0.543809  0.699180  0.699179  1
  O  O162  1  0.699180  0.699179  0.543809  1
  O  O163  1  0.300821  0.456191  0.300820  1
  O  O164  1  0.456191  0.300820  0.300821  1
  O  O165  1  0.300820  0.300821  0.456191  1
  O  O166  1  0.497347  0.497352  0.787299  1
  O  O167  1  0.497352  0.787299  0.497347  1
  O  O168  1  0.787299  0.497347  0.497352  1
  O  O169  1  0.502653  0.502648  0.212701  1
  O  O170  1  0.502648  0.212701  0.502653  1
  O  O171  1  0.212701  0.502653  0.502648  1
