# generated using pymatgen
data_Na5TlO4
_symmetry_space_group_name_H-M   'P 1'
_cell_length_a   10.87054349
_cell_length_b   10.90769470
_cell_length_c   10.93947866
_cell_angle_alpha   90.00000000
_cell_angle_beta   90.00000000
_cell_angle_gamma   90.00000000
_symmetry_Int_Tables_number   1
_chemical_formula_structural   Na5TlO4
_chemical_formula_sum   'Na40 Tl8 O32'
_cell_volume   1297.12209493
_cell_formula_units_Z   8
loop_
 _symmetry_equiv_pos_site_id
 _symmetry_equiv_pos_as_xyz
  1  'x, y, z'
loop_
 _atom_site_type_symbol
 _atom_site_label
 _atom_site_symmetry_multiplicity
 _atom_site_fract_x
 _atom_site_fract_y
 _atom_site_fract_z
 _atom_site_occupancy
  O  O0  1  0.518305  0.249289  0.506436  1
  O  O1  1  0.018305  0.750711  0.993564  1
  O  O2  1  0.981695  0.749289  0.493564  1
  O  O3  1  0.481695  0.250711  0.006436  1
  O  O4  1  0.481695  0.750711  0.493564  1
  O  O5  1  0.981695  0.249289  0.006436  1
  O  O6  1  0.018305  0.250711  0.506436  1
  O  O7  1  0.518305  0.749289  0.993564  1
  O  O8  1  0.761130  0.252150  0.745183  1
  O  O9  1  0.261130  0.747850  0.754817  1
  O  O10  1  0.738870  0.752150  0.254817  1
  O  O11  1  0.238870  0.247850  0.245183  1
  O  O12  1  0.238870  0.747850  0.254817  1
  O  O13  1  0.738870  0.252150  0.245183  1
  O  O14  1  0.261130  0.247850  0.745183  1
  O  O15  1  0.761130  0.752150  0.754817  1
  O  O16  1  0.999558  0.460170  0.745072  1
  O  O17  1  0.499558  0.539830  0.754928  1
  O  O18  1  0.500442  0.960170  0.254928  1
  O  O19  1  0.000442  0.039830  0.245072  1
  O  O20  1  0.000442  0.539830  0.254928  1
  O  O21  1  0.500442  0.460170  0.245072  1
  O  O22  1  0.499558  0.039830  0.745072  1
  O  O23  1  0.999558  0.960170  0.754928  1
  O  O24  1  0.756014  0.490873  0.541046  1
  O  O25  1  0.256014  0.509127  0.958954  1
  O  O26  1  0.743986  0.990873  0.458954  1
  O  O27  1  0.243986  0.009127  0.041046  1
  O  O28  1  0.243986  0.509127  0.458954  1
  O  O29  1  0.743986  0.490873  0.041046  1
  O  O30  1  0.256014  0.009127  0.541046  1
  O  O31  1  0.756014  0.990873  0.958954  1
  Na  Na32  1  0.104750  0.118466  0.659961  1
  Na  Na33  1  0.604750  0.881534  0.840039  1
  Na  Na34  1  0.395250  0.618466  0.340039  1
  Na  Na35  1  0.895250  0.381534  0.159961  1
  Na  Na36  1  0.895250  0.881534  0.340039  1
  Na  Na37  1  0.395250  0.118466  0.159961  1
  Na  Na38  1  0.604750  0.381534  0.659961  1
  Na  Na39  1  0.104750  0.618466  0.840039  1
  Na  Na40  1  0.126416  0.849607  0.618489  1
  Na  Na41  1  0.626416  0.150393  0.881511  1
  Na  Na42  1  0.373584  0.349607  0.381511  1
  Na  Na43  1  0.873584  0.650393  0.118489  1
  Na  Na44  1  0.873584  0.150393  0.381511  1
  Na  Na45  1  0.373584  0.849607  0.118489  1
  Na  Na46  1  0.626416  0.650393  0.618489  1
  Na  Na47  1  0.126416  0.349607  0.881511  1
  Na  Na48  1  0.661945  0.107787  0.616894  1
  Na  Na49  1  0.161945  0.892213  0.883106  1
  Na  Na50  1  0.838055  0.607787  0.383106  1
  Na  Na51  1  0.338055  0.392213  0.116894  1
  Na  Na52  1  0.338055  0.892213  0.383106  1
  Na  Na53  1  0.838055  0.107787  0.116894  1
  Na  Na54  1  0.161945  0.392213  0.616894  1
  Na  Na55  1  0.661945  0.607787  0.883106  1
  Na  Na56  1  0.898382  0.622997  0.650492  1
  Na  Na57  1  0.398382  0.377003  0.849508  1
  Na  Na58  1  0.601618  0.122997  0.349508  1
  Na  Na59  1  0.101618  0.877003  0.150492  1
  Na  Na60  1  0.101618  0.377003  0.349508  1
  Na  Na61  1  0.601618  0.622997  0.150492  1
  Na  Na62  1  0.398382  0.877003  0.650492  1
  Na  Na63  1  0.898382  0.122997  0.849508  1
  Na  Na64  1  0.854129  0.889185  0.608604  1
  Na  Na65  1  0.354129  0.110815  0.891396  1
  Na  Na66  1  0.645871  0.389185  0.391396  1
  Na  Na67  1  0.145871  0.610815  0.108604  1
  Na  Na68  1  0.145871  0.110815  0.391396  1
  Na  Na69  1  0.645871  0.889185  0.108604  1
  Na  Na70  1  0.354129  0.610815  0.608604  1
  Na  Na71  1  0.854129  0.389185  0.891396  1
  Tl  Tl72  1  0.883213  0.349887  0.615152  1
  Tl  Tl73  1  0.383213  0.650113  0.884848  1
  Tl  Tl74  1  0.616787  0.849887  0.384848  1
  Tl  Tl75  1  0.116787  0.150113  0.115152  1
  Tl  Tl76  1  0.116787  0.650113  0.384848  1
  Tl  Tl77  1  0.616787  0.349887  0.115152  1
  Tl  Tl78  1  0.383213  0.150113  0.615152  1
  Tl  Tl79  1  0.883213  0.849887  0.884848  1
