# generated using pymatgen
data_Li24Ti7Cr5O36
_symmetry_space_group_name_H-M   'P 1'
_cell_length_a   5.06155269
_cell_length_b   13.44221981
_cell_length_c   9.81615898
_cell_angle_alpha   97.44217258
_cell_angle_beta   94.55867621
_cell_angle_gamma   100.93476477
_symmetry_Int_Tables_number   1
_chemical_formula_structural   Li24Ti7Cr5O36
_chemical_formula_sum   'Li24 Ti7 Cr5 O36'
_cell_volume   646.50254006
_cell_formula_units_Z   1
loop_
 _symmetry_equiv_pos_site_id
 _symmetry_equiv_pos_as_xyz
  1  'x, y, z'
loop_
 _atom_site_type_symbol
 _atom_site_label
 _atom_site_symmetry_multiplicity
 _atom_site_fract_x
 _atom_site_fract_y
 _atom_site_fract_z
 _atom_site_occupancy
  Li  Li0  1  0.839287  0.165149  0.999883  1
  Li  Li1  1  0.947539  0.387360  0.999249  1
  Li  Li2  1  0.999166  0.749335  0.249893  1
  Li  Li3  1  0.667036  0.084834  0.249617  1
  Li  Li4  1  0.955610  0.888637  0.500561  1
  Li  Li5  1  0.619047  0.220529  0.500276  1
  Li  Li6  1  0.837726  0.666120  0.498957  1
  Li  Li7  1  0.506203  0.999294  0.501392  1
  Li  Li8  1  0.710125  0.447039  0.500137  1
  Li  Li9  1  0.663327  0.582821  0.749947  1
  Li  Li10  1  0.507667  0.498752  0.999726  1
  Li  Li11  1  0.714461  0.947201  0.999007  1
  Li  Li12  1  0.383340  0.279771  0.000687  1
  Li  Li13  1  0.612918  0.719092  0.997977  1
  Li  Li14  1  0.281065  0.053633  0.000405  1
  Li  Li15  1  0.333521  0.417068  0.250060  1
  Li  Li16  1  0.283874  0.553847  0.500031  1
  Li  Li17  1  0.171769  0.332276  0.500012  1
  Li  Li18  1  0.375392  0.779072  0.500845  1
  Li  Li19  1  0.041819  0.112395  0.498671  1
  Li  Li20  1  0.330251  0.916193  0.750213  1
  Li  Li21  1  0.170327  0.832936  0.999907  1
  Li  Li22  1  0.996660  0.248932  0.750069  1
  Li  Li23  1  0.050888  0.613959  0.001303  1
  Ti  Ti24  1  0.779087  0.304253  0.250728  1
  Ti  Ti25  1  0.780602  0.806511  0.750369  1
  Ti  Ti26  1  0.447781  0.139883  0.750960  1
  Ti  Ti27  1  0.556179  0.860630  0.250755  1
  Ti  Ti28  1  0.444144  0.637911  0.249643  1
  Ti  Ti29  1  0.113538  0.472921  0.750284  1
  Ti  Ti30  1  0.110703  0.974354  0.248844  1
  Cr  Cr31  1  0.887307  0.026959  0.749315  1
  Cr  Cr32  1  0.889134  0.525663  0.249968  1
  Cr  Cr33  1  0.553354  0.360012  0.749498  1
  Cr  Cr34  1  0.226111  0.196253  0.250544  1
  Cr  Cr35  1  0.219756  0.693338  0.749393  1
  O  O36  1  0.999015  0.073649  0.138442  1
  O  O37  1  0.927655  0.215638  0.366559  1
  O  O38  1  0.001221  0.574449  0.638521  1
  O  O39  1  0.851293  0.356343  0.638013  1
  O  O40  1  0.735113  0.119398  0.633615  1
  O  O41  1  0.666497  0.405247  0.138150  1
  O  O42  1  0.936472  0.714368  0.864283  1
  O  O43  1  0.805409  0.475148  0.861301  1
  O  O44  1  0.603777  0.047487  0.864357  1
  O  O45  1  0.857617  0.857394  0.136429  1
  O  O46  1  0.737622  0.617522  0.135084  1
  O  O47  1  0.525579  0.190319  0.136223  1
  O  O48  1  0.669393  0.261154  0.864402  1
  O  O49  1  0.809644  0.977424  0.363685  1
  O  O50  1  0.600040  0.546517  0.364518  1
  O  O51  1  0.469998  0.309059  0.361973  1
  O  O52  1  0.665741  0.761800  0.363913  1
  O  O53  1  0.334769  0.098983  0.361619  1
  O  O54  1  0.668749  0.907885  0.638172  1
  O  O55  1  0.335510  0.240985  0.638618  1
  O  O56  1  0.517813  0.689894  0.638178  1
  O  O57  1  0.401042  0.452336  0.633333  1
  O  O58  1  0.185844  0.023145  0.638194  1
  O  O59  1  0.331930  0.736819  0.136671  1
  O  O60  1  0.472418  0.808997  0.861528  1
  O  O61  1  0.270185  0.380798  0.864464  1
  O  O62  1  0.138805  0.142133  0.861399  1
  O  O63  1  0.403998  0.951906  0.134220  1
  O  O64  1  0.184202  0.521176  0.137565  1
  O  O65  1  0.075956  0.283268  0.135616  1
  O  O66  1  0.335395  0.594547  0.863690  1
  O  O67  1  0.263274  0.883128  0.365910  1
  O  O68  1  0.140687  0.642328  0.361970  1
  O  O69  1  0.000164  0.429608  0.363068  1
  O  O70  1  0.068247  0.785991  0.633473  1
  O  O71  1  0.002208  0.928231  0.863716  1
