# generated using pymatgen
data_Co23O32
_symmetry_space_group_name_H-M   'P 1'
_cell_length_a   11.70156578
_cell_length_b   15.44790197
_cell_length_c   10.08830255
_cell_angle_alpha   29.23934709
_cell_angle_beta   54.29039803
_cell_angle_gamma   40.58897232
_symmetry_Int_Tables_number   1
_chemical_formula_structural   Co23O32
_chemical_formula_sum   'Co23 O32'
_cell_volume   561.37849395
_cell_formula_units_Z   1
loop_
 _symmetry_equiv_pos_site_id
 _symmetry_equiv_pos_as_xyz
  1  'x, y, z'
loop_
 _atom_site_type_symbol
 _atom_site_label
 _atom_site_symmetry_multiplicity
 _atom_site_fract_x
 _atom_site_fract_y
 _atom_site_fract_z
 _atom_site_occupancy
  Co  Co0  1  0.126790  0.248201  0.001000  1
  Co  Co1  1  0.250514  0.001980  0.501809  1
  Co  Co2  1  0.565532  -0.000059  0.122411  1
  Co  Co3  1  0.121052  0.257540  0.494958  1
  Co  Co4  1  0.495909  0.001981  0.499690  1
  Co  Co5  1  0.622735  0.247653  0.003906  1
  Co  Co6  1  0.309814  0.498299  0.126881  1
  Co  Co7  1  0.248453  0.500498  0.499888  1
  Co  Co8  1  0.754700  -0.002908  0.493408  1
  Co  Co9  1  0.635419  0.242312  0.499543  1
  Co  Co10  1  0.367488  0.756130  0.006575  1
  Co  Co11  1  0.188500  0.499619  0.872525  1
  Co  Co12  1  0.995809  0.003531  0.497175  1
  Co  Co13  1  0.498691  0.498250  0.504248  1
  Co  Co14  1  0.811820  0.504079  0.122369  1
  Co  Co15  1  0.375930  0.748910  0.499922  1
  Co  Co16  1  0.753570  0.495858  0.503769  1
  Co  Co17  1  0.877973  0.743566  0.007394  1
  Co  Co18  1  0.685729  0.508104  0.859868  1
  Co  Co19  1  0.998389  0.503046  0.494680  1
  Co  Co20  1  0.870135  0.751873  0.498617  1
  Co  Co21  1  0.436525  0.999836  0.876159  1
  Co  Co22  1  0.938753  -0.001978  0.882517  1
  O  O23  1  0.025472  0.226591  0.265988  1
  O  O24  1  0.132390  0.016411  0.734065  1
  O  O25  1  0.256439  0.229696  0.285555  1
  O  O26  1  0.359978  0.018259  0.720607  1
  O  O27  1  0.100990  0.504299  0.259293  1
  O  O28  1  0.228348  0.284776  0.720281  1
  O  O29  1  0.509997  0.226210  0.260311  1
  O  O30  1  0.009782  0.720101  0.292638  1
  O  O31  1  0.115764  0.502315  0.732946  1
  O  O32  1  0.650852  0.980891  0.756837  1
  O  O33  1  0.369496  0.499200  0.270628  1
  O  O34  1  0.274191  0.705707  0.288114  1
  O  O35  1  0.481746  0.282723  0.715933  1
  O  O36  1  0.762001  0.231601  0.261996  1
  O  O37  1  0.883502  0.976185  0.764709  1
  O  O38  1  0.612039  0.495991  0.271743  1
  O  O39  1  0.393538  0.502838  0.735717  1
  O  O40  1  0.148658  0.994856  0.263629  1
  O  O41  1  0.729281  0.278509  0.735107  1
  O  O42  1  0.262986  0.760509  0.718061  1
  O  O43  1  0.506864  0.720195  0.294128  1
  O  O44  1  0.619085  0.496460  0.737226  1
  O  O45  1  0.371836  -0.017602  0.269108  1
  O  O46  1  0.880161  0.501477  0.264724  1
  O  O47  1  0.985295  0.295075  0.687587  1
  O  O48  1  0.476592  0.778912  0.736747  1
  O  O49  1  0.769812  0.720811  0.266109  1
  O  O50  1  0.888899  0.509595  0.721956  1
  O  O51  1  0.629644  -0.000294  0.264383  1
  O  O52  1  0.735818  0.771773  0.713867  1
  O  O53  1  0.846425  0.999659  0.261447  1
  O  O54  1  0.985489  0.760989  0.755783  1
