# generated using pymatgen
data_K3Ta8O21
_symmetry_space_group_name_H-M   'P 1'
_cell_length_a   9.24752261
_cell_length_b   9.24755508
_cell_length_c   12.21774044
_cell_angle_alpha   90.00016555
_cell_angle_beta   90.00034116
_cell_angle_gamma   120.00125234
_symmetry_Int_Tables_number   1
_chemical_formula_structural   K3Ta8O21
_chemical_formula_sum   'K6 Ta16 O42'
_cell_volume   904.83288112
_cell_formula_units_Z   2
loop_
 _symmetry_equiv_pos_site_id
 _symmetry_equiv_pos_as_xyz
  1  'x, y, z'
loop_
 _atom_site_type_symbol
 _atom_site_label
 _atom_site_symmetry_multiplicity
 _atom_site_fract_x
 _atom_site_fract_y
 _atom_site_fract_z
 _atom_site_occupancy
  K  K0  1  0.000005  0.589978  0.250044  1
  K  K1  1  0.999995  0.410020  0.749957  1
  K  K2  1  0.410013  0.410016  0.250040  1
  K  K3  1  0.589980  0.589982  0.749959  1
  K  K4  1  0.410023  0.999995  0.749957  1
  K  K5  1  0.589981  0.000002  0.250042  1
  Ta  Ta6  1  0.000009  0.752522  0.594507  1
  Ta  Ta7  1  0.000011  0.752544  0.904969  1
  Ta  Ta8  1  0.999990  0.247456  0.405484  1
  Ta  Ta9  1  0.999987  0.247426  0.095036  1
  Ta  Ta10  1  0.333328  0.666663  0.499977  1
  Ta  Ta11  1  0.333330  0.666654  0.000025  1
  Ta  Ta12  1  0.247458  0.247452  0.904968  1
  Ta  Ta13  1  0.247485  0.247484  0.594500  1
  Ta  Ta14  1  0.247428  0.999988  0.095036  1
  Ta  Ta15  1  0.247458  0.999994  0.405486  1
  Ta  Ta16  1  0.752564  0.752564  0.095040  1
  Ta  Ta17  1  0.752532  0.752534  0.405491  1
  Ta  Ta18  1  0.666671  0.333332  0.499978  1
  Ta  Ta19  1  0.666664  0.333337  0.000024  1
  Ta  Ta20  1  0.752524  0.000006  0.594507  1
  Ta  Ta21  1  0.752545  0.000007  0.904971  1
  O  O22  1  0.999996  0.801625  0.073912  1
  O  O23  1  0.000001  0.801691  0.425824  1
  O  O24  1  0.999984  0.790972  0.750175  1
  O  O25  1  0.167902  0.686835  0.905517  1
  O  O26  1  0.167840  0.686871  0.594475  1
  O  O27  1  0.000017  0.209038  0.249822  1
  O  O28  1  0.313168  0.832095  0.094475  1
  O  O29  1  0.313132  0.832154  0.405530  1
  O  O30  1  0.000000  0.198310  0.574170  1
  O  O31  1  0.000005  0.198368  0.926096  1
  O  O32  1  0.167911  0.481065  0.094478  1
  O  O33  1  0.167843  0.480970  0.405532  1
  O  O34  1  0.313164  0.481061  0.905518  1
  O  O35  1  0.313134  0.480968  0.594468  1
  O  O36  1  0.198364  0.198361  0.073895  1
  O  O37  1  0.198277  0.198278  0.425831  1
  O  O38  1  0.519044  0.832165  0.594467  1
  O  O39  1  0.518940  0.832088  0.905523  1
  O  O40  1  0.209012  0.209005  0.750166  1
  O  O41  1  0.519024  0.686862  0.405541  1
  O  O42  1  0.518929  0.686825  0.094476  1
  O  O43  1  0.198369  0.000001  0.926096  1
  O  O44  1  0.198298  -0.000000  0.574173  1
  O  O45  1  0.209040  0.000018  0.249824  1
  O  O46  1  0.481063  0.313162  0.905521  1
  O  O47  1  0.480966  0.313134  0.594462  1
  O  O48  1  0.790976  0.790977  0.249831  1
  O  O49  1  0.481068  0.167905  0.094474  1
  O  O50  1  0.480969  0.167840  0.405537  1
  O  O51  1  0.801728  0.801726  0.574162  1
  O  O52  1  0.801637  0.801635  0.926116  1
  O  O53  1  0.686830  0.518925  0.094478  1
  O  O54  1  0.686862  0.519022  0.405539  1
  O  O55  1  0.832167  0.519041  0.594468  1
  O  O56  1  0.832090  0.518935  0.905518  1
  O  O57  1  0.686872  0.167840  0.594476  1
  O  O58  1  0.686836  0.167898  0.905520  1
  O  O59  1  0.832156  0.313133  0.405529  1
  O  O60  1  0.832098  0.313167  0.094478  1
  O  O61  1  0.790973  0.999979  0.750174  1
  O  O62  1  0.801704  0.000001  0.425821  1
  O  O63  1  0.801629  0.999995  0.073913  1
