# generated using pymatgen
data_VOF2
_symmetry_space_group_name_H-M   'P 1'
_cell_length_a   5.15606555
_cell_length_b   11.82463852
_cell_length_c   5.35489263
_cell_angle_alpha   78.90124095
_cell_angle_beta   91.67672170
_cell_angle_gamma   102.84678665
_symmetry_Int_Tables_number   1
_chemical_formula_structural   VOF2
_chemical_formula_sum   'V6 O6 F12'
_cell_volume   312.32329432
_cell_formula_units_Z   6
loop_
 _symmetry_equiv_pos_site_id
 _symmetry_equiv_pos_as_xyz
  1  'x, y, z'
loop_
 _atom_site_type_symbol
 _atom_site_label
 _atom_site_symmetry_multiplicity
 _atom_site_fract_x
 _atom_site_fract_y
 _atom_site_fract_z
 _atom_site_occupancy
  V  V0  1  0.811691  0.669846  0.199280  1
  V  V1  1  0.704786  0.338892  0.302568  1
  V  V2  1  0.500000  0.000000  0.500000  1
  V  V3  1  0.295214  0.661108  0.697432  1
  V  V4  1  0.000000  0.000000  0.000000  1
  V  V5  1  0.188309  0.330154  0.800720  1
  O  O6  1  0.968423  0.362583  0.113863  1
  O  O7  1  0.762686  0.978315  0.737349  1
  O  O8  1  0.644054  0.688160  0.442059  1
  O  O9  1  0.237314  0.021685  0.262651  1
  O  O10  1  0.355946  0.311840  0.557941  1
  O  O11  1  0.031577  0.637417  0.886137  1
  F  F12  1  0.977017  0.168530  0.923894  1
  F  F13  1  0.881613  0.374870  0.614949  1
  F  F14  1  0.681324  0.168394  0.421369  1
  F  F15  1  0.646374  0.500668  0.223174  1
  F  F16  1  0.430121  0.287835  0.068796  1
  F  F17  1  0.300616  0.041877  0.760842  1
  F  F18  1  0.699384  0.958123  0.239158  1
  F  F19  1  0.569879  0.712165  0.931204  1
  F  F20  1  0.353626  0.499332  0.776826  1
  F  F21  1  0.318676  0.831606  0.578631  1
  F  F22  1  0.118387  0.625130  0.385051  1
  F  F23  1  0.022983  0.831470  0.076106  1
