# generated using pymatgen
data_LiVGaO4
_symmetry_space_group_name_H-M   'P 1'
_cell_length_a   5.97299652
_cell_length_b   5.97299652
_cell_length_c   5.97299639
_cell_angle_alpha   59.26792697
_cell_angle_beta   91.39759115
_cell_angle_gamma   120.88829807
_symmetry_Int_Tables_number   1
_chemical_formula_structural   LiVGaO4
_chemical_formula_sum   'Li2 V2 Ga2 O8'
_cell_volume   148.78851034
_cell_formula_units_Z   2
loop_
 _symmetry_equiv_pos_site_id
 _symmetry_equiv_pos_as_xyz
  1  'x, y, z'
loop_
 _atom_site_type_symbol
 _atom_site_label
 _atom_site_symmetry_multiplicity
 _atom_site_fract_x
 _atom_site_fract_y
 _atom_site_fract_z
 _atom_site_occupancy
  Li  Li0  1  0.119368  0.250000  0.130632  1
  Li  Li1  1  0.880632  0.750000  0.869368  1
  V  V2  1  0.500000  0.000000  0.500000  1
  V  V3  1  0.000000  0.500000  0.500000  1
  Ga  Ga4  1  0.500000  0.000000  0.000000  1
  Ga  Ga5  1  0.500000  0.500000  0.500000  1
  O  O6  1  0.292397  0.025220  0.732824  1
  O  O7  1  0.258045  0.525220  0.267176  1
  O  O8  1  0.256706  0.530384  0.712911  1
  O  O9  1  0.256706  0.969616  0.273678  1
  O  O10  1  0.743294  0.030384  0.726322  1
  O  O11  1  0.743294  0.469616  0.287089  1
  O  O12  1  0.741955  0.474780  0.732824  1
  O  O13  1  0.707603  0.974780  0.267176  1
