# generated using pymatgen
data_Na3Li3Mn2P2(CO7)2
_symmetry_space_group_name_H-M   'P 1'
_cell_length_a   8.79179467
_cell_length_b   6.73016780
_cell_length_c   5.10065825
_cell_angle_alpha   90.42197426
_cell_angle_beta   89.15903232
_cell_angle_gamma   88.46441308
_symmetry_Int_Tables_number   1
_chemical_formula_structural   Na3Li3Mn2P2(CO7)2
_chemical_formula_sum   'Na3 Li3 Mn2 P2 C2 O14'
_cell_volume   301.65726958
_cell_formula_units_Z   1
loop_
 _symmetry_equiv_pos_site_id
 _symmetry_equiv_pos_as_xyz
  1  'x, y, z'
loop_
 _atom_site_type_symbol
 _atom_site_label
 _atom_site_symmetry_multiplicity
 _atom_site_fract_x
 _atom_site_fract_y
 _atom_site_fract_z
 _atom_site_occupancy
  Na  Na0  1  0.083351  0.235415  0.755652  1
  Na  Na1  1  0.253487  0.502389  0.248205  1
  Na  Na2  1  0.746498  0.500794  0.752846  1
  Li  Li3  1  0.274623  0.024777  0.224565  1
  Li  Li4  1  0.729089  0.977861  0.773015  1
  Li  Li5  1  0.912636  0.776376  0.255278  1
  Mn  Mn6  1  0.360303  0.753539  0.775519  1
  Mn  Mn7  1  0.643639  0.243931  0.224366  1
  P  P8  1  0.414491  0.240198  0.705822  1
  P  P9  1  0.591536  0.757091  0.295760  1
  C  C10  1  0.044402  0.760909  0.732131  1
  C  C11  1  0.947575  0.238460  0.264855  1
  O  O12  1  0.094737  0.226646  0.282977  1
  O  O13  1  0.082655  0.751488  0.976772  1
  O  O14  1  0.148811  0.756250  0.547639  1
  O  O15  1  0.318623  0.068605  0.817974  1
  O  O16  1  0.328308  0.436780  0.784609  1
  O  O17  1  0.422454  0.223831  0.399321  1
  O  O18  1  0.427113  0.768071  0.186005  1
  O  O19  1  0.579585  0.231850  0.810156  1
  O  O20  1  0.578699  0.775802  0.601235  1
  O  O21  1  0.677010  0.559967  0.220788  1
  O  O22  1  0.693746  0.924724  0.187070  1
  O  O23  1  0.861354  0.242337  0.475165  1
  O  O24  1  0.883166  0.246600  0.037726  1
  O  O25  1  0.902109  0.775309  0.664549  1
