# generated using pymatgen
data_Li4Ti3Cr3(TeO8)2
_symmetry_space_group_name_H-M   'P 1'
_cell_length_a   6.07843388
_cell_length_b   5.98715680
_cell_length_c   10.14246602
_cell_angle_alpha   90.00435957
_cell_angle_beta   90.19081209
_cell_angle_gamma   119.49607290
_symmetry_Int_Tables_number   1
_chemical_formula_structural   Li4Ti3Cr3(TeO8)2
_chemical_formula_sum   'Li4 Ti3 Cr3 Te2 O16'
_cell_volume   321.26710034
_cell_formula_units_Z   1
loop_
 _symmetry_equiv_pos_site_id
 _symmetry_equiv_pos_as_xyz
  1  'x, y, z'
loop_
 _atom_site_type_symbol
 _atom_site_label
 _atom_site_symmetry_multiplicity
 _atom_site_fract_x
 _atom_site_fract_y
 _atom_site_fract_z
 _atom_site_occupancy
  Li  Li0  1  0.329911  0.665008  0.900522  1
  Li  Li1  1  0.009121  0.004612  0.990768  1
  Li  Li2  1  0.997341  0.998683  0.492015  1
  Li  Li3  1  0.669327  0.334569  0.402629  1
  Ti  Ti4  1  0.187174  0.844732  0.222866  1
  Ti  Ti5  1  0.187091  0.342300  0.222959  1
  Ti  Ti6  1  0.352028  0.176079  0.725368  1
  Cr  Cr7  1  0.662815  0.831318  0.212094  1
  Cr  Cr8  1  0.827241  0.662120  0.712671  1
  Cr  Cr9  1  0.827246  0.165205  0.712670  1
  Te  Te10  1  0.323558  0.661784  0.501050  1
  Te  Te11  1  0.704353  0.352226  0.995090  1
  O  O12  1  0.152913  0.832640  0.600075  1
  O  O13  1  0.032173  0.516119  0.335248  1
  O  O14  1  0.319994  0.659962  0.113895  1
  O  O15  1  0.996609  0.998305  0.309029  1
  O  O16  1  0.008855  0.004459  0.805160  1
  O  O17  1  0.152879  0.320318  0.600071  1
  O  O18  1  0.466137  0.979124  0.332224  1
  O  O19  1  0.465895  0.486624  0.332340  1
  O  O20  1  0.298805  0.149371  0.112782  1
  O  O21  1  0.687372  0.843733  0.600635  1
  O  O22  1  0.502430  0.483244  0.821173  1
  O  O23  1  0.502478  0.019374  0.821229  1
  O  O24  1  0.653795  0.326913  0.610618  1
  O  O25  1  0.861431  0.679134  0.091661  1
  O  O26  1  0.959569  0.479840  0.839413  1
  O  O27  1  0.861459  0.182501  0.091585  1
