# generated using pymatgen
data_Li4Mn3SnO8
_symmetry_space_group_name_H-M   'P 1'
_cell_length_a   10.57117684
_cell_length_b   10.56765654
_cell_length_c   14.81419104
_cell_angle_alpha   19.82877663
_cell_angle_beta   19.83369564
_cell_angle_gamma   34.34904163
_symmetry_Int_Tables_number   1
_chemical_formula_structural   Li4Mn3SnO8
_chemical_formula_sum   'Li4 Mn3 Sn1 O8'
_cell_volume   163.24600290
_cell_formula_units_Z   1
loop_
 _symmetry_equiv_pos_site_id
 _symmetry_equiv_pos_as_xyz
  1  'x, y, z'
loop_
 _atom_site_type_symbol
 _atom_site_label
 _atom_site_symmetry_multiplicity
 _atom_site_fract_x
 _atom_site_fract_y
 _atom_site_fract_z
 _atom_site_occupancy
  Li  Li0  1  0.999968  0.999882  0.500097  1
  Li  Li1  1  0.999937  0.499754  0.500177  1
  Li  Li2  1  0.499654  0.999902  0.500275  1
  Li  Li3  1  0.499917  0.499980  0.500086  1
  Mn  Mn4  1  0.000112  0.500042  -0.000113  1
  Mn  Mn5  1  0.500042  0.000118  0.999879  1
  Mn  Mn6  1  0.500275  0.500174  0.999637  1
  Sn  Sn7  1  -0.000242  0.999817  0.000309  1
  O  O8  1  0.052891  0.052449  0.196476  1
  O  O9  1  0.969143  0.489857  0.284954  1
  O  O10  1  0.490456  0.970770  0.283732  1
  O  O11  1  0.947472  0.947923  0.803060  1
  O  O12  1  0.464973  0.464181  0.291027  1
  O  O13  1  0.031014  0.510236  0.714894  1
  O  O14  1  0.509473  0.029149  0.716408  1
  O  O15  1  0.534916  0.535769  0.709106  1
