# generated using pymatgen
data_LiCoPO4
_symmetry_space_group_name_H-M   'P 1'
_cell_length_a   4.88154293
_cell_length_b   8.43420168
_cell_length_c   4.88154317
_cell_angle_alpha   106.82142295
_cell_angle_beta   60.00000667
_cell_angle_gamma   106.82142586
_symmetry_Int_Tables_number   1
_chemical_formula_structural   LiCoPO4
_chemical_formula_sum   'Li2 Co2 P2 O8'
_cell_volume   164.05067904
_cell_formula_units_Z   2
loop_
 _symmetry_equiv_pos_site_id
 _symmetry_equiv_pos_as_xyz
  1  'x, y, z'
loop_
 _atom_site_type_symbol
 _atom_site_label
 _atom_site_symmetry_multiplicity
 _atom_site_fract_x
 _atom_site_fract_y
 _atom_site_fract_z
 _atom_site_occupancy
  Li  Li0  1  0.002572  0.007716  0.002572  1
  Li  Li1  1  0.572935  0.718806  0.572935  1
  Co  Co2  1  0.126502  0.379506  0.126502  1
  Co  Co3  1  0.449034  0.347102  0.449034  1
  P  P4  1  0.862127  0.586380  0.862127  1
  P  P5  1  0.713253  0.139760  0.713253  1
  O  O6  1  0.153484  0.520670  0.543580  1
  O  O7  1  0.031958  0.205831  0.751988  1
  O  O8  1  0.421887  0.205831  0.031958  1
  O  O9  1  0.650465  0.951394  0.650465  1
  O  O10  1  0.823606  0.520670  0.153484  1
  O  O11  1  0.543580  0.520670  0.823606  1
  O  O12  1  0.751988  0.205831  0.421887  1
  O  O13  1  0.925140  0.775421  0.925140  1
