# generated using pymatgen
data_Li4Cr3NiO8
_symmetry_space_group_name_H-M   'P 1'
_cell_length_a   5.10054374
_cell_length_b   5.90945564
_cell_length_c   5.91730356
_cell_angle_alpha   59.95575712
_cell_angle_beta   90.00113003
_cell_angle_gamma   73.15407414
_symmetry_Int_Tables_number   1
_chemical_formula_structural   Li4Cr3NiO8
_chemical_formula_sum   'Li4 Cr3 Ni1 O8'
_cell_volume   145.48231145
_cell_formula_units_Z   1
loop_
 _symmetry_equiv_pos_site_id
 _symmetry_equiv_pos_as_xyz
  1  'x, y, z'
loop_
 _atom_site_type_symbol
 _atom_site_label
 _atom_site_symmetry_multiplicity
 _atom_site_fract_x
 _atom_site_fract_y
 _atom_site_fract_z
 _atom_site_occupancy
  Li  Li0  1  0.002839  0.997015  0.001444  1
  Li  Li1  1  0.997157  0.002985  0.498555  1
  Li  Li2  1  0.499992  0.000002  0.249995  1
  Li  Li3  1  0.499995  0.000007  0.750002  1
  Cr  Cr4  1  0.000025  0.499993  0.001064  1
  Cr  Cr5  1  0.000012  0.499988  0.498935  1
  Cr  Cr6  1  0.499933  0.499972  0.750021  1
  Ni  Ni7  1  0.500005  0.500001  0.250006  1
  O  O8  1  0.235144  0.269894  0.365055  1
  O  O9  1  0.246766  0.272600  0.863708  1
  O  O10  1  0.740960  0.274399  0.097347  1
  O  O11  1  0.259052  0.725609  0.402652  1
  O  O12  1  0.259039  0.725644  0.871731  1
  O  O13  1  0.764864  0.730100  0.134937  1
  O  O14  1  0.740967  0.274374  0.628264  1
  O  O15  1  0.753249  0.727415  0.636285  1
