# generated using pymatgen
data_Li3Ti3Fe(PO4)6
_symmetry_space_group_name_H-M   'P 1'
_cell_length_a   8.69550553
_cell_length_b   8.69115561
_cell_length_c   17.45040713
_cell_angle_alpha   59.80590608
_cell_angle_beta   59.88872888
_cell_angle_gamma   59.94844611
_symmetry_Int_Tables_number   1
_chemical_formula_structural   Li3Ti3Fe(PO4)6
_chemical_formula_sum   'Li6 Ti6 Fe2 P12 O48'
_cell_volume   930.01003722
_cell_formula_units_Z   2
loop_
 _symmetry_equiv_pos_site_id
 _symmetry_equiv_pos_as_xyz
  1  'x, y, z'
loop_
 _atom_site_type_symbol
 _atom_site_label
 _atom_site_symmetry_multiplicity
 _atom_site_fract_x
 _atom_site_fract_y
 _atom_site_fract_z
 _atom_site_occupancy
  Li  Li0  1  0.640035  0.239666  0.411883  1
  Li  Li1  1  0.634921  0.541399  0.179016  1
  Li  Li2  1  0.970930  0.885909  0.055813  1
  Li  Li3  1  0.399421  0.471528  0.803526  1
  Li  Li4  1  0.744858  0.563140  0.642995  1
  Li  Li5  1  0.964162  0.882970  0.563526  1
  Ti  Ti6  1  0.141928  0.140885  0.067497  1
  Ti  Ti7  1  0.361121  0.359710  0.178351  1
  Ti  Ti8  1  0.147694  0.136825  0.567519  1
  Ti  Ti9  1  0.357507  0.345596  0.684963  1
  Ti  Ti10  1  0.641379  0.648367  0.322178  1
  Ti  Ti11  1  0.859533  0.858682  0.926747  1
  Fe  Fe12  1  0.868057  0.855098  0.425059  1
  Fe  Fe13  1  0.643584  0.638086  0.821389  1
  P  P14  1  0.044415  0.744013  0.230840  1
  P  P15  1  0.465024  0.043762  0.375929  1
  P  P16  1  0.248742  0.536154  0.486320  1
  P  P17  1  0.756539  0.455424  0.016614  1
  P  P18  1  0.045915  0.741321  0.731002  1
  P  P19  1  0.536526  0.962705  0.125147  1
  P  P20  1  0.463809  0.031408  0.876037  1
  P  P21  1  0.961444  0.251669  0.263800  1
  P  P22  1  0.251068  0.539767  0.981780  1
  P  P23  1  0.751116  0.450397  0.520002  1
  P  P24  1  0.538480  0.957022  0.626094  1
  P  P25  1  0.962337  0.246106  0.767729  1
  O  O26  1  0.990681  0.199933  0.184037  1
  O  O27  1  0.199880  0.370507  0.004381  1
  O  O28  1  0.371573  0.995014  0.102561  1
  O  O29  1  0.125583  0.309459  0.238535  1
  O  O30  1  0.310261  0.505720  0.060053  1
  O  O31  1  0.056558  0.909862  0.136184  1
  O  O32  1  0.504679  0.128547  0.146737  1
  O  O33  1  0.229391  0.577323  0.219021  1
  O  O34  1  0.278449  0.056474  0.458300  1
  O  O35  1  0.014786  0.193355  0.683051  1
  O  O36  1  0.434823  0.217194  0.289295  1
  O  O37  1  0.211306  0.368799  0.498149  1
  O  O38  1  0.073860  0.717353  0.484631  1
  O  O39  1  0.594096  0.433102  0.113459  1
  O  O40  1  0.380472  0.000141  0.594854  1
  O  O41  1  0.122577  0.298104  0.753938  1
  O  O42  1  0.419455  0.560674  0.394539  1
  O  O43  1  0.927003  0.270728  0.026096  1
  O  O44  1  0.298848  0.489587  0.570641  1
  O  O45  1  0.075991  0.905928  0.635560  1
  O  O46  1  0.558219  0.774414  0.210710  1
  O  O47  1  0.486201  0.111090  0.663262  1
  O  O48  1  0.233608  0.572796  0.727407  1
  O  O49  1  0.728089  0.930819  0.044405  1
  O  O50  1  0.282822  0.050796  0.961894  1
  O  O51  1  0.766682  0.418257  0.275984  1
  O  O52  1  0.525040  0.861645  0.356138  1
  O  O53  1  0.439341  0.227463  0.796870  1
  O  O54  1  0.935361  0.093264  0.360202  1
  O  O55  1  0.710365  0.478619  0.436217  1
  O  O56  1  0.077342  0.723730  0.977568  1
  O  O57  1  0.588124  0.418502  0.614211  1
  O  O58  1  0.877474  0.691381  0.250622  1
  O  O59  1  0.621674  0.033274  0.397761  1
  O  O60  1  0.408246  0.558426  0.885055  1
  O  O61  1  0.925798  0.271670  0.529761  1
  O  O62  1  0.782763  0.623351  0.507958  1
  O  O63  1  0.569632  0.758680  0.700962  1
  O  O64  1  0.008935  0.794023  0.311920  1
  O  O65  1  0.724566  0.962664  0.540428  1
  O  O66  1  0.777115  0.415845  0.768854  1
  O  O67  1  0.499033  0.876247  0.846487  1
  O  O68  1  0.936806  0.079413  0.860606  1
  O  O69  1  0.704730  0.491028  0.936470  1
  O  O70  1  0.886392  0.699898  0.738246  1
  O  O71  1  0.632948  0.989510  0.900442  1
  O  O72  1  0.803214  0.620283  0.002702  1
  O  O73  1  0.000462  0.792299  0.814984  1
