# generated using pymatgen
data_NbH14C4NO14
_symmetry_space_group_name_H-M   'P 1'
_cell_length_a   12.43819177
_cell_length_b   16.48530382
_cell_length_c   6.64356411
_cell_angle_alpha   90.00000000
_cell_angle_beta   92.70519750
_cell_angle_gamma   90.00000000
_symmetry_Int_Tables_number   1
_chemical_formula_structural   NbH14C4NO14
_chemical_formula_sum   'Nb4 H56 C16 N4 O56'
_cell_volume   1360.72726015
_cell_formula_units_Z   4
loop_
 _symmetry_equiv_pos_site_id
 _symmetry_equiv_pos_as_xyz
  1  'x, y, z'
loop_
 _atom_site_type_symbol
 _atom_site_label
 _atom_site_symmetry_multiplicity
 _atom_site_fract_x
 _atom_site_fract_y
 _atom_site_fract_z
 _atom_site_occupancy
  Nb  Nb0  1  0.201172  0.110055  0.210834  1
  Nb  Nb1  1  0.298828  0.610055  0.289166  1
  Nb  Nb2  1  0.701172  0.389945  0.710834  1
  Nb  Nb3  1  0.798828  0.889945  0.789166  1
  H  H4  1  0.026060  0.843494  0.390629  1
  H  H5  1  0.050102  0.085599  0.686470  1
  H  H6  1  0.072794  0.513193  0.776960  1
  H  H7  1  0.076089  0.391295  0.278756  1
  H  H8  1  0.101959  0.591137  0.908867  1
  H  H9  1  0.135654  0.317073  0.690109  1
  H  H10  1  0.128602  0.953054  0.301960  1
  H  H11  1  0.143523  0.320264  0.195129  1
  H  H12  1  0.175428  0.006564  0.861553  1
  H  H13  1  0.202010  0.232878  0.614554  1
  H  H14  1  0.218035  0.264889  0.855160  1
  H  H15  1  0.229786  0.820532  0.831441  1
  H  H16  1  0.225159  0.565409  0.688895  1
  H  H17  1  0.238738  0.445579  0.219334  1
  H  H18  1  0.274841  0.065409  0.811105  1
  H  H19  1  0.270214  0.320532  0.668559  1
  H  H20  1  0.261262  0.945579  0.280666  1
  H  H21  1  0.281965  0.764889  0.644840  1
  H  H22  1  0.297990  0.732878  0.885446  1
  H  H23  1  0.324572  0.506564  0.638447  1
  H  H24  1  0.364346  0.817073  0.809891  1
  H  H25  1  0.356477  0.820264  0.304871  1
  H  H26  1  0.371398  0.453054  0.198040  1
  H  H27  1  0.398041  0.091137  0.591133  1
  H  H28  1  0.427206  0.013193  0.723040  1
  H  H29  1  0.423911  0.891295  0.221244  1
  H  H30  1  0.449898  0.585599  0.813530  1
  H  H31  1  0.473940  0.343494  0.109371  1
  H  H32  1  0.526060  0.656506  0.890629  1
  H  H33  1  0.550102  0.414401  0.186470  1
  H  H34  1  0.576089  0.108705  0.778756  1
  H  H35  1  0.572794  0.986807  0.276960  1
  H  H36  1  0.601959  0.908863  0.408867  1
  H  H37  1  0.628602  0.546946  0.801960  1
  H  H38  1  0.643523  0.179736  0.695129  1
  H  H39  1  0.635654  0.182927  0.190109  1
  H  H40  1  0.675428  0.493436  0.361553  1
  H  H41  1  0.702010  0.267122  0.114554  1
  H  H42  1  0.718035  0.235111  0.355160  1
  H  H43  1  0.738738  0.054421  0.719334  1
  H  H44  1  0.729786  0.679468  0.331441  1
  H  H45  1  0.725159  0.934591  0.188895  1
  H  H46  1  0.761262  0.554421  0.780666  1
  H  H47  1  0.774841  0.434591  0.311105  1
  H  H48  1  0.770214  0.179468  0.168559  1
  H  H49  1  0.781965  0.735111  0.144840  1
  H  H50  1  0.797990  0.767122  0.385446  1
  H  H51  1  0.824572  0.993436  0.138447  1
  H  H52  1  0.856477  0.679736  0.804871  1
  H  H53  1  0.871398  0.046946  0.698040  1
  H  H54  1  0.864346  0.682927  0.309891  1
  H  H55  1  0.898041  0.408863  0.091133  1
  H  H56  1  0.923911  0.608705  0.721244  1
  H  H57  1  0.927206  0.486807  0.223040  1
  H  H58  1  0.949898  0.914401  0.313530  1
  H  H59  1  0.973940  0.156506  0.609371  1
  C  C60  1  0.001741  0.798500  0.921983  1
  C  C61  1  0.038903  0.883874  0.860463  1
  C  C62  1  0.056162  0.609519  0.314391  1
  C  C63  1  0.092599  0.690263  0.412288  1
  C  C64  1  0.407401  0.190263  0.087712  1
  C  C65  1  0.443838  0.109519  0.185609  1
  C  C66  1  0.461097  0.383874  0.639537  1
  C  C67  1  0.498259  0.298500  0.578017  1
  C  C68  1  0.501741  0.701500  0.421983  1
  C  C69  1  0.538903  0.616126  0.360463  1
  C  C70  1  0.556162  0.890481  0.814391  1
  C  C71  1  0.592599  0.809737  0.912288  1
  C  C72  1  0.907401  0.309737  0.587712  1
  C  C73  1  0.943838  0.390481  0.685609  1
  C  C74  1  0.961097  0.116126  0.139537  1
  C  C75  1  0.998259  0.201500  0.078017  1
  N  N76  1  0.206217  0.283863  0.707930  1
  N  N77  1  0.293783  0.783863  0.792070  1
  N  N78  1  0.706217  0.216137  0.207930  1
  N  N79  1  0.793783  0.716137  0.292070  1
  O  O80  1  0.024450  0.895750  0.318178  1
  O  O81  1  0.027193  0.739845  0.474309  1
  O  O82  1  0.040488  0.409465  0.706672  1
  O  O83  1  0.039814  0.067131  0.184704  1
  O  O84  1  0.065051  0.743866  0.971143  1
  O  O85  1  0.095519  0.570875  0.770546  1
  O  O86  1  0.103978  0.207571  0.086410  1
  O  O87  1  0.135625  0.902566  0.854558  1
  O  O88  1  0.135292  0.565696  0.255557  1
  O  O89  1  0.149925  0.374490  0.255310  1
  O  O90  1  0.204547  0.062461  0.879826  1
  O  O91  1  0.196916  0.699137  0.418974  1
  O  O92  1  0.199350  0.148402  0.457903  1
  O  O93  1  0.198762  0.984130  0.294664  1
  O  O94  1  0.295453  0.562461  0.620174  1
  O  O95  1  0.301238  0.484130  0.205336  1
  O  O96  1  0.300650  0.648402  0.042097  1
  O  O97  1  0.303084  0.199137  0.081026  1
  O  O98  1  0.350075  0.874490  0.244690  1
  O  O99  1  0.364375  0.402566  0.645442  1
  O  O100  1  0.364708  0.065696  0.244443  1
  O  O101  1  0.396022  0.707571  0.413590  1
  O  O102  1  0.404481  0.070875  0.729454  1
  O  O103  1  0.434949  0.243866  0.528857  1
  O  O104  1  0.459512  0.909465  0.793328  1
  O  O105  1  0.460186  0.567131  0.315296  1
  O  O106  1  0.472807  0.239845  0.025691  1
  O  O107  1  0.475550  0.395750  0.181822  1
  O  O108  1  0.524450  0.604250  0.818178  1
  O  O109  1  0.527193  0.760155  0.974309  1
  O  O110  1  0.539814  0.432869  0.684704  1
  O  O111  1  0.540488  0.090535  0.206672  1
  O  O112  1  0.565051  0.756134  0.471143  1
  O  O113  1  0.595519  0.929125  0.270546  1
  O  O114  1  0.603978  0.292429  0.586410  1
  O  O115  1  0.635292  0.934304  0.755557  1
  O  O116  1  0.635625  0.597434  0.354558  1
  O  O117  1  0.649925  0.125510  0.755310  1
  O  O118  1  0.696916  0.800863  0.918974  1
  O  O119  1  0.699350  0.351598  0.957903  1
  O  O120  1  0.698762  0.515870  0.794664  1
  O  O121  1  0.704547  0.437539  0.379826  1
  O  O122  1  0.801238  0.015870  0.705336  1
  O  O123  1  0.800650  0.851598  0.542097  1
  O  O124  1  0.803084  0.300863  0.581026  1
  O  O125  1  0.795453  0.937539  0.120174  1
  O  O126  1  0.850075  0.625510  0.744690  1
  O  O127  1  0.864708  0.434304  0.744443  1
  O  O128  1  0.864375  0.097434  0.145442  1
  O  O129  1  0.896022  0.792429  0.913590  1
  O  O130  1  0.904481  0.429125  0.229454  1
  O  O131  1  0.934949  0.256134  0.028857  1
  O  O132  1  0.960186  0.932869  0.815296  1
  O  O133  1  0.959512  0.590535  0.293328  1
  O  O134  1  0.972807  0.260155  0.525691  1
  O  O135  1  0.975550  0.104250  0.681822  1
