# generated using pymatgen
data_V6O7F5
_symmetry_space_group_name_H-M   'P 1'
_cell_length_a   4.72711641
_cell_length_b   7.75264220
_cell_length_c   5.60508235
_cell_angle_alpha   94.40350388
_cell_angle_beta   91.43536061
_cell_angle_gamma   89.90831077
_symmetry_Int_Tables_number   1
_chemical_formula_structural   V6O7F5
_chemical_formula_sum   'V6 O7 F5'
_cell_volume   204.74241005
_cell_formula_units_Z   1
loop_
 _symmetry_equiv_pos_site_id
 _symmetry_equiv_pos_as_xyz
  1  'x, y, z'
loop_
 _atom_site_type_symbol
 _atom_site_label
 _atom_site_symmetry_multiplicity
 _atom_site_fract_x
 _atom_site_fract_y
 _atom_site_fract_z
 _atom_site_occupancy
  V  V0  1  0.514787  0.672577  0.153897  1
  V  V1  1  0.458362  0.006502  0.514547  1
  V  V2  1  0.545482  0.321858  0.811502  1
  V  V3  1  0.989325  0.672083  0.681718  1
  V  V4  1  0.986144  0.338117  0.338529  1
  V  V5  1  0.009031  0.985382  0.996409  1
  O  O6  1  0.801119  0.439502  0.626185  1
  O  O7  1  0.802458  0.760668  0.964685  1
  O  O8  1  0.708230  0.103768  0.803897  1
  O  O9  1  0.689228  0.426961  0.118739  1
  O  O10  1  0.298582  0.249385  0.544648  1
  O  O11  1  0.305030  0.897184  0.204544  1
  O  O12  1  0.198860  0.891173  0.700777  1
  F  F13  1  0.799087  0.098202  0.304552  1
  F  F14  1  0.695030  0.776382  0.468088  1
  F  F15  1  0.304628  0.555630  0.862729  1
  F  F16  1  0.199242  0.230184  0.036033  1
  F  F17  1  0.195378  0.574443  0.368521  1
