# generated using pymatgen
data_V6O5F8
_symmetry_space_group_name_H-M   'P 1'
_cell_length_a   4.97214164
_cell_length_b   31.02273776
_cell_length_c   5.10341401
_cell_angle_alpha   90.00000000
_cell_angle_beta   90.00000000
_cell_angle_gamma   88.11773744
_symmetry_Int_Tables_number   1
_chemical_formula_structural   V6O5F8
_chemical_formula_sum   'V24 O20 F32'
_cell_volume   786.77403691
_cell_formula_units_Z   4
loop_
 _symmetry_equiv_pos_site_id
 _symmetry_equiv_pos_as_xyz
  1  'x, y, z'
loop_
 _atom_site_type_symbol
 _atom_site_label
 _atom_site_symmetry_multiplicity
 _atom_site_fract_x
 _atom_site_fract_y
 _atom_site_fract_z
 _atom_site_occupancy
  V  V0  1  0.294139  0.000647  0.745087  1
  V  V1  1  0.294139  0.500647  0.754913  1
  V  V2  1  0.290683  0.256562  0.286473  1
  V  V3  1  0.290683  0.756562  0.213527  1
  V  V4  1  0.271069  0.661690  0.794555  1
  V  V5  1  0.307469  0.339164  0.731716  1
  V  V6  1  0.307469  0.839164  0.768284  1
  V  V7  1  0.271069  0.161690  0.705445  1
  V  V8  1  0.291414  0.081398  0.291206  1
  V  V9  1  0.291414  0.581398  0.208794  1
  V  V10  1  0.303397  0.418439  0.293446  1
  V  V11  1  0.303397  0.918439  0.206554  1
  V  V12  1  0.696603  0.081561  0.793446  1
  V  V13  1  0.708586  0.918602  0.708794  1
  V  V14  1  0.708586  0.418602  0.791206  1
  V  V15  1  0.696603  0.581561  0.706554  1
  V  V16  1  0.692531  0.160836  0.231716  1
  V  V17  1  0.728931  0.838310  0.294555  1
  V  V18  1  0.692531  0.660836  0.268284  1
  V  V19  1  0.728931  0.338310  0.205445  1
  V  V20  1  0.709317  0.743438  0.713527  1
  V  V21  1  0.709317  0.243438  0.786473  1
  V  V22  1  0.705861  0.499353  0.245087  1
  V  V23  1  0.705861  0.999353  0.254913  1
  O  O24  1  0.485405  0.291142  -0.000253  1
  O  O25  1  0.485405  0.791142  0.500253  1
  O  O26  1  0.472825  0.877051  0.496428  1
  O  O27  1  0.449876  0.626236  0.498384  1
  O  O28  1  0.472825  0.377051  0.003572  1
  O  O29  1  0.449876  0.126236  0.001616  1
  O  O30  1  0.480122  0.541607  0.471751  1
  O  O31  1  0.479512  0.958967  0.470348  1
  O  O32  1  0.480122  0.041607  0.028248  1
  O  O33  1  0.479512  0.458967  0.029652  1
  O  O34  1  0.520488  0.541033  0.970348  1
  O  O35  1  0.520488  0.041033  0.529652  1
  O  O36  1  0.519878  0.458393  0.528249  1
  O  O37  1  0.519878  0.958393  0.971751  1
  O  O38  1  0.550124  0.873764  0.998384  1
  O  O39  1  0.550124  0.373764  0.501616  1
  O  O40  1  0.527175  0.622949  0.996428  1
  O  O41  1  0.527175  0.122949  0.503572  1
  O  O42  1  0.514595  0.208858  0.499747  1
  O  O43  1  0.514595  0.708858  0.000253  1
  F  F44  1  0.033377  0.034878  0.385698  1
  F  F45  1  0.027964  0.464595  0.386663  1
  F  F46  1  0.033377  0.534878  0.114302  1
  F  F47  1  0.027964  0.964595  0.113337  1
  F  F48  1  0.054283  0.106903  0.629725  1
  F  F49  1  0.070407  0.392417  0.622803  1
  F  F50  1  0.054283  0.606903  0.870275  1
  F  F51  1  0.070407  0.892417  0.877197  1
  F  F52  1  0.048355  0.176107  0.381747  1
  F  F53  1  0.110280  0.317571  0.379051  1
  F  F54  1  0.110280  0.817571  0.120949  1
  F  F55  1  0.048355  0.676107  0.118253  1
  F  F56  1  0.067698  0.249725  0.626739  1
  F  F57  1  0.067698  0.749725  0.873261  1
  F  F58  1  0.418536  0.709135  0.493945  1
  F  F59  1  0.418536  0.209135  0.006055  1
  F  F60  1  0.581464  0.290865  0.506055  1
  F  F61  1  0.581464  0.790865  0.993945  1
  F  F62  1  0.932302  0.750275  0.373261  1
  F  F63  1  0.932302  0.250275  0.126739  1
  F  F64  1  0.889720  0.182429  0.879051  1
  F  F65  1  0.951645  0.823893  0.618253  1
  F  F66  1  0.951645  0.323893  0.881747  1
  F  F67  1  0.889720  0.682429  0.620949  1
  F  F68  1  0.929593  0.607583  0.377197  1
  F  F69  1  0.929593  0.107583  0.122803  1
  F  F70  1  0.945717  0.893097  0.370275  1
  F  F71  1  0.945717  0.393097  0.129725  1
  F  F72  1  0.966623  0.465122  0.885698  1
  F  F73  1  0.972036  0.035405  0.886663  1
  F  F74  1  0.972036  0.535405  0.613337  1
  F  F75  1  0.966623  0.965122  0.614302  1
