# generated using pymatgen
data_Li2MnF4
_symmetry_space_group_name_H-M   'P 1'
_cell_length_a   8.52424300
_cell_length_b   9.74078608
_cell_length_c   9.74078608
_cell_angle_alpha   101.03762945
_cell_angle_beta   115.94793094
_cell_angle_gamma   64.05206906
_symmetry_Int_Tables_number   1
_chemical_formula_structural   Li2MnF4
_chemical_formula_sum   'Li16 Mn8 F32'
_cell_volume   653.95634335
_cell_formula_units_Z   8
loop_
 _symmetry_equiv_pos_site_id
 _symmetry_equiv_pos_as_xyz
  1  'x, y, z'
loop_
 _atom_site_type_symbol
 _atom_site_label
 _atom_site_symmetry_multiplicity
 _atom_site_fract_x
 _atom_site_fract_y
 _atom_site_fract_z
 _atom_site_occupancy
  Li  Li0  1  0.500000  0.142941  0.142941  1
  Li  Li1  1  0.994369  0.011263  0.250000  1
  Li  Li2  1  0.005631  0.250000  0.011263  1
  Li  Li3  1  0.642941  0.357059  0.142941  1
  Li  Li4  1  0.357059  0.142941  0.357059  1
  Li  Li5  1  0.255631  0.488737  0.250000  1
  Li  Li6  1  0.744369  0.250000  0.488737  1
  Li  Li7  1  0.000000  0.357059  0.357059  1
  Li  Li8  1  0.000000  0.642941  0.642941  1
  Li  Li9  1  0.255631  0.750000  0.511263  1
  Li  Li10  1  0.744369  0.511263  0.750000  1
  Li  Li11  1  0.642941  0.857059  0.642941  1
  Li  Li12  1  0.357059  0.642941  0.857059  1
  Li  Li13  1  0.994369  0.750000  0.988737  1
  Li  Li14  1  0.005631  0.988737  0.750000  1
  Li  Li15  1  0.500000  0.857059  0.857059  1
  Mn  Mn16  1  0.775301  0.614245  0.114245  1
  Mn  Mn17  1  0.224699  0.114245  0.614245  1
  Mn  Mn18  1  0.610455  0.614245  0.385755  1
  Mn  Mn19  1  0.661057  0.114245  0.885755  1
  Mn  Mn20  1  0.338943  0.885755  0.114245  1
  Mn  Mn21  1  0.389545  0.385755  0.614245  1
  Mn  Mn22  1  0.775301  0.885755  0.385755  1
  Mn  Mn23  1  0.224699  0.385755  0.885755  1
  F  F24  1  0.270217  0.122227  0.134342  1
  F  F25  1  0.729783  0.134342  0.122227  1
  F  F26  1  0.607556  0.122227  0.365658  1
  F  F27  1  0.392444  0.365658  0.122227  1
  F  F28  1  0.135875  0.134342  0.377773  1
  F  F29  1  0.864125  0.377773  0.134342  1
  F  F30  1  0.012975  0.616798  0.116798  1
  F  F31  1  0.987025  0.116798  0.616798  1
  F  F32  1  0.241898  0.365658  0.377773  1
  F  F33  1  0.758102  0.377773  0.365658  1
  F  F34  1  0.487735  0.131227  0.631227  1
  F  F35  1  0.512265  0.631227  0.131227  1
  F  F36  1  0.103823  0.883202  0.116798  1
  F  F37  1  0.618962  0.868773  0.131227  1
  F  F38  1  0.856508  0.631227  0.368773  1
  F  F39  1  0.381038  0.131227  0.868773  1
  F  F40  1  0.370227  0.616798  0.383202  1
  F  F41  1  0.143492  0.368773  0.631227  1
  F  F42  1  0.896177  0.116798  0.883202  1
  F  F43  1  0.629773  0.383202  0.616798  1
  F  F44  1  0.512265  0.868773  0.368773  1
  F  F45  1  0.487735  0.368773  0.868773  1
  F  F46  1  0.758102  0.634342  0.622227  1
  F  F47  1  0.241898  0.622227  0.634342  1
  F  F48  1  0.012975  0.883202  0.383202  1
  F  F49  1  0.987025  0.383202  0.883202  1
  F  F50  1  0.864125  0.865658  0.622227  1
  F  F51  1  0.135875  0.622227  0.865658  1
  F  F52  1  0.607556  0.634342  0.877773  1
  F  F53  1  0.392444  0.877773  0.634342  1
  F  F54  1  0.270217  0.865658  0.877773  1
  F  F55  1  0.729783  0.877773  0.865658  1
