# generated using pymatgen
data_Li4Mn5V3O16
_symmetry_space_group_name_H-M   'P 1'
_cell_length_a   5.96418698
_cell_length_b   6.02834515
_cell_length_c   9.65618747
_cell_angle_alpha   91.11631426
_cell_angle_beta   90.18481381
_cell_angle_gamma   122.17519500
_symmetry_Int_Tables_number   1
_chemical_formula_structural   Li4Mn5V3O16
_chemical_formula_sum   'Li4 Mn5 V3 O16'
_cell_volume   293.76793027
_cell_formula_units_Z   1
loop_
 _symmetry_equiv_pos_site_id
 _symmetry_equiv_pos_as_xyz
  1  'x, y, z'
loop_
 _atom_site_type_symbol
 _atom_site_label
 _atom_site_symmetry_multiplicity
 _atom_site_fract_x
 _atom_site_fract_y
 _atom_site_fract_z
 _atom_site_occupancy
  Li  Li0  1  0.334926  0.670950  0.895645  1
  Li  Li1  1  0.014263  0.985992  0.994346  1
  Li  Li2  1  0.975741  0.997202  0.494732  1
  Li  Li3  1  0.672043  0.338573  0.396846  1
  Mn  Mn4  1  0.322814  0.673354  0.487309  1
  Mn  Mn5  1  0.676025  0.830201  0.212288  1
  Mn  Mn6  1  0.679772  0.325957  0.987166  1
  Mn  Mn7  1  0.825086  0.669089  0.713849  1
  Mn  Mn8  1  0.813779  0.170830  0.714252  1
  V  V9  1  0.183542  0.828351  0.215163  1
  V  V10  1  0.187451  0.333993  0.212931  1
  V  V11  1  0.323594  0.185743  0.712692  1
  O  O12  1  0.150005  0.856892  0.608022  1
  O  O13  1  0.043853  0.511320  0.338601  1
  O  O14  1  0.345660  0.662839  0.106015  1
  O  O15  1  0.009111  0.993878  0.309994  1
  O  O16  1  0.979559  0.011193  0.809217  1
  O  O17  1  0.144387  0.324618  0.603570  1
  O  O18  1  0.465726  0.964024  0.342099  1
  O  O19  1  0.484713  0.513055  0.331393  1
  O  O20  1  0.345590  0.160479  0.104223  1
  O  O21  1  0.650592  0.847252  0.598397  1
  O  O22  1  0.503842  0.481517  0.826940  1
  O  O23  1  0.509344  0.044274  0.836645  1
  O  O24  1  0.660168  0.330499  0.608937  1
  O  O25  1  0.872962  0.660887  0.097899  1
  O  O26  1  0.957335  0.470895  0.843527  1
  O  O27  1  0.868119  0.156445  0.105149  1
