# generated using pymatgen
data_Li3Mn2P2(CO7)2
_symmetry_space_group_name_H-M   'P 1'
_cell_length_a   8.29658805
_cell_length_b   10.10134866
_cell_length_c   6.47932013
_cell_angle_alpha   90.18635162
_cell_angle_beta   90.47547752
_cell_angle_gamma   85.69765844
_symmetry_Int_Tables_number   1
_chemical_formula_structural   Li3Mn2P2(CO7)2
_chemical_formula_sum   'Li6 Mn4 P4 C4 O28'
_cell_volume   541.45992849
_cell_formula_units_Z   2
loop_
 _symmetry_equiv_pos_site_id
 _symmetry_equiv_pos_as_xyz
  1  'x, y, z'
loop_
 _atom_site_type_symbol
 _atom_site_label
 _atom_site_symmetry_multiplicity
 _atom_site_fract_x
 _atom_site_fract_y
 _atom_site_fract_z
 _atom_site_occupancy
  Li  Li0  1  0.261118  0.125502  0.021843  1
  Li  Li1  1  0.256079  0.125578  0.478740  1
  Li  Li2  1  0.274532  0.619361  0.053149  1
  Li  Li3  1  0.730202  0.366585  0.970080  1
  Li  Li4  1  0.736734  0.884767  0.534314  1
  Li  Li5  1  0.902403  0.616366  0.741147  1
  Mn  Mn6  1  0.329457  0.402421  0.743943  1
  Mn  Mn7  1  0.331592  0.895748  0.750382  1
  Mn  Mn8  1  0.670061  0.101368  0.246423  1
  Mn  Mn9  1  0.671471  0.602935  0.252051  1
  P  P10  1  0.420046  0.362744  0.243123  1
  P  P11  1  0.421797  0.865799  0.251879  1
  P  P12  1  0.579578  0.138470  0.752067  1
  P  P13  1  0.579546  0.639640  0.751619  1
  C  C14  1  0.042602  0.354591  0.758187  1
  C  C15  1  0.051088  0.850724  0.748704  1
  C  C16  1  0.953569  0.142560  0.246826  1
  C  C17  1  0.954497  0.646533  0.246499  1
  O  O18  1  0.085715  0.476580  0.751333  1
  O  O19  1  0.100870  0.164526  0.246778  1
  O  O20  1  0.099310  0.971205  0.743771  1
  O  O21  1  0.170493  0.265695  0.744495  1
  O  O22  1  0.096968  0.672144  0.227107  1
  O  O23  1  0.173260  0.760213  0.773381  1
  O  O24  1  0.308376  0.408858  0.060208  1
  O  O25  1  0.325581  0.401864  0.437737  1
  O  O26  1  0.325087  0.921941  0.062393  1
  O  O27  1  0.314329  0.910047  0.437441  1
  O  O28  1  0.409929  0.078456  0.745209  1
  O  O29  1  0.453510  0.206379  0.236355  1
  O  O30  1  0.419143  0.573848  0.770918  1
  O  O31  1  0.456741  0.712390  0.232375  1
  O  O32  1  0.542229  0.291705  0.763576  1
  O  O33  1  0.584237  0.424894  0.224087  1
  O  O34  1  0.539597  0.792665  0.742771  1
  O  O35  1  0.588069  0.925144  0.273228  1
  O  O36  1  0.680932  0.090851  0.940065  1
  O  O37  1  0.679499  0.091590  0.562236  1
  O  O38  1  0.685166  0.597374  0.564477  1
  O  O39  1  0.697147  0.598165  0.932417  1
  O  O40  1  0.834756  0.235954  0.231403  1
  O  O41  1  0.902646  0.322805  0.776945  1
  O  O42  1  0.832994  0.737941  0.272339  1
  O  O43  1  0.900187  0.024849  0.262887  1
  O  O44  1  0.909047  0.818624  0.727850  1
  O  O45  1  0.901583  0.526768  0.241432  1
