# generated using pymatgen
data_Ba2B2O5
_symmetry_space_group_name_H-M   'P 1'
_cell_length_a   12.52261445
_cell_length_b   5.61339418
_cell_length_c   8.47475512
_cell_angle_alpha   90.00000000
_cell_angle_beta   90.84827907
_cell_angle_gamma   90.00000000
_symmetry_Int_Tables_number   1
_chemical_formula_structural   Ba2B2O5
_chemical_formula_sum   'Ba8 B8 O20'
_cell_volume   595.66229150
_cell_formula_units_Z   4
loop_
 _symmetry_equiv_pos_site_id
 _symmetry_equiv_pos_as_xyz
  1  'x, y, z'
loop_
 _atom_site_type_symbol
 _atom_site_label
 _atom_site_symmetry_multiplicity
 _atom_site_fract_x
 _atom_site_fract_y
 _atom_site_fract_z
 _atom_site_occupancy
  Ba  Ba0  1  0.134116  0.048228  0.383700  1
  Ba  Ba1  1  0.155963  0.082714  0.878736  1
  Ba  Ba2  1  0.344037  0.582714  0.121264  1
  Ba  Ba3  1  0.365884  0.548228  0.616300  1
  Ba  Ba4  1  0.634116  0.451772  0.383700  1
  Ba  Ba5  1  0.655963  0.417286  0.878736  1
  Ba  Ba6  1  0.844037  0.917286  0.121264  1
  Ba  Ba7  1  0.865884  0.951772  0.616300  1
  B  B8  1  0.081194  0.542991  0.663098  1
  B  B9  1  0.092583  0.565550  0.163083  1
  B  B10  1  0.407417  0.065550  0.836917  1
  B  B11  1  0.418806  0.042991  0.336902  1
  B  B12  1  0.581194  0.957009  0.663098  1
  B  B13  1  0.592583  0.934450  0.163083  1
  B  B14  1  0.907417  0.434450  0.836917  1
  B  B15  1  0.918806  0.457009  0.336902  1
  O  O16  1  0.004659  0.403942  0.751962  1
  O  O17  1  0.072055  0.784793  0.647148  1
  O  O18  1  0.138193  0.775592  0.114069  1
  O  O19  1  0.140822  0.349802  0.142041  1
  O  O20  1  0.162475  0.404986  0.605884  1
  O  O21  1  0.337525  0.904986  0.394116  1
  O  O22  1  0.359178  0.849802  0.857959  1
  O  O23  1  0.361807  0.275592  0.885931  1
  O  O24  1  0.427945  0.284793  0.352852  1
  O  O25  1  0.504659  0.096058  0.751962  1
  O  O26  1  0.495341  0.903942  0.248038  1
  O  O27  1  0.572055  0.715207  0.647148  1
  O  O28  1  0.638193  0.724408  0.114069  1
  O  O29  1  0.640822  0.150198  0.142041  1
  O  O30  1  0.662475  0.095014  0.605884  1
  O  O31  1  0.837525  0.595014  0.394116  1
  O  O32  1  0.859178  0.650198  0.857959  1
  O  O33  1  0.861807  0.224408  0.885931  1
  O  O34  1  0.927945  0.215207  0.352852  1
  O  O35  1  0.995341  0.596058  0.248038  1
