# generated using pymatgen
data_InH11S2O13
_symmetry_space_group_name_H-M   'P 1'
_cell_length_a   10.53276039
_cell_length_b   10.89719611
_cell_length_c   9.28217819
_cell_angle_alpha   90.00000000
_cell_angle_beta   99.51334272
_cell_angle_gamma   90.00000000
_symmetry_Int_Tables_number   1
_chemical_formula_structural   InH11S2O13
_chemical_formula_sum   'In4 H44 S8 O52'
_cell_volume   1050.73362204
_cell_formula_units_Z   4
loop_
 _symmetry_equiv_pos_site_id
 _symmetry_equiv_pos_as_xyz
  1  'x, y, z'
loop_
 _atom_site_type_symbol
 _atom_site_label
 _atom_site_symmetry_multiplicity
 _atom_site_fract_x
 _atom_site_fract_y
 _atom_site_fract_z
 _atom_site_occupancy
  In  In0  1  0.208805  0.362679  0.593515  1
  In  In1  1  0.208805  0.137321  0.093515  1
  In  In2  1  0.791195  0.862679  0.906485  1
  In  In3  1  0.791195  0.637321  0.406485  1
  H  H4  1  0.088492  0.322762  0.895451  1
  H  H5  1  0.095071  0.130248  0.564285  1
  H  H6  1  0.088492  0.177238  0.395451  1
  H  H7  1  0.144492  0.690429  0.592792  1
  H  H8  1  0.248999  0.790027  0.962461  1
  H  H9  1  0.095071  0.369752  0.064285  1
  H  H10  1  0.144492  0.809571  0.092792  1
  H  H11  1  0.222868  0.822729  0.581526  1
  H  H12  1  0.248999  0.709973  0.462461  1
  H  H13  1  0.323634  0.519713  0.822315  1
  H  H14  1  0.343057  0.918302  0.843378  1
  H  H15  1  0.346396  0.023457  0.574874  1
  H  H16  1  0.222868  0.677271  0.081526  1
  H  H17  1  0.393106  0.786032  0.824535  1
  H  H18  1  0.323634  0.980287  0.322315  1
  H  H19  1  0.409473  0.527488  0.696601  1
  H  H20  1  0.343057  0.581698  0.343378  1
  H  H21  1  0.418313  0.903498  0.547446  1
  H  H22  1  0.346396  0.476543  0.074874  1
  H  H23  1  0.393106  0.713968  0.324535  1
  H  H24  1  0.409473  0.972512  0.196601  1
  H  H25  1  0.418313  0.596502  0.047446  1
  H  H26  1  0.581687  0.403498  0.952554  1
  H  H27  1  0.590527  0.027488  0.803399  1
  H  H28  1  0.606894  0.286032  0.675465  1
  H  H29  1  0.653604  0.523457  0.925126  1
  H  H30  1  0.581687  0.096502  0.452554  1
  H  H31  1  0.656943  0.418302  0.656622  1
  H  H32  1  0.590527  0.472512  0.303399  1
  H  H33  1  0.676366  0.019713  0.677685  1
  H  H34  1  0.606894  0.213968  0.175465  1
  H  H35  1  0.777132  0.322729  0.918474  1
  H  H36  1  0.653604  0.976543  0.425126  1
  H  H37  1  0.656943  0.081698  0.156622  1
  H  H38  1  0.676366  0.480287  0.177685  1
  H  H39  1  0.751001  0.290027  0.537539  1
  H  H40  1  0.777132  0.177271  0.418474  1
  H  H41  1  0.855508  0.190429  0.907208  1
  H  H42  1  0.904929  0.630248  0.935715  1
  H  H43  1  0.751001  0.209973  0.037539  1
  H  H44  1  0.855508  0.309571  0.407208  1
  H  H45  1  0.911508  0.822762  0.604549  1
  H  H46  1  0.904929  0.869752  0.435715  1
  H  H47  1  0.911508  0.677238  0.104549  1
  S  S48  1  0.025642  0.019207  0.791764  1
  S  S49  1  0.025642  0.480793  0.291764  1
  S  S50  1  0.398394  0.190974  0.853125  1
  S  S51  1  0.398394  0.309026  0.353125  1
  S  S52  1  0.601606  0.690974  0.646875  1
  S  S53  1  0.601606  0.809026  0.146875  1
  S  S54  1  0.974358  0.519207  0.708236  1
  S  S55  1  0.974358  0.980793  0.208236  1
  O  O56  1  0.052758  0.628825  0.699122  1
  O  O57  1  0.056852  0.403175  0.717768  1
  O  O58  1  0.126244  0.005467  0.928487  1
  O  O59  1  0.089566  0.016350  0.662880  1
  O  O60  1  0.052758  0.871175  0.199122  1
  O  O61  1  0.108853  0.201970  0.499093  1
  O  O62  1  0.056852  0.096825  0.217768  1
  O  O63  1  0.126244  0.494533  0.428487  1
  O  O64  1  0.089566  0.483650  0.162880  1
  O  O65  1  0.187194  0.748454  0.529928  1
  O  O66  1  0.108853  0.298030  0.999093  1
  O  O67  1  0.270311  0.237674  0.778646  1
  O  O68  1  0.345623  0.543386  0.004366  1
  O  O69  1  0.319101  0.831162  0.849061  1
  O  O70  1  0.187194  0.751546  0.029928  1
  O  O71  1  0.319279  0.516488  0.712935  1
  O  O72  1  0.270311  0.262326  0.278646  1
  O  O73  1  0.345623  0.956614  0.504366  1
  O  O74  1  0.319101  0.668838  0.349061  1
  O  O75  1  0.424507  0.069070  0.790429  1
  O  O76  1  0.319279  0.983512  0.212935  1
  O  O77  1  0.386898  0.325950  0.512508  1
  O  O78  1  0.502685  0.277853  0.842755  1
  O  O79  1  0.424507  0.430930  0.290429  1
  O  O80  1  0.386898  0.174050  0.012508  1
  O  O81  1  0.497315  0.777853  0.657245  1
  O  O82  1  0.502685  0.222147  0.342755  1
  O  O83  1  0.613102  0.825950  0.987492  1
  O  O84  1  0.575493  0.569070  0.709571  1
  O  O85  1  0.497315  0.722147  0.157245  1
  O  O86  1  0.613102  0.674050  0.487492  1
  O  O87  1  0.680721  0.016488  0.787065  1
  O  O88  1  0.575493  0.930930  0.209571  1
  O  O89  1  0.680899  0.331162  0.650939  1
  O  O90  1  0.654377  0.043386  0.495634  1
  O  O91  1  0.729689  0.737674  0.721354  1
  O  O92  1  0.680721  0.483512  0.287065  1
  O  O93  1  0.812806  0.248454  0.970072  1
  O  O94  1  0.680899  0.168838  0.150939  1
  O  O95  1  0.654377  0.456614  0.995634  1
  O  O96  1  0.729689  0.762326  0.221354  1
  O  O97  1  0.891147  0.701970  0.000907  1
  O  O98  1  0.812806  0.251546  0.470072  1
  O  O99  1  0.910434  0.516350  0.837120  1
  O  O100  1  0.873756  0.505467  0.571513  1
  O  O101  1  0.943148  0.903175  0.782232  1
  O  O102  1  0.891147  0.798030  0.500907  1
  O  O103  1  0.947242  0.128825  0.800878  1
  O  O104  1  0.910434  0.983650  0.337120  1
  O  O105  1  0.873756  0.994533  0.071513  1
  O  O106  1  0.943148  0.596825  0.282232  1
  O  O107  1  0.947242  0.371175  0.300878  1
