# generated using pymatgen
data_ReH12C2S2N4Cl5O3
_symmetry_space_group_name_H-M   'P 1'
_cell_length_a   13.81933544
_cell_length_b   7.17671457
_cell_length_c   16.61524892
_cell_angle_alpha   90.00000000
_cell_angle_beta   101.82147934
_cell_angle_gamma   90.00000000
_symmetry_Int_Tables_number   1
_chemical_formula_structural   ReH12C2S2N4Cl5O3
_chemical_formula_sum   'Re4 H48 C8 S8 N16 Cl20 O12'
_cell_volume   1612.90764376
_cell_formula_units_Z   4
loop_
 _symmetry_equiv_pos_site_id
 _symmetry_equiv_pos_as_xyz
  1  'x, y, z'
loop_
 _atom_site_type_symbol
 _atom_site_label
 _atom_site_symmetry_multiplicity
 _atom_site_fract_x
 _atom_site_fract_y
 _atom_site_fract_z
 _atom_site_occupancy
  Re  Re0  1  0.197287  0.243389  0.979730  1
  Re  Re1  1  0.802713  0.743389  0.520270  1
  Re  Re2  1  0.802713  0.756611  0.020270  1
  Re  Re3  1  0.197287  0.256611  0.479730  1
  H  H4  1  0.083481  0.790419  0.820458  1
  H  H5  1  0.916519  0.290419  0.679542  1
  H  H6  1  0.916519  0.209581  0.179542  1
  H  H7  1  0.083481  0.709581  0.320458  1
  H  H8  1  0.200423  0.681065  0.830266  1
  H  H9  1  0.799577  0.181065  0.669734  1
  H  H10  1  0.799577  0.318935  0.169734  1
  H  H11  1  0.200423  0.818935  0.330266  1
  H  H12  1  0.005647  0.908009  0.689332  1
  H  H13  1  0.994353  0.408009  0.810668  1
  H  H14  1  0.994353  0.091991  0.310668  1
  H  H15  1  0.005647  0.591991  0.189332  1
  H  H16  1  0.074067  0.922432  0.611698  1
  H  H17  1  0.925933  0.422432  0.888302  1
  H  H18  1  0.925933  0.077568  0.388302  1
  H  H19  1  0.074067  0.577568  0.111698  1
  H  H20  1  0.539764  0.902289  0.902291  1
  H  H21  1  0.460236  0.402289  0.597709  1
  H  H22  1  0.460236  0.097711  0.097709  1
  H  H23  1  0.539764  0.597711  0.402291  1
  H  H24  1  0.511015  0.663741  0.885711  1
  H  H25  1  0.488985  0.163741  0.614289  1
  H  H26  1  0.488985  0.336259  0.114289  1
  H  H27  1  0.511015  0.836259  0.385711  1
  H  H28  1  0.432269  0.125189  0.815881  1
  H  H29  1  0.567731  0.625189  0.684119  1
  H  H30  1  0.567731  0.874811  0.184119  1
  H  H31  1  0.432269  0.374811  0.315881  1
  H  H32  1  0.338390  0.034825  0.736675  1
  H  H33  1  0.661610  0.534825  0.763325  1
  H  H34  1  0.661610  0.965175  0.263325  1
  H  H35  1  0.338390  0.465175  0.236675  1
  H  H36  1  0.375829  0.394550  0.935953  1
  H  H37  1  0.624171  0.894550  0.564047  1
  H  H38  1  0.624171  0.605450  0.064047  1
  H  H39  1  0.375829  0.105450  0.435953  1
  H  H40  1  0.365785  0.514361  0.013261  1
  H  H41  1  0.634215  0.014361  0.486739  1
  H  H42  1  0.634215  0.485639  0.986739  1
  H  H43  1  0.365785  0.985639  0.513261  1
  H  H44  1  0.084741  0.340311  0.651380  1
  H  H45  1  0.915259  0.840311  0.848620  1
  H  H46  1  0.915259  0.659689  0.348620  1
  H  H47  1  0.084741  0.159689  0.151380  1
  H  H48  1  0.999392  0.459039  0.601519  1
  H  H49  1  0.000608  0.959039  0.898481  1
  H  H50  1  0.000608  0.540961  0.398481  1
  H  H51  1  0.999392  0.040961  0.101519  1
  C  C52  1  0.145629  0.801313  0.719476  1
  C  C53  1  0.854371  0.301313  0.780524  1
  C  C54  1  0.854371  0.198687  0.280524  1
  C  C55  1  0.145629  0.698687  0.219476  1
  C  C56  1  0.419951  0.841483  0.810084  1
  C  C57  1  0.580049  0.341483  0.689916  1
  C  C58  1  0.580049  0.158517  0.189916  1
  C  C59  1  0.419951  0.658517  0.310084  1
  S  S60  1  0.247630  0.751925  0.672124  1
  S  S61  1  0.752370  0.251925  0.827876  1
  S  S62  1  0.752370  0.248075  0.327876  1
  S  S63  1  0.247630  0.748075  0.172124  1
  S  S64  1  0.351521  0.641494  0.764794  1
  S  S65  1  0.648479  0.141494  0.735206  1
  S  S66  1  0.648479  0.358506  0.235206  1
  S  S67  1  0.351521  0.858506  0.264794  1
  N  N68  1  0.144022  0.754595  0.795533  1
  N  N69  1  0.855978  0.254595  0.704467  1
  N  N70  1  0.855978  0.245405  0.204467  1
  N  N71  1  0.144022  0.745405  0.295533  1
  N  N72  1  0.070890  0.887365  0.670871  1
  N  N73  1  0.929110  0.387365  0.829129  1
  N  N74  1  0.929110  0.112635  0.329129  1
  N  N75  1  0.070890  0.612635  0.170871  1
  N  N76  1  0.495290  0.801226  0.870502  1
  N  N77  1  0.504710  0.301226  0.629498  1
  N  N78  1  0.504710  0.198774  0.129498  1
  N  N79  1  0.495290  0.698774  0.370502  1
  N  N80  1  0.395423  0.012002  0.785368  1
  N  N81  1  0.604577  0.512002  0.714632  1
  N  N82  1  0.604577  0.987998  0.214632  1
  N  N83  1  0.395423  0.487998  0.285368  1
  Cl  Cl84  1  0.250689  0.261028  0.125095  1
  Cl  Cl85  1  0.749311  0.761028  0.374905  1
  Cl  Cl86  1  0.749311  0.738972  0.874905  1
  Cl  Cl87  1  0.250689  0.238972  0.625095  1
  Cl  Cl88  1  0.182812  0.266124  0.835549  1
  Cl  Cl89  1  0.817188  0.766124  0.664451  1
  Cl  Cl90  1  0.817188  0.733876  0.164451  1
  Cl  Cl91  1  0.182812  0.233876  0.335549  1
  Cl  Cl92  1  0.124178  0.543930  0.982135  1
  Cl  Cl93  1  0.875822  0.043930  0.517865  1
  Cl  Cl94  1  0.875822  0.456070  0.017865  1
  Cl  Cl95  1  0.124178  0.956070  0.482135  1
  Cl  Cl96  1  0.314815  0.005215  0.981847  1
  Cl  Cl97  1  0.685185  0.505215  0.518153  1
  Cl  Cl98  1  0.685185  0.994785  0.018153  1
  Cl  Cl99  1  0.314815  0.494785  0.481847  1
  Cl  Cl100  1  0.513262  0.351775  0.893735  1
  Cl  Cl101  1  0.486738  0.851775  0.606265  1
  Cl  Cl102  1  0.486738  0.648225  0.106265  1
  Cl  Cl103  1  0.513262  0.148225  0.393735  1
  O  O104  1  0.094529  0.112818  0.978552  1
  O  O105  1  0.905471  0.612818  0.521448  1
  O  O106  1  0.905471  0.887182  0.021448  1
  O  O107  1  0.094529  0.387182  0.478552  1
  O  O108  1  0.326977  0.437519  0.968433  1
  O  O109  1  0.673023  0.937519  0.531567  1
  O  O110  1  0.673023  0.562481  0.031567  1
  O  O111  1  0.326977  0.062481  0.468433  1
  O  O112  1  0.021379  0.397970  0.654617  1
  O  O113  1  0.978621  0.897970  0.845383  1
  O  O114  1  0.978621  0.602030  0.345383  1
  O  O115  1  0.021379  0.102030  0.154617  1
