# generated using pymatgen
data_Mn6O5F7
_symmetry_space_group_name_H-M   'P 1'
_cell_length_a   5.73924500
_cell_length_b   5.17856648
_cell_length_c   14.42501125
_cell_angle_alpha   92.60550202
_cell_angle_beta   88.90916874
_cell_angle_gamma   90.06663471
_symmetry_Int_Tables_number   1
_chemical_formula_structural   Mn6O5F7
_chemical_formula_sum   'Mn12 O10 F14'
_cell_volume   428.20580100
_cell_formula_units_Z   2
loop_
 _symmetry_equiv_pos_site_id
 _symmetry_equiv_pos_as_xyz
  1  'x, y, z'
loop_
 _atom_site_type_symbol
 _atom_site_label
 _atom_site_symmetry_multiplicity
 _atom_site_fract_x
 _atom_site_fract_y
 _atom_site_fract_z
 _atom_site_occupancy
  Mn  Mn0  1  0.125264  0.967977  0.009213  1
  Mn  Mn1  1  0.848700  0.491338  0.168528  1
  Mn  Mn2  1  0.114546  0.006976  0.330323  1
  Mn  Mn3  1  0.894042  0.510562  0.503656  1
  Mn  Mn4  1  0.145486  0.012207  0.666505  1
  Mn  Mn5  1  0.961676  0.510860  0.826963  1
  Mn  Mn6  1  0.557955  0.991172  0.167455  1
  Mn  Mn7  1  0.419354  0.474252  0.008162  1
  Mn  Mn8  1  0.424921  0.526147  0.661117  1
  Mn  Mn9  1  0.549210  0.038994  0.496864  1
  Mn  Mn10  1  0.396024  0.500671  0.325006  1
  Mn  Mn11  1  0.489421  0.979560  0.831632  1
  O  O12  1  0.203841  0.734121  0.744629  1
  O  O13  1  0.365107  0.160157  0.077033  1
  O  O14  1  0.355874  0.818332  0.260220  1
  O  O15  1  0.372665  0.842946  0.587824  1
  O  O16  1  0.362547  0.780257  0.941834  1
  O  O17  1  0.348651  0.197148  0.396817  1
  O  O18  1  0.365228  0.214986  0.730280  1
  O  O19  1  0.614248  0.348862  0.566576  1
  O  O20  1  0.611425  0.318072  0.237697  1
  O  O21  1  0.619318  0.665630  0.098858  1
  F  F22  1  0.089501  0.343301  0.249320  1
  F  F23  1  0.104306  0.631944  0.091561  1
  F  F24  1  0.166449  0.299076  0.922813  1
  F  F25  1  0.123842  0.314862  0.586908  1
  F  F26  1  0.135468  0.664336  0.409965  1
  F  F27  1  0.638343  0.303293  0.903462  1
  F  F28  1  0.623848  0.703076  0.424757  1
  F  F29  1  0.677162  0.679417  0.758263  1
  F  F30  1  0.864819  0.158894  0.418347  1
  F  F31  1  0.869945  0.139349  0.085640  1
  F  F32  1  0.906056  0.167562  0.745665  1
  F  F33  1  0.897376  0.846722  0.587787  1
  F  F34  1  0.895388  0.809771  0.926669  1
  F  F35  1  0.861995  0.847171  0.251652  1
