# generated using pymatgen
data_Mn6O7F5
_symmetry_space_group_name_H-M   'P 1'
_cell_length_a   4.69303799
_cell_length_b   7.67017445
_cell_length_c   5.64089959
_cell_angle_alpha   94.70252423
_cell_angle_beta   94.06830102
_cell_angle_gamma   87.79214476
_symmetry_Int_Tables_number   1
_chemical_formula_structural   Mn6O7F5
_chemical_formula_sum   'Mn6 O7 F5'
_cell_volume   201.74945155
_cell_formula_units_Z   1
loop_
 _symmetry_equiv_pos_site_id
 _symmetry_equiv_pos_as_xyz
  1  'x, y, z'
loop_
 _atom_site_type_symbol
 _atom_site_label
 _atom_site_symmetry_multiplicity
 _atom_site_fract_x
 _atom_site_fract_y
 _atom_site_fract_z
 _atom_site_occupancy
  Mn  Mn0  1  0.505249  0.003051  0.507747  1
  Mn  Mn1  1  0.512456  0.653932  0.168454  1
  Mn  Mn2  1  0.497186  0.337919  0.832436  1
  Mn  Mn3  1  0.020769  0.682149  0.662536  1
  Mn  Mn4  1  0.981279  0.316658  0.341296  1
  Mn  Mn5  1  0.983463  0.006782  0.988645  1
  O  O6  1  0.812235  0.094652  0.281429  1
  O  O7  1  0.693338  0.109443  0.792814  1
  O  O8  1  0.688597  0.768263  0.468182  1
  O  O9  1  0.701812  0.427125  0.127055  1
  O  O10  1  0.305105  0.567622  0.876594  1
  O  O11  1  0.312667  0.232268  0.531090  1
  O  O12  1  0.186077  0.905136  0.717393  1
  F  F13  1  0.814092  0.452354  0.638852  1
  F  F14  1  0.799769  0.778487  0.975762  1
  F  F15  1  0.298652  0.892917  0.201335  1
  F  F16  1  0.187154  0.549597  0.361397  1
  F  F17  1  0.200100  0.221644  0.026981  1
