# generated using pymatgen
data_Li3Fe8(BO3)8
_symmetry_space_group_name_H-M   'P 1'
_cell_length_a   5.24889730
_cell_length_b   9.15630536
_cell_length_c   10.10403628
_cell_angle_alpha   90.68274469
_cell_angle_beta   90.05075448
_cell_angle_gamma   89.41249979
_symmetry_Int_Tables_number   1
_chemical_formula_structural   Li3Fe8(BO3)8
_chemical_formula_sum   'Li3 Fe8 B8 O24'
_cell_volume   485.54495662
_cell_formula_units_Z   1
loop_
 _symmetry_equiv_pos_site_id
 _symmetry_equiv_pos_as_xyz
  1  'x, y, z'
loop_
 _atom_site_type_symbol
 _atom_site_label
 _atom_site_symmetry_multiplicity
 _atom_site_fract_x
 _atom_site_fract_y
 _atom_site_fract_z
 _atom_site_occupancy
  Li  Li0  1  0.847440  0.827407  0.654247  1
  Li  Li1  1  0.670322  0.668281  0.392942  1
  Li  Li2  1  0.318315  0.326012  0.156244  1
  Fe  Fe3  1  0.834689  0.167957  0.626808  1
  Fe  Fe4  1  0.828343  0.501327  0.129566  1
  Fe  Fe5  1  0.670150  0.008157  0.885312  1
  Fe  Fe6  1  0.664200  0.336396  0.381395  1
  Fe  Fe7  1  0.348310  0.655262  0.629976  1
  Fe  Fe8  1  0.315618  0.995458  0.128667  1
  Fe  Fe9  1  0.168959  0.840847  0.374942  1
  Fe  Fe10  1  0.171662  0.499038  0.872791  1
  B  B11  1  0.846454  0.500961  0.625834  1
  B  B12  1  0.833684  0.174833  0.123902  1
  B  B13  1  0.665396  0.995166  0.387534  1
  B  B14  1  0.670742  0.333419  0.880288  1
  B  B15  1  0.329637  0.998458  0.630244  1
  B  B16  1  0.324405  0.661385  0.133944  1
  B  B17  1  0.167460  0.511727  0.366262  1
  B  B18  1  0.173419  0.833476  0.874331  1
  O  O19  1  0.907840  0.516829  0.330634  1
  O  O20  1  0.919096  0.859243  0.850702  1
  O  O21  1  0.779373  0.204926  0.828137  1
  O  O22  1  0.764507  0.125859  0.433750  1
  O  O23  1  0.807921  0.867672  0.390525  1
  O  O24  1  0.830835  0.443238  0.929084  1
  O  O25  1  0.722332  0.632452  0.603230  1
  O  O26  1  0.687024  0.060049  0.075902  1
  O  O27  1  0.736952  0.370369  0.586689  1
  O  O28  1  0.699625  0.302988  0.164789  1
  O  O29  1  0.581853  0.649761  0.143866  1
  O  O30  1  0.589428  0.997764  0.670691  1
  O  O31  1  0.416902  0.990347  0.339860  1
  O  O32  1  0.415978  0.350796  0.888909  1
  O  O33  1  0.283868  0.698395  0.844283  1
  O  O34  1  0.278112  0.640049  0.417814  1
  O  O35  1  0.307298  0.389874  0.347942  1
  O  O36  1  0.328165  0.943495  0.922820  1
  O  O37  1  0.184773  0.541085  0.084365  1
  O  O38  1  0.183128  0.120077  0.637430  1
  O  O39  1  0.225671  0.866610  0.582483  1
  O  O40  1  0.193073  0.784808  0.178619  1
  O  O41  1  0.089855  0.168921  0.132734  1
  O  O42  1  0.088329  0.498716  0.680914  1
