# generated using pymatgen
data_Ba3GeO5
_symmetry_space_group_name_H-M   'P 1'
_cell_length_a   8.06502604
_cell_length_b   10.66783996
_cell_length_c   8.06502600
_cell_angle_alpha   112.21025815
_cell_angle_beta   59.99999574
_cell_angle_gamma   112.21025914
_symmetry_Int_Tables_number   1
_chemical_formula_structural   Ba3GeO5
_chemical_formula_sum   'Ba9 Ge3 O15'
_cell_volume   540.65732058
_cell_formula_units_Z   3
loop_
 _symmetry_equiv_pos_site_id
 _symmetry_equiv_pos_as_xyz
  1  'x, y, z'
loop_
 _atom_site_type_symbol
 _atom_site_label
 _atom_site_symmetry_multiplicity
 _atom_site_fract_x
 _atom_site_fract_y
 _atom_site_fract_z
 _atom_site_occupancy
  Ba  Ba0  1  0.000523  0.994320  0.496899  1
  Ba  Ba1  1  0.496899  0.994320  0.000523  1
  Ba  Ba2  1  0.496899  0.994320  0.496899  1
  Ba  Ba3  1  0.241002  0.661934  0.710465  1
  Ba  Ba4  1  0.285819  0.327010  0.285819  1
  Ba  Ba5  1  0.710465  0.661934  0.241002  1
  Ba  Ba6  1  0.285819  0.327010  0.755373  1
  Ba  Ba7  1  0.755373  0.327010  0.285819  1
  Ba  Ba8  1  0.710465  0.661934  0.710465  1
  Ge  Ge9  1  0.215877  0.647630  0.215877  1
  Ge  Ge10  1  0.996212  0.988635  0.996212  1
  Ge  Ge11  1  0.774827  0.324482  0.774827  1
  O  O12  1  0.153470  0.460412  0.153470  1
  O  O13  1  0.037222  0.384501  0.673640  1
  O  O14  1  0.357612  0.711678  0.357612  1
  O  O15  1  0.138070  0.051597  0.138070  1
  O  O16  1  0.673640  0.384501  0.037222  1
  O  O17  1  0.357612  0.711678  0.996455  1
  O  O18  1  0.609625  0.828876  0.609625  1
  O  O19  1  0.497554  0.492662  0.497554  1
  O  O20  1  0.138070  0.051597  0.775456  1
  O  O21  1  0.382779  0.148337  0.382779  1
  O  O22  1  0.673640  0.384501  0.673640  1
  O  O23  1  0.775456  0.051597  0.138070  1
  O  O24  1  0.996455  0.711678  0.357612  1
  O  O25  1  0.933742  0.801226  0.933742  1
  O  O26  1  0.712874  0.138622  0.712874  1
