# generated using pymatgen
data_Li3TlPCO7
_symmetry_space_group_name_H-M   'P 1'
_cell_length_a   8.70040000
_cell_length_b   5.22786881
_cell_length_c   6.95527869
_cell_angle_alpha   90.00000000
_cell_angle_beta   90.00000000
_cell_angle_gamma   91.70814307
_symmetry_Int_Tables_number   1
_chemical_formula_structural   Li3TlPCO7
_chemical_formula_sum   'Li6 Tl2 P2 C2 O14'
_cell_volume   316.21714123
_cell_formula_units_Z   2
loop_
 _symmetry_equiv_pos_site_id
 _symmetry_equiv_pos_as_xyz
  1  'x, y, z'
loop_
 _atom_site_type_symbol
 _atom_site_label
 _atom_site_symmetry_multiplicity
 _atom_site_fract_x
 _atom_site_fract_y
 _atom_site_fract_z
 _atom_site_occupancy
  Li  Li0  1  0.999012  0.051554  0.491982  1
  Li  Li1  1  0.158114  0.502837  0.182695  1
  Li  Li2  1  0.490288  0.421029  0.517424  1
  Li  Li3  1  0.509712  0.578971  0.017424  1
  Li  Li4  1  0.841886  0.497163  0.682695  1
  Li  Li5  1  0.000988  0.948446  0.991982  1
  Tl  Tl6  1  0.307676  0.992890  0.752827  1
  Tl  Tl7  1  0.692324  0.007110  0.252827  1
  P  P8  1  0.298713  0.007026  0.239789  1
  P  P9  1  0.701287  0.992974  0.739789  1
  C  C10  1  0.139377  0.491958  0.731361  1
  C  C11  1  0.860623  0.508042  0.231361  1
  O  O12  1  0.044448  0.304979  0.694759  1
  O  O13  1  0.083911  0.702924  0.797926  1
  O  O14  1  0.196830  0.141990  0.085844  1
  O  O15  1  0.202669  0.964042  0.425903  1
  O  O16  1  0.289100  0.476908  0.706576  1
  O  O17  1  0.348775  0.744441  0.161846  1
  O  O18  1  0.438490  0.193695  0.285668  1
  O  O19  1  0.561510  0.806305  0.785668  1
  O  O20  1  0.651225  0.255559  0.661846  1
  O  O21  1  0.710900  0.523092  0.206576  1
  O  O22  1  0.797331  0.035958  0.925903  1
  O  O23  1  0.803170  0.858010  0.585844  1
  O  O24  1  0.916089  0.297076  0.297926  1
  O  O25  1  0.955552  0.695021  0.194759  1
