# generated using pymatgen
data_LiCo(CO3)2
_symmetry_space_group_name_H-M   'P 1'
_cell_length_a   6.45568652
_cell_length_b   7.65438483
_cell_length_c   5.22891948
_cell_angle_alpha   90.00000000
_cell_angle_beta   113.77603993
_cell_angle_gamma   90.00000000
_symmetry_Int_Tables_number   1
_chemical_formula_structural   LiCo(CO3)2
_chemical_formula_sum   'Li2 Co2 C4 O12'
_cell_volume   236.45401196
_cell_formula_units_Z   2
loop_
 _symmetry_equiv_pos_site_id
 _symmetry_equiv_pos_as_xyz
  1  'x, y, z'
loop_
 _atom_site_type_symbol
 _atom_site_label
 _atom_site_symmetry_multiplicity
 _atom_site_fract_x
 _atom_site_fract_y
 _atom_site_fract_z
 _atom_site_occupancy
  Li  Li0  1  0.680980  0.062511  0.381411  1
  Li  Li1  1  0.819020  0.562511  0.618589  1
  Co  Co2  1  0.013476  0.996969  0.008226  1
  Co  Co3  1  0.486524  0.496969  0.991774  1
  C  C4  1  0.109670  0.261608  0.862968  1
  C  C5  1  0.622111  0.241092  0.853784  1
  C  C6  1  0.390330  0.761608  0.137032  1
  C  C7  1  0.877889  0.741092  0.146216  1
  O  O8  1  0.066523  0.118927  0.711860  1
  O  O9  1  0.148445  0.409492  0.781634  1
  O  O10  1  0.399332  0.734812  0.894982  1
  O  O11  1  0.100668  0.234812  0.105018  1
  O  O12  1  0.351555  0.909492  0.218366  1
  O  O13  1  0.433477  0.618927  0.288140  1
  O  O14  1  0.593268  0.391653  0.723999  1
  O  O15  1  0.671758  0.101020  0.762683  1
  O  O16  1  0.910869  0.752073  0.914644  1
  O  O17  1  0.589131  0.252072  0.085356  1
  O  O18  1  0.828242  0.601020  0.237317  1
  O  O19  1  0.906732  0.891653  0.276001  1
