# generated using pymatgen
data_Na5GdO4
_symmetry_space_group_name_H-M   'P 1'
_cell_length_a   6.11587585
_cell_length_b   8.45848700
_cell_length_c   6.13738253
_cell_angle_alpha   90.00000000
_cell_angle_beta   90.00000000
_cell_angle_gamma   90.00000000
_symmetry_Int_Tables_number   1
_chemical_formula_structural   Na5GdO4
_chemical_formula_sum   'Na10 Gd2 O8'
_cell_volume   317.49328163
_cell_formula_units_Z   2
loop_
 _symmetry_equiv_pos_site_id
 _symmetry_equiv_pos_as_xyz
  1  'x, y, z'
loop_
 _atom_site_type_symbol
 _atom_site_label
 _atom_site_symmetry_multiplicity
 _atom_site_fract_x
 _atom_site_fract_y
 _atom_site_fract_z
 _atom_site_occupancy
  Na  Na0  1  0.053118  0.318156  0.920308  1
  Na  Na1  1  0.053118  0.681844  0.920308  1
  Na  Na2  1  0.240035  0.691954  0.400412  1
  Na  Na3  1  0.240035  0.308046  0.400412  1
  Na  Na4  1  0.274175  0.000000  0.661133  1
  Na  Na5  1  0.553118  0.818156  0.079692  1
  Na  Na6  1  0.553118  0.181844  0.079692  1
  Na  Na7  1  0.740035  0.808046  0.599588  1
  Na  Na8  1  0.740035  0.191954  0.599588  1
  Na  Na9  1  0.774175  0.500000  0.338867  1
  Gd  Gd10  1  0.007972  0.000000  0.161369  1
  Gd  Gd11  1  0.507972  0.500000  0.838631  1
  O  O12  1  0.346790  0.000000  0.261388  1
  O  O13  1  0.412841  0.500000  0.181970  1
  O  O14  1  0.389938  0.264928  0.740509  1
  O  O15  1  0.389938  0.735072  0.740509  1
  O  O16  1  0.846790  0.500000  0.738612  1
  O  O17  1  0.912841  0.000000  0.818030  1
  O  O18  1  0.889938  0.764928  0.259491  1
  O  O19  1  0.889938  0.235072  0.259491  1
