# generated using pymatgen
data_Ca5W3O14
_symmetry_space_group_name_H-M   'P 1'
_cell_length_a   10.65665530
_cell_length_b   10.53165447
_cell_length_c   10.52300309
_cell_angle_alpha   90.00000000
_cell_angle_beta   90.00000000
_cell_angle_gamma   90.00000000
_symmetry_Int_Tables_number   1
_chemical_formula_structural   Ca5W3O14
_chemical_formula_sum   'Ca20 W12 O56'
_cell_volume   1181.01990763
_cell_formula_units_Z   4
loop_
 _symmetry_equiv_pos_site_id
 _symmetry_equiv_pos_as_xyz
  1  'x, y, z'
loop_
 _atom_site_type_symbol
 _atom_site_label
 _atom_site_symmetry_multiplicity
 _atom_site_fract_x
 _atom_site_fract_y
 _atom_site_fract_z
 _atom_site_occupancy
  Ca  Ca0  1  0.000000  0.000000  0.500000  1
  Ca  Ca1  1  0.000000  0.500000  0.000000  1
  Ca  Ca2  1  0.004207  0.255821  0.222669  1
  Ca  Ca3  1  0.004207  0.244179  0.722669  1
  Ca  Ca4  1  0.237214  0.519189  0.257534  1
  Ca  Ca5  1  0.237214  0.980811  0.757534  1
  Ca  Ca6  1  0.262786  0.480811  0.757534  1
  Ca  Ca7  1  0.262786  0.019189  0.257534  1
  Ca  Ca8  1  0.495793  0.755821  0.222669  1
  Ca  Ca9  1  0.495793  0.744179  0.722669  1
  Ca  Ca10  1  0.500000  0.500000  0.500000  1
  Ca  Ca11  1  0.500000  0.000000  0.000000  1
  Ca  Ca12  1  0.504207  0.255821  0.277331  1
  Ca  Ca13  1  0.504207  0.244179  0.777331  1
  Ca  Ca14  1  0.737214  0.980811  0.742466  1
  Ca  Ca15  1  0.737214  0.519189  0.242466  1
  Ca  Ca16  1  0.762786  0.019189  0.242466  1
  Ca  Ca17  1  0.762786  0.480811  0.742466  1
  Ca  Ca18  1  0.995793  0.744179  0.777331  1
  Ca  Ca19  1  0.995793  0.755821  0.277331  1
  W  W20  1  0.000000  0.000000  0.000000  1
  W  W21  1  0.000000  0.500000  0.500000  1
  W  W22  1  0.246730  0.744295  0.002361  1
  W  W23  1  0.246730  0.755705  0.502361  1
  W  W24  1  0.253270  0.244295  0.002361  1
  W  W25  1  0.253270  0.255705  0.502361  1
  W  W26  1  0.500000  0.000000  0.500000  1
  W  W27  1  0.500000  0.500000  0.000000  1
  W  W28  1  0.746730  0.755705  0.997639  1
  W  W29  1  0.746730  0.744295  0.497639  1
  W  W30  1  0.753270  0.255705  0.997639  1
  W  W31  1  0.753270  0.244295  0.497639  1
  O  O32  1  0.014999  0.442462  0.331407  1
  O  O33  1  0.014999  0.057538  0.831407  1
  O  O34  1  0.121166  0.628921  0.448460  1
  O  O35  1  0.121166  0.871079  0.948460  1
  O  O36  1  0.132318  0.114354  0.063335  1
  O  O37  1  0.132318  0.385646  0.563335  1
  O  O38  1  0.136899  0.676739  0.133535  1
  O  O39  1  0.136899  0.823261  0.633535  1
  O  O40  1  0.150953  0.188270  0.368296  1
  O  O41  1  0.150953  0.311730  0.868296  1
  O  O42  1  0.160761  0.875780  0.389503  1
  O  O43  1  0.160761  0.624220  0.889503  1
  O  O44  1  0.169362  0.366205  0.111826  1
  O  O45  1  0.169362  0.133795  0.611826  1
  O  O46  1  0.330638  0.633795  0.611826  1
  O  O47  1  0.330638  0.866205  0.111826  1
  O  O48  1  0.339239  0.124220  0.889503  1
  O  O49  1  0.339239  0.375780  0.389503  1
  O  O50  1  0.349046  0.811730  0.868296  1
  O  O51  1  0.349046  0.688270  0.368296  1
  O  O52  1  0.363101  0.323261  0.633535  1
  O  O53  1  0.363101  0.176739  0.133535  1
  O  O54  1  0.367682  0.614354  0.063335  1
  O  O55  1  0.367682  0.885646  0.563335  1
  O  O56  1  0.378834  0.128921  0.448460  1
  O  O57  1  0.378834  0.371079  0.948460  1
  O  O58  1  0.485001  0.557538  0.831407  1
  O  O59  1  0.485001  0.942462  0.331407  1
  O  O60  1  0.514999  0.442462  0.168593  1
  O  O61  1  0.514999  0.057538  0.668593  1
  O  O62  1  0.621166  0.628921  0.051540  1
  O  O63  1  0.621166  0.871079  0.551540  1
  O  O64  1  0.632318  0.114354  0.436665  1
  O  O65  1  0.632318  0.385646  0.936665  1
  O  O66  1  0.636899  0.676739  0.366465  1
  O  O67  1  0.636899  0.823261  0.866465  1
  O  O68  1  0.650954  0.188270  0.131704  1
  O  O69  1  0.650954  0.311730  0.631704  1
  O  O70  1  0.660761  0.624220  0.610497  1
  O  O71  1  0.660761  0.875780  0.110497  1
  O  O72  1  0.669362  0.366205  0.388174  1
  O  O73  1  0.669362  0.133795  0.888174  1
  O  O74  1  0.830638  0.633795  0.888174  1
  O  O75  1  0.830638  0.866205  0.388174  1
  O  O76  1  0.839239  0.124220  0.610497  1
  O  O77  1  0.839239  0.375780  0.110497  1
  O  O78  1  0.849046  0.688270  0.131704  1
  O  O79  1  0.849046  0.811730  0.631704  1
  O  O80  1  0.863101  0.176739  0.366465  1
  O  O81  1  0.863101  0.323261  0.866465  1
  O  O82  1  0.867682  0.614354  0.436665  1
  O  O83  1  0.867682  0.885646  0.936665  1
  O  O84  1  0.878834  0.128921  0.051540  1
  O  O85  1  0.878834  0.371079  0.551540  1
  O  O86  1  0.985001  0.942462  0.168593  1
  O  O87  1  0.985001  0.557538  0.668593  1
