# generated using pymatgen
data_LiAg2F4
_symmetry_space_group_name_H-M   'P 1'
_cell_length_a   6.07225050
_cell_length_b   8.43174488
_cell_length_c   8.65043255
_cell_angle_alpha   90.00000000
_cell_angle_beta   104.90239509
_cell_angle_gamma   90.00000000
_symmetry_Int_Tables_number   1
_chemical_formula_structural   LiAg2F4
_chemical_formula_sum   'Li4 Ag8 F16'
_cell_volume   428.00249541
_cell_formula_units_Z   4
loop_
 _symmetry_equiv_pos_site_id
 _symmetry_equiv_pos_as_xyz
  1  'x, y, z'
loop_
 _atom_site_type_symbol
 _atom_site_label
 _atom_site_symmetry_multiplicity
 _atom_site_fract_x
 _atom_site_fract_y
 _atom_site_fract_z
 _atom_site_occupancy
  Li  Li0  1  0.176213  0.813937  0.491364  1
  Li  Li1  1  0.676213  0.686063  0.991364  1
  Li  Li2  1  0.323787  0.313937  0.008636  1
  Li  Li3  1  0.823787  0.186063  0.508636  1
  Ag  Ag4  1  0.212730  0.988712  0.864512  1
  Ag  Ag5  1  0.287270  0.488712  0.635488  1
  Ag  Ag6  1  0.180639  0.674656  0.121492  1
  Ag  Ag7  1  0.319361  0.174656  0.378508  1
  Ag  Ag8  1  0.680639  0.825344  0.621492  1
  Ag  Ag9  1  0.819361  0.325344  0.878508  1
  Ag  Ag10  1  0.712730  0.511288  0.364512  1
  Ag  Ag11  1  0.787270  0.011288  0.135488  1
  F  F12  1  0.125727  0.418443  0.826801  1
  F  F13  1  0.053892  0.308040  0.457476  1
  F  F14  1  0.113216  0.951310  0.317528  1
  F  F15  1  0.094135  0.167361  0.032694  1
  F  F16  1  0.374273  0.918443  0.673199  1
  F  F17  1  0.553892  0.191960  0.957476  1
  F  F18  1  0.405865  0.667361  0.467306  1
  F  F19  1  0.613216  0.548690  0.817528  1
  F  F20  1  0.386784  0.451310  0.182472  1
  F  F21  1  0.594135  0.332639  0.532694  1
  F  F22  1  0.446108  0.808040  0.042524  1
  F  F23  1  0.625727  0.081557  0.326801  1
  F  F24  1  0.905865  0.832639  0.967306  1
  F  F25  1  0.886784  0.048690  0.682472  1
  F  F26  1  0.946108  0.691960  0.542524  1
  F  F27  1  0.874273  0.581557  0.173199  1
