# generated using pymatgen
data_LiVSiO4
_symmetry_space_group_name_H-M   'P 1'
_cell_length_a   5.57709436
_cell_length_b   5.92905770
_cell_length_c   5.73120585
_cell_angle_alpha   58.85130735
_cell_angle_beta   60.88559427
_cell_angle_gamma   90.00000000
_symmetry_Int_Tables_number   1
_chemical_formula_structural   LiVSiO4
_chemical_formula_sum   'Li2 V2 Si2 O8'
_cell_volume   133.42939082
_cell_formula_units_Z   2
loop_
 _symmetry_equiv_pos_site_id
 _symmetry_equiv_pos_as_xyz
  1  'x, y, z'
loop_
 _atom_site_type_symbol
 _atom_site_label
 _atom_site_symmetry_multiplicity
 _atom_site_fract_x
 _atom_site_fract_y
 _atom_site_fract_z
 _atom_site_occupancy
  Li  Li0  1  0.000000  0.000000  0.000000  1
  Li  Li1  1  0.500000  0.000000  0.000000  1
  V  V2  1  0.000000  0.000000  0.500000  1
  V  V3  1  0.000000  0.500000  0.500000  1
  Si  Si4  1  0.635864  0.385864  0.228272  1
  Si  Si5  1  0.364136  0.614136  0.771728  1
  O  O6  1  0.253020  0.271806  0.993962  1
  O  O7  1  0.746980  0.265766  0.006038  1
  O  O8  1  0.752391  0.258139  0.483723  1
  O  O9  1  0.263886  0.258139  0.483723  1
  O  O10  1  0.253020  0.734234  0.993962  1
  O  O11  1  0.746980  0.728194  0.006038  1
  O  O12  1  0.247609  0.741861  0.516277  1
  O  O13  1  0.736114  0.741861  0.516277  1
