# generated using pymatgen
data_Mn4O7F
_symmetry_space_group_name_H-M   'P 1'
_cell_length_a   8.95244408
_cell_length_b   5.49458435
_cell_length_c   4.96775747
_cell_angle_alpha   90.00000000
_cell_angle_beta   90.00000000
_cell_angle_gamma   88.65619587
_symmetry_Int_Tables_number   1
_chemical_formula_structural   Mn4O7F
_chemical_formula_sum   'Mn8 O14 F2'
_cell_volume   244.29658011
_cell_formula_units_Z   2
loop_
 _symmetry_equiv_pos_site_id
 _symmetry_equiv_pos_as_xyz
  1  'x, y, z'
loop_
 _atom_site_type_symbol
 _atom_site_label
 _atom_site_symmetry_multiplicity
 _atom_site_fract_x
 _atom_site_fract_y
 _atom_site_fract_z
 _atom_site_occupancy
  Mn  Mn0  1  0.004209  0.165135  0.259626  1
  Mn  Mn1  1  0.000676  0.848277  0.736222  1
  Mn  Mn2  1  0.245791  0.334865  0.759626  1
  Mn  Mn3  1  0.249324  0.651723  0.236222  1
  Mn  Mn4  1  0.509980  0.867481  0.756236  1
  Mn  Mn5  1  0.499120  0.143778  0.249648  1
  Mn  Mn6  1  0.750880  0.356222  0.749648  1
  Mn  Mn7  1  0.740020  0.632519  0.256236  1
  O  O8  1  0.109974  0.108159  0.923663  1
  O  O9  1  0.115647  0.889196  0.411268  1
  O  O10  1  0.140026  0.391841  0.423663  1
  O  O11  1  0.134353  0.610804  0.911268  1
  O  O12  1  0.367885  0.385328  0.076155  1
  O  O13  1  0.386520  0.110298  0.579731  1
  O  O14  1  0.388238  0.893050  0.074109  1
  O  O15  1  0.620345  0.112214  0.925881  1
  O  O16  1  0.618974  0.889265  0.424574  1
  O  O17  1  0.629655  0.387786  0.425881  1
  O  O18  1  0.631026  0.610735  0.924574  1
  O  O19  1  0.863480  0.389702  0.079731  1
  O  O20  1  0.861762  0.606950  0.574109  1
  O  O21  1  0.882115  0.114672  0.576155  1
  F  F22  1  0.373698  0.623171  0.582885  1
  F  F23  1  0.876302  0.876829  0.082885  1
