# generated using pymatgen
data_Li3V3P8O29
_symmetry_space_group_name_H-M   'P 1'
_cell_length_a   9.76599005
_cell_length_b   9.73239267
_cell_length_c   14.37332908
_cell_angle_alpha   90.31329184
_cell_angle_beta   90.70755813
_cell_angle_gamma   60.14043665
_symmetry_Int_Tables_number   1
_chemical_formula_structural   Li3V3P8O29
_chemical_formula_sum   'Li6 V6 P16 O58'
_cell_volume   1184.68665879
_cell_formula_units_Z   2
loop_
 _symmetry_equiv_pos_site_id
 _symmetry_equiv_pos_as_xyz
  1  'x, y, z'
loop_
 _atom_site_type_symbol
 _atom_site_label
 _atom_site_symmetry_multiplicity
 _atom_site_fract_x
 _atom_site_fract_y
 _atom_site_fract_z
 _atom_site_occupancy
  Li  Li0  1  0.783710  0.291689  0.048909  1
  Li  Li1  1  0.308181  0.918275  0.062510  1
  Li  Li2  1  0.673391  0.230726  0.447748  1
  Li  Li3  1  0.328379  0.769269  0.556341  1
  Li  Li4  1  0.219102  0.692200  0.948003  1
  Li  Li5  1  0.002340  -0.000192  0.508125  1
  V  V6  1  0.568321  0.431894  0.249934  1
  V  V7  1  0.435022  0.565450  0.748126  1
  V  V8  1  0.568862  0.993885  0.752264  1
  V  V9  1  0.435680  0.008590  0.252101  1
  V  V10  1  0.999376  0.563332  0.255496  1
  V  V11  1  0.998405  0.438236  0.742335  1
  P  P12  1  0.917234  0.772573  0.838079  1
  P  P13  1  0.780027  0.918170  0.336697  1
  P  P14  1  0.920061  0.299519  0.345154  1
  P  P15  1  0.664963  0.666527  0.134328  1
  P  P16  1  0.660906  0.669376  0.631998  1
  P  P17  1  0.776232  0.320351  0.836084  1
  P  P18  1  0.685340  0.221654  0.660815  1
  P  P19  1  0.318089  0.910416  0.846278  1
  P  P20  1  0.687887  0.084344  0.153025  1
  P  P21  1  0.318123  0.775370  0.340041  1
  P  P22  1  0.225132  0.679773  0.164210  1
  P  P23  1  0.337198  0.335682  0.367603  1
  P  P24  1  0.331894  0.335009  0.864050  1
  P  P25  1  0.080795  0.701492  0.654965  1
  P  P26  1  0.221396  0.081836  0.665461  1
  P  P27  1  0.083460  0.227854  0.161833  1
  O  O28  1  0.010976  0.804397  0.572397  1
  O  O29  1  0.912766  0.742568  0.333882  1
  O  O30  1  0.760889  0.007828  0.064776  1
  O  O31  1  0.744469  0.912906  0.833135  1
  O  O32  1  0.910092  0.619150  0.817749  1
  O  O33  1  0.813535  0.657458  0.183778  1
  O  O34  1  0.926018  0.456427  0.334065  1
  O  O35  1  0.992977  0.233660  0.077255  1
  O  O36  1  0.919858  0.344697  0.826934  1
  O  O37  1  0.668369  0.811875  0.678278  1
  O  O38  1  0.618198  0.921626  0.326413  1
  O  O39  1  0.808142  0.518185  0.672848  1
  O  O40  1  0.667941  0.650008  0.031747  1
  O  O41  1  0.644989  0.675096  0.529065  1
  O  O42  1  0.660464  0.518307  0.179035  1
  O  O43  1  0.477891  0.900961  0.824866  1
  O  O44  1  0.517115  0.818966  0.171463  1
  O  O45  1  0.742578  0.340954  0.334693  1
  O  O46  1  0.794261  0.206027  0.749408  1
  O  O47  1  0.765362  0.211574  0.571408  1
  O  O48  1  0.763886  0.252836  0.925242  1
  O  O49  1  0.622249  0.481121  0.814741  1
  O  O50  1  0.506118  0.676683  0.673374  1
  O  O51  1  0.661288  0.257257  0.163188  1
  O  O52  1  0.473572  0.616464  0.325263  1
  O  O53  1  0.349940  0.914937  0.326177  1
  O  O54  1  0.799171  0.994395  0.242389  1
  O  O55  1  0.791159  0.007510  0.417849  1
  O  O56  1  0.201274  0.991065  0.587570  1
  O  O57  1  0.652379  0.082961  0.671411  1
  O  O58  1  0.528343  0.381267  0.673864  1
  O  O59  1  0.337416  0.741223  0.836544  1
  O  O60  1  0.491879  0.325486  0.326169  1
  O  O61  1  0.378678  0.518809  0.182078  1
  O  O62  1  0.238258  0.755282  0.076700  1
  O  O63  1  0.240219  0.786997  0.430106  1
  O  O64  1  0.206152  0.791901  0.252174  1
  O  O65  1  0.259550  0.656330  0.664189  1
  O  O66  1  0.473953  0.182683  0.821680  1
  O  O67  1  0.526679  0.094095  0.177003  1
  O  O68  1  0.339816  0.482377  0.822287  1
  O  O69  1  0.327836  0.345868  0.966872  1
  O  O70  1  0.350366  0.327479  0.470422  1
  O  O71  1  0.190186  0.484499  0.325419  1
  O  O72  1  0.383604  0.072893  0.672335  1
  O  O73  1  0.330522  0.190079  0.321417  1
  O  O74  1  0.080892  0.656360  0.169318  1
  O  O75  1  0.001029  0.798998  0.748863  1
  O  O76  1  0.006072  0.766562  0.923395  1
  O  O77  1  0.071801  0.546607  0.663263  1
  O  O78  1  0.183056  0.345974  0.814585  1
  O  O79  1  0.090205  0.381744  0.181443  1
  O  O80  1  0.255672  0.085292  0.162560  1
  O  O81  1  0.252609  0.979367  0.938444  1
  O  O82  1  0.199333  0.012575  0.763573  1
  O  O83  1  0.088258  0.258109  0.665229  1
  O  O84  1  0.990389  0.200398  0.428827  1
  O  O85  1  0.003391  0.200415  0.252228  1
