# generated using pymatgen
data_LiV3P2(HO3)4
_symmetry_space_group_name_H-M   'P 1'
_cell_length_a   11.83020847
_cell_length_b   10.51452297
_cell_length_c   7.46668930
_cell_angle_alpha   90.00000000
_cell_angle_beta   98.29218094
_cell_angle_gamma   90.00000000
_symmetry_Int_Tables_number   1
_chemical_formula_structural   LiV3P2(HO3)4
_chemical_formula_sum   'Li4 V12 P8 H16 O48'
_cell_volume   919.06411887
_cell_formula_units_Z   4
loop_
 _symmetry_equiv_pos_site_id
 _symmetry_equiv_pos_as_xyz
  1  'x, y, z'
loop_
 _atom_site_type_symbol
 _atom_site_label
 _atom_site_symmetry_multiplicity
 _atom_site_fract_x
 _atom_site_fract_y
 _atom_site_fract_z
 _atom_site_occupancy
  Li  Li0  1  0.165614  0.614628  0.391053  1
  Li  Li1  1  0.334386  0.114628  0.108947  1
  Li  Li2  1  0.665614  0.885372  0.891053  1
  Li  Li3  1  0.834386  0.385372  0.608947  1
  V  V4  1  0.044534  0.217634  0.559351  1
  V  V5  1  0.045380  0.761829  0.061248  1
  V  V6  1  0.234695  0.566443  0.995041  1
  V  V7  1  0.265305  0.066443  0.504959  1
  V  V8  1  0.455466  0.717634  0.940649  1
  V  V9  1  0.454620  0.261829  0.438752  1
  V  V10  1  0.545380  0.738171  0.561248  1
  V  V11  1  0.544534  0.282366  0.059351  1
  V  V12  1  0.734695  0.933557  0.495041  1
  V  V13  1  0.765305  0.433557  0.004959  1
  V  V14  1  0.954620  0.238171  0.938752  1
  V  V15  1  0.955466  0.782366  0.440649  1
  P  P16  1  0.195753  0.820359  0.737688  1
  P  P17  1  0.177394  0.311330  0.233027  1
  P  P18  1  0.304247  0.320359  0.762312  1
  P  P19  1  0.322606  0.811330  0.266973  1
  P  P20  1  0.677394  0.188670  0.733027  1
  P  P21  1  0.695753  0.679641  0.237688  1
  P  P22  1  0.822606  0.688670  0.766973  1
  P  P23  1  0.804247  0.179641  0.262312  1
  H  H24  1  0.030044  0.608568  0.800568  1
  H  H25  1  0.062399  0.045320  0.826858  1
  H  H26  1  0.066195  0.401601  0.770472  1
  H  H27  1  0.061429  0.005903  0.351058  1
  H  H28  1  0.433805  0.901601  0.729528  1
  H  H29  1  0.437601  0.545320  0.673142  1
  H  H30  1  0.469956  0.108568  0.699432  1
  H  H31  1  0.438571  0.505903  0.148942  1
  H  H32  1  0.561429  0.494097  0.851058  1
  H  H33  1  0.530044  0.891432  0.300568  1
  H  H34  1  0.562399  0.454680  0.326858  1
  H  H35  1  0.566195  0.098399  0.270472  1
  H  H36  1  0.938571  0.994097  0.648942  1
  H  H37  1  0.933805  0.598399  0.229528  1
  H  H38  1  0.937601  0.954680  0.173142  1
  H  H39  1  0.969956  0.391432  0.199432  1
  O  O40  1  0.996321  0.353348  0.726239  1
  O  O41  1  0.997669  0.896117  0.227566  1
  O  O42  1  0.071647  0.605336  0.924757  1
  O  O43  1  0.115054  0.865692  0.872574  1
  O  O44  1  0.126091  0.763961  0.564370  1
  O  O45  1  0.098087  0.068990  0.443175  1
  O  O46  1  0.091605  0.333358  0.370186  1
  O  O47  1  0.120785  0.240397  0.064601  1
  O  O48  1  0.221509  0.212119  0.676444  1
  O  O49  1  0.227537  0.432931  0.800614  1
  O  O50  1  0.217985  0.724031  0.186316  1
  O  O51  1  0.272463  0.932931  0.699386  1
  O  O52  1  0.278491  0.712119  0.823556  1
  O  O53  1  0.222193  0.446035  0.198409  1
  O  O54  1  0.277807  0.946035  0.301591  1
  O  O55  1  0.282015  0.224031  0.313684  1
  O  O56  1  0.373909  0.263961  0.935630  1
  O  O57  1  0.384946  0.365692  0.627426  1
  O  O58  1  0.379215  0.740397  0.435399  1
  O  O59  1  0.428353  0.105336  0.575243  1
  O  O60  1  0.408395  0.833358  0.129814  1
  O  O61  1  0.401913  0.568990  0.056825  1
  O  O62  1  0.503679  0.853348  0.773761  1
  O  O63  1  0.497669  0.603883  0.727566  1
  O  O64  1  0.502331  0.396117  0.272434  1
  O  O65  1  0.496321  0.146652  0.226239  1
  O  O66  1  0.598087  0.431010  0.943175  1
  O  O67  1  0.591605  0.166642  0.870186  1
  O  O68  1  0.571647  0.894664  0.424757  1
  O  O69  1  0.620785  0.259603  0.564601  1
  O  O70  1  0.615054  0.634308  0.372574  1
  O  O71  1  0.626091  0.736039  0.064370  1
  O  O72  1  0.717985  0.775969  0.686316  1
  O  O73  1  0.722193  0.053965  0.698409  1
  O  O74  1  0.777807  0.553965  0.801591  1
  O  O75  1  0.721509  0.287881  0.176444  1
  O  O76  1  0.727537  0.067069  0.300614  1
  O  O77  1  0.782015  0.275969  0.813684  1
  O  O78  1  0.772463  0.567069  0.199386  1
  O  O79  1  0.778491  0.787881  0.323556  1
  O  O80  1  0.879215  0.759603  0.935399  1
  O  O81  1  0.908395  0.666642  0.629814  1
  O  O82  1  0.901913  0.931010  0.556825  1
  O  O83  1  0.873909  0.236039  0.435630  1
  O  O84  1  0.884946  0.134308  0.127426  1
  O  O85  1  0.928353  0.394664  0.075243  1
  O  O86  1  0.002331  0.103883  0.772434  1
  O  O87  1  0.003679  0.646652  0.273761  1
