# generated using pymatgen
data_Na5LiCo2P2(CO7)2
_symmetry_space_group_name_H-M   'P 1'
_cell_length_a   8.80502275
_cell_length_b   5.19319178
_cell_length_c   6.72578705
_cell_angle_alpha   90.00000000
_cell_angle_beta   90.00000000
_cell_angle_gamma   87.22243537
_symmetry_Int_Tables_number   1
_chemical_formula_structural   Na5LiCo2P2(CO7)2
_chemical_formula_sum   'Na5 Li1 Co2 P2 C2 O14'
_cell_volume   307.18318694
_cell_formula_units_Z   1
loop_
 _symmetry_equiv_pos_site_id
 _symmetry_equiv_pos_as_xyz
  1  'x, y, z'
loop_
 _atom_site_type_symbol
 _atom_site_label
 _atom_site_symmetry_multiplicity
 _atom_site_fract_x
 _atom_site_fract_y
 _atom_site_fract_z
 _atom_site_occupancy
  Na  Na0  1  0.268873  0.257840  0.008544  1
  Na  Na1  1  0.268873  0.257840  0.491456  1
  Na  Na2  1  0.728663  0.740163  0.993912  1
  Na  Na3  1  0.728663  0.740163  0.506088  1
  Na  Na4  1  0.917241  0.223932  0.750000  1
  Li  Li5  1  0.100969  0.768408  0.250000  1
  Co  Co6  1  0.343571  0.774819  0.750000  1
  Co  Co7  1  0.654397  0.216253  0.250000  1
  P  P8  1  0.409307  0.719237  0.250000  1
  P  P9  1  0.583877  0.280171  0.750000  1
  C  C10  1  0.057606  0.706348  0.750000  1
  C  C11  1  0.948948  0.295615  0.250000  1
  O  O12  1  0.084999  0.377241  0.250000  1
  O  O13  1  0.117084  0.931003  0.750000  1
  O  O14  1  0.149552  0.503265  0.750000  1
  O  O15  1  0.306978  0.794508  0.066983  1
  O  O16  1  0.306978  0.794508  0.433017  1
  O  O17  1  0.432185  0.146006  0.750000  1
  O  O18  1  0.444594  0.422973  0.250000  1
  O  O19  1  0.551409  0.580117  0.750000  1
  O  O20  1  0.560719  0.859154  0.250000  1
  O  O21  1  0.683458  0.204132  0.564481  1
  O  O22  1  0.683458  0.204132  0.935519  1
  O  O23  1  0.833146  0.464351  0.250000  1
  O  O24  1  0.922453  0.051373  0.250000  1
  O  O25  1  0.911999  0.686449  0.750000  1
