# generated using pymatgen
data_Li5Co2Cu2(PO4)4
_symmetry_space_group_name_H-M   'P 1'
_cell_length_a   4.85815365
_cell_length_b   6.21431469
_cell_length_c   10.23574956
_cell_angle_alpha   92.15650638
_cell_angle_beta   86.97638613
_cell_angle_gamma   90.88963528
_symmetry_Int_Tables_number   1
_chemical_formula_structural   Li5Co2Cu2(PO4)4
_chemical_formula_sum   'Li5 Co2 Cu2 P4 O16'
_cell_volume   308.34112146
_cell_formula_units_Z   1
loop_
 _symmetry_equiv_pos_site_id
 _symmetry_equiv_pos_as_xyz
  1  'x, y, z'
loop_
 _atom_site_type_symbol
 _atom_site_label
 _atom_site_symmetry_multiplicity
 _atom_site_fract_x
 _atom_site_fract_y
 _atom_site_fract_z
 _atom_site_occupancy
  Li  Li0  1  0.955117  0.485981  0.981207  1
  Li  Li1  1  0.893187  0.978517  0.868004  1
  Li  Li2  1  0.465129  0.999598  0.537670  1
  Li  Li3  1  0.540598  0.509178  0.475598  1
  Li  Li4  1  0.105352  0.023470  0.130451  1
  Co  Co5  1  0.455170  0.731622  0.785632  1
  Co  Co6  1  0.544409  0.261587  0.215719  1
  Cu  Cu7  1  0.914743  0.270958  0.697962  1
  Cu  Cu8  1  0.084150  0.731012  0.296203  1
  P  P9  1  0.396744  0.245977  0.904112  1
  P  P10  1  0.913691  0.753959  0.598199  1
  P  P11  1  0.088909  0.252192  0.399295  1
  P  P12  1  0.600001  0.754060  0.096047  1
  O  O13  1  0.699853  0.744883  0.946797  1
  O  O14  1  0.716517  0.255084  0.887751  1
  O  O15  1  0.279349  0.034040  0.839447  1
  O  O16  1  0.266848  0.444019  0.841995  1
  O  O17  1  0.756588  0.556587  0.660474  1
  O  O18  1  0.775420  0.947933  0.679757  1
  O  O19  1  0.228498  0.748953  0.606285  1
  O  O20  1  0.180441  0.230068  0.541315  1
  O  O21  1  0.819103  0.762653  0.455911  1
  O  O22  1  0.775005  0.270926  0.392606  1
  O  O23  1  0.212748  0.060756  0.312523  1
  O  O24  1  0.254202  0.451210  0.342131  1
  O  O25  1  0.728679  0.553042  0.155153  1
  O  O26  1  0.723850  0.965652  0.157696  1
  O  O27  1  0.282511  0.749980  0.111933  1
  O  O28  1  0.299013  0.252631  0.051735  1
