# generated using pymatgen
data_Li3Mn2Fe(BO3)3
_symmetry_space_group_name_H-M   'P 1'
_cell_length_a   8.25393165
_cell_length_b   14.31657371
_cell_length_c   3.17052319
_cell_angle_alpha   90.00000000
_cell_angle_beta   90.00000000
_cell_angle_gamma   90.06326515
_symmetry_Int_Tables_number   1
_chemical_formula_structural   Li3Mn2Fe(BO3)3
_chemical_formula_sum   'Li6 Mn4 Fe2 B6 O18'
_cell_volume   374.65422226
_cell_formula_units_Z   2
loop_
 _symmetry_equiv_pos_site_id
 _symmetry_equiv_pos_as_xyz
  1  'x, y, z'
loop_
 _atom_site_type_symbol
 _atom_site_label
 _atom_site_symmetry_multiplicity
 _atom_site_fract_x
 _atom_site_fract_y
 _atom_site_fract_z
 _atom_site_occupancy
  Li  Li0  1  0.291943  0.991098  0.500000  1
  Li  Li1  1  0.340258  0.357837  0.500000  1
  Li  Li2  1  0.366543  0.651003  0.500000  1
  Li  Li3  1  0.793364  0.491533  0.500000  1
  Li  Li4  1  0.841864  0.857898  0.500000  1
  Li  Li5  1  0.868140  0.150664  0.500000  1
  Mn  Mn6  1  0.135413  0.505791  0.000000  1
  Mn  Mn7  1  0.633357  0.006112  0.000000  1
  Mn  Mn8  1  0.673590  0.314609  0.000000  1
  Mn  Mn9  1  0.691110  0.679770  0.000000  1
  Fe  Fe10  1  0.175598  0.816136  0.000000  1
  Fe  Fe11  1  0.187947  0.179644  0.000000  1
  B  B12  1  0.001692  0.667705  0.500000  1
  B  B13  1  0.001173  0.999140  0.000000  1
  B  B14  1  0.001042  0.332189  0.500000  1
  B  B15  1  0.497398  0.167014  0.500000  1
  B  B16  1  0.500091  0.500013  0.000000  1
  B  B17  1  0.497745  0.833467  0.500000  1
  O  O18  1  0.012112  0.428929  0.500000  1
  O  O19  1  0.018193  0.764292  0.500000  1
  O  O20  1  0.138741  0.610852  0.500000  1
  O  O21  1  0.140459  0.277672  0.500000  1
  O  O22  1  0.154051  0.957712  0.000000  1
  O  O23  1  0.344310  0.126655  0.500000  1
  O  O24  1  0.346415  0.790798  0.500000  1
  O  O25  1  0.364267  0.442154  0.000000  1
  O  O26  1  0.481414  0.596764  0.000000  1
  O  O27  1  0.509446  0.930305  0.500000  1
  O  O28  1  0.513757  0.263891  0.500000  1
  O  O29  1  0.636454  0.111308  0.500000  1
  O  O30  1  0.637778  0.779792  0.500000  1
  O  O31  1  0.655000  0.460956  0.000000  1
  O  O32  1  0.848373  0.626555  0.500000  1
  O  O33  1  0.849740  0.289589  0.500000  1
  O  O34  1  0.863379  0.943665  0.000000  1
  O  O35  1  0.987840  0.096489  0.000000  1
