# generated using pymatgen
data_CoNiH12C4(N2O3)2
_symmetry_space_group_name_H-M   'P 1'
_cell_length_a   13.13197075
_cell_length_b   14.79789837
_cell_length_c   6.94181662
_cell_angle_alpha   90.00000000
_cell_angle_beta   90.00000000
_cell_angle_gamma   90.00000000
_symmetry_Int_Tables_number   1
_chemical_formula_structural   CoNiH12C4(N2O3)2
_chemical_formula_sum   'Co4 Ni4 H48 C16 N16 O24'
_cell_volume   1348.97246150
_cell_formula_units_Z   4
loop_
 _symmetry_equiv_pos_site_id
 _symmetry_equiv_pos_as_xyz
  1  'x, y, z'
loop_
 _atom_site_type_symbol
 _atom_site_label
 _atom_site_symmetry_multiplicity
 _atom_site_fract_x
 _atom_site_fract_y
 _atom_site_fract_z
 _atom_site_occupancy
  Co  Co0  1  0.000000  0.500000  0.000000  1
  Co  Co1  1  0.500000  0.000000  0.500000  1
  Co  Co2  1  0.000000  0.000000  0.000000  1
  Co  Co3  1  0.500000  0.500000  0.500000  1
  Ni  Ni4  1  0.055469  0.750000  0.503154  1
  Ni  Ni5  1  0.555469  0.750000  0.996846  1
  Ni  Ni6  1  0.944531  0.250000  0.496846  1
  Ni  Ni7  1  0.444531  0.250000  0.003154  1
  H  H8  1  0.789388  0.525076  0.028673  1
  H  H9  1  0.289388  0.974924  0.471327  1
  H  H10  1  0.210612  0.025076  0.971327  1
  H  H11  1  0.710612  0.474924  0.528673  1
  H  H12  1  0.210612  0.474924  0.971327  1
  H  H13  1  0.710612  0.025076  0.528673  1
  H  H14  1  0.789388  0.974924  0.028673  1
  H  H15  1  0.289388  0.525076  0.471327  1
  H  H16  1  0.272251  0.750000  0.311254  1
  H  H17  1  0.772251  0.750000  0.188746  1
  H  H18  1  0.727749  0.250000  0.688746  1
  H  H19  1  0.227749  0.250000  0.811254  1
  H  H20  1  0.673324  0.419336  0.918110  1
  H  H21  1  0.173324  0.080664  0.581890  1
  H  H22  1  0.326676  0.919336  0.081890  1
  H  H23  1  0.826676  0.580664  0.418110  1
  H  H24  1  0.326676  0.580664  0.081890  1
  H  H25  1  0.826676  0.919336  0.418110  1
  H  H26  1  0.673324  0.080664  0.918110  1
  H  H27  1  0.173324  0.419336  0.581890  1
  H  H28  1  0.832046  0.583978  0.859639  1
  H  H29  1  0.332046  0.916022  0.640361  1
  H  H30  1  0.167954  0.083978  0.140361  1
  H  H31  1  0.667954  0.416022  0.359639  1
  H  H32  1  0.167954  0.416022  0.140361  1
  H  H33  1  0.667954  0.083978  0.359639  1
  H  H34  1  0.832046  0.916022  0.859639  1
  H  H35  1  0.332046  0.583978  0.640361  1
  H  H36  1  0.606149  0.468884  0.065151  1
  H  H37  1  0.106149  0.031116  0.434849  1
  H  H38  1  0.393851  0.968884  0.934849  1
  H  H39  1  0.893851  0.531116  0.565151  1
  H  H40  1  0.393851  0.531116  0.934849  1
  H  H41  1  0.893851  0.968884  0.565151  1
  H  H42  1  0.606149  0.031116  0.065151  1
  H  H43  1  0.106149  0.468884  0.434849  1
  H  H44  1  0.717133  0.302336  0.056075  1
  H  H45  1  0.217133  0.197664  0.443925  1
  H  H46  1  0.282867  0.802336  0.943925  1
  H  H47  1  0.782867  0.697664  0.556075  1
  H  H48  1  0.282867  0.697664  0.943925  1
  H  H49  1  0.782867  0.802336  0.556075  1
  H  H50  1  0.717133  0.197664  0.056075  1
  H  H51  1  0.217133  0.302336  0.443925  1
  H  H52  1  0.343873  0.750000  0.489086  1
  H  H53  1  0.843873  0.750000  0.010914  1
  H  H54  1  0.656127  0.250000  0.510914  1
  H  H55  1  0.156127  0.250000  0.989086  1
  C  C56  1  0.051560  0.658069  0.690168  1
  C  C57  1  0.551560  0.841931  0.809832  1
  C  C58  1  0.948440  0.158069  0.309832  1
  C  C59  1  0.448440  0.341931  0.190168  1
  C  C60  1  0.948440  0.341931  0.309832  1
  C  C61  1  0.448440  0.158069  0.190168  1
  C  C62  1  0.051560  0.841931  0.690168  1
  C  C63  1  0.551560  0.658069  0.809832  1
  C  C64  1  0.045560  0.657034  0.319617  1
  C  C65  1  0.545560  0.842966  0.180383  1
  C  C66  1  0.954440  0.157034  0.680383  1
  C  C67  1  0.454440  0.342966  0.819617  1
  C  C68  1  0.954440  0.342966  0.680383  1
  C  C69  1  0.454440  0.157034  0.819617  1
  C  C70  1  0.045560  0.842966  0.319617  1
  C  C71  1  0.545560  0.657034  0.180383  1
  N  N72  1  0.042071  0.596216  0.794198  1
  N  N73  1  0.542072  0.903784  0.705802  1
  N  N74  1  0.957928  0.096216  0.205802  1
  N  N75  1  0.457929  0.403784  0.294198  1
  N  N76  1  0.957928  0.403784  0.205802  1
  N  N77  1  0.457929  0.096216  0.294198  1
  N  N78  1  0.042071  0.903784  0.794198  1
  N  N79  1  0.542072  0.596216  0.705802  1
  N  N80  1  0.966863  0.406112  0.779749  1
  N  N81  1  0.466863  0.093888  0.720251  1
  N  N82  1  0.033137  0.906112  0.220251  1
  N  N83  1  0.533137  0.593888  0.279749  1
  N  N84  1  0.033137  0.593888  0.220251  1
  N  N85  1  0.533137  0.906112  0.279749  1
  N  N86  1  0.966863  0.093888  0.779749  1
  N  N87  1  0.466863  0.406112  0.720251  1
  O  O88  1  0.850348  0.558068  0.984332  1
  O  O89  1  0.350348  0.941932  0.515668  1
  O  O90  1  0.149652  0.058068  0.015668  1
  O  O91  1  0.649652  0.441932  0.484332  1
  O  O92  1  0.149652  0.441932  0.015668  1
  O  O93  1  0.649652  0.058068  0.484332  1
  O  O94  1  0.850348  0.941932  0.984332  1
  O  O95  1  0.350348  0.558068  0.515668  1
  O  O96  1  0.674753  0.444255  0.048315  1
  O  O97  1  0.174753  0.055745  0.451685  1
  O  O98  1  0.325247  0.944255  0.951685  1
  O  O99  1  0.825247  0.555745  0.548315  1
  O  O100  1  0.325247  0.555745  0.951685  1
  O  O101  1  0.825247  0.944255  0.548315  1
  O  O102  1  0.674753  0.055745  0.048315  1
  O  O103  1  0.174753  0.444255  0.451685  1
  O  O104  1  0.272128  0.750000  0.453153  1
  O  O105  1  0.772128  0.750000  0.046847  1
  O  O106  1  0.727872  0.250000  0.546847  1
  O  O107  1  0.227872  0.250000  0.953153  1
  O  O108  1  0.724322  0.250000  0.971473  1
  O  O109  1  0.224322  0.250000  0.528527  1
  O  O110  1  0.275678  0.750000  0.028527  1
  O  O111  1  0.775678  0.750000  0.471473  1
