# generated using pymatgen
data_Li4Ti3Mn2Nb3O16
_symmetry_space_group_name_H-M   'P 1'
_cell_length_a   6.09259473
_cell_length_b   6.02754413
_cell_length_c   10.12993545
_cell_angle_alpha   89.99636674
_cell_angle_beta   89.68478578
_cell_angle_gamma   119.65374918
_symmetry_Int_Tables_number   1
_chemical_formula_structural   Li4Ti3Mn2Nb3O16
_chemical_formula_sum   'Li4 Ti3 Mn2 Nb3 O16'
_cell_volume   323.27783013
_cell_formula_units_Z   1
loop_
 _symmetry_equiv_pos_site_id
 _symmetry_equiv_pos_as_xyz
  1  'x, y, z'
loop_
 _atom_site_type_symbol
 _atom_site_label
 _atom_site_symmetry_multiplicity
 _atom_site_fract_x
 _atom_site_fract_y
 _atom_site_fract_z
 _atom_site_occupancy
  Li  Li0  1  0.333222  0.666585  0.895811  1
  Li  Li1  1  0.013860  0.006983  0.996567  1
  Li  Li2  1  0.009482  0.004764  0.497319  1
  Li  Li3  1  0.662995  0.331506  0.388364  1
  Ti  Ti4  1  0.168017  0.831091  0.216014  1
  Ti  Ti5  1  0.168033  0.336895  0.216001  1
  Ti  Ti6  1  0.328438  0.164213  0.721606  1
  Mn  Mn7  1  0.344801  0.672452  0.495395  1
  Mn  Mn8  1  0.665901  0.332980  0.000573  1
  Nb  Nb9  1  0.662436  0.831230  0.214959  1
  Nb  Nb10  1  0.833790  0.645567  0.710954  1
  Nb  Nb11  1  0.833792  0.188252  0.710967  1
  O  O12  1  0.155267  0.840279  0.606663  1
  O  O13  1  0.036307  0.518139  0.323393  1
  O  O14  1  0.331635  0.665779  0.105986  1
  O  O15  1  0.004557  0.002310  0.316226  1
  O  O16  1  0.007646  0.003850  0.815277  1
  O  O17  1  0.155266  0.314994  0.606693  1
  O  O18  1  0.480360  0.968624  0.327532  1
  O  O19  1  0.480318  0.511791  0.327528  1
  O  O20  1  0.309678  0.154902  0.109740  1
  O  O21  1  0.694090  0.847062  0.598867  1
  O  O22  1  0.511800  0.479625  0.825036  1
  O  O23  1  0.511826  0.032182  0.825019  1
  O  O24  1  0.629169  0.314553  0.596266  1
  O  O25  1  0.848989  0.691606  0.105619  1
  O  O26  1  0.969307  0.484667  0.847824  1
  O  O27  1  0.849016  0.157420  0.105638  1
