# generated using pymatgen
data_Li2MnH4(SO5)2
_symmetry_space_group_name_H-M   'P 1'
_cell_length_a   5.67962750
_cell_length_b   7.43265017
_cell_length_c   11.11412522
_cell_angle_alpha   69.04480717
_cell_angle_beta   68.96297670
_cell_angle_gamma   69.88321919
_symmetry_Int_Tables_number   1
_chemical_formula_structural   Li2MnH4(SO5)2
_chemical_formula_sum   'Li4 Mn2 H8 S4 O20'
_cell_volume   396.24230306
_cell_formula_units_Z   2
loop_
 _symmetry_equiv_pos_site_id
 _symmetry_equiv_pos_as_xyz
  1  'x, y, z'
loop_
 _atom_site_type_symbol
 _atom_site_label
 _atom_site_symmetry_multiplicity
 _atom_site_fract_x
 _atom_site_fract_y
 _atom_site_fract_z
 _atom_site_occupancy
  Li  Li0  1  0.222816  0.230475  0.623681  1
  Li  Li1  1  0.726441  0.268442  0.085332  1
  Li  Li2  1  0.273559  0.731558  0.914668  1
  Li  Li3  1  0.777184  0.769525  0.376319  1
  Mn  Mn4  1  0.245468  0.027881  0.248111  1
  Mn  Mn5  1  0.754532  0.972119  0.751889  1
  H  H6  1  0.222548  0.416513  0.185169  1
  H  H7  1  0.373404  0.314297  0.299120  1
  H  H8  1  0.244115  0.628235  0.372037  1
  H  H9  1  0.296385  0.687829  0.215085  1
  H  H10  1  0.703615  0.312171  0.784915  1
  H  H11  1  0.755885  0.371765  0.627963  1
  H  H12  1  0.626596  0.685703  0.700880  1
  H  H13  1  0.777452  0.583487  0.814831  1
  S  S14  1  0.226940  0.237846  0.925969  1
  S  S15  1  0.291040  0.772358  0.564820  1
  S  S16  1  0.708960  0.227642  0.435180  1
  S  S17  1  0.773060  0.762154  0.074031  1
  O  O18  1  0.145938  0.103584  0.063658  1
  O  O19  1  0.364427  0.302609  0.213299  1
  O  O20  1  0.983821  0.385283  0.901487  1
  O  O21  1  0.169928  0.722529  0.297909  1
  O  O22  1  0.132953  0.649893  0.569670  1
  O  O23  1  0.168963  0.871246  0.677720  1
  O  O24  1  0.337745  0.116199  0.825642  1
  O  O25  1  0.438429  0.345277  0.426292  1
  O  O26  1  0.328342  0.931928  0.435348  1
  O  O27  1  0.574746  0.669177  0.080186  1
  O  O28  1  0.425254  0.330823  0.919814  1
  O  O29  1  0.671658  0.068072  0.564652  1
  O  O30  1  0.561571  0.654723  0.573708  1
  O  O31  1  0.662255  0.883801  0.174358  1
  O  O32  1  0.831037  0.128754  0.322280  1
  O  O33  1  0.867047  0.350107  0.430330  1
  O  O34  1  0.830072  0.277471  0.702091  1
  O  O35  1  0.016179  0.614717  0.098513  1
  O  O36  1  0.635573  0.697391  0.786701  1
  O  O37  1  0.854062  0.896416  0.936342  1
