# generated using pymatgen
data_ReH(CO)4
_symmetry_space_group_name_H-M   'P 1'
_cell_length_a   9.36773115
_cell_length_b   18.61839198
_cell_length_c   19.54193688
_cell_angle_alpha   77.11253229
_cell_angle_beta   88.17309540
_cell_angle_gamma   85.63782257
_symmetry_Int_Tables_number   1
_chemical_formula_structural   ReH(CO)4
_chemical_formula_sum   'Re20 H20 C80 O80'
_cell_volume   3312.47897193
_cell_formula_units_Z   20
loop_
 _symmetry_equiv_pos_site_id
 _symmetry_equiv_pos_as_xyz
  1  'x, y, z'
loop_
 _atom_site_type_symbol
 _atom_site_label
 _atom_site_symmetry_multiplicity
 _atom_site_fract_x
 _atom_site_fract_y
 _atom_site_fract_z
 _atom_site_occupancy
  Re  Re0  1  0.532690  0.131524  0.166265  1
  Re  Re1  1  0.467310  0.868476  0.833735  1
  Re  Re2  1  0.580790  0.109779  0.347846  1
  Re  Re3  1  0.419210  0.890221  0.652154  1
  Re  Re4  1  0.471045  0.277823  0.376667  1
  Re  Re5  1  0.528955  0.722177  0.623333  1
  Re  Re6  1  0.578629  0.391217  0.229816  1
  Re  Re7  1  0.421371  0.608783  0.770184  1
  Re  Re8  1  0.463337  0.321574  0.100348  1
  Re  Re9  1  0.536663  0.678426  0.899652  1
  Re  Re10  1  0.975294  0.636712  0.164478  1
  Re  Re11  1  0.024706  0.363288  0.835522  1
  Re  Re12  1  0.048435  0.603683  0.344945  1
  Re  Re13  1  0.951565  0.396317  0.655055  1
  Re  Re14  1  0.018553  0.774900  0.375900  1
  Re  Re15  1  0.981447  0.225100  0.624100  1
  Re  Re16  1  0.134420  0.879571  0.225018  1
  Re  Re17  1  0.865580  0.120429  0.774982  1
  Re  Re18  1  0.945749  0.828411  0.103154  1
  Re  Re19  1  0.054251  0.171589  0.896846  1
  H  H20  1  0.574129  0.151677  0.251922  1
  H  H21  1  0.425871  0.848323  0.748078  1
  H  H22  1  0.496810  0.204757  0.326386  1
  H  H23  1  0.503190  0.795243  0.673614  1
  H  H24  1  0.550122  0.301213  0.287978  1
  H  H25  1  0.449878  0.698787  0.712022  1
  H  H26  1  0.472337  0.330001  0.192559  1
  H  H27  1  0.527663  0.669999  0.807441  1
  H  H28  1  0.525331  0.232978  0.160170  1
  H  H29  1  0.474669  0.767022  0.839830  1
  H  H30  1  0.002602  0.652918  0.253474  1
  H  H31  1  0.997398  0.347082  0.746526  1
  H  H32  1  0.082631  0.702568  0.329295  1
  H  H33  1  0.917369  0.297432  0.670705  1
  H  H34  1  0.043435  0.803280  0.280641  1
  H  H35  1  0.956565  0.196720  0.719359  1
  H  H36  1  0.972701  0.851119  0.189386  1
  H  H37  1  0.027299  0.148881  0.810614  1
  H  H38  1  0.996526  0.736636  0.160628  1
  H  H39  1  0.003474  0.263364  0.839372  1
  C  C40  1  0.324874  0.120690  0.190894  1
  C  C41  1  0.675126  0.879310  0.809106  1
  C  C42  1  0.569717  0.025622  0.188960  1
  C  C43  1  0.430283  0.974378  0.811040  1
  C  C44  1  0.495892  0.124536  0.070534  1
  C  C45  1  0.504108  0.875464  0.929466  1
  C  C46  1  0.740444  0.145669  0.144204  1
  C  C47  1  0.259556  0.854331  0.855796  1
  C  C48  1  0.373972  0.088964  0.364039  1
  C  C49  1  0.626028  0.911036  0.635961  1
  C  C50  1  0.612723  0.087201  0.447998  1
  C  C51  1  0.387277  0.912799  0.552002  1
  C  C52  1  0.635991  0.007142  0.348403  1
  C  C53  1  0.364009  0.992858  0.651597  1
  C  C54  1  0.786095  0.133356  0.331765  1
  C  C55  1  0.213905  0.866644  0.668235  1
  C  C56  1  0.276272  0.273928  0.338888  1
  C  C57  1  0.723728  0.726072  0.661112  1
  C  C58  1  0.409819  0.368913  0.405694  1
  C  C59  1  0.590181  0.631087  0.594306  1
  C  C60  1  0.409457  0.220995  0.466941  1
  C  C61  1  0.590543  0.779005  0.533059  1
  C  C62  1  0.670355  0.279857  0.410292  1
  C  C63  1  0.329645  0.720143  0.589708  1
  C  C64  1  0.386924  0.443565  0.232885  1
  C  C65  1  0.613076  0.556435  0.767115  1
  C  C66  1  0.635022  0.470038  0.152554  1
  C  C67  1  0.364978  0.529962  0.847446  1
  C  C68  1  0.652692  0.442154  0.296141  1
  C  C69  1  0.347308  0.557846  0.703859  1
  C  C70  1  0.765262  0.330439  0.227656  1
  C  C71  1  0.234738  0.669561  0.772344  1
  C  C72  1  0.262307  0.303345  0.134348  1
  C  C73  1  0.737693  0.696655  0.865652  1
  C  C74  1  0.424995  0.297638  0.011036  1
  C  C75  1  0.575005  0.702362  0.988964  1
  C  C76  1  0.400850  0.424213  0.063733  1
  C  C77  1  0.599150  0.575787  0.936267  1
  C  C78  1  0.665274  0.335284  0.066640  1
  C  C79  1  0.334726  0.664716  0.933360  1
  C  C80  1  0.766565  0.642317  0.191381  1
  C  C81  1  0.233435  0.357683  0.808619  1
  C  C82  1  0.975157  0.530234  0.181845  1
  C  C83  1  0.024843  0.469766  0.818155  1
  C  C84  1  0.930693  0.638618  0.067923  1
  C  C85  1  0.069307  0.361382  0.932077  1
  C  C86  1  0.185357  0.632126  0.140481  1
  C  C87  1  0.814643  0.367874  0.859519  1
  C  C88  1  0.839385  0.609709  0.371881  1
  C  C89  1  0.160615  0.390291  0.628119  1
  C  C90  1  0.098698  0.574695  0.443070  1
  C  C91  1  0.901302  0.425305  0.556930  1
  C  C92  1  0.040674  0.500105  0.342829  1
  C  C93  1  0.959326  0.499895  0.657171  1
  C  C94  1  0.257646  0.599331  0.320145  1
  C  C95  1  0.742354  0.400669  0.679855  1
  C  C96  1  0.816194  0.786689  0.341675  1
  C  C97  1  0.183806  0.213311  0.658325  1
  C  C98  1  0.997920  0.867762  0.406642  1
  C  C99  1  0.002080  0.132238  0.593358  1
  C  C100  1  0.953916  0.722865  0.468045  1
  C  C101  1  0.046084  0.277135  0.531955  1
  C  C102  1  0.224101  0.758179  0.403299  1
  C  C103  1  0.775899  0.241821  0.596701  1
  C  C104  1  0.990083  0.960629  0.237593  1
  C  C105  1  0.009917  0.039371  0.762407  1
  C  C106  1  0.215957  0.944782  0.143993  1
  C  C107  1  0.784043  0.055218  0.856007  1
  C  C108  1  0.263001  0.911064  0.287024  1
  C  C109  1  0.736999  0.088936  0.712976  1
  C  C110  1  0.276729  0.796576  0.214427  1
  C  C111  1  0.723271  0.203424  0.785573  1
  C  C112  1  0.744366  0.822752  0.141595  1
  C  C113  1  0.255634  0.177248  0.858405  1
  C  C114  1  0.877894  0.812265  0.015293  1
  C  C115  1  0.122106  0.187735  0.984707  1
  C  C116  1  0.908138  0.933937  0.071427  1
  C  C117  1  0.091862  0.066063  0.928573  1
  C  C118  1  0.142799  0.824019  0.061204  1
  C  C119  1  0.857201  0.175981  0.938796  1
  O  O120  1  0.205480  0.112150  0.205188  1
  O  O121  1  0.794520  0.887850  0.794812  1
  O  O122  1  0.592602  0.961769  0.198836  1
  O  O123  1  0.407398  0.038231  0.801164  1
  O  O124  1  0.473681  0.115882  0.014797  1
  O  O125  1  0.526319  0.884118  0.985203  1
  O  O126  1  0.859757  0.154591  0.130796  1
  O  O127  1  0.140243  0.845409  0.869204  1
  O  O128  1  0.254347  0.079196  0.375555  1
  O  O129  1  0.745653  0.920804  0.624445  1
  O  O130  1  0.632691  0.071665  0.508273  1
  O  O131  1  0.367309  0.928335  0.491727  1
  O  O132  1  0.668273  0.944924  0.351874  1
  O  O133  1  0.331727  0.055076  0.648126  1
  O  O134  1  0.906444  0.143531  0.325163  1
  O  O135  1  0.093556  0.856469  0.674837  1
  O  O136  1  0.163951  0.269728  0.318091  1
  O  O137  1  0.836049  0.730272  0.681909  1
  O  O138  1  0.371808  0.423039  0.423450  1
  O  O139  1  0.628192  0.576961  0.576550  1
  O  O140  1  0.369349  0.188427  0.521160  1
  O  O141  1  0.630651  0.811573  0.478840  1
  O  O142  1  0.787291  0.280631  0.427466  1
  O  O143  1  0.212709  0.719369  0.572534  1
  O  O144  1  0.274240  0.473741  0.232852  1
  O  O145  1  0.725760  0.526259  0.767148  1
  O  O146  1  0.671323  0.517545  0.107296  1
  O  O147  1  0.328677  0.482455  0.892704  1
  O  O148  1  0.695812  0.473041  0.335998  1
  O  O149  1  0.304188  0.526959  0.664002  1
  O  O150  1  0.870613  0.294003  0.228215  1
  O  O151  1  0.129387  0.705997  0.771785  1
  O  O152  1  0.145253  0.295264  0.152706  1
  O  O153  1  0.854747  0.704736  0.847294  1
  O  O154  1  0.403494  0.285973  0.956292  1
  O  O155  1  0.596506  0.714027  0.043708  1
  O  O156  1  0.357466  0.485558  0.044785  1
  O  O157  1  0.642534  0.514442  0.955215  1
  O  O158  1  0.780975  0.342395  0.044867  1
  O  O159  1  0.219025  0.657605  0.955133  1
  O  O160  1  0.647094  0.642390  0.208131  1
  O  O161  1  0.352906  0.357610  0.791869  1
  O  O162  1  0.973345  0.466543  0.188272  1
  O  O163  1  0.026655  0.533457  0.811728  1
  O  O164  1  0.904597  0.635787  0.010778  1
  O  O165  1  0.095403  0.364213  0.989222  1
  O  O166  1  0.305576  0.628875  0.125279  1
  O  O167  1  0.694424  0.371125  0.874721  1
  O  O168  1  0.721026  0.612863  0.390391  1
  O  O169  1  0.278974  0.387137  0.609609  1
  O  O170  1  0.132290  0.556024  0.501643  1
  O  O171  1  0.867710  0.443976  0.498357  1
  O  O172  1  0.038048  0.437448  0.344276  1
  O  O173  1  0.961952  0.562552  0.655724  1
  O  O174  1  0.379801  0.594871  0.309838  1
  O  O175  1  0.620199  0.405129  0.690162  1
  O  O176  1  0.701158  0.791761  0.320664  1
  O  O177  1  0.298842  0.208239  0.679336  1
  O  O178  1  0.988345  0.922779  0.426004  1
  O  O179  1  0.011655  0.077221  0.573996  1
  O  O180  1  0.909999  0.693014  0.522614  1
  O  O181  1  0.090001  0.306986  0.477386  1
  O  O182  1  0.343489  0.746298  0.418457  1
  O  O183  1  0.656511  0.253702  0.581543  1
  O  O184  1  0.909030  0.008490  0.244883  1
  O  O185  1  0.090970  0.991510  0.755117  1
  O  O186  1  0.264722  0.985494  0.096482  1
  O  O187  1  0.735278  0.014506  0.903518  1
  O  O188  1  0.338804  0.931311  0.323765  1
  O  O189  1  0.661196  0.068689  0.676235  1
  O  O190  1  0.358546  0.748251  0.209597  1
  O  O191  1  0.641454  0.251749  0.790403  1
  O  O192  1  0.626416  0.819468  0.160171  1
  O  O193  1  0.373584  0.180532  0.839829  1
  O  O194  1  0.839650  0.808053  0.960307  1
  O  O195  1  0.160350  0.191947  0.039693  1
  O  O196  1  0.881613  0.997606  0.056702  1
  O  O197  1  0.118387  0.002393  0.943298  1
  O  O198  1  0.253944  0.818128  0.034487  1
  O  O199  1  0.746056  0.181872  0.965513  1
