# generated using pymatgen
data_Li3MnFeCo(PO4)3
_symmetry_space_group_name_H-M   'P 1'
_cell_length_a   10.47070123
_cell_length_b   6.09832533
_cell_length_c   14.31770078
_cell_angle_alpha   90.00000000
_cell_angle_beta   89.84570104
_cell_angle_gamma   90.00000000
_symmetry_Int_Tables_number   1
_chemical_formula_structural   Li3MnFeCo(PO4)3
_chemical_formula_sum   'Li12 Mn4 Fe4 Co4 P12 O48'
_cell_volume   914.23546442
_cell_formula_units_Z   4
loop_
 _symmetry_equiv_pos_site_id
 _symmetry_equiv_pos_as_xyz
  1  'x, y, z'
loop_
 _atom_site_type_symbol
 _atom_site_label
 _atom_site_symmetry_multiplicity
 _atom_site_fract_x
 _atom_site_fract_y
 _atom_site_fract_z
 _atom_site_occupancy
  Li  Li0  1  0.998155  0.500431  0.666922  1
  Li  Li1  1  0.999910  0.000585  0.000032  1
  Li  Li2  1  0.999910  0.499415  0.000032  1
  Li  Li3  1  0.999341  0.001119  0.333341  1
  Li  Li4  1  0.999341  0.498881  0.333341  1
  Li  Li5  1  0.998155  0.999569  0.666922  1
  Li  Li6  1  0.500874  0.000102  0.500577  1
  Li  Li7  1  0.500874  0.499898  0.500577  1
  Li  Li8  1  0.501277  0.001537  0.166794  1
  Li  Li9  1  0.501277  0.498463  0.166794  1
  Li  Li10  1  0.500782  0.000442  0.833235  1
  Li  Li11  1  0.500782  0.499558  0.833235  1
  Mn  Mn12  1  0.218341  0.750000  0.159865  1
  Mn  Mn13  1  0.218559  0.750000  0.493105  1
  Mn  Mn14  1  0.281791  0.250000  0.659536  1
  Mn  Mn15  1  0.719744  0.750000  0.007094  1
  Fe  Fe16  1  0.217835  0.750000  0.825184  1
  Fe  Fe17  1  0.280429  0.250000  0.992821  1
  Fe  Fe18  1  0.281485  0.250000  0.325750  1
  Fe  Fe19  1  0.720019  0.750000  0.341349  1
  Co  Co20  1  0.720047  0.750000  0.673318  1
  Co  Co21  1  0.781146  0.250000  0.839209  1
  Co  Co22  1  0.779533  0.250000  0.507353  1
  Co  Co23  1  0.780317  0.250000  0.173158  1
  P  P24  1  0.093183  0.250000  0.807472  1
  P  P25  1  0.093562  0.250000  0.138249  1
  P  P26  1  0.092664  0.250000  0.471406  1
  P  P27  1  0.407476  0.750000  0.306263  1
  P  P28  1  0.407907  0.750000  0.639670  1
  P  P29  1  0.404749  0.750000  0.971837  1
  P  P30  1  0.595373  0.250000  0.360536  1
  P  P31  1  0.594054  0.250000  0.028222  1
  P  P32  1  0.597376  0.250000  0.694382  1
  P  P33  1  0.905674  0.750000  0.859357  1
  P  P34  1  0.904349  0.750000  0.194651  1
  P  P35  1  0.903348  0.750000  0.527543  1
  O  O36  1  0.040872  0.750000  0.237025  1
  O  O37  1  0.040044  0.750000  0.569558  1
  O  O38  1  0.042243  0.750000  0.901469  1
  O  O39  1  0.095934  0.250000  0.578794  1
  O  O40  1  0.096751  0.250000  0.914192  1
  O  O41  1  0.097469  0.250000  0.245982  1
  O  O42  1  0.163978  0.049287  0.093065  1
  O  O43  1  0.163978  0.450713  0.093065  1
  O  O44  1  0.163439  0.049082  0.426280  1
  O  O45  1  0.163439  0.450918  0.426280  1
  O  O46  1  0.163897  0.046918  0.763234  1
  O  O47  1  0.163897  0.453082  0.763234  1
  O  O48  1  0.337861  0.548552  0.594675  1
  O  O49  1  0.337861  0.951448  0.594675  1
  O  O50  1  0.336454  0.547189  0.263025  1
  O  O51  1  0.336454  0.952811  0.263025  1
  O  O52  1  0.333837  0.547134  0.928275  1
  O  O53  1  0.333837  0.952866  0.928275  1
  O  O54  1  0.405621  0.750000  0.413811  1
  O  O55  1  0.404252  0.750000  0.079187  1
  O  O56  1  0.402973  0.750000  0.746914  1
  O  O57  1  0.457748  0.250000  0.402004  1
  O  O58  1  0.456297  0.250000  0.067839  1
  O  O59  1  0.460458  0.250000  0.736474  1
  O  O60  1  0.544294  0.750000  0.263955  1
  O  O61  1  0.541724  0.750000  0.929615  1
  O  O62  1  0.546031  0.750000  0.599040  1
  O  O63  1  0.597780  0.250000  0.253396  1
  O  O64  1  0.598353  0.250000  0.920604  1
  O  O65  1  0.597888  0.250000  0.586605  1
  O  O66  1  0.664467  0.049132  0.073923  1
  O  O67  1  0.666193  0.047581  0.405284  1
  O  O68  1  0.668026  0.046737  0.738465  1
  O  O69  1  0.668026  0.453263  0.738465  1
  O  O70  1  0.664467  0.450868  0.073923  1
  O  O71  1  0.666193  0.452419  0.405284  1
  O  O72  1  0.835153  0.545804  0.903474  1
  O  O73  1  0.835153  0.954196  0.903474  1
  O  O74  1  0.833136  0.546033  0.238229  1
  O  O75  1  0.832141  0.546862  0.571895  1
  O  O76  1  0.833136  0.953967  0.238229  1
  O  O77  1  0.832141  0.953138  0.571895  1
  O  O78  1  0.903342  0.750000  0.751852  1
  O  O79  1  0.902883  0.750000  0.420362  1
  O  O80  1  0.904878  0.750000  0.087415  1
  O  O81  1  0.956044  0.250000  0.764998  1
  O  O82  1  0.954923  0.250000  0.098780  1
  O  O83  1  0.954394  0.250000  0.431344  1
