# generated using pymatgen
data_LiFePO4
_symmetry_space_group_name_H-M   'P 1'
_cell_length_a   10.12487930
_cell_length_b   10.12487940
_cell_length_c   22.91587417
_cell_angle_alpha   90.00000000
_cell_angle_beta   90.00000000
_cell_angle_gamma   119.99999725
_symmetry_Int_Tables_number   1
_chemical_formula_structural   LiFePO4
_chemical_formula_sum   'Li24 Fe24 P24 O96'
_cell_volume   2034.44890123
_cell_formula_units_Z   24
loop_
 _symmetry_equiv_pos_site_id
 _symmetry_equiv_pos_as_xyz
  1  'x, y, z'
loop_
 _atom_site_type_symbol
 _atom_site_label
 _atom_site_symmetry_multiplicity
 _atom_site_fract_x
 _atom_site_fract_y
 _atom_site_fract_z
 _atom_site_occupancy
  Li  Li0  1  0.002071  0.943322  0.418920  1
  Li  Li1  1  0.063591  0.563128  0.916442  1
  Li  Li2  1  0.061236  0.515980  0.256106  1
  Li  Li3  1  0.018863  0.477881  0.586998  1
  Li  Li4  1  0.459019  0.981137  0.920331  1
  Li  Li5  1  0.454744  0.938764  0.589439  1
  Li  Li6  1  0.056678  0.058748  0.085586  1
  Li  Li7  1  0.499537  0.936409  0.249775  1
  Li  Li8  1  0.058748  0.002071  0.252253  1
  Li  Li9  1  0.436872  0.500463  0.583109  1
  Li  Li10  1  0.484020  0.545256  0.922773  1
  Li  Li11  1  0.522119  0.540981  0.253664  1
  Li  Li12  1  0.477881  0.459019  0.753664  1
  Li  Li13  1  0.515980  0.454744  0.422773  1
  Li  Li14  1  0.563128  0.499537  0.083109  1
  Li  Li15  1  0.941252  0.997929  0.752253  1
  Li  Li16  1  0.500463  0.063591  0.749775  1
  Li  Li17  1  0.943322  0.941252  0.585586  1
  Li  Li18  1  0.545256  0.061236  0.089439  1
  Li  Li19  1  0.540981  0.018863  0.420331  1
  Li  Li20  1  0.981137  0.522119  0.086998  1
  Li  Li21  1  0.938764  0.484020  0.756106  1
  Li  Li22  1  0.936409  0.436872  0.416442  1
  Li  Li23  1  0.997929  0.056678  0.918920  1
  Fe  Fe24  1  0.143855  0.832694  0.679046  1
  Fe  Fe25  1  0.187146  0.883433  0.009640  1
  Fe  Fe26  1  0.173774  0.787012  0.376770  1
  Fe  Fe27  1  0.116567  0.303713  0.676306  1
  Fe  Fe28  1  0.331175  0.676150  0.818361  1
  Fe  Fe29  1  0.323850  0.655025  0.485027  1
  Fe  Fe30  1  0.344975  0.668825  0.151694  1
  Fe  Fe31  1  0.167306  0.311161  0.345712  1
  Fe  Fe32  1  0.212988  0.386762  0.043437  1
  Fe  Fe33  1  0.613238  0.826226  0.710104  1
  Fe  Fe34  1  0.303713  0.187146  0.842973  1
  Fe  Fe35  1  0.311161  0.143855  0.512379  1
  Fe  Fe36  1  0.688839  0.856145  0.012379  1
  Fe  Fe37  1  0.696287  0.812854  0.342973  1
  Fe  Fe38  1  0.386762  0.173774  0.210104  1
  Fe  Fe39  1  0.787012  0.613238  0.543437  1
  Fe  Fe40  1  0.832694  0.688839  0.845712  1
  Fe  Fe41  1  0.655025  0.331175  0.651694  1
  Fe  Fe42  1  0.676150  0.344975  0.985027  1
  Fe  Fe43  1  0.668825  0.323850  0.318361  1
  Fe  Fe44  1  0.883433  0.696287  0.176306  1
  Fe  Fe45  1  0.826226  0.212988  0.876770  1
  Fe  Fe46  1  0.812854  0.116567  0.509640  1
  Fe  Fe47  1  0.856145  0.167306  0.179046  1
  P  P48  1  0.172345  0.854894  0.813433  1
  P  P49  1  0.129074  0.777603  0.508915  1
  P  P50  1  0.217505  0.880519  0.146827  1
  P  P51  1  0.119481  0.336986  0.813493  1
  P  P52  1  0.327435  0.688605  0.009045  1
  P  P53  1  0.145106  0.317451  0.480100  1
  P  P54  1  0.311395  0.638831  0.675712  1
  P  P55  1  0.361169  0.672565  0.342378  1
  P  P56  1  0.222397  0.351470  0.175582  1
  P  P57  1  0.648530  0.870926  0.842248  1
  P  P58  1  0.336986  0.217505  0.980160  1
  P  P59  1  0.317451  0.172345  0.646767  1
  P  P60  1  0.682549  0.827655  0.146767  1
  P  P61  1  0.663014  0.782495  0.480160  1
  P  P62  1  0.351470  0.129074  0.342248  1
  P  P63  1  0.777603  0.648530  0.675582  1
  P  P64  1  0.638831  0.327435  0.842378  1
  P  P65  1  0.688605  0.361169  0.175712  1
  P  P66  1  0.854894  0.682549  0.980100  1
  P  P67  1  0.672565  0.311395  0.509045  1
  P  P68  1  0.880519  0.663014  0.313493  1
  P  P69  1  0.782495  0.119481  0.646827  1
  P  P70  1  0.870926  0.222397  0.008915  1
  P  P71  1  0.827655  0.145106  0.313433  1
  O  O72  1  0.017437  0.707174  0.799029  1
  O  O73  1  0.132822  0.969656  0.843124  1
  O  O74  1  0.012153  0.680874  0.557153  1
  O  O75  1  0.128727  0.928820  0.496311  1
  O  O76  1  0.176863  0.983361  0.185172  1
  O  O77  1  0.070464  0.726271  0.133216  1
  O  O78  1  0.079936  0.675910  0.452355  1
  O  O79  1  0.261193  0.920582  0.755387  1
  O  O80  1  0.286837  0.963876  0.088220  1
  O  O81  1  0.158071  0.638537  0.677676  1
  O  O82  1  0.211110  0.713166  0.973188  1
  O  O83  1  0.274548  0.822604  0.855061  1
  O  O84  1  0.212003  0.655738  0.316279  1
  O  O85  1  0.290482  0.812670  0.527732  1
  O  O86  1  0.036124  0.322960  0.754887  1
  O  O87  1  0.338554  0.857092  0.179883  1
  O  O88  1  0.142908  0.481463  0.846549  1
  O  O89  1  0.016638  0.193502  0.851839  1
  O  O90  1  0.079418  0.340611  0.422053  1
  O  O91  1  0.030344  0.163166  0.509791  1
  O  O92  1  0.255198  0.630316  0.070952  1
  O  O93  1  0.071180  0.199906  0.162978  1
  O  O94  1  0.177396  0.451944  0.521728  1
  O  O95  1  0.187330  0.477812  0.194399  1
  O  O96  1  0.375117  0.744802  0.404285  1
  O  O97  1  0.286834  0.497944  0.639855  1
  O  O98  1  0.369684  0.624883  0.737618  1
  O  O99  1  0.344262  0.556265  0.982946  1
  O  O100  1  0.443735  0.787997  0.649613  1
  O  O101  1  0.480466  0.841929  0.011009  1
  O  O102  1  0.361463  0.519534  0.344342  1
  O  O103  1  0.163166  0.132822  0.676457  1
  O  O104  1  0.193502  0.176863  0.018505  1
  O  O105  1  0.273729  0.344193  0.799882  1
  O  O106  1  0.324090  0.404026  0.119022  1
  O  O107  1  0.502056  0.788890  0.306522  1
  O  O108  1  0.199906  0.128727  0.329645  1
  O  O109  1  0.292826  0.310262  0.465696  1
  O  O110  1  0.319126  0.331279  0.223819  1
  O  O111  1  0.522188  0.709518  0.861065  1
  O  O112  1  0.595974  0.920064  0.785688  1
  O  O113  1  0.548056  0.725452  0.188395  1
  O  O114  1  0.322960  0.286837  0.921554  1
  O  O115  1  0.668721  0.987847  0.890486  1
  O  O116  1  0.518537  0.661446  0.513216  1
  O  O117  1  0.340611  0.261193  0.588720  1
  O  O118  1  0.655807  0.929536  0.466549  1
  O  O119  1  0.689738  0.982563  0.132363  1
  O  O120  1  0.310262  0.017437  0.632363  1
  O  O121  1  0.344193  0.070464  0.966549  1
  O  O122  1  0.659389  0.738807  0.088720  1
  O  O123  1  0.481463  0.338554  0.013216  1
  O  O124  1  0.331279  0.012153  0.390486  1
  O  O125  1  0.677040  0.713163  0.421554  1
  O  O126  1  0.451944  0.274548  0.688395  1
  O  O127  1  0.404026  0.079936  0.285688  1
  O  O128  1  0.477812  0.290482  0.361065  1
  O  O129  1  0.680874  0.668721  0.723819  1
  O  O130  1  0.707174  0.689738  0.965696  1
  O  O131  1  0.800094  0.871273  0.829645  1
  O  O132  1  0.497944  0.211110  0.806522  1
  O  O133  1  0.675910  0.595974  0.619022  1
  O  O134  1  0.726271  0.655807  0.299882  1
  O  O135  1  0.806498  0.823137  0.518505  1
  O  O136  1  0.836834  0.867178  0.176457  1
  O  O137  1  0.638537  0.480466  0.844342  1
  O  O138  1  0.519534  0.158071  0.511009  1
  O  O139  1  0.556265  0.212003  0.149614  1
  O  O140  1  0.655738  0.443735  0.482947  1
  O  O141  1  0.630316  0.375117  0.237618  1
  O  O142  1  0.713166  0.502056  0.139855  1
  O  O143  1  0.624883  0.255198  0.904285  1
  O  O144  1  0.812670  0.522188  0.694399  1
  O  O145  1  0.822604  0.548056  0.021728  1
  O  O146  1  0.928820  0.800094  0.662978  1
  O  O147  1  0.744802  0.369684  0.570952  1
  O  O148  1  0.969656  0.836834  0.009791  1
  O  O149  1  0.920582  0.659389  0.922053  1
  O  O150  1  0.983361  0.806498  0.351839  1
  O  O151  1  0.857092  0.518537  0.346549  1
  O  O152  1  0.661446  0.142908  0.679883  1
  O  O153  1  0.963876  0.677040  0.254887  1
  O  O154  1  0.709518  0.187330  0.027732  1
  O  O155  1  0.787997  0.344262  0.816280  1
  O  O156  1  0.725452  0.177396  0.355061  1
  O  O157  1  0.788890  0.286834  0.473188  1
  O  O158  1  0.841929  0.361463  0.177676  1
  O  O159  1  0.713163  0.036124  0.588220  1
  O  O160  1  0.738807  0.079418  0.255387  1
  O  O161  1  0.920064  0.324090  0.952355  1
  O  O162  1  0.929536  0.273729  0.633216  1
  O  O163  1  0.823137  0.016638  0.685172  1
  O  O164  1  0.871273  0.071180  0.996311  1
  O  O165  1  0.987847  0.319126  0.057153  1
  O  O166  1  0.867178  0.030344  0.343124  1
  O  O167  1  0.982563  0.292826  0.299029  1
