# generated using pymatgen
data_Li6MnFe5(BO3)6
_symmetry_space_group_name_H-M   'P 1'
_cell_length_a   8.25288950
_cell_length_b   14.26019778
_cell_length_c   3.13674132
_cell_angle_alpha   90.00000000
_cell_angle_beta   90.00000000
_cell_angle_gamma   90.06203762
_symmetry_Int_Tables_number   1
_chemical_formula_structural   Li6MnFe5(BO3)6
_chemical_formula_sum   'Li6 Mn1 Fe5 B6 O18'
_cell_volume   369.15608342
_cell_formula_units_Z   1
loop_
 _symmetry_equiv_pos_site_id
 _symmetry_equiv_pos_as_xyz
  1  'x, y, z'
loop_
 _atom_site_type_symbol
 _atom_site_label
 _atom_site_symmetry_multiplicity
 _atom_site_fract_x
 _atom_site_fract_y
 _atom_site_fract_z
 _atom_site_occupancy
  Li  Li0  1  0.293718  0.990328  0.500000  1
  Li  Li1  1  0.340796  0.357487  0.500000  1
  Li  Li2  1  0.366070  0.651174  0.500000  1
  Li  Li3  1  0.793334  0.491908  0.500000  1
  Li  Li4  1  0.840092  0.857246  0.500000  1
  Li  Li5  1  0.865134  0.150749  0.500000  1
  Mn  Mn6  1  0.191793  0.179799  0.000000  1
  Fe  Fe7  1  0.136881  0.504300  0.000000  1
  Fe  Fe8  1  0.175016  0.816110  0.000000  1
  Fe  Fe9  1  0.637772  0.003837  0.000000  1
  Fe  Fe10  1  0.675447  0.316507  0.000000  1
  Fe  Fe11  1  0.688484  0.679936  0.000000  1
  B  B12  1  0.999913  0.666589  0.500000  1
  B  B13  1  0.998500  0.999781  0.000000  1
  B  B14  1  0.998884  0.334546  0.500000  1
  B  B15  1  0.502308  0.166216  0.500000  1
  B  B16  1  0.499907  0.500158  0.000000  1
  B  B17  1  0.499856  0.833340  0.500000  1
  O  O18  1  0.010361  0.431797  0.500000  1
  O  O19  1  0.017510  0.763891  0.500000  1
  O  O20  1  0.136670  0.609403  0.500000  1
  O  O21  1  0.138865  0.280670  0.500000  1
  O  O22  1  0.151749  0.958170  0.000000  1
  O  O23  1  0.348597  0.125171  0.500000  1
  O  O24  1  0.347883  0.790906  0.500000  1
  O  O25  1  0.360849  0.444866  0.000000  1
  O  O26  1  0.487067  0.597464  0.000000  1
  O  O27  1  0.512463  0.930547  0.500000  1
  O  O28  1  0.517727  0.263485  0.500000  1
  O  O29  1  0.638809  0.109187  0.500000  1
  O  O30  1  0.639236  0.778484  0.500000  1
  O  O31  1  0.652037  0.458125  0.000000  1
  O  O32  1  0.845350  0.626997  0.500000  1
  O  O33  1  0.847643  0.291183  0.500000  1
  O  O34  1  0.860520  0.943256  0.000000  1
  O  O35  1  0.982764  0.096392  0.000000  1
