# generated using pymatgen
data_Li2Mn3P4(HO4)4
_symmetry_space_group_name_H-M   'P 1'
_cell_length_a   9.22606775
_cell_length_b   8.24856135
_cell_length_c   8.90395881
_cell_angle_alpha   90.00000000
_cell_angle_beta   99.45354802
_cell_angle_gamma   90.00000000
_symmetry_Int_Tables_number   1
_chemical_formula_structural   Li2Mn3P4(HO4)4
_chemical_formula_sum   'Li4 Mn6 P8 H8 O32'
_cell_volume   668.40464307
_cell_formula_units_Z   2
loop_
 _symmetry_equiv_pos_site_id
 _symmetry_equiv_pos_as_xyz
  1  'x, y, z'
loop_
 _atom_site_type_symbol
 _atom_site_label
 _atom_site_symmetry_multiplicity
 _atom_site_fract_x
 _atom_site_fract_y
 _atom_site_fract_z
 _atom_site_occupancy
  Li  Li0  1  0.027977  0.330408  0.983515  1
  Li  Li1  1  0.527977  0.169592  0.983515  1
  Li  Li2  1  0.472023  0.830408  0.016485  1
  Li  Li3  1  0.972023  0.669592  0.016485  1
  Mn  Mn4  1  0.000000  0.500000  0.500000  1
  Mn  Mn5  1  0.005278  0.139079  0.348874  1
  Mn  Mn6  1  0.494722  0.639079  0.651126  1
  Mn  Mn7  1  0.500000  0.000000  0.500000  1
  Mn  Mn8  1  0.505278  0.360921  0.348874  1
  Mn  Mn9  1  0.994722  0.860921  0.651126  1
  P  P10  1  0.227145  0.565520  0.824910  1
  P  P11  1  0.204476  0.803309  0.382574  1
  P  P12  1  0.295524  0.303309  0.617426  1
  P  P13  1  0.272855  0.065520  0.175090  1
  P  P14  1  0.727145  0.934480  0.824910  1
  P  P15  1  0.704476  0.696691  0.382574  1
  P  P16  1  0.795524  0.196691  0.617426  1
  P  P17  1  0.772855  0.434480  0.175090  1
  H  H18  1  0.217201  0.999893  0.889296  1
  H  H19  1  0.234021  0.040960  0.723854  1
  H  H20  1  0.265979  0.540960  0.276146  1
  H  H21  1  0.282799  0.499893  0.110704  1
  H  H22  1  0.717201  0.500107  0.889296  1
  H  H23  1  0.734021  0.459040  0.723854  1
  H  H24  1  0.765979  0.959040  0.276146  1
  H  H25  1  0.782799  0.000107  0.110704  1
  O  O26  1  0.123351  0.633796  0.686059  1
  O  O27  1  0.159024  0.002764  0.785507  1
  O  O28  1  0.110251  0.926028  0.452002  1
  O  O29  1  0.144699  0.539413  0.959795  1
  O  O30  1  0.142159  0.290805  0.519660  1
  O  O31  1  0.130007  0.640492  0.341911  1
  O  O32  1  0.128866  0.161869  0.139266  1
  O  O33  1  0.271161  0.380332  0.782388  1
  O  O34  1  0.228839  0.880332  0.217612  1
  O  O35  1  0.371134  0.661869  0.860734  1
  O  O36  1  0.369993  0.140492  0.658089  1
  O  O37  1  0.357842  0.790805  0.480340  1
  O  O38  1  0.355301  0.039413  0.040206  1
  O  O39  1  0.389749  0.426028  0.547998  1
  O  O40  1  0.340976  0.502764  0.214493  1
  O  O41  1  0.376649  0.133796  0.313941  1
  O  O42  1  0.623351  0.866204  0.686059  1
  O  O43  1  0.659024  0.497236  0.785507  1
  O  O44  1  0.610251  0.573972  0.452002  1
  O  O45  1  0.644699  0.960587  0.959795  1
  O  O46  1  0.642158  0.209195  0.519660  1
  O  O47  1  0.630007  0.859508  0.341911  1
  O  O48  1  0.628866  0.338131  0.139266  1
  O  O49  1  0.771161  0.119668  0.782388  1
  O  O50  1  0.728839  0.619668  0.217612  1
  O  O51  1  0.871134  0.838131  0.860734  1
  O  O52  1  0.869993  0.359508  0.658089  1
  O  O53  1  0.857842  0.709195  0.480340  1
  O  O54  1  0.855301  0.460587  0.040206  1
  O  O55  1  0.889749  0.073972  0.547998  1
  O  O56  1  0.840976  0.997236  0.214493  1
  O  O57  1  0.876649  0.366204  0.313941  1
