# generated using pymatgen
data_Li3VPCO7
_symmetry_space_group_name_H-M   'P 1'
_cell_length_a   8.52531410
_cell_length_b   9.96286363
_cell_length_c   6.62183024
_cell_angle_alpha   89.64270959
_cell_angle_beta   90.34608439
_cell_angle_gamma   84.59616035
_symmetry_Int_Tables_number   1
_chemical_formula_structural   Li3VPCO7
_chemical_formula_sum   'Li12 V4 P4 C4 O28'
_cell_volume   559.91240988
_cell_formula_units_Z   4
loop_
 _symmetry_equiv_pos_site_id
 _symmetry_equiv_pos_as_xyz
  1  'x, y, z'
loop_
 _atom_site_type_symbol
 _atom_site_label
 _atom_site_symmetry_multiplicity
 _atom_site_fract_x
 _atom_site_fract_y
 _atom_site_fract_z
 _atom_site_occupancy
  Li  Li0  1  0.102109  0.392528  0.260015  1
  Li  Li1  1  0.095590  0.881024  0.255505  1
  Li  Li2  1  0.280127  0.133785  0.483141  1
  Li  Li3  1  0.277730  0.611734  0.009981  1
  Li  Li4  1  0.279307  0.612571  0.485216  1
  Li  Li5  1  0.345756  0.400234  0.744639  1
  Li  Li6  1  0.716366  0.377376  0.535806  1
  Li  Li7  1  0.716257  0.376663  0.964826  1
  Li  Li8  1  0.718488  0.872653  0.530431  1
  Li  Li9  1  0.720578  0.872265  0.970977  1
  Li  Li10  1  0.903226  0.115415  0.748564  1
  Li  Li11  1  0.897742  0.613128  0.749150  1
  V  V12  1  0.273971  0.145640  0.008098  1
  V  V13  1  0.329912  0.892090  0.745479  1
  V  V14  1  0.672557  0.102738  0.250795  1
  V  V15  1  0.670810  0.603760  0.249253  1
  P  P16  1  0.409074  0.360927  0.250803  1
  P  P17  1  0.411030  0.861919  0.249316  1
  P  P18  1  0.592740  0.140607  0.749813  1
  P  P19  1  0.585987  0.638970  0.749542  1
  C  C20  1  0.036029  0.349738  0.753654  1
  C  C21  1  0.035174  0.846843  0.751144  1
  C  C22  1  0.963278  0.154507  0.252160  1
  C  C23  1  0.964972  0.652174  0.249646  1
  O  O24  1  0.068917  0.471758  0.748336  1
  O  O25  1  0.109285  0.186031  0.253713  1
  O  O26  1  0.074113  0.970789  0.749812  1
  O  O27  1  0.150072  0.250666  0.759858  1
  O  O28  1  0.111413  0.678007  0.249037  1
  O  O29  1  0.149594  0.750548  0.751287  1
  O  O30  1  0.307779  0.403712  0.060918  1
  O  O31  1  0.309637  0.407614  0.435694  1
  O  O32  1  0.310588  0.922445  0.064409  1
  O  O33  1  0.306145  0.914379  0.429240  1
  O  O34  1  0.424780  0.088312  0.749319  1
  O  O35  1  0.431889  0.199918  0.249522  1
  O  O36  1  0.421453  0.589043  0.748993  1
  O  O37  1  0.429274  0.705434  0.242661  1
  O  O38  1  0.571313  0.295702  0.749740  1
  O  O39  1  0.575386  0.410017  0.249652  1
  O  O40  1  0.569485  0.797545  0.749156  1
  O  O41  1  0.577304  0.911366  0.253282  1
  O  O42  1  0.693081  0.083269  0.933509  1
  O  O43  1  0.691493  0.083626  0.567816  1
  O  O44  1  0.689973  0.587683  0.567585  1
  O  O45  1  0.691301  0.586480  0.932117  1
  O  O46  1  0.848729  0.249152  0.253191  1
  O  O47  1  0.890427  0.317280  0.750786  1
  O  O48  1  0.851646  0.750071  0.248767  1
  O  O49  1  0.930534  0.030393  0.250934  1
  O  O50  1  0.890090  0.819951  0.751285  1
  O  O51  1  0.925492  0.529524  0.251424  1
