# generated using pymatgen
data_Li7MgNi7O16
_symmetry_space_group_name_H-M   'P 1'
_cell_length_a   5.02092765
_cell_length_b   5.74454615
_cell_length_c   9.93904454
_cell_angle_alpha   72.11645294
_cell_angle_beta   100.82303318
_cell_angle_gamma   90.07699414
_symmetry_Int_Tables_number   1
_chemical_formula_structural   Li7MgNi7O16
_chemical_formula_sum   'Li7 Mg1 Ni7 O16'
_cell_volume   267.48037961
_cell_formula_units_Z   1
loop_
 _symmetry_equiv_pos_site_id
 _symmetry_equiv_pos_as_xyz
  1  'x, y, z'
loop_
 _atom_site_type_symbol
 _atom_site_label
 _atom_site_symmetry_multiplicity
 _atom_site_fract_x
 _atom_site_fract_y
 _atom_site_fract_z
 _atom_site_occupancy
  Li  Li0  1  0.497622  0.247547  0.992922  1
  Li  Li1  1  0.487902  0.755399  0.998374  1
  Li  Li2  1  0.753249  0.378710  0.248630  1
  Li  Li3  1  0.002378  0.002453  0.507078  1
  Li  Li4  1  0.012098  0.494601  0.501626  1
  Li  Li5  1  0.746751  0.871290  0.251370  1
  Li  Li6  1  0.250000  0.625000  0.750000  1
  Mg  Mg7  1  0.250000  0.125000  0.250000  1
  Ni  Ni8  1  0.996532  0.004004  0.999115  1
  Ni  Ni9  1  0.986018  0.507014  0.001197  1
  Ni  Ni10  1  0.250000  0.625000  0.250000  1
  Ni  Ni11  1  0.503468  0.245996  0.500885  1
  Ni  Ni12  1  0.513982  0.742986  0.498803  1
  Ni  Ni13  1  0.756937  0.375588  0.750413  1
  Ni  Ni14  1  0.743063  0.874412  0.749587  1
  O  O15  1  0.330059  0.454335  0.122062  1
  O  O16  1  0.880590  0.204658  0.114722  1
  O  O17  1  0.619410  0.045342  0.385278  1
  O  O18  1  0.163169  0.323011  0.377263  1
  O  O19  1  0.876765  0.680134  0.115183  1
  O  O20  1  0.336831  0.926989  0.122737  1
  O  O21  1  0.623235  0.569866  0.384817  1
  O  O22  1  0.169941  0.795665  0.377938  1
  O  O23  1  0.834127  0.167314  0.625244  1
  O  O24  1  0.415579  0.451286  0.616580  1
  O  O25  1  0.095285  0.338141  0.885600  1
  O  O26  1  0.849121  0.669015  0.625722  1
  O  O27  1  0.665873  0.082686  0.874756  1
  O  O28  1  0.404715  0.911859  0.614400  1
  O  O29  1  0.650879  0.580985  0.874278  1
  O  O30  1  0.084421  0.798714  0.883420  1
