# generated using pymatgen
data_Li2FeF4
_symmetry_space_group_name_H-M   'P 1'
_cell_length_a   8.37343108
_cell_length_b   9.65245536
_cell_length_c   9.65245536
_cell_angle_alpha   100.84400537
_cell_angle_beta   115.70553414
_cell_angle_gamma   64.29446586
_symmetry_Int_Tables_number   1
_chemical_formula_structural   Li2FeF4
_chemical_formula_sum   'Li16 Fe8 F32'
_cell_volume   633.37731088
_cell_formula_units_Z   8
loop_
 _symmetry_equiv_pos_site_id
 _symmetry_equiv_pos_as_xyz
  1  'x, y, z'
loop_
 _atom_site_type_symbol
 _atom_site_label
 _atom_site_symmetry_multiplicity
 _atom_site_fract_x
 _atom_site_fract_y
 _atom_site_fract_z
 _atom_site_occupancy
  Li  Li0  1  0.500000  0.140210  0.140210  1
  Li  Li1  1  0.006364  0.250000  0.012726  1
  Li  Li2  1  0.993636  0.012726  0.250000  1
  Li  Li3  1  0.640210  0.359790  0.140210  1
  Li  Li4  1  0.359790  0.140210  0.359790  1
  Li  Li5  1  0.743636  0.250000  0.487274  1
  Li  Li6  1  0.256364  0.487274  0.250000  1
  Li  Li7  1  0.000000  0.359790  0.359790  1
  Li  Li8  1  0.000000  0.640210  0.640210  1
  Li  Li9  1  0.256364  0.750000  0.512726  1
  Li  Li10  1  0.743636  0.512726  0.750000  1
  Li  Li11  1  0.359790  0.640210  0.859790  1
  Li  Li12  1  0.640210  0.859790  0.640210  1
  Li  Li13  1  0.993636  0.750000  0.987274  1
  Li  Li14  1  0.006364  0.987274  0.750000  1
  Li  Li15  1  0.500000  0.859790  0.859790  1
  Fe  Fe16  1  0.226679  0.117537  0.617537  1
  Fe  Fe17  1  0.773321  0.617537  0.117537  1
  Fe  Fe18  1  0.609141  0.617537  0.382463  1
  Fe  Fe19  1  0.655784  0.117537  0.882463  1
  Fe  Fe20  1  0.344216  0.882463  0.117537  1
  Fe  Fe21  1  0.390859  0.382463  0.617537  1
  Fe  Fe22  1  0.226679  0.382463  0.882463  1
  Fe  Fe23  1  0.773321  0.882463  0.382463  1
  F  F24  1  0.267803  0.119199  0.134742  1
  F  F25  1  0.732197  0.134742  0.119199  1
  F  F26  1  0.612999  0.119199  0.365258  1
  F  F27  1  0.387001  0.365258  0.119199  1
  F  F28  1  0.133061  0.134742  0.380801  1
  F  F29  1  0.866939  0.380801  0.134742  1
  F  F30  1  0.006311  0.622292  0.122292  1
  F  F31  1  0.993689  0.122292  0.622292  1
  F  F32  1  0.247741  0.365258  0.380801  1
  F  F33  1  0.752259  0.380801  0.365258  1
  F  F34  1  0.519416  0.627518  0.127518  1
  F  F35  1  0.480584  0.127518  0.627518  1
  F  F36  1  0.391898  0.127518  0.872482  1
  F  F37  1  0.115980  0.877708  0.122292  1
  F  F38  1  0.608102  0.872482  0.127518  1
  F  F39  1  0.853066  0.627518  0.372482  1
  F  F40  1  0.371398  0.622292  0.377708  1
  F  F41  1  0.146934  0.372482  0.627518  1
  F  F42  1  0.628602  0.377708  0.622292  1
  F  F43  1  0.884020  0.122292  0.877708  1
  F  F44  1  0.519416  0.872482  0.372482  1
  F  F45  1  0.480584  0.372482  0.872482  1
  F  F46  1  0.752259  0.634742  0.619199  1
  F  F47  1  0.247741  0.619199  0.634742  1
  F  F48  1  0.006311  0.877708  0.377708  1
  F  F49  1  0.993689  0.377708  0.877708  1
  F  F50  1  0.866939  0.865258  0.619199  1
  F  F51  1  0.133061  0.619199  0.865258  1
  F  F52  1  0.387001  0.880801  0.634742  1
  F  F53  1  0.612999  0.634742  0.880801  1
  F  F54  1  0.267803  0.865258  0.880801  1
  F  F55  1  0.732197  0.880801  0.865258  1
