# generated using pymatgen
data_Li2Cu(PO3)4
_symmetry_space_group_name_H-M   'P 1'
_cell_length_a   8.19751859
_cell_length_b   11.03348211
_cell_length_c   13.30721605
_cell_angle_alpha   90.00000000
_cell_angle_beta   66.19030434
_cell_angle_gamma   90.00000000
_symmetry_Int_Tables_number   1
_chemical_formula_structural   Li2Cu(PO3)4
_chemical_formula_sum   'Li8 Cu4 P16 O48'
_cell_volume   1101.16333532
_cell_formula_units_Z   4
loop_
 _symmetry_equiv_pos_site_id
 _symmetry_equiv_pos_as_xyz
  1  'x, y, z'
loop_
 _atom_site_type_symbol
 _atom_site_label
 _atom_site_symmetry_multiplicity
 _atom_site_fract_x
 _atom_site_fract_y
 _atom_site_fract_z
 _atom_site_occupancy
  Li  Li0  1  0.165592  0.108575  0.266580  1
  Li  Li1  1  0.334408  0.608575  0.233420  1
  Li  Li2  1  0.189231  0.972595  0.431274  1
  Li  Li3  1  0.310769  0.472595  0.068726  1
  Li  Li4  1  0.689231  0.527405  0.931274  1
  Li  Li5  1  0.810769  0.027405  0.568726  1
  Li  Li6  1  0.665592  0.391425  0.766580  1
  Li  Li7  1  0.834408  0.891425  0.733420  1
  Cu  Cu8  1  0.266058  0.261026  0.681059  1
  Cu  Cu9  1  0.233942  0.761026  0.818941  1
  Cu  Cu10  1  0.766058  0.238974  0.181059  1
  Cu  Cu11  1  0.733942  0.738974  0.318941  1
  P  P12  1  0.991718  0.747612  0.070145  1
  P  P13  1  0.076607  0.375804  0.290087  1
  P  P14  1  0.374745  0.764384  0.022434  1
  P  P15  1  0.125255  0.264384  0.477566  1
  P  P16  1  0.008282  0.252388  0.929855  1
  P  P17  1  0.423393  0.875804  0.209913  1
  P  P18  1  0.208010  0.041859  0.822323  1
  P  P19  1  0.291990  0.541859  0.677677  1
  P  P20  1  0.508282  0.247612  0.429855  1
  P  P21  1  0.491718  0.752388  0.570145  1
  P  P22  1  0.708010  0.458141  0.322323  1
  P  P23  1  0.791990  0.958141  0.177677  1
  P  P24  1  0.576607  0.124196  0.790087  1
  P  P25  1  0.874745  0.735616  0.522434  1
  P  P26  1  0.625255  0.235616  0.977566  1
  P  P27  1  0.923393  0.624196  0.709913  1
  O  O28  1  0.165076  0.801100  0.083357  1
  O  O29  1  0.052241  0.364558  0.416562  1
  O  O30  1  0.236529  0.452564  0.223960  1
  O  O31  1  0.099974  0.136667  0.440537  1
  O  O32  1  0.051777  0.290520  0.596970  1
  O  O33  1  0.400026  0.636667  0.059463  1
  O  O34  1  0.938280  0.746305  0.754214  1
  O  O35  1  0.089260  0.537498  0.693039  1
  O  O36  1  0.263471  0.952564  0.276040  1
  O  O37  1  0.112805  0.328230  0.830224  1
  O  O38  1  0.044909  0.688604  0.959498  1
  O  O39  1  0.447759  0.864558  0.083438  1
  O  O40  1  0.334924  0.301100  0.416643  1
  O  O41  1  0.127665  0.918910  0.857948  1
  O  O42  1  0.119981  0.131017  0.926819  1
  O  O43  1  0.188193  0.096089  0.723750  1
  O  O44  1  0.311807  0.596089  0.776250  1
  O  O45  1  0.551777  0.209480  0.096970  1
  O  O46  1  0.380019  0.631017  0.573181  1
  O  O47  1  0.372335  0.418910  0.642052  1
  O  O48  1  0.438280  0.753695  0.254214  1
  O  O49  1  0.589260  0.962502  0.193039  1
  O  O50  1  0.455091  0.188604  0.540502  1
  O  O51  1  0.387195  0.828230  0.669776  1
  O  O52  1  0.612805  0.171770  0.330224  1
  O  O53  1  0.544909  0.811396  0.459498  1
  O  O54  1  0.410740  0.037498  0.806961  1
  O  O55  1  0.561720  0.246305  0.745786  1
  O  O56  1  0.627665  0.581090  0.357948  1
  O  O57  1  0.619981  0.368983  0.426819  1
  O  O58  1  0.448223  0.790520  0.903030  1
  O  O59  1  0.688193  0.403911  0.223750  1
  O  O60  1  0.811807  0.903911  0.276250  1
  O  O61  1  0.880019  0.868983  0.073181  1
  O  O62  1  0.872335  0.081090  0.142052  1
  O  O63  1  0.665076  0.698900  0.583357  1
  O  O64  1  0.552241  0.135442  0.916562  1
  O  O65  1  0.955091  0.311396  0.040502  1
  O  O66  1  0.887195  0.671770  0.169776  1
  O  O67  1  0.736529  0.047436  0.723960  1
  O  O68  1  0.910740  0.462502  0.306961  1
  O  O69  1  0.061720  0.253695  0.245786  1
  O  O70  1  0.599974  0.363333  0.940537  1
  O  O71  1  0.948223  0.709480  0.403030  1
  O  O72  1  0.900026  0.863333  0.559463  1
  O  O73  1  0.763471  0.547436  0.776040  1
  O  O74  1  0.947759  0.635442  0.583438  1
  O  O75  1  0.834924  0.198900  0.916643  1
