# generated using pymatgen
data_Li3CrSi2O7
_symmetry_space_group_name_H-M   'P 1'
_cell_length_a   8.58308469
_cell_length_b   8.58307835
_cell_length_c   12.98229837
_cell_angle_alpha   90.00004990
_cell_angle_beta   90.00006998
_cell_angle_gamma   120.00017758
_symmetry_Int_Tables_number   1
_chemical_formula_structural   Li3CrSi2O7
_chemical_formula_sum   'Li18 Cr6 Si12 O42'
_cell_volume   828.26234067
_cell_formula_units_Z   6
loop_
 _symmetry_equiv_pos_site_id
 _symmetry_equiv_pos_as_xyz
  1  'x, y, z'
loop_
 _atom_site_type_symbol
 _atom_site_label
 _atom_site_symmetry_multiplicity
 _atom_site_fract_x
 _atom_site_fract_y
 _atom_site_fract_z
 _atom_site_occupancy
  Li  Li0  1  0.024675  0.691081  0.897159  1
  Li  Li1  1  0.023424  0.690515  0.566007  1
  Li  Li2  1  0.333330  0.666674  0.216497  1
  Li  Li3  1  0.333322  0.666680  0.733525  1
  Li  Li4  1  0.999999  0.999998  0.467076  1
  Li  Li5  1  0.999998  0.999998  0.967072  1
  Li  Li6  1  0.309477  0.332900  0.566008  1
  Li  Li7  1  0.308915  0.333587  0.897158  1
  Li  Li8  1  0.666405  0.975311  0.897157  1
  Li  Li9  1  0.667104  0.976576  0.566009  1
  Li  Li10  1  0.332899  0.023426  0.066006  1
  Li  Li11  1  0.333592  0.024688  0.397162  1
  Li  Li12  1  0.691089  0.666414  0.397160  1
  Li  Li13  1  0.690516  0.667094  0.066006  1
  Li  Li14  1  0.666629  0.333319  0.233534  1
  Li  Li15  1  0.666661  0.333329  0.716496  1
  Li  Li16  1  0.976584  0.309488  0.066005  1
  Li  Li17  1  0.975326  0.308914  0.397161  1
  Cr  Cr18  1  0.999970  0.999984  0.231358  1
  Cr  Cr19  1  0.000011  0.000006  0.731402  1
  Cr  Cr20  1  0.333336  0.666657  0.509825  1
  Cr  Cr21  1  0.333329  0.666671  0.955470  1
  Cr  Cr22  1  0.666674  0.333337  0.455469  1
  Cr  Cr23  1  0.666671  0.333333  0.009846  1
  Si  Si24  1  0.026862  0.674405  0.345835  1
  Si  Si25  1  0.023370  0.673615  0.119749  1
  Si  Si26  1  0.326395  0.349766  0.119753  1
  Si  Si27  1  0.325591  0.352447  0.345827  1
  Si  Si28  1  0.650238  0.976636  0.119747  1
  Si  Si29  1  0.647535  0.973130  0.345829  1
  Si  Si30  1  0.352480  0.026882  0.845829  1
  Si  Si31  1  0.349757  0.023353  0.619745  1
  Si  Si32  1  0.674403  0.647532  0.845831  1
  Si  Si33  1  0.673601  0.650237  0.619751  1
  Si  Si34  1  0.976644  0.326394  0.619748  1
  Si  Si35  1  0.973131  0.325605  0.845833  1
  O  O36  1  0.133259  0.931941  0.842703  1
  O  O37  1  0.130947  0.926508  0.625321  1
  O  O38  1  0.127326  0.692018  0.232393  1
  O  O39  1  0.187823  0.756594  0.035336  1
  O  O40  1  0.189425  0.758296  0.430891  1
  O  O41  1  0.120655  0.539625  0.605023  1
  O  O42  1  0.120383  0.538525  0.860414  1
  O  O43  1  0.068048  0.201300  0.842697  1
  O  O44  1  0.418145  0.879626  0.860412  1
  O  O45  1  0.073500  0.204440  0.625329  1
  O  O46  1  0.418984  0.879352  0.605027  1
  O  O47  1  0.243418  0.431230  0.035332  1
  O  O48  1  0.241699  0.431107  0.430893  1
  O  O49  1  0.307995  0.435318  0.232390  1
  O  O50  1  0.201308  0.133251  0.342688  1
  O  O51  1  0.564682  0.872668  0.232389  1
  O  O52  1  0.204446  0.130949  0.125319  1
  O  O53  1  0.568886  0.810578  0.430893  1
  O  O54  1  0.568771  0.812190  0.035334  1
  O  O55  1  0.460373  0.581022  0.605021  1
  O  O56  1  0.461485  0.581872  0.860419  1
  O  O57  1  0.538527  0.418135  0.360406  1
  O  O58  1  0.539633  0.418974  0.105036  1
  O  O59  1  0.431235  0.187816  0.535335  1
  O  O60  1  0.431125  0.189425  0.930904  1
  O  O61  1  0.795561  0.869049  0.625325  1
  O  O62  1  0.435315  0.127334  0.732395  1
  O  O63  1  0.798698  0.866752  0.842699  1
  O  O64  1  0.691999  0.564684  0.732395  1
  O  O65  1  0.758311  0.568887  0.930899  1
  O  O66  1  0.756585  0.568767  0.535333  1
  O  O67  1  0.581013  0.120643  0.105031  1
  O  O68  1  0.926497  0.795558  0.125312  1
  O  O69  1  0.581851  0.120375  0.360410  1
  O  O70  1  0.931951  0.798698  0.342691  1
  O  O71  1  0.879618  0.461469  0.360415  1
  O  O72  1  0.879360  0.460380  0.105022  1
  O  O73  1  0.810575  0.241700  0.930897  1
  O  O74  1  0.812183  0.243414  0.535333  1
  O  O75  1  0.872673  0.307991  0.732397  1
  O  O76  1  0.869052  0.073500  0.125312  1
  O  O77  1  0.866740  0.068058  0.342689  1
