# generated using pymatgen
data_Li4Mn3V2Fe3O16
_symmetry_space_group_name_H-M   'P 1'
_cell_length_a   5.89167779
_cell_length_b   5.96419488
_cell_length_c   9.51485719
_cell_angle_alpha   89.12837263
_cell_angle_beta   90.01855432
_cell_angle_gamma   120.25918558
_symmetry_Int_Tables_number   1
_chemical_formula_structural   Li4Mn3V2Fe3O16
_chemical_formula_sum   'Li4 Mn3 V2 Fe3 O16'
_cell_volume   288.74706446
_cell_formula_units_Z   1
loop_
 _symmetry_equiv_pos_site_id
 _symmetry_equiv_pos_as_xyz
  1  'x, y, z'
loop_
 _atom_site_type_symbol
 _atom_site_label
 _atom_site_symmetry_multiplicity
 _atom_site_fract_x
 _atom_site_fract_y
 _atom_site_fract_z
 _atom_site_occupancy
  Li  Li0  1  0.344645  0.679385  0.897407  1
  Li  Li1  1  0.993025  0.996661  0.994208  1
  Li  Li2  1  0.990803  0.991927  0.493995  1
  Li  Li3  1  0.675266  0.337744  0.397835  1
  Mn  Mn4  1  0.656186  0.828362  0.213707  1
  Mn  Mn5  1  0.829750  0.656227  0.715717  1
  Mn  Mn6  1  0.836203  0.173362  0.712829  1
  V  V7  1  0.333675  0.662472  0.488857  1
  V  V8  1  0.662988  0.335316  0.988131  1
  Fe  Fe9  1  0.167522  0.829438  0.214105  1
  Fe  Fe10  1  0.168144  0.338878  0.213418  1
  Fe  Fe11  1  0.337494  0.165488  0.712786  1
  O  O12  1  0.159146  0.825990  0.598034  1
  O  O13  1  0.049999  0.522690  0.350849  1
  O  O14  1  0.341303  0.674033  0.104754  1
  O  O15  1  0.988458  0.992661  0.306066  1
  O  O16  1  0.985928  0.986215  0.805351  1
  O  O17  1  0.157212  0.323265  0.594763  1
  O  O18  1  0.492893  0.960202  0.341460  1
  O  O19  1  0.490988  0.527890  0.339153  1
  O  O20  1  0.339011  0.172558  0.092520  1
  O  O21  1  0.645875  0.797862  0.591749  1
  O  O22  1  0.524188  0.485493  0.839509  1
  O  O23  1  0.536187  0.052665  0.845475  1
  O  O24  1  0.679764  0.344530  0.608321  1
  O  O25  1  0.821265  0.663724  0.099686  1
  O  O26  1  0.965414  0.511903  0.850126  1
  O  O27  1  0.826670  0.163358  0.097033  1
