# generated using pymatgen
data_Li4Fe7(OF7)2
_symmetry_space_group_name_H-M   'P 1'
_cell_length_a   6.15558041
_cell_length_b   6.26946725
_cell_length_c   10.85899660
_cell_angle_alpha   90.11699651
_cell_angle_beta   72.61663743
_cell_angle_gamma   120.70672327
_symmetry_Int_Tables_number   1
_chemical_formula_structural   Li4Fe7(OF7)2
_chemical_formula_sum   'Li4 Fe7 O2 F14'
_cell_volume   338.02362481
_cell_formula_units_Z   1
loop_
 _symmetry_equiv_pos_site_id
 _symmetry_equiv_pos_as_xyz
  1  'x, y, z'
loop_
 _atom_site_type_symbol
 _atom_site_label
 _atom_site_symmetry_multiplicity
 _atom_site_fract_x
 _atom_site_fract_y
 _atom_site_fract_z
 _atom_site_occupancy
  Li  Li0  1  0.846318  0.196080  0.444840  1
  Li  Li1  1  0.135063  0.316543  0.057042  1
  Li  Li2  1  0.853947  0.673725  0.947596  1
  Li  Li3  1  0.144122  0.812759  0.558088  1
  Fe  Fe4  1  0.521266  0.006167  0.990730  1
  Fe  Fe5  1  0.522697  0.271844  0.252094  1
  Fe  Fe6  1  0.513958  0.742311  0.242601  1
  Fe  Fe7  1  0.489194  0.483747  0.502978  1
  Fe  Fe8  1  0.492073  0.248130  0.749617  1
  Fe  Fe9  1  0.978270  0.729516  0.252324  1
  Fe  Fe10  1  0.505145  0.752887  0.748414  1
  O  O11  1  0.728640  0.396699  0.376024  1
  O  O12  1  0.741166  0.629611  0.137736  1
  F  F13  1  0.743826  0.124519  0.120875  1
  F  F14  1  0.713917  0.100561  0.637321  1
  F  F15  1  0.269950  0.104281  0.129269  1
  F  F16  1  0.745519  0.620959  0.629962  1
  F  F17  1  0.272489  0.124323  0.629182  1
  F  F18  1  0.258276  0.641232  0.122176  1
  F  F19  1  0.240869  0.377574  0.378729  1
  F  F20  1  0.743269  0.875888  0.375667  1
  F  F21  1  0.705507  0.356801  0.875885  1
  F  F22  1  0.722961  0.865224  0.881346  1
  F  F23  1  0.293034  0.635911  0.613042  1
  F  F24  1  0.284112  0.406845  0.867603  1
  F  F25  1  0.273711  0.875156  0.353602  1
  F  F26  1  0.260700  0.880704  0.875257  1
