# generated using pymatgen
data_Li4VCr3O8
_symmetry_space_group_name_H-M   'P 1'
_cell_length_a   5.13928166
_cell_length_b   5.95437321
_cell_length_c   5.93056981
_cell_angle_alpha   60.11786411
_cell_angle_beta   90.00401267
_cell_angle_gamma   73.23309673
_symmetry_Int_Tables_number   1
_chemical_formula_structural   Li4VCr3O8
_chemical_formula_sum   'Li4 V1 Cr3 O8'
_cell_volume   148.38785426
_cell_formula_units_Z   1
loop_
 _symmetry_equiv_pos_site_id
 _symmetry_equiv_pos_as_xyz
  1  'x, y, z'
loop_
 _atom_site_type_symbol
 _atom_site_label
 _atom_site_symmetry_multiplicity
 _atom_site_fract_x
 _atom_site_fract_y
 _atom_site_fract_z
 _atom_site_occupancy
  Li  Li0  1  0.995554  0.003025  0.998507  1
  Li  Li1  1  0.004446  0.996974  0.501493  1
  Li  Li2  1  0.500000  0.000000  0.250000  1
  Li  Li3  1  0.500000  0.000000  0.750000  1
  V  V4  1  0.500000  0.500000  0.249999  1
  Cr  Cr5  1  0.000029  0.500002  0.001165  1
  Cr  Cr6  1  0.999971  0.499998  0.498835  1
  Cr  Cr7  1  0.500000  0.500000  0.750000  1
  O  O8  1  0.238434  0.269404  0.365376  1
  O  O9  1  0.241597  0.277253  0.861440  1
  O  O10  1  0.743318  0.272228  0.112347  1
  O  O11  1  0.256681  0.727771  0.387655  1
  O  O12  1  0.256695  0.727775  0.884438  1
  O  O13  1  0.761566  0.730596  0.134624  1
  O  O14  1  0.743305  0.272225  0.615561  1
  O  O15  1  0.758403  0.722748  0.638559  1
