# generated using pymatgen
data_Li2Mn3SbO8
_symmetry_space_group_name_H-M   'P 1'
_cell_length_a   6.11876348
_cell_length_b   6.07928477
_cell_length_c   6.10732670
_cell_angle_alpha   62.16550543
_cell_angle_beta   120.78419509
_cell_angle_gamma   117.88997100
_symmetry_Int_Tables_number   1
_chemical_formula_structural   Li2Mn3SbO8
_chemical_formula_sum   'Li2 Mn3 Sb1 O8'
_cell_volume   164.57481672
_cell_formula_units_Z   1
loop_
 _symmetry_equiv_pos_site_id
 _symmetry_equiv_pos_as_xyz
  1  'x, y, z'
loop_
 _atom_site_type_symbol
 _atom_site_label
 _atom_site_symmetry_multiplicity
 _atom_site_fract_x
 _atom_site_fract_y
 _atom_site_fract_z
 _atom_site_occupancy
  Li  Li0  1  0.499938  0.999954  0.000011  1
  Li  Li1  1  0.999952  0.999954  0.499999  1
  Mn  Mn2  1  0.500021  0.000024  0.500034  1
  Mn  Mn3  1  0.500177  0.500194  0.999884  1
  Mn  Mn4  1  0.000080  0.500001  0.499982  1
  Sb  Sb5  1  -0.000043  0.000044  -0.000064  1
  O  O6  1  0.695824  0.243179  0.264192  1
  O  O7  1  0.741187  0.209442  0.751309  1
  O  O8  1  0.235246  0.194649  0.274269  1
  O  O9  1  0.758664  0.756638  0.205284  1
  O  O10  1  0.241316  0.243342  0.794746  1
  O  O11  1  0.764718  0.805314  0.725799  1
  O  O12  1  0.258770  0.790459  0.248730  1
  O  O13  1  0.304150  0.756807  0.735825  1
