# generated using pymatgen
data_Ba4Pb3O10
_symmetry_space_group_name_H-M   'P 1'
_cell_length_a   4.38305660
_cell_length_b   4.38255134
_cell_length_c   15.68890097
_cell_angle_alpha   82.05310131
_cell_angle_beta   82.04383395
_cell_angle_gamma   90.01110768
_symmetry_Int_Tables_number   1
_chemical_formula_structural   Ba4Pb3O10
_chemical_formula_sum   'Ba4 Pb3 O10'
_cell_volume   295.54305111
_cell_formula_units_Z   1
loop_
 _symmetry_equiv_pos_site_id
 _symmetry_equiv_pos_as_xyz
  1  'x, y, z'
loop_
 _atom_site_type_symbol
 _atom_site_label
 _atom_site_symmetry_multiplicity
 _atom_site_fract_x
 _atom_site_fract_y
 _atom_site_fract_z
 _atom_site_occupancy
  Ba  Ba0  1  0.295549  0.295131  0.405673  1
  Ba  Ba1  1  0.422688  0.446916  0.139215  1
  Ba  Ba2  1  0.702085  0.700221  0.594496  1
  Ba  Ba3  1  0.546705  0.568857  0.860928  1
  Pb  Pb4  1  0.993383  0.001578  0.000015  1
  Pb  Pb5  1  0.135724  0.140060  0.716264  1
  Pb  Pb6  1  0.850661  0.856161  0.283814  1
  O  O7  1  0.854307  0.354954  0.281779  1
  O  O8  1  0.635740  0.140078  0.719169  1
  O  O9  1  0.103956  0.068495  0.858391  1
  O  O10  1  0.195864  0.210038  0.574639  1
  O  O11  1  0.923444  0.885109  0.141700  1
  O  O12  1  0.491967  0.999849  0.006522  1
  O  O13  1  0.351299  0.855413  0.281373  1
  O  O14  1  0.140361  0.639596  0.717396  1
  O  O15  1  0.000462  0.503257  0.993265  1
  O  O16  1  0.767607  0.782089  0.425363  1
