# generated using pymatgen
data_Li3Fe8(BO3)8
_symmetry_space_group_name_H-M   'P 1'
_cell_length_a   5.31237162
_cell_length_b   9.03637285
_cell_length_c   10.13637115
_cell_angle_alpha   90.55287242
_cell_angle_beta   91.10579686
_cell_angle_gamma   89.53189605
_symmetry_Int_Tables_number   1
_chemical_formula_structural   Li3Fe8(BO3)8
_chemical_formula_sum   'Li3 Fe8 B8 O24'
_cell_volume   486.46336406
_cell_formula_units_Z   1
loop_
 _symmetry_equiv_pos_site_id
 _symmetry_equiv_pos_as_xyz
  1  'x, y, z'
loop_
 _atom_site_type_symbol
 _atom_site_label
 _atom_site_symmetry_multiplicity
 _atom_site_fract_x
 _atom_site_fract_y
 _atom_site_fract_z
 _atom_site_occupancy
  Li  Li0  1  0.649542  0.006577  0.093201  1
  Li  Li1  1  0.848393  0.513657  0.845178  1
  Li  Li2  1  0.343675  0.990672  0.353838  1
  Fe  Fe3  1  0.148869  0.167911  0.118786  1
  Fe  Fe4  1  0.839874  0.171178  0.372738  1
  Fe  Fe5  1  0.341226  0.330054  0.876352  1
  Fe  Fe6  1  0.650510  0.331989  0.622118  1
  Fe  Fe7  1  0.335255  0.661525  0.360476  1
  Fe  Fe8  1  0.161643  0.828580  0.627448  1
  Fe  Fe9  1  0.671628  0.655482  0.121454  1
  Fe  Fe10  1  0.835837  0.848821  0.869983  1
  B  B11  1  0.166201  0.164508  0.620401  1
  B  B12  1  0.326964  0.329126  0.376367  1
  B  B13  1  0.827224  0.177997  0.875417  1
  B  B14  1  0.666258  0.327157  0.121020  1
  B  B15  1  0.344298  0.661268  0.865293  1
  B  B16  1  0.659181  0.670975  0.618519  1
  B  B17  1  0.164223  0.836294  0.129821  1
  B  B18  1  0.830491  0.834215  0.370955  1
  O  O19  1  0.263711  0.027139  0.610659  1
  O  O20  1  0.077130  0.191550  0.910342  1
  O  O21  1  0.699409  0.052046  0.895335  1
  O  O22  1  0.199496  0.199509  0.339780  1
  O  O23  1  0.305211  0.283261  0.671433  1
  O  O24  1  0.775398  0.196451  0.178053  1
  O  O25  1  0.920967  0.195254  0.572846  1
  O  O26  1  0.426987  0.308715  0.065766  1
  O  O27  1  0.227449  0.464417  0.366040  1
  O  O28  1  0.573250  0.307901  0.428270  1
  O  O29  1  0.706225  0.307447  0.824555  1
  O  O30  1  0.218668  0.527800  0.866449  1
  O  O31  1  0.797353  0.451894  0.116022  1
  O  O32  1  0.288562  0.705398  0.168284  1
  O  O33  1  0.418086  0.692255  0.563544  1
  O  O34  1  0.743845  0.530771  0.646386  1
  O  O35  1  0.594628  0.671042  0.904440  1
  O  O36  1  0.087373  0.822893  0.407809  1
  O  O37  1  0.210655  0.785507  0.819737  1
  O  O38  1  0.694167  0.710494  0.338232  1
  O  O39  1  0.805414  0.792151  0.650597  1
  O  O40  1  0.295603  0.966513  0.142827  1
  O  O41  1  0.914826  0.834274  0.085741  1
  O  O42  1  0.718891  0.972953  0.366079  1
