# generated using pymatgen
data_LiZn(Fe5O8)2
_symmetry_space_group_name_H-M   'P 1'
_cell_length_a   6.06153939
_cell_length_b   6.06153939
_cell_length_c   12.12715755
_cell_angle_alpha   60.01112523
_cell_angle_beta   60.01112523
_cell_angle_gamma   60.00000000
_symmetry_Int_Tables_number   1
_chemical_formula_structural   LiZn(Fe5O8)2
_chemical_formula_sum   'Li1 Zn1 Fe10 O16'
_cell_volume   315.12502674
_cell_formula_units_Z   1
loop_
 _symmetry_equiv_pos_site_id
 _symmetry_equiv_pos_as_xyz
  1  'x, y, z'
loop_
 _atom_site_type_symbol
 _atom_site_label
 _atom_site_symmetry_multiplicity
 _atom_site_fract_x
 _atom_site_fract_y
 _atom_site_fract_z
 _atom_site_occupancy
  Li  Li0  1  0.001859  0.001859  0.497211  1
  Zn  Zn1  1  0.623757  0.623757  0.064364  1
  Fe  Fe2  1  0.002717  0.002717  0.995924  1
  Fe  Fe3  1  0.245888  0.245888  0.131168  1
  Fe  Fe4  1  0.623838  0.120753  0.315785  1
  Fe  Fe5  1  0.623838  0.623838  0.315785  1
  Fe  Fe6  1  0.120753  0.623838  0.315785  1
  Fe  Fe7  1  0.247504  0.247504  0.628744  1
  Fe  Fe8  1  0.626838  0.124831  0.810746  1
  Fe  Fe9  1  0.628748  0.628748  0.556878  1
  Fe  Fe10  1  0.124831  0.626838  0.810746  1
  Fe  Fe11  1  0.626838  0.626838  0.810746  1
  O  O12  1  0.377172  0.377172  0.194295  1
  O  O13  1  0.857064  0.377172  0.194295  1
  O  O14  1  0.377172  0.857064  0.194295  1
  O  O15  1  0.389771  0.389771  0.415343  1
  O  O16  1  0.864410  0.411893  0.429644  1
  O  O17  1  0.871631  0.871631  0.192552  1
  O  O18  1  0.411893  0.864410  0.429644  1
  O  O19  1  0.864410  0.864410  0.429644  1
  O  O20  1  0.836683  0.386595  0.695063  1
  O  O21  1  0.386595  0.386595  0.695063  1
  O  O22  1  0.386595  0.836683  0.695063  1
  O  O23  1  0.379856  0.379856  0.930215  1
  O  O24  1  0.860046  0.860046  0.709931  1
  O  O25  1  0.873090  0.393106  0.930357  1
  O  O26  1  0.873090  0.873090  0.930357  1
  O  O27  1  0.393106  0.873090  0.930357  1
