# generated using pymatgen
data_Li5Mn3(SbO5)2
_symmetry_space_group_name_H-M   'P 1'
_cell_length_a   5.42661365
_cell_length_b   5.39597187
_cell_length_c   8.33041946
_cell_angle_alpha   108.38214601
_cell_angle_beta   101.69639515
_cell_angle_gamma   100.66936725
_symmetry_Int_Tables_number   1
_chemical_formula_structural   Li5Mn3(SbO5)2
_chemical_formula_sum   'Li5 Mn3 Sb2 O10'
_cell_volume   218.38287552
_cell_formula_units_Z   1
loop_
 _symmetry_equiv_pos_site_id
 _symmetry_equiv_pos_as_xyz
  1  'x, y, z'
loop_
 _atom_site_type_symbol
 _atom_site_label
 _atom_site_symmetry_multiplicity
 _atom_site_fract_x
 _atom_site_fract_y
 _atom_site_fract_z
 _atom_site_occupancy
  Li  Li0  1  0.240023  0.887737  0.401329  1
  Li  Li1  1  0.385024  0.291637  0.779511  1
  Li  Li2  1  0.500000  0.500000  0.500000  1
  Li  Li3  1  0.614976  0.708363  0.220489  1
  Li  Li4  1  0.759977  0.112263  0.598671  1
  Mn  Mn5  1  0.000000  0.500000  0.000000  1
  Mn  Mn6  1  0.691314  0.893128  0.891735  1
  Mn  Mn7  1  0.308686  0.106872  0.108265  1
  Sb  Sb8  1  0.099713  0.711917  0.696791  1
  Sb  Sb9  1  0.900287  0.288083  0.303209  1
  O  O10  1  0.051704  0.083930  0.842552  1
  O  O11  1  0.327544  0.694968  0.926908  1
  O  O12  1  0.139424  0.331400  0.547300  1
  O  O13  1  0.226449  0.487195  0.248331  1
  O  O14  1  0.429961  0.902900  0.653697  1
  O  O15  1  0.570039  0.097101  0.346303  1
  O  O16  1  0.773551  0.512805  0.751669  1
  O  O17  1  0.860576  0.668600  0.452700  1
  O  O18  1  0.672456  0.305032  0.073092  1
  O  O19  1  0.948296  0.916070  0.157448  1
