# generated using pymatgen
data_NaCa5ScZn5(SiO3)12
_symmetry_space_group_name_H-M   'P 1'
_cell_length_a   15.96890783
_cell_length_b   6.72573194
_cell_length_c   6.72573204
_cell_angle_alpha   84.12975690
_cell_angle_beta   78.22223059
_cell_angle_gamma   78.22222792
_symmetry_Int_Tables_number   1
_chemical_formula_structural   NaCa5ScZn5(SiO3)12
_chemical_formula_sum   'Na1 Ca5 Sc1 Zn5 Si12 O36'
_cell_volume   690.87900449
_cell_formula_units_Z   1
loop_
 _symmetry_equiv_pos_site_id
 _symmetry_equiv_pos_as_xyz
  1  'x, y, z'
loop_
 _atom_site_type_symbol
 _atom_site_label
 _atom_site_symmetry_multiplicity
 _atom_site_fract_x
 _atom_site_fract_y
 _atom_site_fract_z
 _atom_site_occupancy
  Na  Na0  1  0.916667  0.301223  0.698777  1
  Ca  Ca1  1  0.085517  0.696846  0.302722  1
  Ca  Ca2  1  0.251863  0.300685  0.703193  1
  Ca  Ca3  1  0.416667  0.701054  0.298946  1
  Ca  Ca4  1  0.581470  0.296807  0.699315  1
  Ca  Ca5  1  0.747816  0.697278  0.303154  1
  Sc  Sc6  1  0.916667  0.915587  0.084413  1
  Zn  Zn7  1  0.084129  0.106151  0.895846  1
  Zn  Zn8  1  0.248881  0.905885  0.095510  1
  Zn  Zn9  1  0.416667  0.091216  0.908784  1
  Zn  Zn10  1  0.584452  0.904490  0.094115  1
  Zn  Zn11  1  0.749204  0.104154  0.893849  1
  Si  Si12  1  0.087141  0.190689  0.382782  1
  Si  Si13  1  0.079598  0.622033  0.801105  1
  Si  Si14  1  0.254448  0.376935  0.197389  1
  Si  Si15  1  0.245808  0.808694  0.619482  1
  Si  Si16  1  0.421772  0.193096  0.380803  1
  Si  Si17  1  0.411562  0.619197  0.806904  1
  Si  Si18  1  0.587525  0.380518  0.191306  1
  Si  Si19  1  0.578885  0.802611  0.623065  1
  Si  Si20  1  0.753735  0.198895  0.377967  1
  Si  Si21  1  0.746192  0.617218  0.809311  1
  Si  Si22  1  0.922012  0.382796  0.198867  1
  Si  Si23  1  0.911322  0.801133  0.617204  1
  O  O24  1  0.001139  0.370570  0.330828  1
  O  O25  1  0.059385  0.097753  0.610112  1
  O  O26  1  0.116640  0.028311  0.204795  1
  O  O27  1  0.047723  0.791326  0.971676  1
  O  O28  1  0.110758  0.392937  0.887331  1
  O  O29  1  0.166383  0.328294  0.372025  1
  O  O30  1  0.168126  0.669751  0.629639  1
  O  O31  1  0.223513  0.608109  0.114538  1
  O  O32  1  0.284766  0.205779  0.029691  1
  O  O33  1  0.216163  0.973377  0.793309  1
  O  O34  1  0.277067  0.890621  0.388767  1
  O  O35  1  0.333167  0.367595  0.333275  1
  O  O36  1  0.333572  0.631520  0.668170  1
  O  O37  1  0.391206  0.111248  0.612067  1
  O  O38  1  0.451942  0.026433  0.208743  1
  O  O39  1  0.381391  0.791257  0.973567  1
  O  O40  1  0.442128  0.387933  0.888752  1
  O  O41  1  0.499762  0.331830  0.368480  1
  O  O42  1  0.500166  0.666725  0.632405  1
  O  O43  1  0.556266  0.611233  0.109379  1
  O  O44  1  0.617170  0.206691  0.026623  1
  O  O45  1  0.548568  0.970309  0.794221  1
  O  O46  1  0.609820  0.885462  0.391891  1
  O  O47  1  0.665207  0.370361  0.330249  1
  O  O48  1  0.666950  0.627975  0.671706  1
  O  O49  1  0.722575  0.112669  0.607063  1
  O  O50  1  0.785611  0.028324  0.208674  1
  O  O51  1  0.716693  0.795205  0.971689  1
  O  O52  1  0.773948  0.389888  0.902247  1
  O  O53  1  0.831050  0.337413  0.362884  1
  O  O54  1  0.832195  0.669172  0.629430  1
  O  O55  1  0.892541  0.617404  0.118699  1
  O  O56  1  0.951270  0.207633  0.034716  1
  O  O57  1  0.882063  0.965284  0.792367  1
  O  O58  1  0.940793  0.881301  0.382596  1
  O  O59  1  0.002283  0.637116  0.662587  1
