# generated using pymatgen
data_LiCrPO4
_symmetry_space_group_name_H-M   'P 1'
_cell_length_a   4.97672807
_cell_length_b   5.29986415
_cell_length_c   6.46962844
_cell_angle_alpha   90.41716766
_cell_angle_beta   90.61860674
_cell_angle_gamma   63.18476761
_symmetry_Int_Tables_number   1
_chemical_formula_structural   LiCrPO4
_chemical_formula_sum   'Li2 Cr2 P2 O8'
_cell_volume   152.28345860
_cell_formula_units_Z   2
loop_
 _symmetry_equiv_pos_site_id
 _symmetry_equiv_pos_as_xyz
  1  'x, y, z'
loop_
 _atom_site_type_symbol
 _atom_site_label
 _atom_site_symmetry_multiplicity
 _atom_site_fract_x
 _atom_site_fract_y
 _atom_site_fract_z
 _atom_site_occupancy
  Li  Li0  1  0.688584  0.661794  0.750979  1
  Li  Li1  1  0.348128  0.332331  0.246231  1
  Cr  Cr2  1  0.004328  0.998292  0.506206  1
  Cr  Cr3  1  0.008680  0.996060  0.001242  1
  P  P4  1  0.692746  0.618566  0.249479  1
  P  P5  1  0.310901  0.373804  0.747504  1
  O  O6  1  0.176445  0.713751  0.752056  1
  O  O7  1  0.780265  0.723934  0.447847  1
  O  O8  1  0.780264  0.719124  0.052373  1
  O  O9  1  0.346459  0.711610  0.247139  1
  O  O10  1  0.053238  0.278639  0.747258  1
  O  O11  1  0.499166  0.268189  0.944420  1
  O  O12  1  0.488746  0.275395  0.547925  1
  O  O13  1  0.890619  0.278860  0.251844  1
