# generated using pymatgen
data_Li9Cr12Co7O48
_symmetry_space_group_name_H-M   'P 1'
_cell_length_a   5.08777756
_cell_length_b   10.27747485
_cell_length_c   17.27536600
_cell_angle_alpha   90.10857105
_cell_angle_beta   89.78971076
_cell_angle_gamma   89.90451779
_symmetry_Int_Tables_number   1
_chemical_formula_structural   Li9Cr12Co7O48
_chemical_formula_sum   'Li9 Cr12 Co7 O48'
_cell_volume   903.31138152
_cell_formula_units_Z   1
loop_
 _symmetry_equiv_pos_site_id
 _symmetry_equiv_pos_as_xyz
  1  'x, y, z'
loop_
 _atom_site_type_symbol
 _atom_site_label
 _atom_site_symmetry_multiplicity
 _atom_site_fract_x
 _atom_site_fract_y
 _atom_site_fract_z
 _atom_site_occupancy
  Li  Li0  1  0.244885  0.422094  0.970605  1
  Li  Li1  1  0.249043  0.747166  0.304538  1
  Li  Li2  1  0.259633  0.253687  0.800660  1
  Li  Li3  1  0.253885  0.578442  0.469399  1
  Li  Li4  1  0.404509  0.748701  0.750505  1
  Li  Li5  1  0.595910  0.252002  0.250282  1
  Li  Li6  1  0.745105  0.078416  0.528028  1
  Li  Li7  1  0.739087  0.744732  0.200529  1
  Li  Li8  1  0.753528  0.249838  0.697290  1
  Cr  Cr9  1  0.216664  0.750580  0.944704  1
  Cr  Cr10  1  0.219852  0.025973  0.656404  1
  Cr  Cr11  1  0.215918  0.472056  0.653567  1
  Cr  Cr12  1  0.274405  0.528414  0.154384  1
  Cr  Cr13  1  0.276926  0.972185  0.155555  1
  Cr  Cr14  1  0.276184  0.250924  0.444908  1
  Cr  Cr15  1  0.725970  0.750969  0.555017  1
  Cr  Cr16  1  0.721938  0.027652  0.845591  1
  Cr  Cr17  1  0.729772  0.474608  0.844090  1
  Cr  Cr18  1  0.780024  0.526147  0.344068  1
  Cr  Cr19  1  0.782869  0.972360  0.345841  1
  Cr  Cr20  1  0.780604  0.247777  0.055843  1
  Co  Co21  1  0.093871  0.250796  0.252668  1
  Co  Co22  1  0.247961  0.073213  0.974449  1
  Co  Co23  1  0.254468  0.931399  0.473601  1
  Co  Co24  1  0.743164  0.428088  0.524004  1
  Co  Co25  1  0.747480  0.568953  0.027528  1
  Co  Co26  1  0.747823  0.927202  0.028258  1
  Co  Co27  1  0.906553  0.749985  0.745953  1
  O  O28  1  0.051210  0.243338  0.998309  1
  O  O29  1  0.049626  0.605537  0.369303  1
  O  O30  1  0.060768  0.893651  0.373840  1
  O  O31  1  0.101783  0.626747  0.208382  1
  O  O32  1  0.102230  0.877325  0.209710  1
  O  O33  1  0.105014  0.117761  0.467248  1
  O  O34  1  0.083038  0.376185  0.466809  1
  O  O35  1  0.088641  0.000764  0.074876  1
  O  O36  1  0.090405  0.499253  0.075631  1
  O  O37  1  0.144689  0.750562  0.850278  1
  O  O38  1  0.146843  0.613905  0.702709  1
  O  O39  1  0.144501  0.883276  0.705448  1
  O  O40  1  0.334273  0.112677  0.201630  1
  O  O41  1  0.330312  0.387635  0.201223  1
  O  O42  1  0.337949  0.251426  0.349661  1
  O  O43  1  0.400505  0.993030  0.577546  1
  O  O44  1  0.404455  0.503844  0.577093  1
  O  O45  1  0.402934  0.881756  0.966564  1
  O  O46  1  0.405283  0.625203  0.966318  1
  O  O47  1  0.403088  0.119916  0.710846  1
  O  O48  1  0.391390  0.374964  0.707644  1
  O  O49  1  0.443018  0.105171  0.872543  1
  O  O50  1  0.454390  0.399571  0.868049  1
  O  O51  1  0.452169  0.756483  0.500567  1
  O  O52  1  0.550502  0.257846  0.500749  1
  O  O53  1  0.558604  0.604365  0.126818  1
  O  O54  1  0.556984  0.894618  0.128207  1
  O  O55  1  0.595337  0.620175  0.290104  1
  O  O56  1  0.610463  0.876266  0.290056  1
  O  O57  1  0.588320  0.117074  0.034157  1
  O  O58  1  0.603405  0.378783  0.034085  1
  O  O59  1  0.593457  0.003192  0.423536  1
  O  O60  1  0.599980  0.493634  0.424335  1
  O  O61  1  0.666400  0.752201  0.652862  1
  O  O62  1  0.672466  0.617543  0.794834  1
  O  O63  1  0.667065  0.885834  0.798123  1
  O  O64  1  0.850776  0.111901  0.298681  1
  O  O65  1  0.849674  0.386539  0.295970  1
  O  O66  1  0.854260  0.247169  0.148986  1
  O  O67  1  0.903745  0.507956  0.924264  1
  O  O68  1  0.907305  0.996069  0.925171  1
  O  O69  1  0.895382  0.617500  0.533736  1
  O  O70  1  0.917938  0.875105  0.532981  1
  O  O71  1  0.899657  0.123836  0.792628  1
  O  O72  1  0.909578  0.377303  0.790524  1
  O  O73  1  0.951457  0.105570  0.631228  1
  O  O74  1  0.939372  0.394901  0.624746  1
  O  O75  1  0.941329  0.750281  0.002721  1
