# generated using pymatgen
data_Li2AlFeO4
_symmetry_space_group_name_H-M   'P 1'
_cell_length_a   6.47952437
_cell_length_b   10.82700885
_cell_length_c   5.13735952
_cell_angle_alpha   90.00000000
_cell_angle_beta   90.00000000
_cell_angle_gamma   90.04577755
_symmetry_Int_Tables_number   1
_chemical_formula_structural   Li2AlFeO4
_chemical_formula_sum   'Li8 Al4 Fe4 O16'
_cell_volume   360.40552512
_cell_formula_units_Z   4
loop_
 _symmetry_equiv_pos_site_id
 _symmetry_equiv_pos_as_xyz
  1  'x, y, z'
loop_
 _atom_site_type_symbol
 _atom_site_label
 _atom_site_symmetry_multiplicity
 _atom_site_fract_x
 _atom_site_fract_y
 _atom_site_fract_z
 _atom_site_occupancy
  Li  Li0  1  0.000299  0.583131  0.321555  1
  Li  Li1  1  0.000299  0.083131  0.178445  1
  Li  Li2  1  0.244622  0.664297  0.829821  1
  Li  Li3  1  0.244622  0.164297  0.670179  1
  Li  Li4  1  0.755378  0.835703  0.329821  1
  Li  Li5  1  0.755378  0.335703  0.170179  1
  Li  Li6  1  0.999701  0.916869  0.821555  1
  Li  Li7  1  0.999701  0.416869  0.678445  1
  Al  Al8  1  0.500622  0.909680  0.828142  1
  Al  Al9  1  0.500622  0.409680  0.671858  1
  Al  Al10  1  0.499378  0.590320  0.328142  1
  Al  Al11  1  0.499378  0.090320  0.171858  1
  Fe  Fe12  1  0.238639  0.833459  0.330315  1
  Fe  Fe13  1  0.238639  0.333459  0.169685  1
  Fe  Fe14  1  0.761361  0.666541  0.830315  1
  Fe  Fe15  1  0.761361  0.166541  0.669685  1
  O  O16  1  0.006181  0.903107  0.207496  1
  O  O17  1  0.006181  0.403107  0.292504  1
  O  O18  1  0.274747  0.844010  0.701418  1
  O  O19  1  0.274747  0.344010  0.798582  1
  O  O20  1  0.275852  0.664607  0.218360  1
  O  O21  1  0.275852  0.164607  0.281640  1
  O  O22  1  0.486761  0.921924  0.185757  1
  O  O23  1  0.486761  0.421924  0.314243  1
  O  O24  1  0.513239  0.578076  0.685757  1
  O  O25  1  0.513239  0.078076  0.814243  1
  O  O26  1  0.724148  0.835393  0.718360  1
  O  O27  1  0.724148  0.335393  0.781640  1
  O  O28  1  0.725253  0.655990  0.201418  1
  O  O29  1  0.725253  0.155990  0.298582  1
  O  O30  1  0.993819  0.596893  0.707496  1
  O  O31  1  0.993819  0.096893  0.792504  1
