# generated using pymatgen
data_VF4
_symmetry_space_group_name_H-M   'P 1'
_cell_length_a   4.98019311
_cell_length_b   3.09121038
_cell_length_c   9.58965778
_cell_angle_alpha   89.88301705
_cell_angle_beta   85.70487914
_cell_angle_gamma   89.87601620
_symmetry_Int_Tables_number   1
_chemical_formula_structural   VF4
_chemical_formula_sum   'V2 F8'
_cell_volume   147.21587377
_cell_formula_units_Z   2
loop_
 _symmetry_equiv_pos_site_id
 _symmetry_equiv_pos_as_xyz
  1  'x, y, z'
loop_
 _atom_site_type_symbol
 _atom_site_label
 _atom_site_symmetry_multiplicity
 _atom_site_fract_x
 _atom_site_fract_y
 _atom_site_fract_z
 _atom_site_occupancy
  V  V0  1  0.239904  0.346571  0.746388  1
  V  V1  1  0.740039  0.654250  0.247060  1
  F  F2  1  0.037357  0.661433  0.133232  1
  F  F3  1  0.108604  0.846140  0.641114  1
  F  F4  1  0.430629  0.657122  0.350046  1
  F  F5  1  0.371404  0.842230  0.852749  1
  F  F6  1  0.536924  0.336834  0.633724  1
  F  F7  1  0.609260  0.156324  0.141515  1
  F  F8  1  0.929925  0.343351  0.850395  1
  F  F9  1  0.872290  0.155745  0.353060  1
