# generated using pymatgen
data_FeH4S2NO8
_symmetry_space_group_name_H-M   'P 1'
_cell_length_a   8.71701396
_cell_length_b   8.71701384
_cell_length_c   8.71701435
_cell_angle_alpha   32.56955814
_cell_angle_beta   32.56955946
_cell_angle_gamma   32.56956060
_symmetry_Int_Tables_number   1
_chemical_formula_structural   FeH4S2NO8
_chemical_formula_sum   'Fe1 H4 S2 N1 O8'
_cell_volume   170.70109852
_cell_formula_units_Z   1
loop_
 _symmetry_equiv_pos_site_id
 _symmetry_equiv_pos_as_xyz
  1  'x, y, z'
loop_
 _atom_site_type_symbol
 _atom_site_label
 _atom_site_symmetry_multiplicity
 _atom_site_fract_x
 _atom_site_fract_y
 _atom_site_fract_z
 _atom_site_occupancy
  Fe  Fe0  1  0.999311  0.999311  0.999311  1
  H  H1  1  0.254265  0.603115  0.602984  1
  H  H2  1  0.602984  0.254265  0.603115  1
  H  H3  1  0.603115  0.602984  0.254265  1
  H  H4  1  0.541622  0.541622  0.541622  1
  S  S5  1  0.263800  0.263800  0.263800  1
  S  S6  1  0.735051  0.735051  0.735051  1
  N  N7  1  0.500071  0.500071  0.500071  1
  O  O8  1  0.204910  0.204910  0.204910  1
  O  O9  1  0.016140  0.248703  0.589501  1
  O  O10  1  0.248703  0.589501  0.016140  1
  O  O11  1  0.589501  0.016140  0.248703  1
  O  O12  1  0.409779  0.983445  0.753305  1
  O  O13  1  0.753305  0.409779  0.983445  1
  O  O14  1  0.983445  0.753305  0.409779  1
  O  O15  1  0.794997  0.794997  0.794997  1
