# generated using pymatgen
data_VSb3(PO4)6
_symmetry_space_group_name_H-M   'P 1'
_cell_length_a   8.90879363
_cell_length_b   8.90879381
_cell_length_c   8.90879408
_cell_angle_alpha   58.18117466
_cell_angle_beta   58.18117680
_cell_angle_gamma   58.18117538
_symmetry_Int_Tables_number   1
_chemical_formula_structural   VSb3(PO4)6
_chemical_formula_sum   'V1 Sb3 P6 O24'
_cell_volume   479.12843724
_cell_formula_units_Z   1
loop_
 _symmetry_equiv_pos_site_id
 _symmetry_equiv_pos_as_xyz
  1  'x, y, z'
loop_
 _atom_site_type_symbol
 _atom_site_label
 _atom_site_symmetry_multiplicity
 _atom_site_fract_x
 _atom_site_fract_y
 _atom_site_fract_z
 _atom_site_occupancy
  V  V0  1  0.858174  0.858174  0.858174  1
  Sb  Sb1  1  0.143270  0.143270  0.143270  1
  Sb  Sb2  1  0.356729  0.356729  0.356729  1
  Sb  Sb3  1  0.644229  0.644229  0.644229  1
  P  P4  1  0.037768  0.751301  0.464871  1
  P  P5  1  0.464871  0.037768  0.751301  1
  P  P6  1  0.751301  0.464871  0.037768  1
  P  P7  1  0.249723  0.539397  0.961184  1
  P  P8  1  0.539397  0.961184  0.249723  1
  P  P9  1  0.961184  0.249723  0.539397  1
  O  O10  1  0.132554  0.280355  0.510854  1
  O  O11  1  0.280355  0.510854  0.132554  1
  O  O12  1  0.061992  0.922456  0.278620  1
  O  O13  1  0.510854  0.132554  0.280355  1
  O  O14  1  0.219459  0.577215  0.436259  1
  O  O15  1  0.009270  0.777890  0.632181  1
  O  O16  1  0.278620  0.061992  0.922456  1
  O  O17  1  0.436259  0.219459  0.577215  1
  O  O18  1  0.577215  0.436259  0.219459  1
  O  O19  1  0.232216  0.361770  0.985951  1
  O  O20  1  0.079914  0.713588  0.938805  1
  O  O21  1  0.361770  0.985951  0.232216  1
  O  O22  1  0.632181  0.009270  0.777890  1
  O  O23  1  0.922456  0.278620  0.061992  1
  O  O24  1  0.777890  0.632181  0.009270  1
  O  O25  1  0.428991  0.554636  0.783310  1
  O  O26  1  0.554636  0.783310  0.428991  1
  O  O27  1  0.713588  0.938805  0.079914  1
  O  O28  1  0.985951  0.232216  0.361770  1
  O  O29  1  0.783310  0.428991  0.554636  1
  O  O30  1  0.481523  0.869065  0.724483  1
  O  O31  1  0.938805  0.079914  0.713588  1
  O  O32  1  0.724483  0.481523  0.869065  1
  O  O33  1  0.869065  0.724483  0.481523  1
