# generated using pymatgen
data_Mo3P5Pb3O23
_symmetry_space_group_name_H-M   'P 1'
_cell_length_a   8.28060873
_cell_length_b   14.57787897
_cell_length_c   15.93083733
_cell_angle_alpha   90.00000000
_cell_angle_beta   90.00000000
_cell_angle_gamma   90.00000000
_symmetry_Int_Tables_number   1
_chemical_formula_structural   Mo3P5Pb3O23
_chemical_formula_sum   'Mo12 P20 Pb12 O92'
_cell_volume   1923.07050720
_cell_formula_units_Z   4
loop_
 _symmetry_equiv_pos_site_id
 _symmetry_equiv_pos_as_xyz
  1  'x, y, z'
loop_
 _atom_site_type_symbol
 _atom_site_label
 _atom_site_symmetry_multiplicity
 _atom_site_fract_x
 _atom_site_fract_y
 _atom_site_fract_z
 _atom_site_occupancy
  Mo  Mo0  1  0.943698  0.653196  0.750000  1
  Mo  Mo1  1  0.443698  0.846804  0.250000  1
  Mo  Mo2  1  0.504664  0.151756  0.416992  1
  Mo  Mo3  1  0.995336  0.651756  0.083008  1
  Mo  Mo4  1  0.504664  0.151756  0.083008  1
  Mo  Mo5  1  0.056302  0.346804  0.250000  1
  Mo  Mo6  1  0.556302  0.153196  0.750000  1
  Mo  Mo7  1  0.495336  0.848244  0.583008  1
  Mo  Mo8  1  0.995336  0.651756  0.416992  1
  Mo  Mo9  1  0.004664  0.348244  0.583008  1
  Mo  Mo10  1  0.004664  0.348244  0.916992  1
  Mo  Mo11  1  0.495336  0.848244  0.916992  1
  P  P12  1  0.714189  0.645172  0.927982  1
  P  P13  1  0.820399  0.437688  0.405416  1
  P  P14  1  0.179601  0.562312  0.594584  1
  P  P15  1  0.285811  0.354828  0.072018  1
  P  P16  1  0.214189  0.854828  0.072018  1
  P  P17  1  0.785811  0.145172  0.927982  1
  P  P18  1  0.679601  0.937688  0.405416  1
  P  P19  1  0.798697  0.432994  0.750000  1
  P  P20  1  0.785811  0.145172  0.572018  1
  P  P21  1  0.179601  0.562312  0.905416  1
  P  P22  1  0.679601  0.937688  0.094584  1
  P  P23  1  0.714189  0.645172  0.572018  1
  P  P24  1  0.298697  0.067006  0.250000  1
  P  P25  1  0.701303  0.932994  0.750000  1
  P  P26  1  0.285811  0.354828  0.427982  1
  P  P27  1  0.214189  0.854828  0.427982  1
  P  P28  1  0.320399  0.062312  0.905416  1
  P  P29  1  0.201303  0.567006  0.250000  1
  P  P30  1  0.320399  0.062312  0.594584  1
  P  P31  1  0.820399  0.437688  0.094584  1
  Pb  Pb32  1  0.956803  0.903422  0.915146  1
  Pb  Pb33  1  0.545283  0.390247  0.250000  1
  Pb  Pb34  1  0.454717  0.609753  0.750000  1
  Pb  Pb35  1  0.956803  0.903422  0.584854  1
  Pb  Pb36  1  0.043197  0.096578  0.415146  1
  Pb  Pb37  1  0.045283  0.109753  0.750000  1
  Pb  Pb38  1  0.543197  0.403422  0.915146  1
  Pb  Pb39  1  0.954717  0.890247  0.250000  1
  Pb  Pb40  1  0.543197  0.403422  0.584854  1
  Pb  Pb41  1  0.043197  0.096578  0.084854  1
  Pb  Pb42  1  0.456803  0.596578  0.084854  1
  Pb  Pb43  1  0.456803  0.596578  0.415146  1
  O  O44  1  0.917770  0.218524  0.944233  1
  O  O45  1  0.249713  0.356769  0.167447  1
  O  O46  1  0.557086  0.017037  0.084236  1
  O  O47  1  0.318815  0.128949  0.169568  1
  O  O48  1  0.370149  0.827460  0.025312  1
  O  O49  1  0.572693  0.007710  0.750000  1
  O  O50  1  0.799998  0.388173  0.008674  1
  O  O51  1  0.464799  0.728923  0.250000  1
  O  O52  1  0.357292  0.446284  0.041453  1
  O  O53  1  0.842302  0.973306  0.368941  1
  O  O54  1  0.082230  0.781476  0.444234  1
  O  O55  1  0.870149  0.672540  0.525312  1
  O  O56  1  0.749713  0.143231  0.667447  1
  O  O57  1  0.072693  0.492290  0.250000  1
  O  O58  1  0.657698  0.473306  0.368941  1
  O  O59  1  0.384759  0.132793  0.840257  1
  O  O60  1  0.115241  0.632793  0.659743  1
  O  O61  1  0.582230  0.718524  0.555767  1
  O  O62  1  0.181185  0.628949  0.330432  1
  O  O63  1  0.857292  0.053716  0.958547  1
  O  O64  1  0.129851  0.327460  0.025312  1
  O  O65  1  0.357292  0.446284  0.458547  1
  O  O66  1  0.870149  0.672540  0.974688  1
  O  O67  1  0.878710  0.967344  0.750000  1
  O  O68  1  0.200002  0.611827  0.508674  1
  O  O69  1  0.299998  0.111827  0.508674  1
  O  O70  1  0.299998  0.111827  0.991326  1
  O  O71  1  0.318815  0.128949  0.330432  1
  O  O72  1  0.200002  0.611827  0.991326  1
  O  O73  1  0.657698  0.473306  0.131059  1
  O  O74  1  0.799998  0.388173  0.491326  1
  O  O75  1  0.700002  0.888173  0.008674  1
  O  O76  1  0.582230  0.718524  0.944233  1
  O  O77  1  0.142708  0.946284  0.458547  1
  O  O78  1  0.384759  0.132793  0.659743  1
  O  O79  1  0.749713  0.143231  0.832553  1
  O  O80  1  0.700002  0.888173  0.491326  1
  O  O81  1  0.142708  0.946284  0.041453  1
  O  O82  1  0.250287  0.856769  0.332553  1
  O  O83  1  0.884759  0.367207  0.159743  1
  O  O84  1  0.857292  0.053716  0.541453  1
  O  O85  1  0.115241  0.632793  0.840257  1
  O  O86  1  0.035201  0.228923  0.250000  1
  O  O87  1  0.615241  0.867207  0.340257  1
  O  O88  1  0.442914  0.982963  0.584236  1
  O  O89  1  0.642708  0.553716  0.541453  1
  O  O90  1  0.378710  0.532656  0.250000  1
  O  O91  1  0.057086  0.482963  0.584236  1
  O  O92  1  0.082230  0.781476  0.055766  1
  O  O93  1  0.681185  0.871051  0.830432  1
  O  O94  1  0.342302  0.526694  0.631059  1
  O  O95  1  0.629851  0.172540  0.525312  1
  O  O96  1  0.417770  0.281476  0.055766  1
  O  O97  1  0.750287  0.643231  0.832553  1
  O  O98  1  0.621290  0.467344  0.750000  1
  O  O99  1  0.427307  0.992290  0.250000  1
  O  O100  1  0.647691  0.188661  0.152981  1
  O  O101  1  0.147691  0.311339  0.847019  1
  O  O102  1  0.157698  0.026694  0.631059  1
  O  O103  1  0.181185  0.628949  0.169568  1
  O  O104  1  0.535201  0.271077  0.750000  1
  O  O105  1  0.818815  0.371051  0.830432  1
  O  O106  1  0.927307  0.507710  0.750000  1
  O  O107  1  0.647691  0.188661  0.347019  1
  O  O108  1  0.249713  0.356769  0.332553  1
  O  O109  1  0.818815  0.371051  0.669568  1
  O  O110  1  0.884759  0.367207  0.340257  1
  O  O111  1  0.250287  0.856769  0.167447  1
  O  O112  1  0.615241  0.867207  0.159743  1
  O  O113  1  0.370149  0.827460  0.474688  1
  O  O114  1  0.964799  0.771077  0.750000  1
  O  O115  1  0.157698  0.026694  0.868941  1
  O  O116  1  0.352309  0.811339  0.652981  1
  O  O117  1  0.147691  0.311339  0.652981  1
  O  O118  1  0.121290  0.032656  0.250000  1
  O  O119  1  0.942914  0.517037  0.415764  1
  O  O120  1  0.750287  0.643231  0.667447  1
  O  O121  1  0.852309  0.688661  0.347019  1
  O  O122  1  0.629851  0.172540  0.974688  1
  O  O123  1  0.342302  0.526694  0.868941  1
  O  O124  1  0.942914  0.517037  0.084236  1
  O  O125  1  0.417770  0.281476  0.444234  1
  O  O126  1  0.681185  0.871051  0.669568  1
  O  O127  1  0.129851  0.327460  0.474688  1
  O  O128  1  0.842302  0.973306  0.131059  1
  O  O129  1  0.057086  0.482963  0.915764  1
  O  O130  1  0.352309  0.811339  0.847019  1
  O  O131  1  0.852309  0.688661  0.152981  1
  O  O132  1  0.642708  0.553716  0.958547  1
  O  O133  1  0.442914  0.982963  0.915764  1
  O  O134  1  0.557086  0.017037  0.415764  1
  O  O135  1  0.917770  0.218524  0.555767  1
