# generated using pymatgen
data_LiCu3F10
_symmetry_space_group_name_H-M   'P 1'
_cell_length_a   6.96987372
_cell_length_b   7.12038448
_cell_length_c   7.34623289
_cell_angle_alpha   89.95350412
_cell_angle_beta   90.00009230
_cell_angle_gamma   89.99999226
_symmetry_Int_Tables_number   1
_chemical_formula_structural   LiCu3F10
_chemical_formula_sum   'Li2 Cu6 F20'
_cell_volume   364.58005305
_cell_formula_units_Z   2
loop_
 _symmetry_equiv_pos_site_id
 _symmetry_equiv_pos_as_xyz
  1  'x, y, z'
loop_
 _atom_site_type_symbol
 _atom_site_label
 _atom_site_symmetry_multiplicity
 _atom_site_fract_x
 _atom_site_fract_y
 _atom_site_fract_z
 _atom_site_occupancy
  Li  Li0  1  0.499966  0.178141  0.249841  1
  Li  Li1  1  0.499966  0.821859  0.750159  1
  Cu  Cu2  1  0.998301  -0.000001  0.499998  1
  Cu  Cu3  1  0.268010  0.500001  0.499999  1
  Cu  Cu4  1  0.268008  0.499999  0.999998  1
  Cu  Cu5  1  0.732407  0.500001  0.500003  1
  Cu  Cu6  1  0.732522  0.500001  0.000001  1
  Cu  Cu7  1  0.001529  0.000002  0.000000  1
  F  F8  1  0.999978  0.072547  0.749794  1
  F  F9  1  0.999978  0.927453  0.250206  1
  F  F10  1  0.999519  0.500000  0.500000  1
  F  F11  1  0.189848  0.171863  0.453725  1
  F  F12  1  0.189848  0.828137  0.546276  1
  F  F13  1  0.192627  0.171790  0.046505  1
  F  F14  1  0.192627  0.828210  0.953495  1
  F  F15  1  0.274089  0.557811  0.249836  1
  F  F16  1  0.274089  0.442188  0.750163  1
  F  F17  1  0.499233  0.333836  0.459100  1
  F  F18  1  0.499232  0.666164  0.540901  1
  F  F19  1  0.500640  0.333549  0.041090  1
  F  F20  1  0.500640  0.666451  0.958910  1
  F  F21  1  0.725882  0.442345  0.749251  1
  F  F22  1  0.725882  0.557655  0.250750  1
  F  F23  1  0.807362  0.171885  0.453495  1
  F  F24  1  0.807363  0.828115  0.546505  1
  F  F25  1  0.810261  0.171798  0.046224  1
  F  F26  1  0.810261  0.828201  0.953775  1
  F  F27  1  0.999933  0.500000  0.000000  1
