# generated using pymatgen
data_Li3NbP3O11
_symmetry_space_group_name_H-M   'P 1'
_cell_length_a   8.23064438
_cell_length_b   8.35257170
_cell_length_c   6.10726739
_cell_angle_alpha   92.93276533
_cell_angle_beta   102.23723637
_cell_angle_gamma   106.82422961
_symmetry_Int_Tables_number   1
_chemical_formula_structural   Li3NbP3O11
_chemical_formula_sum   'Li6 Nb2 P6 O22'
_cell_volume   389.90279560
_cell_formula_units_Z   2
loop_
 _symmetry_equiv_pos_site_id
 _symmetry_equiv_pos_as_xyz
  1  'x, y, z'
loop_
 _atom_site_type_symbol
 _atom_site_label
 _atom_site_symmetry_multiplicity
 _atom_site_fract_x
 _atom_site_fract_y
 _atom_site_fract_z
 _atom_site_occupancy
  Li  Li0  1  0.997485  0.819479  0.621899  1
  Li  Li1  1  0.143773  0.536581  0.399519  1
  Li  Li2  1  0.426736  0.947218  0.721297  1
  Li  Li3  1  0.573264  0.052782  0.278703  1
  Li  Li4  1  0.856227  0.463419  0.600481  1
  Li  Li5  1  0.002515  0.180521  0.378101  1
  Nb  Nb6  1  0.669344  0.727162  0.881386  1
  Nb  Nb7  1  0.330656  0.272838  0.118614  1
  P  P8  1  0.232475  0.623185  0.906582  1
  P  P9  1  0.127191  0.869046  0.150950  1
  P  P10  1  0.383490  0.312120  0.607819  1
  P  P11  1  0.616510  0.687880  0.392181  1
  P  P12  1  0.872809  0.130954  0.849050  1
  P  P13  1  0.767525  0.376815  0.093418  1
  O  O14  1  0.099330  0.627254  0.692684  1
  O  O15  1  0.112905  0.893992  0.390625  1
  O  O16  1  0.219606  0.443507  0.946473  1
  O  O17  1  0.180579  0.693077  0.129890  1
  O  O18  1  0.411944  0.747027  0.903264  1
  O  O19  1  0.037991  0.161862  0.040474  1
  O  O20  1  0.233505  0.340628  0.421882  1
  O  O21  1  0.308084  0.188548  0.768977  1
  O  O22  1  0.526982  0.776243  0.541218  1
  O  O23  1  0.501215  0.479594  0.738645  1
  O  O24  1  0.712559  0.999388  0.901644  1
  O  O25  1  0.287441  0.000612  0.098356  1
  O  O26  1  0.498785  0.520406  0.261355  1
  O  O27  1  0.473018  0.223757  0.458782  1
  O  O28  1  0.691916  0.811452  0.231023  1
  O  O29  1  0.766495  0.659372  0.578118  1
  O  O30  1  0.962009  0.838138  0.959526  1
  O  O31  1  0.588056  0.252973  0.096736  1
  O  O32  1  0.819421  0.306923  0.870110  1
  O  O33  1  0.780394  0.556493  0.053527  1
  O  O34  1  0.887095  0.106008  0.609375  1
  O  O35  1  0.900670  0.372746  0.307316  1
