# generated using pymatgen
data_CuH22C8N10O
_symmetry_space_group_name_H-M   'P 1'
_cell_length_a   15.94312163
_cell_length_b   15.94312163
_cell_length_c   13.97776213
_cell_angle_alpha   71.43083390
_cell_angle_beta   108.56916610
_cell_angle_gamma   154.00528014
_symmetry_Int_Tables_number   1
_chemical_formula_structural   CuH22C8N10O
_chemical_formula_sum   'Cu4 H88 C32 N40 O4'
_cell_volume   1471.68717323
_cell_formula_units_Z   4
loop_
 _symmetry_equiv_pos_site_id
 _symmetry_equiv_pos_as_xyz
  1  'x, y, z'
loop_
 _atom_site_type_symbol
 _atom_site_label
 _atom_site_symmetry_multiplicity
 _atom_site_fract_x
 _atom_site_fract_y
 _atom_site_fract_z
 _atom_site_occupancy
  Cu  Cu0  1  0.000000  0.500000  0.500000  1
  Cu  Cu1  1  0.500000  0.000000  0.000000  1
  Cu  Cu2  1  0.205681  0.205681  0.750000  1
  Cu  Cu3  1  0.794319  0.794319  0.250000  1
  H  H4  1  0.178572  0.532135  0.465795  1
  H  H5  1  0.532135  0.178572  0.034205  1
  H  H6  1  0.821428  0.467865  0.534205  1
  H  H7  1  0.467865  0.821428  0.965795  1
  H  H8  1  0.068528  0.329658  0.405199  1
  H  H9  1  0.329658  0.068528  0.094801  1
  H  H10  1  0.931472  0.670342  0.594801  1
  H  H11  1  0.670342  0.931472  0.905199  1
  H  H12  1  0.871586  0.095094  0.449109  1
  H  H13  1  0.095094  0.871586  0.050891  1
  H  H14  1  0.128414  0.904906  0.550891  1
  H  H15  1  0.904906  0.128414  0.949109  1
  H  H16  1  0.704185  0.217236  0.607091  1
  H  H17  1  0.217236  0.704185  0.892909  1
  H  H18  1  0.295815  0.782764  0.392909  1
  H  H19  1  0.782764  0.295815  0.107091  1
  H  H20  1  0.084996  0.257423  0.648974  1
  H  H21  1  0.257423  0.084996  0.851026  1
  H  H22  1  0.915004  0.742577  0.351026  1
  H  H23  1  0.742577  0.915004  0.148974  1
  H  H24  1  0.070380  0.377540  0.793951  1
  H  H25  1  0.377540  0.070380  0.706049  1
  H  H26  1  0.929620  0.622460  0.206049  1
  H  H27  1  0.622460  0.929620  0.293951  1
  H  H28  1  0.032090  0.335033  0.674426  1
  H  H29  1  0.335033  0.032090  0.825574  1
  H  H30  1  0.967910  0.664967  0.325574  1
  H  H31  1  0.664967  0.967910  0.174426  1
  H  H32  1  0.242726  0.168079  0.943387  1
  H  H33  1  0.168079  0.242726  0.556613  1
  H  H34  1  0.757274  0.831921  0.056613  1
  H  H35  1  0.831921  0.757274  0.443387  1
  H  H36  1  0.542723  0.861061  0.465527  1
  H  H37  1  0.861061  0.542723  0.034473  1
  H  H38  1  0.457277  0.138939  0.534473  1
  H  H39  1  0.138939  0.457277  0.965527  1
  H  H40  1  0.492711  0.741742  0.416942  1
  H  H41  1  0.741742  0.492711  0.083058  1
  H  H42  1  0.507289  0.258258  0.583058  1
  H  H43  1  0.258258  0.507289  0.916942  1
  H  H44  1  0.645896  0.885865  0.691737  1
  H  H45  1  0.885865  0.645896  0.808263  1
  H  H46  1  0.354104  0.114135  0.308263  1
  H  H47  1  0.114135  0.354104  0.191737  1
  H  H48  1  0.447493  0.731908  0.753170  1
  H  H49  1  0.731908  0.447493  0.746830  1
  H  H50  1  0.552507  0.268092  0.246830  1
  H  H51  1  0.268092  0.552507  0.253170  1
  H  H52  1  0.410779  0.694949  0.627678  1
  H  H53  1  0.694949  0.410779  0.872322  1
  H  H54  1  0.589221  0.305051  0.372322  1
  H  H55  1  0.305051  0.589221  0.127678  1
  H  H56  1  0.416971  0.934555  0.635387  1
  H  H57  1  0.934555  0.416971  0.864613  1
  H  H58  1  0.583029  0.065445  0.364613  1
  H  H59  1  0.065445  0.583029  0.135387  1
  H  H60  1  0.333835  0.764004  0.725334  1
  H  H61  1  0.764004  0.333835  0.774666  1
  H  H62  1  0.666165  0.235996  0.274666  1
  H  H63  1  0.235996  0.666165  0.225334  1
  H  H64  1  0.556350  0.008338  0.753240  1
  H  H65  1  0.008338  0.556350  0.746760  1
  H  H66  1  0.443650  0.991662  0.246760  1
  H  H67  1  0.991662  0.443650  0.253240  1
  H  H68  1  0.148243  0.306854  0.049438  1
  H  H69  1  0.306854  0.148243  0.450562  1
  H  H70  1  0.851757  0.693146  0.950562  1
  H  H71  1  0.693146  0.851757  0.549438  1
  H  H72  1  0.161201  0.227998  0.163112  1
  H  H73  1  0.227998  0.161201  0.336888  1
  H  H74  1  0.838799  0.772002  0.836888  1
  H  H75  1  0.772002  0.838799  0.663112  1
  H  H76  1  0.375341  0.476986  0.118572  1
  H  H77  1  0.476986  0.375341  0.381428  1
  H  H78  1  0.624659  0.523014  0.881428  1
  H  H79  1  0.523014  0.624659  0.618572  1
  H  H80  1  0.427387  0.322281  0.063386  1
  H  H81  1  0.322281  0.427387  0.436614  1
  H  H82  1  0.572613  0.677719  0.936614  1
  H  H83  1  0.677719  0.572613  0.563386  1
  H  H84  1  0.397367  0.326477  0.171329  1
  H  H85  1  0.326477  0.397367  0.328671  1
  H  H86  1  0.602633  0.673523  0.828671  1
  H  H87  1  0.673523  0.602633  0.671329  1
  H  H88  1  0.200441  0.102079  0.120026  1
  H  H89  1  0.102079  0.200441  0.379974  1
  H  H90  1  0.799559  0.897921  0.879974  1
  H  H91  1  0.897921  0.799559  0.620026  1
  C  C92  1  0.924334  0.251724  0.494861  1
  C  C93  1  0.251724  0.924334  0.005139  1
  C  C94  1  0.075666  0.748276  0.505139  1
  C  C95  1  0.748276  0.075666  0.994861  1
  C  C96  1  0.694781  0.094159  0.581428  1
  C  C97  1  0.094159  0.694781  0.918572  1
  C  C98  1  0.305219  0.905841  0.418572  1
  C  C99  1  0.905841  0.305219  0.081428  1
  C  C100  1  0.512530  0.805328  0.680778  1
  C  C101  1  0.805328  0.512530  0.819222  1
  C  C102  1  0.487470  0.194672  0.319222  1
  C  C103  1  0.194672  0.487470  0.180778  1
  C  C104  1  0.462431  0.911774  0.692047  1
  C  C105  1  0.911774  0.462431  0.807953  1
  C  C106  1  0.537569  0.088226  0.307953  1
  C  C107  1  0.088226  0.537569  0.192047  1
  C  C108  1  0.113043  0.291476  0.786152  1
  C  C109  1  0.291476  0.113043  0.713848  1
  C  C110  1  0.886957  0.708524  0.213848  1
  C  C111  1  0.708524  0.886957  0.286152  1
  C  C112  1  0.213250  0.266787  0.937033  1
  C  C113  1  0.266787  0.213250  0.562967  1
  C  C114  1  0.786750  0.733213  0.062967  1
  C  C115  1  0.733213  0.786750  0.437033  1
  C  C116  1  0.236226  0.328783  0.095220  1
  C  C117  1  0.328783  0.236226  0.404780  1
  C  C118  1  0.763774  0.671217  0.904780  1
  C  C119  1  0.671217  0.763774  0.595220  1
  C  C120  1  0.323280  0.256692  0.100760  1
  C  C121  1  0.256692  0.323280  0.399240  1
  C  C122  1  0.676720  0.743308  0.899240  1
  C  C123  1  0.743308  0.676720  0.600760  1
  N  N124  1  0.049836  0.428291  0.490496  1
  N  N125  1  0.428291  0.049836  0.009504  1
  N  N126  1  0.950164  0.571709  0.509504  1
  N  N127  1  0.571709  0.950164  0.990496  1
  N  N128  1  0.979101  0.231420  0.461884  1
  N  N129  1  0.231420  0.979101  0.038116  1
  N  N130  1  0.020899  0.768580  0.538116  1
  N  N131  1  0.768580  0.020899  0.961884  1
  N  N132  1  0.752493  0.088306  0.534297  1
  N  N133  1  0.088306  0.752493  0.965703  1
  N  N134  1  0.247507  0.911694  0.465703  1
  N  N135  1  0.911694  0.247507  0.034297  1
  N  N136  1  0.763867  0.236874  0.565871  1
  N  N137  1  0.236874  0.763867  0.934129  1
  N  N138  1  0.236133  0.763126  0.434129  1
  N  N139  1  0.763126  0.236133  0.065871  1
  N  N140  1  0.553396  0.936069  0.645777  1
  N  N141  1  0.936069  0.553396  0.854223  1
  N  N142  1  0.446604  0.063931  0.354223  1
  N  N143  1  0.063931  0.446604  0.145777  1
  N  N144  1  0.128950  0.260713  0.721686  1
  N  N145  1  0.260713  0.128950  0.778314  1
  N  N146  1  0.871050  0.739287  0.278314  1
  N  N147  1  0.739287  0.871050  0.221686  1
  N  N148  1  0.036061  0.307527  0.750261  1
  N  N149  1  0.307527  0.036061  0.749739  1
  N  N150  1  0.963939  0.692473  0.249739  1
  N  N151  1  0.692473  0.963939  0.250261  1
  N  N152  1  0.162461  0.307520  0.887218  1
  N  N153  1  0.307520  0.162461  0.612782  1
  N  N154  1  0.837539  0.692480  0.112782  1
  N  N155  1  0.692480  0.837539  0.387218  1
  N  N156  1  0.217266  0.207306  0.893631  1
  N  N157  1  0.207306  0.217266  0.606369  1
  N  N158  1  0.782734  0.792694  0.106369  1
  N  N159  1  0.792694  0.782734  0.393631  1
  N  N160  1  0.262614  0.291225  0.039245  1
  N  N161  1  0.291225  0.262614  0.460755  1
  N  N162  1  0.737386  0.708775  0.960755  1
  N  N163  1  0.708775  0.737386  0.539245  1
  O  O164  1  0.444578  0.756040  0.419170  1
  O  O165  1  0.756040  0.444578  0.080830  1
  O  O166  1  0.555422  0.243960  0.580830  1
  O  O167  1  0.243960  0.555422  0.919170  1
