# generated using pymatgen
data_Fe3Cu2Sb(PO4)6
_symmetry_space_group_name_H-M   'P 1'
_cell_length_a   8.62893169
_cell_length_b   8.62893164
_cell_length_c   8.62893134
_cell_angle_alpha   60.11517131
_cell_angle_beta   60.11517079
_cell_angle_gamma   60.11517264
_symmetry_Int_Tables_number   1
_chemical_formula_structural   Fe3Cu2Sb(PO4)6
_chemical_formula_sum   'Fe3 Cu2 Sb1 P6 O24'
_cell_volume   455.49940576
_cell_formula_units_Z   1
loop_
 _symmetry_equiv_pos_site_id
 _symmetry_equiv_pos_as_xyz
  1  'x, y, z'
loop_
 _atom_site_type_symbol
 _atom_site_label
 _atom_site_symmetry_multiplicity
 _atom_site_fract_x
 _atom_site_fract_y
 _atom_site_fract_z
 _atom_site_occupancy
  Fe  Fe0  1  0.144998  0.144998  0.144998  1
  Fe  Fe1  1  0.355028  0.355028  0.355028  1
  Fe  Fe2  1  0.643586  0.643586  0.643586  1
  Cu  Cu3  1  0.007094  0.007094  0.007094  1
  Cu  Cu4  1  0.499955  0.499955  0.499955  1
  Sb  Sb5  1  0.857038  0.857038  0.857038  1
  P  P6  1  0.045870  0.746699  0.453724  1
  P  P7  1  0.453724  0.045870  0.746699  1
  P  P8  1  0.746699  0.453724  0.045870  1
  P  P9  1  0.252677  0.539104  0.955027  1
  P  P10  1  0.539104  0.955027  0.252677  1
  P  P11  1  0.955027  0.252677  0.539104  1
  O  O12  1  0.113898  0.305421  0.509046  1
  O  O13  1  0.305421  0.509046  0.113898  1
  O  O14  1  0.059630  0.913250  0.263531  1
  O  O15  1  0.509046  0.113898  0.305421  1
  O  O16  1  0.011980  0.807541  0.615378  1
  O  O17  1  0.238848  0.584224  0.443908  1
  O  O18  1  0.263531  0.059630  0.913250  1
  O  O19  1  0.443908  0.238848  0.584224  1
  O  O20  1  0.186454  0.386122  0.993369  1
  O  O21  1  0.584224  0.443908  0.238848  1
  O  O22  1  0.083246  0.739282  0.940630  1
  O  O23  1  0.386122  0.993369  0.186454  1
  O  O24  1  0.615378  0.011980  0.807541  1
  O  O25  1  0.913250  0.263531  0.059630  1
  O  O26  1  0.411523  0.560724  0.759057  1
  O  O27  1  0.807541  0.615378  0.011980  1
  O  O28  1  0.560724  0.759057  0.411523  1
  O  O29  1  0.739282  0.940630  0.083246  1
  O  O30  1  0.759057  0.411523  0.560724  1
  O  O31  1  0.993369  0.186454  0.386122  1
  O  O32  1  0.498848  0.884272  0.689020  1
  O  O33  1  0.940630  0.083246  0.739282  1
  O  O34  1  0.689020  0.498848  0.884272  1
  O  O35  1  0.884272  0.689020  0.498848  1
