# generated using pymatgen
data_Hf2N2O
_symmetry_space_group_name_H-M   'P 1'
_cell_length_a   8.74816724
_cell_length_b   8.73039211
_cell_length_c   8.71234914
_cell_angle_alpha   109.37040263
_cell_angle_beta   109.32310666
_cell_angle_gamma   109.68498381
_symmetry_Int_Tables_number   1
_chemical_formula_structural   Hf2N2O
_chemical_formula_sum   'Hf16 N16 O8'
_cell_volume   512.44672045
_cell_formula_units_Z   8
loop_
 _symmetry_equiv_pos_site_id
 _symmetry_equiv_pos_as_xyz
  1  'x, y, z'
loop_
 _atom_site_type_symbol
 _atom_site_label
 _atom_site_symmetry_multiplicity
 _atom_site_fract_x
 _atom_site_fract_y
 _atom_site_fract_z
 _atom_site_occupancy
  Hf  Hf0  1  0.500305  0.999407  0.987690  1
  Hf  Hf1  1  0.748525  0.285590  0.536248  1
  Hf  Hf2  1  0.214307  0.966706  0.250847  1
  Hf  Hf3  1  0.718361  0.468237  0.241483  1
  Hf  Hf4  1  0.238966  0.208882  0.951515  1
  Hf  Hf5  1  0.012068  0.511736  0.008784  1
  Hf  Hf6  1  0.999147  0.998267  0.496144  1
  Hf  Hf7  1  0.492447  0.498772  0.509948  1
  Hf  Hf8  1  0.532664  0.745671  0.292054  1
  Hf  Hf9  1  0.969940  0.252165  0.211836  1
  Hf  Hf10  1  0.463140  0.259595  0.719537  1
  Hf  Hf11  1  0.034254  0.747122  0.783437  1
  Hf  Hf12  1  0.759871  0.789849  0.040306  1
  Hf  Hf13  1  0.789453  0.031465  0.759004  1
  Hf  Hf14  1  0.280851  0.534277  0.747355  1
  Hf  Hf15  1  0.251417  0.708144  0.465306  1
  N  N16  1  0.726038  0.991523  0.957866  1
  N  N17  1  0.515902  0.240240  0.968179  1
  N  N18  1  0.766483  0.727731  0.262304  1
  N  N19  1  0.467939  0.227579  0.455622  1
  N  N20  1  0.015855  0.048939  0.278096  1
  N  N21  1  0.049970  0.275943  0.013180  1
  N  N22  1  0.538858  0.771244  0.543243  1
  N  N23  1  0.229521  0.456045  0.468530  1
  N  N24  1  0.956267  0.729263  0.987385  1
  N  N25  1  0.985394  0.949702  0.725084  1
  N  N26  1  0.225210  0.269051  0.735700  1
  N  N27  1  0.964463  0.510056  0.239391  1
  N  N28  1  0.546281  0.536194  0.776364  1
  N  N29  1  0.275409  0.740645  0.226956  1
  N  N30  1  0.026253  0.482855  0.754270  1
  N  N31  1  0.265834  0.779822  0.731152  1
  O  O32  1  0.762068  0.038151  0.486391  1
  O  O33  1  0.273774  0.010427  0.045861  1
  O  O34  1  0.734138  0.223572  0.276757  1
  O  O35  1  0.772128  0.541018  0.526667  1
  O  O36  1  0.452680  0.463791  0.227430  1
  O  O37  1  0.487802  0.766676  0.038473  1
  O  O38  1  0.723190  0.251383  0.765556  1
  O  O39  1  0.232827  0.962266  0.508049  1
