# generated using pymatgen
data_LiAlFeO3
_symmetry_space_group_name_H-M   'P 1'
_cell_length_a   5.52847416
_cell_length_b   5.94636767
_cell_length_c   5.93339791
_cell_angle_alpha   59.70473289
_cell_angle_beta   124.78466200
_cell_angle_gamma   91.74963764
_symmetry_Int_Tables_number   1
_chemical_formula_structural   LiAlFeO3
_chemical_formula_sum   'Li2 Al2 Fe2 O6'
_cell_volume   128.90008605
_cell_formula_units_Z   2
loop_
 _symmetry_equiv_pos_site_id
 _symmetry_equiv_pos_as_xyz
  1  'x, y, z'
loop_
 _atom_site_type_symbol
 _atom_site_label
 _atom_site_symmetry_multiplicity
 _atom_site_fract_x
 _atom_site_fract_y
 _atom_site_fract_z
 _atom_site_occupancy
  Li  Li0  1  0.741447  0.574201  0.492878  1
  Li  Li1  1  0.258553  0.425799  0.507122  1
  Al  Al2  1  0.751786  0.917821  0.836766  1
  Al  Al3  1  0.248214  0.082179  0.163234  1
  Fe  Fe4  1  0.761598  0.259762  0.172846  1
  Fe  Fe5  1  0.238402  0.740238  0.827154  1
  O  O6  1  0.746784  0.612903  0.136378  1
  O  O7  1  0.717163  0.918682  0.508418  1
  O  O8  1  0.786079  0.210412  0.865032  1
  O  O9  1  0.213921  0.789588  0.134968  1
  O  O10  1  0.282837  0.081318  0.491582  1
  O  O11  1  0.253216  0.387097  0.863622  1
