# generated using pymatgen
data_Li5Mn6(BO3)6
_symmetry_space_group_name_H-M   'P 1'
_cell_length_a   8.24060666
_cell_length_b   14.74642493
_cell_length_c   6.38054499
_cell_angle_alpha   102.52738319
_cell_angle_beta   90.04245937
_cell_angle_gamma   90.41049818
_symmetry_Int_Tables_number   1
_chemical_formula_structural   Li5Mn6(BO3)6
_chemical_formula_sum   'Li10 Mn12 B12 O36'
_cell_volume   756.87960633
_cell_formula_units_Z   2
loop_
 _symmetry_equiv_pos_site_id
 _symmetry_equiv_pos_as_xyz
  1  'x, y, z'
loop_
 _atom_site_type_symbol
 _atom_site_label
 _atom_site_symmetry_multiplicity
 _atom_site_fract_x
 _atom_site_fract_y
 _atom_site_fract_z
 _atom_site_occupancy
  Li  Li0  1  0.289537  0.990626  0.245740  1
  Li  Li1  1  0.291922  0.990816  0.744040  1
  Li  Li2  1  0.342183  0.359388  0.429403  1
  Li  Li3  1  0.341245  0.359341  0.927816  1
  Li  Li4  1  0.368988  0.647899  0.072640  1
  Li  Li5  1  0.789281  0.488309  0.493816  1
  Li  Li6  1  0.787133  0.491165  0.993866  1
  Li  Li7  1  0.843402  0.859471  0.179488  1
  Li  Li8  1  0.838437  0.858673  0.677778  1
  Li  Li9  1  0.868846  0.148739  0.823150  1
  Mn  Mn10  1  0.135690  0.510223  0.752283  1
  Mn  Mn11  1  0.142770  0.510187  0.257973  1
  Mn  Mn12  1  0.177675  0.810736  0.904424  1
  Mn  Mn13  1  0.178249  0.807925  0.407353  1
  Mn  Mn14  1  0.182547  0.181485  0.589783  1
  Mn  Mn15  1  0.180888  0.181330  0.093471  1
  Mn  Mn16  1  0.641040  0.010094  0.501170  1
  Mn  Mn17  1  0.641004  0.009736  0.008266  1
  Mn  Mn18  1  0.677523  0.308476  0.649999  1
  Mn  Mn19  1  0.677439  0.309193  0.155502  1
  Mn  Mn20  1  0.681662  0.681110  0.834102  1
  Mn  Mn21  1  0.682193  0.680426  0.338119  1
  B  B22  1  0.002963  0.997403  0.992881  1
  B  B23  1  0.003671  0.996747  0.502438  1
  B  B24  1  0.000046  0.337935  0.420512  1
  B  B25  1  0.000897  0.336274  0.917356  1
  B  B26  1  0.992312  0.665428  0.582466  1
  B  B27  1  0.998455  0.666529  0.082306  1
  B  B28  1  0.501033  0.497079  0.753138  1
  B  B29  1  0.502731  0.496857  0.242455  1
  B  B30  1  0.498003  0.167677  0.833084  1
  B  B31  1  0.492571  0.165171  0.331353  1
  B  B32  1  0.500718  0.833585  0.167478  1
  B  B33  1  0.500595  0.839294  0.666574  1
  O  O34  1  0.014276  0.432283  0.964611  1
  O  O35  1  0.020242  0.433901  0.470576  1
  O  O36  1  0.019488  0.763309  0.136853  1
  O  O37  1  0.013170  0.762374  0.629065  1
  O  O38  1  0.126226  0.609472  0.558378  1
  O  O39  1  0.136534  0.610872  0.051142  1
  O  O40  1  0.134721  0.281058  0.391677  1
  O  O41  1  0.137824  0.280963  0.890309  1
  O  O42  1  0.155722  0.955533  0.978755  1
  O  O43  1  0.155368  0.953642  0.473855  1
  O  O44  1  0.335728  0.127828  0.314930  1
  O  O45  1  0.344218  0.128700  0.815379  1
  O  O46  1  0.349073  0.789584  0.149329  1
  O  O47  1  0.342690  0.805888  0.650318  1
  O  O48  1  0.359530  0.442263  0.721249  1
  O  O49  1  0.363178  0.440397  0.219345  1
  O  O50  1  0.491598  0.591459  0.815660  1
  O  O51  1  0.489488  0.591041  0.274751  1
  O  O52  1  0.524764  0.935021  0.717445  1
  O  O53  1  0.512081  0.929312  0.215687  1
  O  O54  1  0.514235  0.262046  0.377434  1
  O  O55  1  0.518221  0.264647  0.879906  1
  O  O56  1  0.625453  0.108432  0.303621  1
  O  O57  1  0.636203  0.112834  0.805318  1
  O  O58  1  0.639118  0.779455  0.135089  1
  O  O59  1  0.632820  0.780463  0.635059  1
  O  O60  1  0.652261  0.453243  0.724504  1
  O  O61  1  0.655024  0.454392  0.226880  1
  O  O62  1  0.835949  0.627248  0.561067  1
  O  O63  1  0.845090  0.627639  0.060191  1
  O  O64  1  0.843375  0.303086  0.400217  1
  O  O65  1  0.848433  0.293403  0.896421  1
  O  O66  1  0.863568  0.940779  0.969513  1
  O  O67  1  0.863163  0.941280  0.469910  1
  O  O68  1  0.991986  0.091333  0.565152  1
  O  O69  1  0.989205  0.091823  0.025110  1
