# generated using pymatgen
data_Li2FeO2F
_symmetry_space_group_name_H-M   'P 1'
_cell_length_a   5.16956102
_cell_length_b   5.23335890
_cell_length_c   9.89205595
_cell_angle_alpha   84.29070699
_cell_angle_beta   94.40923870
_cell_angle_gamma   59.85338884
_symmetry_Int_Tables_number   1
_chemical_formula_structural   Li2FeO2F
_chemical_formula_sum   'Li8 Fe4 O8 F4'
_cell_volume   227.76003332
_cell_formula_units_Z   4
loop_
 _symmetry_equiv_pos_site_id
 _symmetry_equiv_pos_as_xyz
  1  'x, y, z'
loop_
 _atom_site_type_symbol
 _atom_site_label
 _atom_site_symmetry_multiplicity
 _atom_site_fract_x
 _atom_site_fract_y
 _atom_site_fract_z
 _atom_site_occupancy
  Li  Li0  1  0.316746  0.882384  0.997848  1
  Li  Li1  1  0.145982  0.692751  0.504347  1
  Li  Li2  1  0.000399  0.505253  0.006408  1
  Li  Li3  1  0.236685  0.239163  0.745638  1
  Li  Li4  1  0.736627  0.776473  0.249613  1
  Li  Li5  1  0.510326  0.967166  0.498752  1
  Li  Li6  1  0.828825  0.342695  0.493543  1
  Li  Li7  1  0.678118  0.131310  0.995501  1
  Fe  Fe8  1  0.607498  0.604270  0.752989  1
  Fe  Fe9  1  0.919890  0.920989  0.749741  1
  Fe  Fe10  1  0.420502  0.409290  0.249598  1
  Fe  Fe11  1  0.106704  0.034284  0.249701  1
  O  O12  1  0.220721  0.924788  0.639265  1
  O  O13  1  0.063807  0.777284  0.133340  1
  O  O14  1  0.640340  0.867434  0.869246  1
  O  O15  1  0.450852  0.695998  0.366887  1
  O  O16  1  0.871620  0.642202  0.633059  1
  O  O17  1  0.349904  0.146701  0.137642  1
  O  O18  1  0.925736  0.213452  0.861515  1
  O  O19  1  0.790831  0.070146  0.361551  1
  F  F20  1  0.291280  0.543658  0.875360  1
  F  F21  1  0.134461  0.367140  0.379570  1
  F  F22  1  0.545934  0.287758  0.624752  1
  F  F23  1  0.706209  0.457408  0.124137  1
