# generated using pymatgen
data_Li5Cr2Fe5O12
_symmetry_space_group_name_H-M   'P 1'
_cell_length_a   5.17070486
_cell_length_b   5.17070539
_cell_length_c   9.77930252
_cell_angle_alpha   84.58679911
_cell_angle_beta   95.41319952
_cell_angle_gamma   58.99501080
_symmetry_Int_Tables_number   1
_chemical_formula_structural   Li5Cr2Fe5O12
_chemical_formula_sum   'Li5 Cr2 Fe5 O12'
_cell_volume   219.95269776
_cell_formula_units_Z   1
loop_
 _symmetry_equiv_pos_site_id
 _symmetry_equiv_pos_as_xyz
  1  'x, y, z'
loop_
 _atom_site_type_symbol
 _atom_site_label
 _atom_site_symmetry_multiplicity
 _atom_site_fract_x
 _atom_site_fract_y
 _atom_site_fract_z
 _atom_site_occupancy
  Li  Li0  1  0.166778  0.668986  0.503785  1
  Li  Li1  1  0.331385  0.832760  0.996111  1
  Li  Li2  1  0.668986  0.166778  0.996215  1
  Li  Li3  1  0.832760  0.331385  0.503889  1
  Li  Li4  1  0.919052  0.919052  0.750000  1
  Cr  Cr5  1  0.249129  0.249129  0.750000  1
  Cr  Cr6  1  0.750434  0.750434  0.250000  1
  Fe  Fe7  1  0.082322  0.082322  0.250000  1
  Fe  Fe8  1  0.004662  0.503003  0.996766  1
  Fe  Fe9  1  0.503003  0.004662  0.503234  1
  Fe  Fe10  1  0.423999  0.423999  0.250000  1
  Fe  Fe11  1  0.580230  0.580230  0.750000  1
  O  O12  1  0.952983  0.236130  0.868870  1
  O  O13  1  0.236130  0.952983  0.631130  1
  O  O14  1  0.121157  0.371420  0.375303  1
  O  O15  1  0.371420  0.121157  0.124697  1
  O  O16  1  0.294355  0.527842  0.867827  1
  O  O17  1  0.527842  0.294355  0.632173  1
  O  O18  1  0.468622  0.728343  0.373831  1
  O  O19  1  0.728343  0.468622  0.126169  1
  O  O20  1  0.617686  0.855847  0.866576  1
  O  O21  1  0.855847  0.617686  0.633424  1
  O  O22  1  0.787853  0.025023  0.375528  1
  O  O23  1  0.025023  0.787853  0.124472  1
