# generated using pymatgen
data_Li6MnNiP2(CO7)2
_symmetry_space_group_name_H-M   'P 1'
_cell_length_a   8.43783196
_cell_length_b   4.97920906
_cell_length_c   6.49319657
_cell_angle_alpha   90.00000000
_cell_angle_beta   90.00000000
_cell_angle_gamma   85.49265966
_symmetry_Int_Tables_number   1
_chemical_formula_structural   Li6MnNiP2(CO7)2
_chemical_formula_sum   'Li6 Mn1 Ni1 P2 C2 O14'
_cell_volume   271.95969727
_cell_formula_units_Z   1
loop_
 _symmetry_equiv_pos_site_id
 _symmetry_equiv_pos_as_xyz
  1  'x, y, z'
loop_
 _atom_site_type_symbol
 _atom_site_label
 _atom_site_symmetry_multiplicity
 _atom_site_fract_x
 _atom_site_fract_y
 _atom_site_fract_z
 _atom_site_occupancy
  Li  Li0  1  0.093553  0.760236  0.250000  1
  Li  Li1  1  0.274417  0.245718  0.023335  1
  Li  Li2  1  0.274417  0.245718  0.476665  1
  Li  Li3  1  0.724810  0.753601  0.525017  1
  Li  Li4  1  0.724810  0.753601  0.974983  1
  Li  Li5  1  0.904370  0.236489  0.750000  1
  Mn  Mn6  1  0.658395  0.222752  0.250000  1
  Ni  Ni7  1  0.332304  0.792790  0.750000  1
  P  P8  1  0.410002  0.719882  0.250000  1
  P  P9  1  0.585107  0.277347  0.750000  1
  C  C10  1  0.039462  0.704405  0.750000  1
  C  C11  1  0.967546  0.296754  0.250000  1
  O  O12  1  0.076201  0.952007  0.750000  1
  O  O13  1  0.114478  0.356674  0.250000  1
  O  O14  1  0.155147  0.515199  0.750000  1
  O  O15  1  0.309727  0.828699  0.063016  1
  O  O16  1  0.309727  0.828699  0.436984  1
  O  O17  1  0.418828  0.169083  0.750000  1
  O  O18  1  0.423255  0.405181  0.250000  1
  O  O19  1  0.562880  0.592061  0.750000  1
  O  O20  1  0.581598  0.810019  0.250000  1
  O  O21  1  0.690336  0.174571  0.934432  1
  O  O22  1  0.690336  0.174571  0.565568  1
  O  O23  1  0.854958  0.491475  0.250000  1
  O  O24  1  0.892809  0.642377  0.750000  1
  O  O25  1  0.930532  0.050091  0.250000  1
