# generated using pymatgen
data_Fe4OF7
_symmetry_space_group_name_H-M   'P 1'
_cell_length_a   4.80941002
_cell_length_b   10.84695182
_cell_length_c   5.80451357
_cell_angle_alpha   82.31347906
_cell_angle_beta   90.00000000
_cell_angle_gamma   90.00000000
_symmetry_Int_Tables_number   1
_chemical_formula_structural   Fe4OF7
_chemical_formula_sum   'Fe8 O2 F14'
_cell_volume   300.08579615
_cell_formula_units_Z   2
loop_
 _symmetry_equiv_pos_site_id
 _symmetry_equiv_pos_as_xyz
  1  'x, y, z'
loop_
 _atom_site_type_symbol
 _atom_site_label
 _atom_site_symmetry_multiplicity
 _atom_site_fract_x
 _atom_site_fract_y
 _atom_site_fract_z
 _atom_site_occupancy
  Fe  Fe0  1  0.504999  0.497013  0.001443  1
  Fe  Fe1  1  0.492531  0.010557  0.493346  1
  Fe  Fe2  1  0.482055  0.243267  0.728999  1
  Fe  Fe3  1  0.511157  0.753391  0.243487  1
  Fe  Fe4  1  0.982055  0.756733  0.771001  1
  Fe  Fe5  1  0.004999  0.502987  0.498557  1
  Fe  Fe6  1  0.011157  0.246609  0.256513  1
  Fe  Fe7  1  0.992531  0.989443  0.006654  1
  O  O8  1  0.805990  0.816698  0.012953  1
  O  O9  1  0.305990  0.183302  0.487047  1
  F  F10  1  0.792813  0.328526  0.531468  1
  F  F11  1  0.805410  0.582072  0.777955  1
  F  F12  1  0.800252  0.074738  0.270195  1
  F  F13  1  0.710824  0.827776  0.527147  1
  F  F14  1  0.689875  0.569388  0.285774  1
  F  F15  1  0.707768  0.084368  0.779209  1
  F  F16  1  0.696323  0.318179  0.008792  1
  F  F17  1  0.300252  0.925262  0.229805  1
  F  F18  1  0.305410  0.417928  0.722045  1
  F  F19  1  0.292813  0.671474  0.968532  1
  F  F20  1  0.210824  0.172224  0.972853  1
  F  F21  1  0.207768  0.915632  0.720791  1
  F  F22  1  0.196323  0.681821  0.491208  1
  F  F23  1  0.189874  0.430612  0.214226  1
