# generated using pymatgen
data_UH14(NO2)4
_symmetry_space_group_name_H-M   'P 1'
_cell_length_a   11.11710203
_cell_length_b   12.44044874
_cell_length_c   6.50360565
_cell_angle_alpha   90.00000000
_cell_angle_beta   90.00000000
_cell_angle_gamma   90.00000000
_symmetry_Int_Tables_number   1
_chemical_formula_structural   UH14(NO2)4
_chemical_formula_sum   'U4 H56 N16 O32'
_cell_volume   899.45996428
_cell_formula_units_Z   4
loop_
 _symmetry_equiv_pos_site_id
 _symmetry_equiv_pos_as_xyz
  1  'x, y, z'
loop_
 _atom_site_type_symbol
 _atom_site_label
 _atom_site_symmetry_multiplicity
 _atom_site_fract_x
 _atom_site_fract_y
 _atom_site_fract_z
 _atom_site_occupancy
  U  U0  1  0.500000  0.000000  0.500000  1
  U  U1  1  0.000000  0.500000  0.500000  1
  U  U2  1  0.500000  0.500000  0.000000  1
  U  U3  1  0.000000  0.000000  0.000000  1
  H  H4  1  0.651609  0.258290  0.242595  1
  H  H5  1  0.151609  0.241710  0.757405  1
  H  H6  1  0.348391  0.758290  0.257405  1
  H  H7  1  0.848391  0.741710  0.742595  1
  H  H8  1  0.348391  0.741710  0.757405  1
  H  H9  1  0.848391  0.758290  0.242595  1
  H  H10  1  0.651609  0.241710  0.742595  1
  H  H11  1  0.151609  0.258290  0.257405  1
  H  H12  1  0.719987  0.159981  0.361130  1
  H  H13  1  0.219987  0.340019  0.638870  1
  H  H14  1  0.280013  0.659981  0.138870  1
  H  H15  1  0.780013  0.840019  0.861130  1
  H  H16  1  0.280013  0.840019  0.638870  1
  H  H17  1  0.780013  0.659981  0.361130  1
  H  H18  1  0.719987  0.340019  0.861130  1
  H  H19  1  0.219987  0.159981  0.138870  1
  H  H20  1  0.748064  0.893655  0.533963  1
  H  H21  1  0.248064  0.606345  0.466037  1
  H  H22  1  0.251936  0.393655  0.966037  1
  H  H23  1  0.751936  0.106345  0.033963  1
  H  H24  1  0.251936  0.106345  0.466037  1
  H  H25  1  0.751936  0.393655  0.533963  1
  H  H26  1  0.748064  0.606345  0.033963  1
  H  H27  1  0.248064  0.893655  0.966037  1
  H  H28  1  0.750859  0.952825  0.294353  1
  H  H29  1  0.250859  0.547175  0.705647  1
  H  H30  1  0.249141  0.452825  0.205647  1
  H  H31  1  0.749141  0.047175  0.794353  1
  H  H32  1  0.249141  0.047175  0.705647  1
  H  H33  1  0.749141  0.452825  0.294353  1
  H  H34  1  0.750859  0.547175  0.794353  1
  H  H35  1  0.250859  0.952825  0.205647  1
  H  H36  1  0.359029  0.216556  0.817282  1
  H  H37  1  0.859029  0.283444  0.182718  1
  H  H38  1  0.640971  0.716556  0.682718  1
  H  H39  1  0.140971  0.783444  0.317282  1
  H  H40  1  0.640971  0.783444  0.182718  1
  H  H41  1  0.140971  0.716556  0.817282  1
  H  H42  1  0.359029  0.283444  0.317282  1
  H  H43  1  0.859029  0.216556  0.682718  1
  H  H44  1  0.481497  0.237823  0.972193  1
  H  H45  1  0.981497  0.262177  0.027807  1
  H  H46  1  0.518503  0.737823  0.527807  1
  H  H47  1  0.018503  0.762177  0.472193  1
  H  H48  1  0.518503  0.762177  0.027807  1
  H  H49  1  0.018503  0.737823  0.972193  1
  H  H50  1  0.481497  0.262177  0.472193  1
  H  H51  1  0.981497  0.237823  0.527807  1
  H  H52  1  0.432133  0.113198  0.943234  1
  H  H53  1  0.932133  0.386802  0.056766  1
  H  H54  1  0.567867  0.613198  0.556766  1
  H  H55  1  0.067867  0.886802  0.443234  1
  H  H56  1  0.567867  0.886802  0.056766  1
  H  H57  1  0.067867  0.613198  0.943234  1
  H  H58  1  0.432133  0.386802  0.443234  1
  H  H59  1  0.932133  0.113198  0.556766  1
  N  N60  1  0.707692  0.948384  0.436737  1
  N  N61  1  0.207692  0.551616  0.563263  1
  N  N62  1  0.292308  0.448384  0.063263  1
  N  N63  1  0.792308  0.051616  0.936737  1
  N  N64  1  0.292308  0.051616  0.563263  1
  N  N65  1  0.792308  0.448384  0.436737  1
  N  N66  1  0.707692  0.551616  0.936737  1
  N  N67  1  0.207692  0.948384  0.063263  1
  N  N68  1  0.442867  0.185284  0.864401  1
  N  N69  1  0.942867  0.314716  0.135599  1
  N  N70  1  0.557133  0.685284  0.635599  1
  N  N71  1  0.057133  0.814716  0.364401  1
  N  N72  1  0.557133  0.814716  0.135599  1
  N  N73  1  0.057133  0.685284  0.864401  1
  N  N74  1  0.442867  0.314716  0.364401  1
  N  N75  1  0.942867  0.185284  0.635599  1
  O  O76  1  0.493909  0.070480  0.249596  1
  O  O77  1  0.993909  0.429520  0.750404  1
  O  O78  1  0.506091  0.570480  0.250404  1
  O  O79  1  0.006091  0.929520  0.749596  1
  O  O80  1  0.506091  0.929520  0.750404  1
  O  O81  1  0.006091  0.570480  0.249596  1
  O  O82  1  0.493909  0.429520  0.749596  1
  O  O83  1  0.993909  0.070480  0.250404  1
  O  O84  1  0.701727  0.050995  0.529922  1
  O  O85  1  0.201727  0.449005  0.470078  1
  O  O86  1  0.298273  0.550995  0.970078  1
  O  O87  1  0.798273  0.949005  0.029922  1
  O  O88  1  0.298273  0.949005  0.470078  1
  O  O89  1  0.798273  0.550995  0.529922  1
  O  O90  1  0.701727  0.449005  0.029922  1
  O  O91  1  0.201727  0.050995  0.970078  1
  O  O92  1  0.518948  0.171869  0.691175  1
  O  O93  1  0.018948  0.328131  0.308825  1
  O  O94  1  0.481052  0.671869  0.808825  1
  O  O95  1  0.981052  0.828131  0.191175  1
  O  O96  1  0.481052  0.828131  0.308825  1
  O  O97  1  0.981052  0.671869  0.691175  1
  O  O98  1  0.518948  0.328131  0.191175  1
  O  O99  1  0.018948  0.171869  0.808825  1
  O  O100  1  0.730865  0.221873  0.263636  1
  O  O101  1  0.230865  0.278127  0.736364  1
  O  O102  1  0.269135  0.721873  0.236365  1
  O  O103  1  0.769135  0.778127  0.763636  1
  O  O104  1  0.269135  0.778127  0.736364  1
  O  O105  1  0.769135  0.721873  0.263636  1
  O  O106  1  0.730865  0.278127  0.763636  1
  O  O107  1  0.230865  0.221873  0.236365  1
