# generated using pymatgen
data_Li2V(PO4)2
_symmetry_space_group_name_H-M   'P 1'
_cell_length_a   7.59914968
_cell_length_b   7.96266457
_cell_length_c   5.12435800
_cell_angle_alpha   90.00000000
_cell_angle_beta   88.57499482
_cell_angle_gamma   90.00000000
_symmetry_Int_Tables_number   1
_chemical_formula_structural   Li2V(PO4)2
_chemical_formula_sum   'Li4 V2 P4 O16'
_cell_volume   309.97634162
_cell_formula_units_Z   2
loop_
 _symmetry_equiv_pos_site_id
 _symmetry_equiv_pos_as_xyz
  1  'x, y, z'
loop_
 _atom_site_type_symbol
 _atom_site_label
 _atom_site_symmetry_multiplicity
 _atom_site_fract_x
 _atom_site_fract_y
 _atom_site_fract_z
 _atom_site_occupancy
  Li  Li0  1  0.084108  0.353950  0.037203  1
  Li  Li1  1  0.415892  0.853950  0.462797  1
  Li  Li2  1  0.584108  0.146050  0.537203  1
  Li  Li3  1  0.915892  0.646050  0.962797  1
  V  V4  1  0.000000  0.000000  0.000000  1
  V  V5  1  0.500000  0.500000  0.500000  1
  P  P6  1  0.200576  0.192771  0.496997  1
  P  P7  1  0.299424  0.692771  0.003003  1
  P  P8  1  0.700576  0.307229  0.996997  1
  P  P9  1  0.799424  0.807229  0.503003  1
  O  O10  1  0.942991  0.836725  0.713473  1
  O  O11  1  0.102208  0.164011  0.770450  1
  O  O12  1  0.148638  0.573744  0.033289  1
  O  O13  1  0.261949  0.378668  0.482527  1
  O  O14  1  0.238051  0.878668  0.017473  1
  O  O15  1  0.351362  0.073744  0.466711  1
  O  O16  1  0.397792  0.664011  0.729550  1
  O  O17  1  0.557009  0.336725  0.786527  1
  O  O18  1  0.442991  0.663275  0.213473  1
  O  O19  1  0.602208  0.335989  0.270450  1
  O  O20  1  0.648638  0.926256  0.533289  1
  O  O21  1  0.761949  0.121332  0.982527  1
  O  O22  1  0.738051  0.621332  0.517473  1
  O  O23  1  0.851362  0.426256  0.966711  1
  O  O24  1  0.897792  0.835989  0.229550  1
  O  O25  1  0.057009  0.163275  0.286527  1
