# generated using pymatgen
data_Na2Si(H5O4)2
_symmetry_space_group_name_H-M   'P 1'
_cell_length_a   7.95514343
_cell_length_b   9.60819528
_cell_length_c   6.67757970
_cell_angle_alpha   70.12461922
_cell_angle_beta   104.82412725
_cell_angle_gamma   122.54839917
_symmetry_Int_Tables_number   1
_chemical_formula_structural   Na2Si(H5O4)2
_chemical_formula_sum   'Na4 Si2 H20 O16'
_cell_volume   402.88983582
_cell_formula_units_Z   2
loop_
 _symmetry_equiv_pos_site_id
 _symmetry_equiv_pos_as_xyz
  1  'x, y, z'
loop_
 _atom_site_type_symbol
 _atom_site_label
 _atom_site_symmetry_multiplicity
 _atom_site_fract_x
 _atom_site_fract_y
 _atom_site_fract_z
 _atom_site_occupancy
  Na  Na0  1  0.391925  0.849357  0.813462  1
  Na  Na1  1  0.608075  0.150643  0.186538  1
  Na  Na2  1  0.348573  0.661761  0.368658  1
  Na  Na3  1  0.651427  0.338239  0.631342  1
  Si  Si4  1  0.731120  0.766859  0.029742  1
  Si  Si5  1  0.268880  0.233141  0.970258  1
  H  H6  1  0.017490  0.938051  0.216530  1
  H  H7  1  0.982510  0.061949  0.783470  1
  H  H8  1  0.406914  0.543355  0.078388  1
  H  H9  1  0.593086  0.456645  0.921612  1
  H  H10  1  0.201607  0.511465  0.790633  1
  H  H11  1  0.798393  0.488535  0.209367  1
  H  H12  1  0.078755  0.606250  0.652715  1
  H  H13  1  0.921245  0.393750  0.347285  1
  H  H14  1  0.843548  0.652291  0.751856  1
  H  H15  1  0.156452  0.347709  0.248144  1
  H  H16  1  0.867894  0.711678  0.496911  1
  H  H17  1  0.132106  0.288322  0.503089  1
  H  H18  1  0.689812  0.920465  0.573452  1
  H  H19  1  0.310188  0.079535  0.426548  1
  H  H20  1  0.743154  0.912431  0.362356  1
  H  H21  1  0.256846  0.087569  0.637644  1
  H  H22  1  0.226374  0.906400  0.112668  1
  H  H23  1  0.773626  0.093600  0.887332  1
  H  H24  1  0.060633  0.739184  0.041927  1
  H  H25  1  0.939367  0.260816  0.958073  1
  O  O26  1  0.741810  0.924469  0.825872  1
  O  O27  1  0.258190  0.075531  0.174128  1
  O  O28  1  0.790952  0.642078  0.988670  1
  O  O29  1  0.209048  0.357922  0.011330  1
  O  O30  1  0.872086  0.849276  0.240716  1
  O  O31  1  0.127914  0.150724  0.759284  1
  O  O32  1  0.502235  0.656206  0.114246  1
  O  O33  1  0.497765  0.343794  0.885754  1
  O  O34  1  0.210762  0.612451  0.671684  1
  O  O35  1  0.789238  0.387549  0.328316  1
  O  O36  1  0.866612  0.625576  0.631855  1
  O  O37  1  0.133388  0.374424  0.368145  1
  O  O38  1  0.645391  0.921115  0.417074  1
  O  O39  1  0.354609  0.078885  0.582926  1
  O  O40  1  0.208069  0.804400  0.078641  1
  O  O41  1  0.791931  0.195600  0.921359  1
