# generated using pymatgen
data_Li4Ti5Ni3O16
_symmetry_space_group_name_H-M   'P 1'
_cell_length_a   5.90997299
_cell_length_b   5.82464064
_cell_length_c   9.55795031
_cell_angle_alpha   90.22434296
_cell_angle_beta   91.06251536
_cell_angle_gamma   119.65931388
_symmetry_Int_Tables_number   1
_chemical_formula_structural   Li4Ti5Ni3O16
_chemical_formula_sum   'Li4 Ti5 Ni3 O16'
_cell_volume   285.82930661
_cell_formula_units_Z   1
loop_
 _symmetry_equiv_pos_site_id
 _symmetry_equiv_pos_as_xyz
  1  'x, y, z'
loop_
 _atom_site_type_symbol
 _atom_site_label
 _atom_site_symmetry_multiplicity
 _atom_site_fract_x
 _atom_site_fract_y
 _atom_site_fract_z
 _atom_site_occupancy
  Li  Li0  1  0.321247  0.659614  0.896227  1
  Li  Li1  1  0.980487  0.988061  0.991880  1
  Li  Li2  1  0.000995  0.001382  0.494349  1
  Li  Li3  1  0.677228  0.340068  0.401601  1
  Ti  Ti4  1  0.192495  0.843131  0.220903  1
  Ti  Ti5  1  0.332399  0.666818  0.501024  1
  Ti  Ti6  1  0.191901  0.349460  0.220943  1
  Ti  Ti7  1  0.345492  0.174591  0.729881  1
  Ti  Ti8  1  0.678911  0.336786  0.996576  1
  Ni  Ni9  1  0.662206  0.830754  0.208816  1
  Ni  Ni10  1  0.828367  0.660512  0.710470  1
  Ni  Ni11  1  0.825392  0.165933  0.711109  1
  O  O12  1  0.179966  0.838085  0.592358  1
  O  O13  1  0.042083  0.521159  0.337094  1
  O  O14  1  0.310194  0.654381  0.102469  1
  O  O15  1  0.010791  0.005597  0.304531  1
  O  O16  1  0.988803  0.995229  0.801651  1
  O  O17  1  0.185796  0.345242  0.592176  1
  O  O18  1  0.473841  0.967730  0.343440  1
  O  O19  1  0.474155  0.508768  0.343622  1
  O  O20  1  0.334141  0.166716  0.097867  1
  O  O21  1  0.675867  0.841663  0.594037  1
  O  O22  1  0.500956  0.473428  0.842305  1
  O  O23  1  0.493039  0.026251  0.843642  1
  O  O24  1  0.670929  0.335368  0.612533  1
  O  O25  1  0.837787  0.659660  0.090083  1
  O  O26  1  0.947153  0.468959  0.835972  1
  O  O27  1  0.837380  0.174952  0.090281  1
