# generated using pymatgen
data_Li4Ti4V4NiO18
_symmetry_space_group_name_H-M   'P 1'
_cell_length_a   9.20960286
_cell_length_b   24.55182217
_cell_length_c   2.96811596
_cell_angle_alpha   90.09185652
_cell_angle_beta   90.06057870
_cell_angle_gamma   90.06767226
_symmetry_Int_Tables_number   1
_chemical_formula_structural   Li4Ti4V4NiO18
_chemical_formula_sum   'Li8 Ti8 V8 Ni2 O36'
_cell_volume   671.12650714
_cell_formula_units_Z   2
loop_
 _symmetry_equiv_pos_site_id
 _symmetry_equiv_pos_as_xyz
  1  'x, y, z'
loop_
 _atom_site_type_symbol
 _atom_site_label
 _atom_site_symmetry_multiplicity
 _atom_site_fract_x
 _atom_site_fract_y
 _atom_site_fract_z
 _atom_site_occupancy
  Li  Li0  1  0.196774  0.990714  -0.000047  1
  Li  Li1  1  0.193611  0.189840  0.999996  1
  Li  Li2  1  0.305699  0.689624  0.000041  1
  Li  Li3  1  0.299480  0.491005  0.000064  1
  Li  Li4  1  0.700077  0.509421  -0.000029  1
  Li  Li5  1  0.694231  0.310176  0.999944  1
  Li  Li6  1  0.807188  0.810092  0.999995  1
  Li  Li7  1  0.803399  0.009418  0.000044  1
  Ti  Ti8  1  0.995803  0.101128  0.000135  1
  Ti  Ti9  1  0.160643  0.806376  0.500003  1
  Ti  Ti10  1  0.339032  0.305880  0.499914  1
  Ti  Ti11  1  0.504457  0.601196  0.000581  1
  Ti  Ti12  1  0.494805  0.398720  0.999561  1
  Ti  Ti13  1  0.660896  0.693907  0.500100  1
  Ti  Ti14  1  0.839320  0.193569  0.499986  1
  Ti  Ti15  1  0.004301  0.898884  -0.000118  1
  V  V16  1  0.993499  0.315461  0.000722  1
  V  V17  1  0.150096  0.587389  0.494019  1
  V  V18  1  0.348898  0.087888  0.499945  1
  V  V19  1  0.504548  0.816488  -0.000018  1
  V  V20  1  0.495722  0.183353  0.000015  1
  V  V21  1  0.651302  0.912038  0.500053  1
  V  V22  1  0.850352  0.412598  0.504995  1
  V  V23  1  0.005847  0.684218  -0.000768  1
  Ni  Ni24  1  -0.001086  0.500331  0.000521  1
  Ni  Ni25  1  0.500036  0.999781  0.000018  1
  O  O26  1  0.990184  0.404721  -0.003579  1
  O  O27  1  0.009176  0.595561  0.004026  1
  O  O28  1  0.058982  0.944442  0.500356  1
  O  O29  1  0.039996  0.158110  0.500189  1
  O  O30  1  0.153426  0.666315  0.499559  1
  O  O31  1  0.112134  0.757221  -0.000294  1
  O  O32  1  0.148313  0.510109  0.504640  1
  O  O33  1  0.131965  0.294921  0.499688  1
  O  O34  1  0.186637  0.858783  0.000292  1
  O  O35  1  0.203044  0.084061  -0.000154  1
  O  O36  1  0.295078  0.583726  0.996446  1
  O  O37  1  0.313142  0.358650  0.000112  1
  O  O38  1  0.368413  0.794846  0.499826  1
  O  O39  1  0.351818  0.010932  0.499863  1
  O  O40  1  0.386728  0.256472  -0.000132  1
  O  O41  1  0.345728  0.165544  0.499957  1
  O  O42  1  0.460452  0.657976  0.499896  1
  O  O43  1  0.442033  0.444146  0.500542  1
  O  O44  1  0.491184  0.095832  0.000134  1
  O  O45  1  0.508919  0.904347  -0.000133  1
  O  O46  1  0.557998  0.555756  0.499306  1
  O  O47  1  0.539496  0.341996  0.500032  1
  O  O48  1  0.654241  0.834466  0.500043  1
  O  O49  1  0.613324  0.743494  0.000131  1
  O  O50  1  0.648525  0.989089  0.500147  1
  O  O51  1  0.631624  0.205171  0.500173  1
  O  O52  1  0.686826  0.641359  0.999884  1
  O  O53  1  0.704998  0.416316  0.002549  1
  O  O54  1  0.797078  0.915905  0.000153  1
  O  O55  1  0.813297  0.141222  0.999697  1
  O  O56  1  0.868123  0.705085  0.500394  1
  O  O57  1  0.852373  0.490438  0.496661  1
  O  O58  1  0.887632  0.242728  0.000243  1
  O  O59  1  0.847092  0.333190  0.500232  1
  O  O60  1  0.960064  0.841936  0.499802  1
  O  O61  1  0.941025  0.055640  0.499648  1
