# generated using pymatgen
data_V2O3F
_symmetry_space_group_name_H-M   'P 1'
_cell_length_a   5.61555007
_cell_length_b   9.90304175
_cell_length_c   5.56015002
_cell_angle_alpha   77.94893307
_cell_angle_beta   64.92639408
_cell_angle_gamma   97.34883986
_symmetry_Int_Tables_number   1
_chemical_formula_structural   V2O3F
_chemical_formula_sum   'V8 O12 F4'
_cell_volume   265.59712550
_cell_formula_units_Z   4
loop_
 _symmetry_equiv_pos_site_id
 _symmetry_equiv_pos_as_xyz
  1  'x, y, z'
loop_
 _atom_site_type_symbol
 _atom_site_label
 _atom_site_symmetry_multiplicity
 _atom_site_fract_x
 _atom_site_fract_y
 _atom_site_fract_z
 _atom_site_occupancy
  V  V0  1  0.914730  0.775300  0.638627  1
  V  V1  1  0.625919  0.250296  0.875600  1
  V  V2  1  0.519471  0.000617  0.499398  1
  V  V3  1  0.732253  0.499763  0.251548  1
  V  V4  1  0.249830  0.499418  0.735916  1
  V  V5  1  0.337145  0.725253  0.112775  1
  V  V6  1  0.125747  0.250207  0.376147  1
  V  V7  1  0.002296  0.001182  0.015817  1
  O  O8  1  0.935529  0.154587  0.760842  1
  O  O9  1  0.582574  0.846183  0.732786  1
  O  O10  1  0.316858  0.345994  0.990603  1
  O  O11  1  0.813146  0.346032  0.496400  1
  O  O12  1  0.900999  0.099364  0.301150  1
  O  O13  1  0.350589  0.401286  0.450472  1
  O  O14  1  0.114357  0.905924  0.705297  1
  O  O15  1  0.170544  0.654920  0.518790  1
  O  O16  1  0.668951  0.654098  0.017976  1
  O  O17  1  0.438226  0.154152  0.255250  1
  O  O18  1  0.081742  0.845817  0.232705  1
  O  O19  1  0.137036  0.594646  0.046561  1
  F  F20  1  0.844431  0.396966  0.948877  1
  F  F21  1  0.649160  0.601319  0.548675  1
  F  F22  1  0.407793  0.103052  0.802705  1
  F  F23  1  0.602912  0.899385  0.201626  1
