# generated using pymatgen
data_Co4(P2O7)3
_symmetry_space_group_name_H-M   'P 1'
_cell_length_a   7.38670497
_cell_length_b   21.62100168
_cell_length_c   9.62660328
_cell_angle_alpha   90.00000000
_cell_angle_beta   90.61693865
_cell_angle_gamma   90.00000000
_symmetry_Int_Tables_number   1
_chemical_formula_structural   Co4(P2O7)3
_chemical_formula_sum   'Co16 P24 O84'
_cell_volume   1537.35604979
_cell_formula_units_Z   4
loop_
 _symmetry_equiv_pos_site_id
 _symmetry_equiv_pos_as_xyz
  1  'x, y, z'
loop_
 _atom_site_type_symbol
 _atom_site_label
 _atom_site_symmetry_multiplicity
 _atom_site_fract_x
 _atom_site_fract_y
 _atom_site_fract_z
 _atom_site_occupancy
  Co  Co0  1  0.033876  0.758878  0.709654  1
  Co  Co1  1  0.037259  0.499414  0.265536  1
  Co  Co2  1  0.057272  0.253646  0.777199  1
  Co  Co3  1  0.053986  0.994000  0.246447  1
  Co  Co4  1  0.446014  0.494000  0.253553  1
  Co  Co5  1  0.442728  0.753646  0.722801  1
  Co  Co6  1  0.462741  0.999414  0.234464  1
  Co  Co7  1  0.466124  0.258878  0.790346  1
  Co  Co8  1  0.533876  0.741122  0.209654  1
  Co  Co9  1  0.537259  0.000586  0.765536  1
  Co  Co10  1  0.557272  0.246354  0.277199  1
  Co  Co11  1  0.553986  0.506000  0.746447  1
  Co  Co12  1  0.946014  0.006000  0.753553  1
  Co  Co13  1  0.942728  0.746354  0.222801  1
  Co  Co14  1  0.962741  0.500586  0.734464  1
  Co  Co15  1  0.966124  0.241122  0.290346  1
  P  P16  1  0.232433  0.686997  0.993580  1
  P  P17  1  0.236455  0.890084  0.831879  1
  P  P18  1  0.239582  0.858436  0.157004  1
  P  P19  1  0.239930  0.699939  0.445624  1
  P  P20  1  0.253535  0.547004  0.968309  1
  P  P21  1  0.252454  0.560411  0.525797  1
  P  P22  1  0.247546  0.060411  0.974203  1
  P  P23  1  0.246465  0.047004  0.531691  1
  P  P24  1  0.260070  0.199939  0.054376  1
  P  P25  1  0.260418  0.358436  0.342996  1
  P  P26  1  0.263545  0.390084  0.668121  1
  P  P27  1  0.267567  0.186997  0.506420  1
  P  P28  1  0.732433  0.813003  0.493580  1
  P  P29  1  0.736455  0.609916  0.331879  1
  P  P30  1  0.739582  0.641564  0.657004  1
  P  P31  1  0.739930  0.800061  0.945624  1
  P  P32  1  0.753535  0.952996  0.468309  1
  P  P33  1  0.752454  0.939589  0.025797  1
  P  P34  1  0.747546  0.439589  0.474203  1
  P  P35  1  0.746465  0.452996  0.031691  1
  P  P36  1  0.760070  0.300061  0.554376  1
  P  P37  1  0.760418  0.141564  0.842996  1
  P  P38  1  0.763545  0.109916  0.168121  1
  P  P39  1  0.767567  0.313003  0.006420  1
  O  O40  1  0.060048  0.041920  0.596522  1
  O  O41  1  0.058633  0.708255  0.374037  1
  O  O42  1  0.070730  0.928830  0.789260  1
  O  O43  1  0.079801  0.554281  0.608305  1
  O  O44  1  0.066594  0.823698  0.200423  1
  O  O45  1  0.068024  0.705104  0.077083  1
  O  O46  1  0.073628  0.049440  0.895042  1
  O  O47  1  0.087916  0.320254  0.325580  1
  O  O48  1  0.081723  0.422976  0.682381  1
  O  O49  1  0.086591  0.190418  0.428365  1
  O  O50  1  0.094632  0.218648  0.134925  1
  O  O51  1  0.108503  0.510463  0.889814  1
  O  O52  1  0.190204  0.616396  0.954569  1
  O  O53  1  0.213612  0.873492  0.994129  1
  O  O54  1  0.234379  0.829184  0.749405  1
  O  O55  1  0.234291  0.129385  0.025359  1
  O  O56  1  0.247032  0.419759  0.261372  1
  O  O57  1  0.239943  0.718596  0.851064  1
  O  O58  1  0.238659  0.733586  0.586526  1
  O  O59  1  0.246528  0.030120  0.376431  1
  O  O60  1  0.255452  0.021226  0.107695  1
  O  O61  1  0.244548  0.521226  0.392305  1
  O  O62  1  0.253472  0.530120  0.123569  1
  O  O63  1  0.261341  0.233586  0.913474  1
  O  O64  1  0.260057  0.218596  0.648936  1
  O  O65  1  0.252968  0.919759  0.238628  1
  O  O66  1  0.265709  0.629385  0.474641  1
  O  O67  1  0.265621  0.329184  0.750595  1
  O  O68  1  0.286388  0.373492  0.505871  1
  O  O69  1  0.309796  0.116396  0.545431  1
  O  O70  1  0.391497  0.010463  0.610186  1
  O  O71  1  0.405368  0.718648  0.365075  1
  O  O72  1  0.413409  0.690418  0.071635  1
  O  O73  1  0.418277  0.922976  0.817619  1
  O  O74  1  0.412084  0.820254  0.174420  1
  O  O75  1  0.426372  0.549440  0.604958  1
  O  O76  1  0.431976  0.205104  0.422917  1
  O  O77  1  0.433406  0.323698  0.299577  1
  O  O78  1  0.420199  0.054281  0.891695  1
  O  O79  1  0.429270  0.428830  0.710740  1
  O  O80  1  0.441367  0.208255  0.125963  1
  O  O81  1  0.439952  0.541920  0.903478  1
  O  O82  1  0.560048  0.458080  0.096522  1
  O  O83  1  0.558633  0.791745  0.874037  1
  O  O84  1  0.570730  0.571170  0.289260  1
  O  O85  1  0.579801  0.945719  0.108305  1
  O  O86  1  0.566594  0.676302  0.700423  1
  O  O87  1  0.568024  0.794896  0.577083  1
  O  O88  1  0.573628  0.450560  0.395042  1
  O  O89  1  0.587916  0.179746  0.825580  1
  O  O90  1  0.581723  0.077024  0.182381  1
  O  O91  1  0.586591  0.309582  0.928365  1
  O  O92  1  0.594632  0.281352  0.634925  1
  O  O93  1  0.608503  0.989537  0.389814  1
  O  O94  1  0.690204  0.883604  0.454568  1
  O  O95  1  0.713612  0.626508  0.494129  1
  O  O96  1  0.734379  0.670816  0.249405  1
  O  O97  1  0.734291  0.370615  0.525359  1
  O  O98  1  0.747032  0.080241  0.761372  1
  O  O99  1  0.739943  0.781404  0.351064  1
  O  O100  1  0.738659  0.766414  0.086526  1
  O  O101  1  0.746528  0.469880  0.876431  1
  O  O102  1  0.755452  0.478774  0.607695  1
  O  O103  1  0.744548  0.978774  0.892305  1
  O  O104  1  0.753472  0.969880  0.623569  1
  O  O105  1  0.761341  0.266414  0.413474  1
  O  O106  1  0.760057  0.281404  0.148936  1
  O  O107  1  0.752968  0.580241  0.738628  1
  O  O108  1  0.765709  0.870615  0.974641  1
  O  O109  1  0.765621  0.170816  0.250595  1
  O  O110  1  0.786388  0.126508  0.005871  1
  O  O111  1  0.809796  0.383604  0.045431  1
  O  O112  1  0.891497  0.489537  0.110186  1
  O  O113  1  0.905368  0.781352  0.865075  1
  O  O114  1  0.913409  0.809582  0.571635  1
  O  O115  1  0.918277  0.577024  0.317619  1
  O  O116  1  0.912084  0.679746  0.674420  1
  O  O117  1  0.926372  0.950560  0.104958  1
  O  O118  1  0.931976  0.294896  0.922917  1
  O  O119  1  0.933406  0.176302  0.799577  1
  O  O120  1  0.920199  0.445719  0.391695  1
  O  O121  1  0.929270  0.071170  0.210740  1
  O  O122  1  0.941367  0.291745  0.625963  1
  O  O123  1  0.939952  0.958080  0.403478  1
