# generated using pymatgen
data_Li3CoOF3
_symmetry_space_group_name_H-M   'P 1'
_cell_length_a   2.98609163
_cell_length_b   5.14207831
_cell_length_c   10.20467358
_cell_angle_alpha   79.35960138
_cell_angle_beta   90.04772887
_cell_angle_gamma   106.96431461
_symmetry_Int_Tables_number   1
_chemical_formula_structural   Li3CoOF3
_chemical_formula_sum   'Li6 Co2 O2 F6'
_cell_volume   147.06012737
_cell_formula_units_Z   2
loop_
 _symmetry_equiv_pos_site_id
 _symmetry_equiv_pos_as_xyz
  1  'x, y, z'
loop_
 _atom_site_type_symbol
 _atom_site_label
 _atom_site_symmetry_multiplicity
 _atom_site_fract_x
 _atom_site_fract_y
 _atom_site_fract_z
 _atom_site_occupancy
  Li  Li0  1  0.751486  0.504105  0.869218  1
  Li  Li1  1  0.500510  0.002617  0.749678  1
  Li  Li2  1  0.507358  0.001396  0.250132  1
  Li  Li3  1  0.001036  0.002883  0.496419  1
  Li  Li4  1  0.251781  0.501288  0.630017  1
  Li  Li5  1  0.000820  0.001785  0.002982  1
  Co  Co6  1  0.739893  0.491112  0.363043  1
  Co  Co7  1  0.250556  0.512583  0.137214  1
  O  O8  1  0.892694  0.755960  0.184796  1
  O  O9  1  0.137324  0.247892  0.315372  1
  F  F10  1  0.876320  0.753247  0.688038  1
  F  F11  1  0.630206  0.252446  0.568492  1
  F  F12  1  0.622040  0.262839  0.049705  1
  F  F13  1  0.125606  0.251768  0.810804  1
  F  F14  1  0.378636  0.752483  0.930945  1
  F  F15  1  0.361209  0.742315  0.450023  1
