# generated using pymatgen
data_Na2MnPCO7
_symmetry_space_group_name_H-M   'P 1'
_cell_length_a   8.92107849
_cell_length_b   13.42919576
_cell_length_c   5.17724009
_cell_angle_alpha   89.74472462
_cell_angle_beta   88.65767327
_cell_angle_gamma   90.55834286
_symmetry_Int_Tables_number   1
_chemical_formula_structural   Na2MnPCO7
_chemical_formula_sum   'Na8 Mn4 P4 C4 O28'
_cell_volume   620.04196755
_cell_formula_units_Z   4
loop_
 _symmetry_equiv_pos_site_id
 _symmetry_equiv_pos_as_xyz
  1  'x, y, z'
loop_
 _atom_site_type_symbol
 _atom_site_label
 _atom_site_symmetry_multiplicity
 _atom_site_fract_x
 _atom_site_fract_y
 _atom_site_fract_z
 _atom_site_occupancy
  Na  Na0  1  0.250493  0.005651  0.243133  1
  Na  Na1  1  0.240309  0.245343  0.245530  1
  Na  Na2  1  0.244730  0.505521  0.246354  1
  Na  Na3  1  0.255159  0.741708  0.248049  1
  Na  Na4  1  0.758185  0.254215  0.755243  1
  Na  Na5  1  0.761415  0.501172  0.755353  1
  Na  Na6  1  0.744759  0.994238  0.755108  1
  Na  Na7  1  0.914196  0.861249  0.230238  1
  Mn  Mn8  1  0.351810  0.375735  0.783695  1
  Mn  Mn9  1  0.354531  0.874312  0.777160  1
  Mn  Mn10  1  0.645755  0.125754  0.223314  1
  Mn  Mn11  1  0.656020  0.630579  0.208200  1
  P  P12  1  0.420086  0.122190  0.706596  1
  P  P13  1  0.424601  0.627554  0.709071  1
  P  P14  1  0.578921  0.374227  0.289374  1
  P  P15  1  0.578863  0.877272  0.301935  1
  C  C16  1  0.075029  0.375189  0.730339  1
  C  C17  1  0.067319  0.876407  0.721454  1
  C  C18  1  0.928842  0.623187  0.266144  1
  C  C19  1  0.927394  0.124819  0.276325  1
  O  O20  1  0.067818  0.121372  0.270697  1
  O  O21  1  0.068593  0.625072  0.286501  1
  O  O22  1  0.147183  0.374834  0.950995  1
  O  O23  1  0.145826  0.872735  0.937419  1
  O  O24  1  0.145944  0.873664  0.507459  1
  O  O25  1  0.167847  0.374429  0.530355  1
  O  O26  1  0.329738  0.025846  0.778188  1
  O  O27  1  0.326705  0.213319  0.782187  1
  O  O28  1  0.324675  0.536492  0.777779  1
  O  O29  1  0.335287  0.723649  0.777944  1
  O  O30  1  0.447934  0.122632  0.402146  1
  O  O31  1  0.458005  0.628006  0.408580  1
  O  O32  1  0.423424  0.373862  0.155939  1
  O  O33  1  0.425934  0.876225  0.168532  1
  O  O34  1  0.575088  0.123194  0.834229  1
  O  O35  1  0.574342  0.623423  0.852287  1
  O  O36  1  0.545676  0.374206  0.591955  1
  O  O37  1  0.546416  0.882678  0.602447  1
  O  O38  1  0.666845  0.278781  0.221328  1
  O  O39  1  0.672701  0.465822  0.214105  1
  O  O40  1  0.676476  0.787597  0.236639  1
  O  O41  1  0.675760  0.971198  0.228676  1
  O  O42  1  0.842528  0.125684  0.482931  1
  O  O43  1  0.832744  0.622674  0.460531  1
  O  O44  1  0.850305  0.126071  0.058750  1
  O  O45  1  0.862239  0.625971  0.041911  1
  O  O46  1  0.935657  0.376162  0.719839  1
  O  O47  1  0.926619  0.882030  0.734183  1
