# generated using pymatgen
data_CeP2(HO4)2
_symmetry_space_group_name_H-M   'P 1'
_cell_length_a   7.08989019
_cell_length_b   15.77046967
_cell_length_c   6.72242898
_cell_angle_alpha   90.00000000
_cell_angle_beta   90.00000000
_cell_angle_gamma   90.00000000
_symmetry_Int_Tables_number   1
_chemical_formula_structural   CeP2(HO4)2
_chemical_formula_sum   'Ce4 P8 H8 O32'
_cell_volume   751.64082237
_cell_formula_units_Z   4
loop_
 _symmetry_equiv_pos_site_id
 _symmetry_equiv_pos_as_xyz
  1  'x, y, z'
loop_
 _atom_site_type_symbol
 _atom_site_label
 _atom_site_symmetry_multiplicity
 _atom_site_fract_x
 _atom_site_fract_y
 _atom_site_fract_z
 _atom_site_occupancy
  Ce  Ce0  1  0.571757  0.274057  0.365831  1
  Ce  Ce1  1  0.928243  0.725943  0.865831  1
  Ce  Ce2  1  0.071757  0.225943  0.634169  1
  Ce  Ce3  1  0.428243  0.774057  0.134169  1
  P  P4  1  0.781373  0.071783  0.388691  1
  P  P5  1  0.718627  0.928217  0.888691  1
  P  P6  1  0.281373  0.428217  0.611309  1
  P  P7  1  0.218627  0.571783  0.111309  1
  P  P8  1  0.592774  0.233088  0.831374  1
  P  P9  1  0.907226  0.766912  0.331374  1
  P  P10  1  0.092774  0.266912  0.168626  1
  P  P11  1  0.407226  0.733088  0.668626  1
  H  H12  1  0.885102  0.072741  0.209850  1
  H  H13  1  0.614898  0.927259  0.709850  1
  H  H14  1  0.385102  0.427259  0.790150  1
  H  H15  1  0.114898  0.572741  0.290150  1
  H  H16  1  0.636601  0.148661  0.882673  1
  H  H17  1  0.863399  0.851339  0.382673  1
  H  H18  1  0.136601  0.351339  0.117327  1
  H  H19  1  0.363399  0.648661  0.617327  1
  O  O20  1  0.617421  0.138818  0.357386  1
  O  O21  1  0.882579  0.861182  0.857386  1
  O  O22  1  0.117421  0.361182  0.642614  1
  O  O23  1  0.382579  0.638818  0.142614  1
  O  O24  1  0.918024  0.113447  0.548645  1
  O  O25  1  0.581976  0.886553  0.048645  1
  O  O26  1  0.418024  0.386553  0.451355  1
  O  O27  1  0.081976  0.613447  0.951355  1
  O  O28  1  0.712370  0.985521  0.440862  1
  O  O29  1  0.787630  0.014479  0.940862  1
  O  O30  1  0.212370  0.514479  0.559138  1
  O  O31  1  0.287630  0.485521  0.059138  1
  O  O32  1  0.576006  0.284330  0.023964  1
  O  O33  1  0.923994  0.715670  0.523964  1
  O  O34  1  0.076006  0.215670  0.976036  1
  O  O35  1  0.423994  0.784330  0.476036  1
  O  O36  1  0.750819  0.268145  0.689607  1
  O  O37  1  0.749181  0.731855  0.189607  1
  O  O38  1  0.250819  0.231855  0.310393  1
  O  O39  1  0.249181  0.768145  0.810393  1
  O  O40  1  0.413430  0.234089  0.696923  1
  O  O41  1  0.086570  0.765911  0.196923  1
  O  O42  1  0.913430  0.265911  0.303077  1
  O  O43  1  0.586570  0.734089  0.803077  1
  O  O44  1  0.771323  0.456027  0.363542  1
  O  O45  1  0.728677  0.543973  0.863542  1
  O  O46  1  0.271323  0.043973  0.636458  1
  O  O47  1  0.228677  0.956027  0.136458  1
  O  O48  1  0.794217  0.473578  0.903990  1
  O  O49  1  0.705783  0.526422  0.403990  1
  O  O50  1  0.294217  0.026422  0.096010  1
  O  O51  1  0.205783  0.973578  0.596010  1
