# generated using pymatgen
data_Na5LaO4
_symmetry_space_group_name_H-M   'P 1'
_cell_length_a   8.13079848
_cell_length_b   7.67661348
_cell_length_c   5.63230252
_cell_angle_alpha   90.00000000
_cell_angle_beta   90.00000000
_cell_angle_gamma   90.00000000
_symmetry_Int_Tables_number   1
_chemical_formula_structural   Na5LaO4
_chemical_formula_sum   'Na10 La2 O8'
_cell_volume   351.55141070
_cell_formula_units_Z   2
loop_
 _symmetry_equiv_pos_site_id
 _symmetry_equiv_pos_as_xyz
  1  'x, y, z'
loop_
 _atom_site_type_symbol
 _atom_site_label
 _atom_site_symmetry_multiplicity
 _atom_site_fract_x
 _atom_site_fract_y
 _atom_site_fract_z
 _atom_site_occupancy
  Na  Na0  1  0.059040  0.009531  0.747605  1
  Na  Na1  1  0.059040  0.490469  0.747605  1
  Na  Na2  1  0.250000  0.750000  0.217742  1
  Na  Na3  1  0.440960  0.490469  0.747605  1
  Na  Na4  1  0.440960  0.009531  0.747605  1
  Na  Na5  1  0.559040  0.509531  0.252395  1
  Na  Na6  1  0.559040  0.990469  0.252395  1
  Na  Na7  1  0.750000  0.250000  0.782258  1
  Na  Na8  1  0.940960  0.509531  0.252395  1
  Na  Na9  1  0.940960  0.990469  0.252395  1
  La  La10  1  0.250000  0.250000  0.221914  1
  La  La11  1  0.750000  0.750000  0.778086  1
  O  O12  1  0.009225  0.250000  0.003779  1
  O  O13  1  0.250000  0.493635  0.443544  1
  O  O14  1  0.250000  0.006365  0.443544  1
  O  O15  1  0.490775  0.250000  0.003779  1
  O  O16  1  0.509225  0.750000  0.996221  1
  O  O17  1  0.750000  0.506365  0.556456  1
  O  O18  1  0.750000  0.993635  0.556456  1
  O  O19  1  0.990775  0.750000  0.996221  1
