# generated using pymatgen
data_H9C2N11O8
_symmetry_space_group_name_H-M   'P 1'
_cell_length_a   7.33686512
_cell_length_b   7.33686512
_cell_length_c   13.21695235
_cell_angle_alpha   68.67272411
_cell_angle_beta   111.32727589
_cell_angle_gamma   110.98693401
_symmetry_Int_Tables_number   1
_chemical_formula_structural   H9C2N11O8
_chemical_formula_sum   'H18 C4 N22 O16'
_cell_volume   596.07124051
_cell_formula_units_Z   2
loop_
 _symmetry_equiv_pos_site_id
 _symmetry_equiv_pos_as_xyz
  1  'x, y, z'
loop_
 _atom_site_type_symbol
 _atom_site_label
 _atom_site_symmetry_multiplicity
 _atom_site_fract_x
 _atom_site_fract_y
 _atom_site_fract_z
 _atom_site_occupancy
  H  H0  1  0.902405  0.902405  0.250000  1
  H  H1  1  0.097595  0.097595  0.750000  1
  H  H2  1  0.958913  0.824476  0.115860  1
  H  H3  1  0.824476  0.958913  0.384140  1
  H  H4  1  0.041087  0.175524  0.884140  1
  H  H5  1  0.175524  0.041087  0.615860  1
  H  H6  1  0.212003  0.867566  0.120843  1
  H  H7  1  0.867566  0.212003  0.379157  1
  H  H8  1  0.787997  0.132434  0.879157  1
  H  H9  1  0.132434  0.787997  0.620843  1
  H  H10  1  0.423372  0.203824  0.292749  1
  H  H11  1  0.203824  0.423372  0.207251  1
  H  H12  1  0.576628  0.796176  0.707251  1
  H  H13  1  0.796176  0.576628  0.792749  1
  H  H14  1  0.452824  0.136506  0.186861  1
  H  H15  1  0.136506  0.452824  0.313139  1
  H  H16  1  0.547176  0.863494  0.813139  1
  H  H17  1  0.863494  0.547176  0.686861  1
  C  C18  1  0.169544  0.022113  0.206907  1
  C  C19  1  0.022113  0.169544  0.293093  1
  C  C20  1  0.830456  0.977887  0.793093  1
  C  C21  1  0.977887  0.830456  0.706907  1
  N  N22  1  0.630544  0.339358  0.413035  1
  N  N23  1  0.339358  0.630544  0.086965  1
  N  N24  1  0.369456  0.660642  0.586965  1
  N  N25  1  0.660642  0.369456  0.913035  1
  N  N26  1  0.026159  0.026159  0.250000  1
  N  N27  1  0.973841  0.973841  0.750000  1
  N  N28  1  0.107921  0.895755  0.143279  1
  N  N29  1  0.895755  0.107921  0.356721  1
  N  N30  1  0.892079  0.104245  0.856721  1
  N  N31  1  0.104245  0.892079  0.643279  1
  N  N32  1  0.358919  0.133550  0.228892  1
  N  N33  1  0.133550  0.358919  0.271108  1
  N  N34  1  0.641081  0.866450  0.771108  1
  N  N35  1  0.866450  0.641081  0.728892  1
  N  N36  1  0.559754  0.271232  0.508673  1
  N  N37  1  0.271232  0.559754  0.991327  1
  N  N38  1  0.440246  0.728768  0.491327  1
  N  N39  1  0.728768  0.440246  0.008673  1
  N  N40  1  0.772428  0.521512  0.400276  1
  N  N41  1  0.521512  0.772428  0.099724  1
  N  N42  1  0.227572  0.478488  0.599724  1
  N  N43  1  0.478488  0.227572  0.900276  1
  O  O44  1  0.652791  0.326909  0.596040  1
  O  O45  1  0.326909  0.652791  0.903960  1
  O  O46  1  0.347209  0.673091  0.403960  1
  O  O47  1  0.673091  0.347209  0.096040  1
  O  O48  1  0.396517  0.136675  0.498176  1
  O  O49  1  0.136675  0.396517  0.001824  1
  O  O50  1  0.603483  0.863325  0.501824  1
  O  O51  1  0.863325  0.603483  0.998176  1
  O  O52  1  0.821202  0.642822  0.457498  1
  O  O53  1  0.642822  0.821202  0.042502  1
  O  O54  1  0.178798  0.357178  0.542502  1
  O  O55  1  0.357178  0.178798  0.957498  1
  O  O56  1  0.843916  0.559927  0.318921  1
  O  O57  1  0.559927  0.843916  0.181079  1
  O  O58  1  0.156084  0.440073  0.681079  1
  O  O59  1  0.440073  0.156084  0.818921  1
