# generated using pymatgen
data_Li3MnPCO7
_symmetry_space_group_name_H-M   'P 1'
_cell_length_a   5.07680641
_cell_length_b   6.80162219
_cell_length_c   8.79294891
_cell_angle_alpha   84.71625183
_cell_angle_beta   87.61058051
_cell_angle_gamma   95.29358853
_symmetry_Int_Tables_number   1
_chemical_formula_structural   Li3MnPCO7
_chemical_formula_sum   'Li6 Mn2 P2 C2 O14'
_cell_volume   300.65959341
_cell_formula_units_Z   2
loop_
 _symmetry_equiv_pos_site_id
 _symmetry_equiv_pos_as_xyz
  1  'x, y, z'
loop_
 _atom_site_type_symbol
 _atom_site_label
 _atom_site_symmetry_multiplicity
 _atom_site_fract_x
 _atom_site_fract_y
 _atom_site_fract_z
 _atom_site_occupancy
  Li  Li0  1  0.428503  0.970752  0.764817  1
  Li  Li1  1  0.326027  0.609750  0.800010  1
  Li  Li2  1  0.102786  0.275281  0.746866  1
  Li  Li3  1  0.024823  0.846070  0.250919  1
  Li  Li4  1  0.801330  0.511601  0.197676  1
  Li  Li5  1  0.698922  0.150576  0.232977  1
  Mn  Mn6  1  0.881996  0.793319  0.630311  1
  Mn  Mn7  1  0.245523  0.328180  0.367477  1
  P  P8  1  0.717307  0.300647  0.580008  1
  P  P9  1  0.410265  0.820754  0.417857  1
  C  C10  1  0.845567  0.781866  0.938411  1
  C  C11  1  0.281952  0.339552  0.058902  1
  O  O12  1  0.302888  0.346149  0.913183  1
  O  O13  1  0.074920  0.806968  0.863023  1
  O  O14  1  0.636717  0.764475  0.857355  1
  O  O15  1  0.801453  0.108044  0.667906  1
  O  O16  1  0.861168  0.474089  0.656015  1
  O  O17  1  0.409591  0.296426  0.591177  1
  O  O18  1  0.316663  0.808399  0.590577  1
  O  O19  1  0.810938  0.312944  0.407103  1
  O  O20  1  0.717976  0.825029  0.406513  1
  O  O21  1  0.326078  0.013392  0.329851  1
  O  O22  1  0.266379  0.647314  0.341674  1
  O  O23  1  0.490656  0.356918  0.140680  1
  O  O24  1  0.052172  0.314506  0.134662  1
  O  O25  1  0.824870  0.775204  0.084922  1
