# generated using pymatgen
data_Ce3Th3O11
_symmetry_space_group_name_H-M   'P 1'
_cell_length_a   3.93259480
_cell_length_b   6.87375223
_cell_length_c   9.67567407
_cell_angle_alpha   90.04353041
_cell_angle_beta   90.00000000
_cell_angle_gamma   90.00000000
_symmetry_Int_Tables_number   1
_chemical_formula_structural   Ce3Th3O11
_chemical_formula_sum   'Ce3 Th3 O11'
_cell_volume   261.54967180
_cell_formula_units_Z   1
loop_
 _symmetry_equiv_pos_site_id
 _symmetry_equiv_pos_as_xyz
  1  'x, y, z'
loop_
 _atom_site_type_symbol
 _atom_site_label
 _atom_site_symmetry_multiplicity
 _atom_site_fract_x
 _atom_site_fract_y
 _atom_site_fract_z
 _atom_site_occupancy
  Ce  Ce0  1  0.500000  0.830252  0.655865  1
  Ce  Ce1  1  0.500000  0.484527  0.000211  1
  Ce  Ce2  1  0.000000  0.012831  0.006288  1
  Th  Th3  1  0.000000  0.338192  0.672680  1
  Th  Th4  1  0.000000  0.667869  0.328556  1
  Th  Th5  1  0.500000  0.166868  0.335595  1
  O  O6  1  0.500000  0.833072  0.413111  1
  O  O7  1  0.000000  0.331545  0.917959  1
  O  O8  1  0.500000  0.516413  0.758546  1
  O  O9  1  0.000000  0.662085  0.576038  1
  O  O10  1  0.000000  0.980323  0.767787  1
  O  O11  1  0.500000  0.171309  0.589072  1
  O  O12  1  0.000000  0.333960  0.417599  1
  O  O13  1  0.500000  0.497125  0.245316  1
  O  O14  1  0.000000  0.686034  0.065693  1
  O  O15  1  0.000000  0.003082  0.254833  1
  O  O16  1  0.500000  0.151181  0.078185  1
