# generated using pymatgen
data_Li5VO3F2
_symmetry_space_group_name_H-M   'P 1'
_cell_length_a   3.92517726
_cell_length_b   5.35483426
_cell_length_c   6.03919753
_cell_angle_alpha   69.57027966
_cell_angle_beta   90.06650646
_cell_angle_gamma   68.51595995
_symmetry_Int_Tables_number   1
_chemical_formula_structural   Li5VO3F2
_chemical_formula_sum   'Li5 V1 O3 F2'
_cell_volume   109.46904346
_cell_formula_units_Z   1
loop_
 _symmetry_equiv_pos_site_id
 _symmetry_equiv_pos_as_xyz
  1  'x, y, z'
loop_
 _atom_site_type_symbol
 _atom_site_label
 _atom_site_symmetry_multiplicity
 _atom_site_fract_x
 _atom_site_fract_y
 _atom_site_fract_z
 _atom_site_occupancy
  Li  Li0  1  0.680771  0.634394  0.850270  1
  Li  Li1  1  0.689909  0.618672  0.346799  1
  Li  Li2  1  0.286060  0.423775  0.687556  1
  Li  Li3  1  0.312315  0.373335  0.127349  1
  Li  Li4  1  0.967187  0.055835  0.536716  1
  V  V5  1  0.995735  0.006214  0.989570  1
  O  O6  1  0.136672  0.722407  0.824190  1
  O  O7  1  0.496108  0.005749  0.061758  1
  O  O8  1  0.829918  0.336220  0.687507  1
  F  F9  1  0.181572  0.635151  0.331152  1
  F  F10  1  0.844586  0.309199  0.202034  1
