# generated using pymatgen
data_Be(CoO2)2
_symmetry_space_group_name_H-M   'P 1'
_cell_length_a   8.99803460
_cell_length_b   9.30374110
_cell_length_c   2.89340037
_cell_angle_alpha   90.00001962
_cell_angle_beta   89.99999851
_cell_angle_gamma   89.99401863
_symmetry_Int_Tables_number   1
_chemical_formula_structural   Be(CoO2)2
_chemical_formula_sum   'Be4 Co8 O16'
_cell_volume   242.22212280
_cell_formula_units_Z   4
loop_
 _symmetry_equiv_pos_site_id
 _symmetry_equiv_pos_as_xyz
  1  'x, y, z'
loop_
 _atom_site_type_symbol
 _atom_site_label
 _atom_site_symmetry_multiplicity
 _atom_site_fract_x
 _atom_site_fract_y
 _atom_site_fract_z
 _atom_site_occupancy
  Be  Be0  1  0.145946  0.389355  0.750000  1
  Be  Be1  1  0.354033  0.889355  0.250000  1
  Be  Be2  1  0.645969  0.110650  0.750000  1
  Be  Be3  1  0.854043  0.610635  0.249999  1
  Co  Co4  1  0.129158  0.701256  0.750000  1
  Co  Co5  1  0.119021  0.070262  0.750000  1
  Co  Co6  1  0.380979  0.570258  0.250000  1
  Co  Co7  1  0.370840  0.201255  0.250000  1
  Co  Co8  1  0.629162  0.798751  0.750000  1
  Co  Co9  1  0.619030  0.429742  0.750000  1
  Co  Co10  1  0.880977  0.929740  0.250000  1
  Co  Co11  1  0.870837  0.298738  0.250000  1
  O  O12  1  0.016621  0.885367  0.750000  1
  O  O13  1  0.979259  0.374629  0.749999  1
  O  O14  1  0.265570  0.748232  0.250000  1
  O  O15  1  0.245022  0.526748  0.750000  1
  O  O16  1  0.254978  0.026769  0.250000  1
  O  O17  1  0.234404  0.248224  0.749999  1
  O  O18  1  0.520719  0.874636  0.250000  1
  O  O19  1  0.483395  0.385359  0.250000  1
  O  O20  1  0.516626  0.614644  0.750000  1
  O  O21  1  0.479292  0.125380  0.750000  1
  O  O22  1  0.765592  0.751774  0.250000  1
  O  O23  1  0.745021  0.973234  0.750000  1
  O  O24  1  0.754977  0.473244  0.250000  1
  O  O25  1  0.734431  0.251770  0.750000  1
  O  O26  1  0.020726  0.625358  0.250000  1
  O  O27  1  0.983372  0.114636  0.250001  1
