# generated using pymatgen
data_NaH3(CO2)2
_symmetry_space_group_name_H-M   'P 1'
_cell_length_a   9.16149842
_cell_length_b   9.43160187
_cell_length_c   9.72465004
_cell_angle_alpha   83.23565415
_cell_angle_beta   111.57869335
_cell_angle_gamma   109.82032197
_symmetry_Int_Tables_number   1
_chemical_formula_structural   NaH3(CO2)2
_chemical_formula_sum   'Na6 H18 C12 O24'
_cell_volume   735.07888278
_cell_formula_units_Z   6
loop_
 _symmetry_equiv_pos_site_id
 _symmetry_equiv_pos_as_xyz
  1  'x, y, z'
loop_
 _atom_site_type_symbol
 _atom_site_label
 _atom_site_symmetry_multiplicity
 _atom_site_fract_x
 _atom_site_fract_y
 _atom_site_fract_z
 _atom_site_occupancy
  Na  Na0  1  0.671929  0.658702  0.802675  1
  Na  Na1  1  0.328071  0.341298  0.197325  1
  Na  Na2  1  0.307554  0.542200  0.475630  1
  Na  Na3  1  0.692446  0.457800  0.524370  1
  Na  Na4  1  0.696876  0.066483  0.649815  1
  Na  Na5  1  0.303124  0.933517  0.350185  1
  H  H6  1  0.706560  0.778099  0.383688  1
  H  H7  1  0.293440  0.221901  0.616312  1
  H  H8  1  0.456391  0.799968  0.950255  1
  H  H9  1  0.543609  0.200032  0.049745  1
  H  H10  1  0.393455  0.014700  0.711912  1
  H  H11  1  0.606545  0.985301  0.288088  1
  H  H12  1  0.158668  0.014054  0.901565  1
  H  H13  1  0.841332  0.985946  0.098435  1
  H  H14  1  0.151326  0.597080  0.003949  1
  H  H15  1  0.848674  0.402920  0.996051  1
  H  H16  1  0.062528  0.798915  0.003986  1
  H  H17  1  0.937472  0.201085  0.996014  1
  H  H18  1  0.156591  0.373759  0.765939  1
  H  H19  1  0.843409  0.626241  0.234061  1
  H  H20  1  0.066185  0.827864  0.568853  1
  H  H21  1  0.933815  0.172136  0.431147  1
  H  H22  1  0.500000  0.500000  0.000000  1
  H  H23  1  0.000000  0.500000  0.500000  1
  C  C24  1  0.630646  0.783333  0.448536  1
  C  C25  1  0.369354  0.216667  0.551464  1
  C  C26  1  0.477825  0.873266  0.857471  1
  C  C27  1  0.522175  0.126734  0.142529  1
  C  C28  1  0.026800  0.951203  0.842490  1
  C  C29  1  0.973200  0.048797  0.157510  1
  C  C30  1  0.197783  0.639505  0.119557  1
  C  C31  1  0.802217  0.360495  0.880443  1
  C  C32  1  0.291402  0.434572  0.814149  1
  C  C33  1  0.708598  0.565428  0.185851  1
  C  C34  1  0.086507  0.728183  0.538756  1
  C  C35  1  0.913493  0.271817  0.461244  1
  O  O36  1  0.606439  0.679999  0.539944  1
  O  O37  1  0.393561  0.320001  0.460056  1
  O  O38  1  0.575824  0.895863  0.421970  1
  O  O39  1  0.424176  0.104137  0.578030  1
  O  O40  1  0.585816  0.874954  0.809020  1
  O  O41  1  0.414184  0.125046  0.190980  1
  O  O42  1  0.377863  0.955018  0.807745  1
  O  O43  1  0.622137  0.044982  0.192255  1
  O  O44  1  0.943041  0.998808  0.728109  1
  O  O45  1  0.056959  0.001192  0.271891  1
  O  O46  1  0.968359  0.822591  0.904129  1
  O  O47  1  0.031641  0.177409  0.095871  1
  O  O48  1  0.269849  0.566483  0.221990  1
  O  O49  1  0.730151  0.433517  0.778010  1
  O  O50  1  0.171372  0.761578  0.133887  1
  O  O51  1  0.828628  0.238422  0.866113  1
  O  O52  1  0.371957  0.506617  0.735138  1
  O  O53  1  0.628043  0.493383  0.264862  1
  O  O54  1  0.353684  0.423004  0.956947  1
  O  O55  1  0.646316  0.576996  0.043053  1
  O  O56  1  0.204831  0.741890  0.498639  1
  O  O57  1  0.795169  0.258110  0.501361  1
  O  O58  1  0.977211  0.600804  0.549227  1
  O  O59  1  0.022789  0.399196  0.450773  1
