# generated using pymatgen
data_LiBiB2O5
_symmetry_space_group_name_H-M   'P 1'
_cell_length_a   13.51692296
_cell_length_b   4.42455323
_cell_length_c   11.56721228
_cell_angle_alpha   90.00000000
_cell_angle_beta   90.00000000
_cell_angle_gamma   90.00000000
_symmetry_Int_Tables_number   1
_chemical_formula_structural   LiBiB2O5
_chemical_formula_sum   'Li8 Bi8 B16 O40'
_cell_volume   691.79268995
_cell_formula_units_Z   8
loop_
 _symmetry_equiv_pos_site_id
 _symmetry_equiv_pos_as_xyz
  1  'x, y, z'
loop_
 _atom_site_type_symbol
 _atom_site_label
 _atom_site_symmetry_multiplicity
 _atom_site_fract_x
 _atom_site_fract_y
 _atom_site_fract_z
 _atom_site_occupancy
  Li  Li0  1  0.093893  0.709228  0.905787  1
  Li  Li1  1  0.155062  0.271512  0.737817  1
  Li  Li2  1  0.344938  0.771512  0.237817  1
  Li  Li3  1  0.406107  0.209228  0.405787  1
  Li  Li4  1  0.593893  0.790772  0.905787  1
  Li  Li5  1  0.655062  0.228488  0.737817  1
  Li  Li6  1  0.844938  0.728488  0.237817  1
  Li  Li7  1  0.906107  0.290772  0.405787  1
  Bi  Bi8  1  0.025970  0.831445  0.640141  1
  Bi  Bi9  1  0.220820  0.203249  0.004191  1
  Bi  Bi10  1  0.279180  0.703249  0.504191  1
  Bi  Bi11  1  0.474030  0.331445  0.140141  1
  Bi  Bi12  1  0.525970  0.668555  0.640141  1
  Bi  Bi13  1  0.720820  0.296751  0.004191  1
  Bi  Bi14  1  0.779180  0.796751  0.504191  1
  Bi  Bi15  1  0.974030  0.168555  0.140141  1
  B  B16  1  0.017969  0.806054  0.373613  1
  B  B17  1  0.107390  0.297710  0.453753  1
  B  B18  1  0.139680  0.720202  0.194976  1
  B  B19  1  0.231576  0.217147  0.273930  1
  B  B20  1  0.268424  0.717147  0.773930  1
  B  B21  1  0.360320  0.220202  0.694976  1
  B  B22  1  0.392610  0.797710  0.953753  1
  B  B23  1  0.482031  0.306054  0.873613  1
  B  B24  1  0.517969  0.693946  0.373613  1
  B  B25  1  0.607390  0.202290  0.453753  1
  B  B26  1  0.639680  0.779798  0.194976  1
  B  B27  1  0.731576  0.282853  0.273930  1
  B  B28  1  0.768424  0.782853  0.773930  1
  B  B29  1  0.860320  0.279797  0.694976  1
  B  B30  1  0.892610  0.702290  0.953753  1
  B  B31  1  0.982031  0.193946  0.873613  1
  O  O32  1  0.033741  0.132134  0.389497  1
  O  O33  1  0.089294  0.272183  0.896039  1
  O  O34  1  0.035973  0.737404  0.249080  1
  O  O35  1  0.081351  0.632831  0.454595  1
  O  O36  1  0.118582  0.208450  0.574474  1
  O  O37  1  0.126234  0.827220  0.073844  1
  O  O38  1  0.167014  0.391404  0.192321  1
  O  O39  1  0.211451  0.286604  0.399119  1
  O  O40  1  0.161512  0.776545  0.752685  1
  O  O41  1  0.213303  0.889974  0.258786  1
  O  O42  1  0.286697  0.389974  0.758786  1
  O  O43  1  0.338488  0.276545  0.252685  1
  O  O44  1  0.288549  0.786604  0.899119  1
  O  O45  1  0.332986  0.891404  0.692321  1
  O  O46  1  0.373766  0.327220  0.573844  1
  O  O47  1  0.381418  0.708450  0.074474  1
  O  O48  1  0.418649  0.132831  0.954595  1
  O  O49  1  0.464027  0.237404  0.749080  1
  O  O50  1  0.410706  0.772183  0.396039  1
  O  O51  1  0.466259  0.632134  0.889497  1
  O  O52  1  0.533741  0.367866  0.389497  1
  O  O53  1  0.589294  0.227817  0.896039  1
  O  O54  1  0.535973  0.762596  0.249080  1
  O  O55  1  0.581351  0.867169  0.454595  1
  O  O56  1  0.618582  0.291550  0.574474  1
  O  O57  1  0.626234  0.672780  0.073844  1
  O  O58  1  0.667014  0.108596  0.192321  1
  O  O59  1  0.711451  0.213396  0.399119  1
  O  O60  1  0.661512  0.723455  0.752685  1
  O  O61  1  0.713303  0.610026  0.258786  1
  O  O62  1  0.786697  0.110026  0.758786  1
  O  O63  1  0.838488  0.223455  0.252685  1
  O  O64  1  0.788549  0.713396  0.899119  1
  O  O65  1  0.832986  0.608596  0.692321  1
  O  O66  1  0.873766  0.172780  0.573844  1
  O  O67  1  0.881418  0.791550  0.074474  1
  O  O68  1  0.918649  0.367169  0.954595  1
  O  O69  1  0.964027  0.262596  0.749080  1
  O  O70  1  0.910706  0.727817  0.396039  1
  O  O71  1  0.966259  0.867866  0.889497  1
