# generated using pymatgen
data_Li2Fe2S3
_symmetry_space_group_name_H-M   'P 1'
_cell_length_a   7.35489510
_cell_length_b   6.25931175
_cell_length_c   6.13448638
_cell_angle_alpha   90.00000000
_cell_angle_beta   115.19324374
_cell_angle_gamma   90.00000000
_symmetry_Int_Tables_number   1
_chemical_formula_structural   Li2Fe2S3
_chemical_formula_sum   'Li4 Fe4 S6'
_cell_volume   255.54709182
_cell_formula_units_Z   2
loop_
 _symmetry_equiv_pos_site_id
 _symmetry_equiv_pos_as_xyz
  1  'x, y, z'
loop_
 _atom_site_type_symbol
 _atom_site_label
 _atom_site_symmetry_multiplicity
 _atom_site_fract_x
 _atom_site_fract_y
 _atom_site_fract_z
 _atom_site_occupancy
  Li  Li0  1  0.361676  0.384281  0.585786  1
  Li  Li1  1  0.638324  0.884281  0.914214  1
  Li  Li2  1  0.361676  0.115719  0.085786  1
  Li  Li3  1  0.638324  0.615719  0.414214  1
  Fe  Fe4  1  0.021702  0.641079  0.876943  1
  Fe  Fe5  1  0.021702  0.858921  0.376943  1
  Fe  Fe6  1  0.978298  0.141079  0.623057  1
  Fe  Fe7  1  0.978298  0.358921  0.123057  1
  S  S8  1  0.000000  0.500000  0.500000  1
  S  S9  1  0.000000  0.000000  0.000000  1
  S  S10  1  0.301515  0.018961  0.667183  1
  S  S11  1  0.698485  0.518961  0.832817  1
  S  S12  1  0.301515  0.481039  0.167183  1
  S  S13  1  0.698485  0.981039  0.332817  1
