# generated using pymatgen
data_CoP4O11
_symmetry_space_group_name_H-M   'P 1'
_cell_length_a   9.36114404
_cell_length_b   9.32578960
_cell_length_c   10.78346871
_cell_angle_alpha   108.70194058
_cell_angle_beta   109.00343476
_cell_angle_gamma   90.28531086
_symmetry_Int_Tables_number   1
_chemical_formula_structural   CoP4O11
_chemical_formula_sum   'Co4 P16 O44'
_cell_volume   836.78032906
_cell_formula_units_Z   4
loop_
 _symmetry_equiv_pos_site_id
 _symmetry_equiv_pos_as_xyz
  1  'x, y, z'
loop_
 _atom_site_type_symbol
 _atom_site_label
 _atom_site_symmetry_multiplicity
 _atom_site_fract_x
 _atom_site_fract_y
 _atom_site_fract_z
 _atom_site_occupancy
  Co  Co0  1  0.232479  0.773338  0.503036  1
  Co  Co1  1  0.271913  0.255393  0.020794  1
  Co  Co2  1  0.728087  0.744607  0.979206  1
  Co  Co3  1  0.767521  0.226662  0.496964  1
  P  P4  1  0.252341  0.566242  0.923596  1
  P  P5  1  0.077639  0.235193  0.392407  1
  P  P6  1  0.053249  0.910228  0.247722  1
  P  P7  1  0.082874  0.443838  0.234934  1
  P  P8  1  0.406847  0.101150  0.763908  1
  P  P9  1  0.402786  0.588959  0.719966  1
  P  P10  1  0.417082  0.262115  0.559265  1
  P  P11  1  0.269057  0.901764  0.087467  1
  P  P12  1  0.730943  0.098236  0.912533  1
  P  P13  1  0.582918  0.737885  0.440735  1
  P  P14  1  0.597214  0.411041  0.280034  1
  P  P15  1  0.593153  0.898850  0.236092  1
  P  P16  1  0.917126  0.556162  0.765066  1
  P  P17  1  0.946751  0.089772  0.752278  1
  P  P18  1  0.922361  0.764807  0.607593  1
  P  P19  1  0.747659  0.433758  0.076404  1
  O  O20  1  0.081060  0.504762  0.833670  1
  O  O21  1  0.098474  0.182683  0.821213  1
  O  O22  1  0.010116  0.233659  0.497888  1
  O  O23  1  0.262763  0.747588  0.964035  1
  O  O24  1  0.031834  0.368660  0.334636  1
  O  O25  1  0.032186  0.088011  0.256588  1
  O  O26  1  0.164735  0.914946  0.384580  1
  O  O27  1  0.341496  0.521180  0.819010  1
  O  O28  1  0.270349  0.619562  0.613621  1
  O  O29  1  0.316655  0.948095  0.695696  1
  O  O30  1  0.186616  0.587324  0.322590  1
  O  O31  1  0.121368  0.320727  0.127074  1
  O  O32  1  0.407685  0.208781  0.900529  1
  O  O33  1  0.132444  0.862970  0.128578  1
  O  O34  1  0.259815  0.258138  0.440501  1
  O  O35  1  0.363078  0.188729  0.650476  1
  O  O36  1  0.469271  0.435840  0.646887  1
  O  O37  1  0.537651  0.705154  0.805872  1
  O  O38  1  0.259921  0.030691  0.036211  1
  O  O39  1  0.467164  0.807129  0.497986  1
  O  O40  1  0.306017  0.504422  0.038688  1
  O  O41  1  0.587822  0.090172  0.781765  1
  O  O42  1  0.412178  0.909828  0.218235  1
  O  O43  1  0.693983  0.495578  0.961312  1
  O  O44  1  0.532836  0.192871  0.502014  1
  O  O45  1  0.740079  0.969309  0.963789  1
  O  O46  1  0.462349  0.294846  0.194128  1
  O  O47  1  0.530729  0.564160  0.353113  1
  O  O48  1  0.636922  0.811271  0.349524  1
  O  O49  1  0.740185  0.741862  0.559499  1
  O  O50  1  0.867556  0.137030  0.871422  1
  O  O51  1  0.592315  0.791219  0.099471  1
  O  O52  1  0.878632  0.679272  0.872926  1
  O  O53  1  0.813384  0.412676  0.677410  1
  O  O54  1  0.683345  0.051905  0.304304  1
  O  O55  1  0.729651  0.380438  0.386379  1
  O  O56  1  0.658504  0.478820  0.180989  1
  O  O57  1  0.835265  0.085054  0.615420  1
  O  O58  1  0.967814  0.911989  0.743412  1
  O  O59  1  0.968166  0.631340  0.665364  1
  O  O60  1  0.737237  0.252412  0.035965  1
  O  O61  1  0.989884  0.766341  0.502112  1
  O  O62  1  0.901526  0.817317  0.178787  1
  O  O63  1  0.918940  0.495238  0.166330  1
