# generated using pymatgen
data_BaO
_symmetry_space_group_name_H-M   'P 1'
_cell_length_a   3.93935149
_cell_length_b   52.78578104
_cell_length_c   3.92832840
_cell_angle_alpha   90.00000000
_cell_angle_beta   119.91272989
_cell_angle_gamma   90.00000000
_symmetry_Int_Tables_number   1
_chemical_formula_structural   BaO
_chemical_formula_sum   'Ba16 O16'
_cell_volume   708.04579276
_cell_formula_units_Z   16
loop_
 _symmetry_equiv_pos_site_id
 _symmetry_equiv_pos_as_xyz
  1  'x, y, z'
loop_
 _atom_site_type_symbol
 _atom_site_label
 _atom_site_symmetry_multiplicity
 _atom_site_fract_x
 _atom_site_fract_y
 _atom_site_fract_z
 _atom_site_occupancy
  Ba  Ba0  1  0.053535  0.250000  0.777886  1
  Ba  Ba1  1  0.068717  0.562740  0.280844  1
  Ba  Ba2  1  0.068717  0.937260  0.280844  1
  Ba  Ba3  1  0.336695  0.625266  0.913933  1
  Ba  Ba4  1  0.336695  0.874734  0.913933  1
  Ba  Ba5  1  0.374844  0.187501  0.436041  1
  Ba  Ba6  1  0.374844  0.312499  0.436041  1
  Ba  Ba7  1  0.500029  -0.000000  0.998065  1
  Ba  Ba8  1  0.500029  0.500000  0.998065  1
  Ba  Ba9  1  0.625476  0.687520  0.560198  1
  Ba  Ba10  1  0.625476  0.812480  0.560198  1
  Ba  Ba11  1  0.662404  0.125230  0.075719  1
  Ba  Ba12  1  0.662404  0.374770  0.075719  1
  Ba  Ba13  1  0.931296  0.062739  0.712423  1
  Ba  Ba14  1  0.931296  0.437261  0.712423  1
  Ba  Ba15  1  0.946356  0.750000  0.223615  1
  O  O16  1  0.177717  0.030755  0.335673  1
  O  O17  1  0.316274  0.094433  0.406857  1
  O  O18  1  0.020870  0.156413  0.769472  1
  O  O19  1  0.316274  0.405567  0.406857  1
  O  O20  1  0.020870  0.343587  0.769472  1
  O  O21  1  0.177717  0.469245  0.335673  1
  O  O22  1  0.284281  0.718331  0.894008  1
  O  O23  1  0.284281  0.781669  0.894008  1
  O  O24  1  0.715892  0.218358  0.111484  1
  O  O25  1  0.822383  0.530768  0.659460  1
  O  O26  1  0.822383  0.969232  0.659460  1
  O  O27  1  0.979542  0.656359  0.245093  1
  O  O28  1  0.715892  0.281642  0.111484  1
  O  O29  1  0.683635  0.594428  0.588202  1
  O  O30  1  0.683635  0.905572  0.588202  1
  O  O31  1  0.979542  0.843641  0.245093  1
