# generated using pymatgen
data_Li2Mn2Si2O7
_symmetry_space_group_name_H-M   'P 1'
_cell_length_a   8.54828803
_cell_length_b   13.42035588
_cell_length_c   5.54640029
_cell_angle_alpha   90.00000000
_cell_angle_beta   89.87797540
_cell_angle_gamma   90.00000000
_symmetry_Int_Tables_number   1
_chemical_formula_structural   Li2Mn2Si2O7
_chemical_formula_sum   'Li8 Mn8 Si8 O28'
_cell_volume   636.28751989
_cell_formula_units_Z   4
loop_
 _symmetry_equiv_pos_site_id
 _symmetry_equiv_pos_as_xyz
  1  'x, y, z'
loop_
 _atom_site_type_symbol
 _atom_site_label
 _atom_site_symmetry_multiplicity
 _atom_site_fract_x
 _atom_site_fract_y
 _atom_site_fract_z
 _atom_site_occupancy
  Li  Li0  1  0.117361  0.356722  0.154931  1
  Li  Li1  1  0.167772  0.743115  0.798203  1
  Li  Li2  1  0.332228  0.243115  0.701797  1
  Li  Li3  1  0.382639  0.856722  0.345069  1
  Li  Li4  1  0.617361  0.143278  0.654931  1
  Li  Li5  1  0.667772  0.756885  0.298203  1
  Li  Li6  1  0.832228  0.256885  0.201797  1
  Li  Li7  1  0.882639  0.643278  0.845069  1
  Mn  Mn8  1  0.113224  0.086123  0.343745  1
  Mn  Mn9  1  0.197947  0.490892  0.642431  1
  Mn  Mn10  1  0.302053  0.990892  0.857569  1
  Mn  Mn11  1  0.386776  0.586123  0.156255  1
  Mn  Mn12  1  0.613224  0.413877  0.843745  1
  Mn  Mn13  1  0.697947  0.009108  0.142431  1
  Mn  Mn14  1  0.802053  0.509108  0.357569  1
  Mn  Mn15  1  0.886776  0.913877  0.656255  1
  Si  Si16  1  0.041578  0.882186  0.178525  1
  Si  Si17  1  0.040808  0.673112  0.316476  1
  Si  Si18  1  0.459192  0.173112  0.183524  1
  Si  Si19  1  0.458422  0.382186  0.321475  1
  Si  Si20  1  0.541578  0.617814  0.678525  1
  Si  Si21  1  0.540808  0.826888  0.816476  1
  Si  Si22  1  0.959192  0.326888  0.683524  1
  Si  Si23  1  0.958422  0.117814  0.821475  1
  O  O24  1  0.038583  0.794689  0.393695  1
  O  O25  1  0.001604  0.168458  0.077251  1
  O  O26  1  0.085547  0.035203  0.717001  1
  O  O27  1  0.067667  0.619521  0.581996  1
  O  O28  1  0.131103  0.357171  0.796634  1
  O  O29  1  0.176848  0.658276  0.113629  1
  O  O30  1  0.212966  0.938453  0.191446  1
  O  O31  1  0.287034  0.438453  0.308554  1
  O  O32  1  0.323152  0.158276  0.386371  1
  O  O33  1  0.368897  0.857171  0.703366  1
  O  O34  1  0.432333  0.119521  0.918004  1
  O  O35  1  0.414453  0.535203  0.782999  1
  O  O36  1  0.498396  0.668458  0.422749  1
  O  O37  1  0.461417  0.294689  0.106305  1
  O  O38  1  0.538583  0.705311  0.893695  1
  O  O39  1  0.501604  0.331542  0.577251  1
  O  O40  1  0.585547  0.464797  0.217001  1
  O  O41  1  0.567667  0.880479  0.081996  1
  O  O42  1  0.631103  0.142828  0.296634  1
  O  O43  1  0.676848  0.841724  0.613629  1
  O  O44  1  0.712966  0.561547  0.691446  1
  O  O45  1  0.787034  0.061547  0.808554  1
  O  O46  1  0.823152  0.341724  0.886371  1
  O  O47  1  0.868897  0.642829  0.203366  1
  O  O48  1  0.932333  0.380479  0.418004  1
  O  O49  1  0.914453  0.964797  0.282999  1
  O  O50  1  0.998396  0.831542  0.922749  1
  O  O51  1  0.961417  0.205311  0.606305  1
