# generated using pymatgen
data_Ni2P4C11S2(OF8)3
_symmetry_space_group_name_H-M   'P 1'
_cell_length_a   10.59161354
_cell_length_b   14.41495188
_cell_length_c   19.00835497
_cell_angle_alpha   90.00000000
_cell_angle_beta   90.00000000
_cell_angle_gamma   90.00000000
_symmetry_Int_Tables_number   1
_chemical_formula_structural   Ni2P4C11S2(OF8)3
_chemical_formula_sum   'Ni8 P16 C44 S8 O12 F96'
_cell_volume   2902.15000747
_cell_formula_units_Z   4
loop_
 _symmetry_equiv_pos_site_id
 _symmetry_equiv_pos_as_xyz
  1  'x, y, z'
loop_
 _atom_site_type_symbol
 _atom_site_label
 _atom_site_symmetry_multiplicity
 _atom_site_fract_x
 _atom_site_fract_y
 _atom_site_fract_z
 _atom_site_occupancy
  Ni  Ni0  1  0.008473  0.202284  0.181981  1
  Ni  Ni1  1  0.008473  0.797716  0.681981  1
  Ni  Ni2  1  0.991527  0.202284  0.318019  1
  Ni  Ni3  1  0.491527  0.702284  0.181981  1
  Ni  Ni4  1  0.508473  0.297716  0.818019  1
  Ni  Ni5  1  0.991527  0.797716  0.818019  1
  Ni  Ni6  1  0.491527  0.297716  0.681981  1
  Ni  Ni7  1  0.508473  0.702284  0.318019  1
  P  P8  1  0.139336  0.902163  0.836602  1
  P  P9  1  0.299416  0.351888  0.680192  1
  P  P10  1  0.200584  0.851888  0.680192  1
  P  P11  1  0.799416  0.148112  0.319808  1
  P  P12  1  0.360664  0.402163  0.836602  1
  P  P13  1  0.200584  0.148112  0.180192  1
  P  P14  1  0.139336  0.097837  0.336602  1
  P  P15  1  0.860664  0.902163  0.663398  1
  P  P16  1  0.700584  0.351888  0.819808  1
  P  P17  1  0.799416  0.851888  0.819808  1
  P  P18  1  0.639336  0.402163  0.663398  1
  P  P19  1  0.299416  0.648112  0.180192  1
  P  P20  1  0.860664  0.097837  0.163398  1
  P  P21  1  0.700584  0.648112  0.319808  1
  P  P22  1  0.360664  0.597837  0.336602  1
  P  P23  1  0.639336  0.597837  0.163398  1
  C  C24  1  0.823350  0.746451  0.323881  1
  C  C25  1  0.000000  0.699196  0.750000  1
  C  C26  1  0.250091  0.369909  0.913206  1
  C  C27  1  0.823350  0.253549  0.823881  1
  C  C28  1  0.323350  0.246451  0.176119  1
  C  C29  1  0.892985  0.973108  0.132808  1
  C  C30  1  0.176650  0.253549  0.676119  1
  C  C31  1  0.502315  0.222996  0.607037  1
  C  C32  1  0.749909  0.630091  0.086794  1
  C  C33  1  0.497685  0.222996  0.892963  1
  C  C34  1  0.234993  0.422255  0.601954  1
  C  C35  1  0.002315  0.722996  0.892963  1
  C  C36  1  0.676650  0.753549  0.823881  1
  C  C37  1  0.392985  0.473108  0.367192  1
  C  C38  1  0.765007  0.577745  0.398046  1
  C  C39  1  0.734993  0.922255  0.898046  1
  C  C40  1  0.676650  0.246451  0.323881  1
  C  C41  1  0.323350  0.753549  0.676119  1
  C  C42  1  0.749909  0.369909  0.586794  1
  C  C43  1  0.500000  0.199196  0.750000  1
  C  C44  1  0.892985  0.026892  0.632808  1
  C  C45  1  0.734993  0.077745  0.398046  1
  C  C46  1  0.750091  0.130091  0.086794  1
  C  C47  1  0.607015  0.473108  0.132808  1
  C  C48  1  0.497685  0.777004  0.392963  1
  C  C49  1  0.392985  0.526892  0.867192  1
  C  C50  1  0.107015  0.026892  0.867192  1
  C  C51  1  0.500000  0.800804  0.250000  1
  C  C52  1  0.234993  0.577745  0.101954  1
  C  C53  1  0.997685  0.722996  0.607037  1
  C  C54  1  0.000000  0.300804  0.250000  1
  C  C55  1  0.750091  0.869909  0.586794  1
  C  C56  1  0.502315  0.777004  0.107037  1
  C  C57  1  0.249909  0.869909  0.913206  1
  C  C58  1  0.249909  0.130091  0.413206  1
  C  C59  1  0.265007  0.077745  0.101954  1
  C  C60  1  0.107015  0.973108  0.367192  1
  C  C61  1  0.250091  0.630091  0.413206  1
  C  C62  1  0.176650  0.746451  0.176119  1
  C  C63  1  0.607015  0.526892  0.632808  1
  C  C64  1  0.765007  0.422255  0.898046  1
  C  C65  1  0.997685  0.277004  0.107037  1
  C  C66  1  0.265007  0.922255  0.601954  1
  C  C67  1  0.002315  0.277004  0.392963  1
  S  S68  1  0.219686  0.565920  0.260985  1
  S  S69  1  0.219686  0.434080  0.760985  1
  S  S70  1  0.719686  0.934080  0.739015  1
  S  S71  1  0.780314  0.434080  0.739015  1
  S  S72  1  0.280314  0.065920  0.260985  1
  S  S73  1  0.280314  0.934080  0.760985  1
  S  S74  1  0.719686  0.065920  0.239015  1
  S  S75  1  0.780314  0.565920  0.239015  1
  O  O76  1  0.495426  0.825536  0.441411  1
  O  O77  1  0.000000  0.617489  0.750000  1
  O  O78  1  0.500000  0.117489  0.750000  1
  O  O79  1  0.504574  0.825536  0.058589  1
  O  O80  1  0.995426  0.674464  0.558589  1
  O  O81  1  0.004574  0.325536  0.441411  1
  O  O82  1  0.500000  0.882511  0.250000  1
  O  O83  1  0.504574  0.174464  0.558589  1
  O  O84  1  0.004574  0.674464  0.941411  1
  O  O85  1  0.995426  0.325536  0.058589  1
  O  O86  1  0.000000  0.382511  0.250000  1
  O  O87  1  0.495426  0.174464  0.941411  1
  F  F88  1  0.556303  0.526184  0.567167  1
  F  F89  1  0.211806  0.081296  0.868592  1
  F  F90  1  0.110161  0.557162  0.106039  1
  F  F91  1  0.254286  0.626814  0.041725  1
  F  F92  1  0.389839  0.057162  0.106039  1
  F  F93  1  0.195927  0.713324  0.398347  1
  F  F94  1  0.181764  0.139935  0.473460  1
  F  F95  1  0.254286  0.373186  0.541725  1
  F  F96  1  0.211806  0.918704  0.368592  1
  F  F97  1  0.711806  0.581296  0.631408  1
  F  F98  1  0.556303  0.473816  0.067167  1
  F  F99  1  0.201052  0.996403  0.097189  1
  F  F100  1  0.701052  0.496403  0.402811  1
  F  F101  1  0.389839  0.942838  0.606039  1
  F  F102  1  0.201052  0.003597  0.597189  1
  F  F103  1  0.554620  0.218150  0.324155  1
  F  F104  1  0.610161  0.942838  0.893961  1
  F  F105  1  0.693374  0.697731  0.766791  1
  F  F106  1  0.977180  0.933075  0.177412  1
  F  F107  1  0.943697  0.026184  0.567167  1
  F  F108  1  0.193374  0.197731  0.733209  1
  F  F109  1  0.306626  0.302269  0.233209  1
  F  F110  1  0.804073  0.713324  0.101653  1
  F  F111  1  0.054620  0.281850  0.675845  1
  F  F112  1  0.788194  0.081296  0.631408  1
  F  F113  1  0.054620  0.718150  0.175845  1
  F  F114  1  0.318236  0.639935  0.473460  1
  F  F115  1  0.943697  0.973816  0.067167  1
  F  F116  1  0.298948  0.496403  0.097189  1
  F  F117  1  0.554620  0.781850  0.824155  1
  F  F118  1  0.745714  0.373186  0.958275  1
  F  F119  1  0.788194  0.918704  0.131408  1
  F  F120  1  0.843834  0.568149  0.074357  1
  F  F121  1  0.754286  0.873186  0.958275  1
  F  F122  1  0.245714  0.126814  0.041725  1
  F  F123  1  0.056303  0.026184  0.932833  1
  F  F124  1  0.681764  0.639935  0.026540  1
  F  F125  1  0.181764  0.860065  0.973460  1
  F  F126  1  0.693374  0.302269  0.266791  1
  F  F127  1  0.656166  0.931851  0.574357  1
  F  F128  1  0.701052  0.503597  0.902811  1
  F  F129  1  0.843834  0.431851  0.574357  1
  F  F130  1  0.798948  0.996403  0.402811  1
  F  F131  1  0.745714  0.626814  0.458275  1
  F  F132  1  0.806626  0.802269  0.266791  1
  F  F133  1  0.522820  0.566925  0.677412  1
  F  F134  1  0.193374  0.802269  0.233209  1
  F  F135  1  0.443697  0.473816  0.432833  1
  F  F136  1  0.803501  0.201746  0.882694  1
  F  F137  1  0.696499  0.701746  0.882694  1
  F  F138  1  0.022820  0.933075  0.322588  1
  F  F139  1  0.945380  0.718150  0.324155  1
  F  F140  1  0.303501  0.701746  0.617306  1
  F  F141  1  0.977180  0.066925  0.677412  1
  F  F142  1  0.818236  0.860065  0.526540  1
  F  F143  1  0.303501  0.298254  0.117306  1
  F  F144  1  0.477180  0.433075  0.322588  1
  F  F145  1  0.803501  0.798254  0.382694  1
  F  F146  1  0.022820  0.066925  0.822588  1
  F  F147  1  0.196499  0.798254  0.117306  1
  F  F148  1  0.477180  0.566925  0.822588  1
  F  F149  1  0.304073  0.213324  0.398347  1
  F  F150  1  0.798948  0.003597  0.902811  1
  F  F151  1  0.196499  0.201746  0.617306  1
  F  F152  1  0.445380  0.781850  0.675845  1
  F  F153  1  0.318236  0.360065  0.973460  1
  F  F154  1  0.056303  0.973816  0.432833  1
  F  F155  1  0.298948  0.503597  0.597189  1
  F  F156  1  0.711806  0.418704  0.131408  1
  F  F157  1  0.110161  0.442838  0.606039  1
  F  F158  1  0.343834  0.068149  0.425643  1
  F  F159  1  0.695927  0.213324  0.101653  1
  F  F160  1  0.156166  0.568149  0.425643  1
  F  F161  1  0.681764  0.360065  0.526540  1
  F  F162  1  0.945380  0.281850  0.824155  1
  F  F163  1  0.610161  0.057162  0.393961  1
  F  F164  1  0.656166  0.068149  0.074357  1
  F  F165  1  0.889839  0.557162  0.393961  1
  F  F166  1  0.443697  0.526184  0.932833  1
  F  F167  1  0.696499  0.298254  0.382694  1
  F  F168  1  0.889839  0.442838  0.893961  1
  F  F169  1  0.343834  0.931851  0.925643  1
  F  F170  1  0.818236  0.139935  0.026540  1
  F  F171  1  0.288194  0.581296  0.868592  1
  F  F172  1  0.245714  0.873186  0.541725  1
  F  F173  1  0.304073  0.786676  0.898347  1
  F  F174  1  0.195927  0.286676  0.898347  1
  F  F175  1  0.306626  0.697731  0.733209  1
  F  F176  1  0.156166  0.431851  0.925643  1
  F  F177  1  0.804073  0.286676  0.601653  1
  F  F178  1  0.695927  0.786676  0.601653  1
  F  F179  1  0.754286  0.126814  0.458275  1
  F  F180  1  0.445380  0.218150  0.175845  1
  F  F181  1  0.806626  0.197731  0.766791  1
  F  F182  1  0.288194  0.418704  0.368592  1
  F  F183  1  0.522820  0.433075  0.177412  1
