# generated using pymatgen
data_Ca2H2S2O9
_symmetry_space_group_name_H-M   'P 1'
_cell_length_a   9.47757164
_cell_length_b   9.46372418
_cell_length_c   9.47757164
_cell_angle_alpha   100.18882468
_cell_angle_beta   136.24203879
_cell_angle_gamma   95.81091014
_symmetry_Int_Tables_number   1
_chemical_formula_structural   Ca2H2S2O9
_chemical_formula_sum   'Ca6 H6 S6 O27'
_cell_volume   544.92017560
_cell_formula_units_Z   3
loop_
 _symmetry_equiv_pos_site_id
 _symmetry_equiv_pos_as_xyz
  1  'x, y, z'
loop_
 _atom_site_type_symbol
 _atom_site_label
 _atom_site_symmetry_multiplicity
 _atom_site_fract_x
 _atom_site_fract_y
 _atom_site_fract_z
 _atom_site_occupancy
  Ca  Ca0  1  0.605959  0.500000  0.105959  1
  Ca  Ca1  1  0.445593  0.443970  0.563855  1
  Ca  Ca2  1  0.119884  0.556030  0.001623  1
  Ca  Ca3  1  0.648233  0.073105  0.050058  1
  Ca  Ca4  1  0.976953  0.926895  0.575128  1
  Ca  Ca5  1  0.124736  0.000000  0.124736  1
  H  H6  1  0.509200  0.911447  0.492215  1
  H  H7  1  0.580769  0.088553  0.597753  1
  H  H8  1  0.245125  0.645451  0.631937  1
  H  H9  1  0.986486  0.354549  0.599674  1
  H  H10  1  0.178218  0.647094  0.427455  1
  H  H11  1  0.780361  0.352906  0.531125  1
  S  S12  1  0.372388  0.253136  0.119309  1
  S  S13  1  0.866173  0.746864  0.119252  1
  S  S14  1  0.703389  0.697400  0.561229  1
  S  S15  1  0.863829  0.302600  0.005990  1
  S  S16  1  0.388043  0.811740  0.024711  1
  S  S17  1  0.212970  0.188260  0.576303  1
  O  O18  1  0.560399  0.249205  0.166863  1
  O  O19  1  0.917658  0.750795  0.311194  1
  O  O20  1  0.181150  0.112937  0.936561  1
  O  O21  1  0.823624  0.887063  0.068213  1
  O  O22  1  0.431921  0.263124  0.316235  1
  O  O23  1  0.053112  0.736876  0.168797  1
  O  O24  1  0.326735  0.391626  0.063044  1
  O  O25  1  0.671418  0.608374  0.935109  1
  O  O26  1  0.766447  0.599480  0.692709  1
  O  O27  1  0.093229  0.400520  0.166967  1
  O  O28  1  0.826814  0.862140  0.705212  1
  O  O29  1  0.843072  0.137860  0.964674  1
  O  O30  1  0.757385  0.665768  0.446582  1
  O  O31  1  0.780814  0.334232  0.091617  1
  O  O32  1  0.466841  0.665893  0.401369  1
  O  O33  1  0.735476  0.334107  0.800948  1
  O  O34  1  0.613340  0.918653  0.223498  1
  O  O35  1  0.304845  0.081347  0.694687  1
  O  O36  1  0.377975  0.650288  0.979700  1
  O  O37  1  0.329413  0.349712  0.727687  1
  O  O38  1  0.246937  0.819310  0.045017  1
  O  O39  1  0.225707  0.180690  0.427627  1
  O  O40  1  0.305675  0.857371  0.838748  1
  O  O41  1  0.981376  0.142629  0.448304  1
  O  O42  1  0.244479  0.595603  0.532369  1
  O  O43  1  0.936766  0.404397  0.648876  1
  O  O44  1  0.463384  0.000000  0.463384  1
