# generated using pymatgen
data_Sr2CaI6
_symmetry_space_group_name_H-M   'P 1'
_cell_length_a   10.26748333
_cell_length_b   16.95954509
_cell_length_c   10.01572316
_cell_angle_alpha   90.00000000
_cell_angle_beta   112.45787647
_cell_angle_gamma   90.00000000
_symmetry_Int_Tables_number   1
_chemical_formula_structural   Sr2CaI6
_chemical_formula_sum   'Sr8 Ca4 I24'
_cell_volume   1611.78823180
_cell_formula_units_Z   4
loop_
 _symmetry_equiv_pos_site_id
 _symmetry_equiv_pos_as_xyz
  1  'x, y, z'
loop_
 _atom_site_type_symbol
 _atom_site_label
 _atom_site_symmetry_multiplicity
 _atom_site_fract_x
 _atom_site_fract_y
 _atom_site_fract_z
 _atom_site_occupancy
  Sr  Sr0  1  0.234080  0.421408  0.046293  1
  Sr  Sr1  1  0.265920  0.921408  0.453707  1
  Sr  Sr2  1  0.280708  0.246025  0.516468  1
  Sr  Sr3  1  0.219292  0.746025  0.983532  1
  Sr  Sr4  1  0.780708  0.253975  0.016468  1
  Sr  Sr5  1  0.719292  0.753975  0.483532  1
  Sr  Sr6  1  0.734080  0.078592  0.546293  1
  Sr  Sr7  1  0.765920  0.578592  0.953707  1
  Ca  Ca8  1  0.205547  0.593657  0.537426  1
  Ca  Ca9  1  0.294453  0.093657  0.962574  1
  Ca  Ca10  1  0.705547  0.906343  0.037426  1
  Ca  Ca11  1  0.794453  0.406343  0.462574  1
  I  I12  1  0.126175  0.412900  0.526272  1
  I  I13  1  0.191509  0.073510  0.616548  1
  I  I14  1  0.109400  0.579693  0.184218  1
  I  I15  1  0.164565  0.771240  0.615059  1
  I  I16  1  0.335435  0.271240  0.884941  1
  I  I17  1  0.034093  0.898164  0.124938  1
  I  I18  1  0.308491  0.573510  0.883452  1
  I  I19  1  0.116732  0.269093  0.170187  1
  I  I20  1  0.383268  0.769093  0.329813  1
  I  I21  1  0.626175  0.087100  0.026272  1
  I  I22  1  0.465907  0.398164  0.375062  1
  I  I23  1  0.609400  0.920307  0.684218  1
  I  I24  1  0.390600  0.079693  0.315782  1
  I  I25  1  0.534093  0.601836  0.624938  1
  I  I26  1  0.373825  0.912900  0.973728  1
  I  I27  1  0.616732  0.230907  0.670187  1
  I  I28  1  0.883268  0.730907  0.829813  1
  I  I29  1  0.691509  0.426490  0.116548  1
  I  I30  1  0.965907  0.101836  0.875062  1
  I  I31  1  0.664565  0.728760  0.115059  1
  I  I32  1  0.835435  0.228760  0.384941  1
  I  I33  1  0.890600  0.420307  0.815782  1
  I  I34  1  0.808491  0.926490  0.383452  1
  I  I35  1  0.873825  0.587100  0.473728  1
