# generated using pymatgen
data_CuH12N2(OF2)2
_symmetry_space_group_name_H-M   'P 1'
_cell_length_a   6.81334207
_cell_length_b   6.81644992
_cell_length_c   30.28747584
_cell_angle_alpha   90.00508305
_cell_angle_beta   91.60791260
_cell_angle_gamma   90.00141664
_symmetry_Int_Tables_number   1
_chemical_formula_structural   CuH12N2(OF2)2
_chemical_formula_sum   'Cu8 H96 N16 O16 F32'
_cell_volume   1406.08146586
_cell_formula_units_Z   8
loop_
 _symmetry_equiv_pos_site_id
 _symmetry_equiv_pos_as_xyz
  1  'x, y, z'
loop_
 _atom_site_type_symbol
 _atom_site_label
 _atom_site_symmetry_multiplicity
 _atom_site_fract_x
 _atom_site_fract_y
 _atom_site_fract_z
 _atom_site_occupancy
  Cu  Cu0  1  0.618050  0.557947  0.812640  1
  Cu  Cu1  1  0.118161  0.942075  0.312714  1
  Cu  Cu2  1  0.381823  0.441956  0.187310  1
  Cu  Cu3  1  0.881768  0.058032  0.687261  1
  Cu  Cu4  1  0.141495  0.250904  0.937232  1
  Cu  Cu5  1  0.641720  0.249137  0.437205  1
  Cu  Cu6  1  0.858458  0.749241  0.062875  1
  Cu  Cu7  1  0.358538  0.750970  0.562788  1
  H  H8  1  0.746055  0.517506  0.904633  1
  H  H9  1  0.246228  0.982655  0.404677  1
  H  H10  1  0.253920  0.482428  0.095359  1
  H  H11  1  0.753839  0.017474  0.595340  1
  H  H12  1  0.513931  0.518267  0.906370  1
  H  H13  1  0.013877  0.981820  0.406358  1
  H  H14  1  0.485972  0.481697  0.093659  1
  H  H15  1  0.986031  0.018201  0.593646  1
  H  H16  1  0.627134  0.681608  0.720304  1
  H  H17  1  0.127135  0.818202  0.220301  1
  H  H18  1  0.372997  0.318363  0.279683  1
  H  H19  1  0.872859  0.181828  0.779688  1
  H  H20  1  0.631901  0.450088  0.719373  1
  H  H21  1  0.132041  0.049997  0.219374  1
  H  H22  1  0.368070  0.549842  0.280599  1
  H  H23  1  0.867946  0.950005  0.780617  1
  H  H24  1  0.891239  0.643188  0.971833  1
  H  H25  1  0.391470  0.856702  0.471805  1
  H  H26  1  0.108652  0.356855  0.028116  1
  H  H27  1  0.608610  0.143365  0.528116  1
  H  H28  1  0.886613  0.876130  0.970534  1
  H  H29  1  0.386884  0.623996  0.470514  1
  H  H30  1  0.113188  0.123727  0.029430  1
  H  H31  1  0.613153  0.375960  0.529408  1
  H  H32  1  0.022430  0.293848  0.846425  1
  H  H33  1  0.522715  0.206339  0.346450  1
  H  H34  1  0.977308  0.706157  0.153650  1
  H  H35  1  0.477439  0.793756  0.653615  1
  H  H36  1  0.253962  0.284324  0.843696  1
  H  H37  1  0.753686  0.215695  0.343696  1
  H  H38  1  0.746276  0.715674  0.156377  1
  H  H39  1  0.246255  0.784278  0.656361  1
  H  H40  1  0.649337  0.127997  0.021121  1
  H  H41  1  0.149390  0.372066  0.521115  1
  H  H42  1  0.350622  0.872110  0.978903  1
  H  H43  1  0.850611  0.627935  0.478885  1
  H  H44  1  0.661897  0.375131  0.019550  1
  H  H45  1  0.161862  0.124818  0.519549  1
  H  H46  1  0.338070  0.624750  0.980478  1
  H  H47  1  0.838119  0.875193  0.480450  1
  H  H48  1  0.514212  0.257491  0.982299  1
  H  H49  1  0.014241  0.242519  0.482290  1
  H  H50  1  0.485772  0.742570  0.017732  1
  H  H51  1  0.985744  0.757477  0.517701  1
  H  H52  1  0.759606  0.239522  0.977617  1
  H  H53  1  0.259589  0.260491  0.477611  1
  H  H54  1  0.240464  0.760513  0.022354  1
  H  H55  1  0.740414  0.739483  0.522384  1
  H  H56  1  0.993278  0.500357  0.770400  1
  H  H57  1  0.493318  0.999666  0.270385  1
  H  H58  1  0.006631  0.499679  0.229599  1
  H  H59  1  0.506690  0.000347  0.729625  1
  H  H60  1  0.077669  0.655206  0.729766  1
  H  H61  1  0.577633  0.844860  0.229738  1
  H  H62  1  0.922399  0.344822  0.270233  1
  H  H63  1  0.422356  0.155224  0.770258  1
  H  H64  1  0.108103  0.408564  0.725441  1
  H  H65  1  0.608102  0.091473  0.225426  1
  H  H66  1  0.891881  0.591432  0.274545  1
  H  H67  1  0.391883  0.908480  0.774571  1
  H  H68  1  0.237199  0.537870  0.764858  1
  H  H69  1  0.737163  0.962119  0.264822  1
  H  H70  1  0.762887  0.462100  0.235150  1
  H  H71  1  0.262869  0.037813  0.735152  1
  H  H72  1  0.744406  0.081745  0.896354  1
  H  H73  1  0.244391  0.418287  0.396376  1
  H  H74  1  0.255605  0.918340  0.103635  1
  H  H75  1  0.755637  0.581645  0.603605  1
  H  H76  1  0.498428  0.047400  0.896574  1
  H  H77  1  0.998503  0.452540  0.396604  1
  H  H78  1  0.501515  0.952633  0.103419  1
  H  H79  1  0.001487  0.547387  0.603391  1
  H  H80  1  0.641062  0.933618  0.858059  1
  H  H81  1  0.141091  0.566349  0.358102  1
  H  H82  1  0.358900  0.066303  0.141917  1
  H  H83  1  0.858932  0.433666  0.641902  1
  H  H84  1  0.596932  0.176632  0.854223  1
  H  H85  1  0.096964  0.323370  0.354192  1
  H  H86  1  0.403040  0.823396  0.145794  1
  H  H87  1  0.903003  0.676722  0.645785  1
  H  H88  1  0.233445  0.743560  0.852727  1
  H  H89  1  0.733435  0.756475  0.352736  1
  H  H90  1  0.766598  0.256439  0.147278  1
  H  H91  1  0.266486  0.243582  0.647259  1
  H  H92  1  0.985135  0.750939  0.853654  1
  H  H93  1  0.485137  0.749083  0.353656  1
  H  H94  1  0.014820  0.249035  0.146347  1
  H  H95  1  0.514827  0.250963  0.646347  1
  H  H96  1  0.111301  0.628212  0.894522  1
  H  H97  1  0.611312  0.871771  0.394541  1
  H  H98  1  0.888695  0.371803  0.105493  1
  H  H99  1  0.388653  0.128234  0.605482  1
  H  H100  1  0.118969  0.874787  0.892702  1
  H  H101  1  0.618966  0.625227  0.392694  1
  H  H102  1  0.881028  0.125246  0.107318  1
  H  H103  1  0.381022  0.374760  0.607295  1
  N  N104  1  0.646775  0.249315  0.999638  1
  N  N105  1  0.146797  0.250686  0.499639  1
  N  N106  1  0.353332  0.750688  0.000330  1
  N  N107  1  0.853193  0.749315  0.500334  1
  N  N108  1  0.103775  0.526439  0.747911  1
  N  N109  1  0.603730  0.973585  0.247893  1
  N  N110  1  0.896224  0.473602  0.252079  1
  N  N111  1  0.396238  0.026388  0.752093  1
  N  N112  1  0.619333  0.061082  0.875951  1
  N  N113  1  0.119329  0.438781  0.375945  1
  N  N114  1  0.380679  0.938818  0.124075  1
  N  N115  1  0.880674  0.561221  0.624056  1
  N  N116  1  0.113174  0.748674  0.873818  1
  N  N117  1  0.613193  0.751348  0.373810  1
  N  N118  1  0.886815  0.251357  0.126213  1
  N  N119  1  0.386767  0.248681  0.626205  1
  O  O120  1  0.625801  0.557588  0.887769  1
  O  O121  1  0.125832  0.941986  0.387649  1
  O  O122  1  0.374147  0.442573  0.112297  1
  O  O123  1  0.874151  0.057581  0.612357  1
  O  O124  1  0.590948  0.563840  0.737586  1
  O  O125  1  0.090561  0.936169  0.237701  1
  O  O126  1  0.409077  0.436120  0.262402  1
  O  O127  1  0.909159  0.063867  0.762330  1
  O  O128  1  0.143307  0.239043  0.010482  1
  O  O129  1  0.643447  0.261060  0.510594  1
  O  O130  1  0.856964  0.760906  0.989345  1
  O  O131  1  0.356699  0.739074  0.489376  1
  O  O132  1  0.142523  0.246942  0.862728  1
  O  O133  1  0.642587  0.252994  0.362627  1
  O  O134  1  0.857430  0.752568  0.137424  1
  O  O135  1  0.357456  0.747381  0.637349  1
  F  F136  1  0.387290  0.738550  0.812533  1
  F  F137  1  0.888019  0.761979  0.312534  1
  F  F138  1  0.612884  0.261315  0.187470  1
  F  F139  1  0.111791  0.238184  0.687435  1
  F  F140  1  0.847840  0.376785  0.811523  1
  F  F141  1  0.347133  0.122547  0.311543  1
  F  F142  1  0.151837  0.623361  0.188462  1
  F  F143  1  0.652859  0.877284  0.688400  1
  F  F144  1  0.437735  0.326452  0.809836  1
  F  F145  1  0.938458  0.172919  0.309874  1
  F  F146  1  0.562537  0.673761  0.190132  1
  F  F147  1  0.061897  0.827418  0.690121  1
  F  F148  1  0.801271  0.785956  0.817245  1
  F  F149  1  0.300689  0.714674  0.317225  1
  F  F150  1  0.198498  0.213631  0.182775  1
  F  F151  1  0.699119  0.285306  0.682756  1
  F  F152  1  0.340932  0.033724  0.937262  1
  F  F153  1  0.841966  0.467278  0.437276  1
  F  F154  1  0.657875  0.967606  0.062758  1
  F  F155  1  0.158351  0.532992  0.562691  1
  F  F156  1  0.943167  0.465604  0.937204  1
  F  F157  1  0.442214  0.033343  0.437167  1
  F  F158  1  0.058205  0.533220  0.062874  1
  F  F159  1  0.557669  0.966123  0.562821  1
  F  F160  1  0.925871  0.057135  0.934477  1
  F  F161  1  0.424646  0.443802  0.434471  1
  F  F162  1  0.075504  0.943962  0.065553  1
  F  F163  1  0.574981  0.556576  0.565469  1
  F  F164  1  0.350422  0.451359  0.942033  1
  F  F165  1  0.851502  0.047615  0.442010  1
  F  F166  1  0.648326  0.547368  0.058035  1
  F  F167  1  0.148823  0.952038  0.558003  1
