# generated using pymatgen
data_Li2FePCO7
_symmetry_space_group_name_H-M   'P 1'
_cell_length_a   16.63003151
_cell_length_b   5.09051532
_cell_length_c   6.51072477
_cell_angle_alpha   89.76786211
_cell_angle_beta   90.54223681
_cell_angle_gamma   85.13874622
_symmetry_Int_Tables_number   1
_chemical_formula_structural   Li2FePCO7
_chemical_formula_sum   'Li8 Fe4 P4 C4 O28'
_cell_volume   549.15445254
_cell_formula_units_Z   4
loop_
 _symmetry_equiv_pos_site_id
 _symmetry_equiv_pos_as_xyz
  1  'x, y, z'
loop_
 _atom_site_type_symbol
 _atom_site_label
 _atom_site_symmetry_multiplicity
 _atom_site_fract_x
 _atom_site_fract_y
 _atom_site_fract_z
 _atom_site_occupancy
  Li  Li0  1  0.048664  0.760863  0.264075  1
  Li  Li1  1  0.137805  0.247828  0.031541  1
  Li  Li2  1  0.363110  0.750333  0.966974  1
  Li  Li3  1  0.451617  0.238418  0.749634  1
  Li  Li4  1  0.548270  0.762003  0.245317  1
  Li  Li5  1  0.638027  0.248181  0.466145  1
  Li  Li6  1  0.861753  0.753147  0.968820  1
  Li  Li7  1  0.952562  0.240541  0.731580  1
  Fe  Fe8  1  0.165512  0.798487  0.738274  1
  Fe  Fe9  1  0.334672  0.201292  0.257381  1
  Fe  Fe10  1  0.665079  0.799244  0.760652  1
  Fe  Fe11  1  0.834652  0.199744  0.265813  1
  P  P12  1  0.210165  0.722051  0.239511  1
  P  P13  1  0.289883  0.277816  0.756968  1
  P  P14  1  0.709612  0.722179  0.251937  1
  P  P15  1  0.790256  0.277480  0.754068  1
  C  C16  1  0.020172  0.703279  0.767521  1
  C  C17  1  0.480007  0.297884  0.251650  1
  C  C18  1  0.520045  0.702983  0.747564  1
  C  C19  1  0.979580  0.296666  0.230446  1
  O  O20  1  0.038251  0.948307  0.749407  1
  O  O21  1  0.051172  0.365695  0.217718  1
  O  O22  1  0.082381  0.526480  0.763960  1
  O  O23  1  0.151242  0.824410  0.063835  1
  O  O24  1  0.160654  0.784106  0.436134  1
  O  O25  1  0.210016  0.144652  0.766991  1
  O  O26  1  0.230260  0.418537  0.217228  1
  O  O27  1  0.269869  0.581138  0.781340  1
  O  O28  1  0.290061  0.855274  0.230484  1
  O  O29  1  0.339187  0.217777  0.559980  1
  O  O30  1  0.348914  0.173620  0.932390  1
  O  O31  1  0.418094  0.473479  0.225713  1
  O  O32  1  0.449307  0.633291  0.776171  1
  O  O33  1  0.461417  0.051908  0.256039  1
  O  O34  1  0.538330  0.949005  0.749205  1
  O  O35  1  0.550930  0.366654  0.275891  1
  O  O36  1  0.581582  0.528078  0.720494  1
  O  O37  1  0.652386  0.781157  0.064400  1
  O  O38  1  0.657926  0.828256  0.436316  1
  O  O39  1  0.710596  0.145564  0.727309  1
  O  O40  1  0.730058  0.419072  0.278648  1
  O  O41  1  0.769740  0.580588  0.777471  1
  O  O42  1  0.789285  0.854062  0.229394  1
  O  O43  1  0.847475  0.217826  0.569246  1
  O  O44  1  0.841715  0.171963  0.941405  1
  O  O45  1  0.917205  0.472552  0.230814  1
  O  O46  1  0.948766  0.634901  0.784692  1
  O  O47  1  0.961741  0.051227  0.247481  1
