# generated using pymatgen
data_Mn6O5F7
_symmetry_space_group_name_H-M   'P 1'
_cell_length_a   4.65680391
_cell_length_b   5.73145477
_cell_length_c   15.66196225
_cell_angle_alpha   90.15645417
_cell_angle_beta   89.15957997
_cell_angle_gamma   89.94450511
_symmetry_Int_Tables_number   1
_chemical_formula_structural   Mn6O5F7
_chemical_formula_sum   'Mn12 O10 F14'
_cell_volume   417.97512017
_cell_formula_units_Z   2
loop_
 _symmetry_equiv_pos_site_id
 _symmetry_equiv_pos_as_xyz
  1  'x, y, z'
loop_
 _atom_site_type_symbol
 _atom_site_label
 _atom_site_symmetry_multiplicity
 _atom_site_fract_x
 _atom_site_fract_y
 _atom_site_fract_z
 _atom_site_occupancy
  Mn  Mn0  1  0.058411  0.158233  0.413970  1
  Mn  Mn1  1  0.006259  0.844175  0.243276  1
  Mn  Mn2  1  0.002686  0.148149  0.077161  1
  Mn  Mn3  1  0.001795  0.158494  0.742203  1
  Mn  Mn4  1  0.024046  0.861259  0.579013  1
  Mn  Mn5  1  0.036826  0.860468  0.908986  1
  Mn  Mn6  1  0.508674  0.335714  0.930281  1
  Mn  Mn7  1  0.496414  0.336523  0.587339  1
  Mn  Mn8  1  0.494524  0.343799  0.251093  1
  Mn  Mn9  1  0.509232  0.656170  0.092067  1
  Mn  Mn10  1  0.488411  0.652797  0.424048  1
  Mn  Mn11  1  0.497931  0.648420  0.752104  1
  O  O12  1  0.231278  0.106823  0.300611  1
  O  O13  1  0.217679  0.111474  0.636169  1
  O  O14  1  0.223330  0.118492  0.970345  1
  O  O15  1  0.215944  0.887613  0.133923  1
  O  O16  1  0.235170  0.889598  0.472923  1
  O  O17  1  0.225070  0.890972  0.799632  1
  O  O18  1  0.295692  0.391354  0.480124  1
  O  O19  1  0.720552  0.380258  0.033892  1
  O  O20  1  0.707228  0.616781  0.198628  1
  O  O21  1  0.707591  0.374316  0.694991  1
  F  F22  1  0.237629  0.387980  0.146107  1
  F  F23  1  0.250464  0.597051  0.311705  1
  F  F24  1  0.251798  0.607464  0.644430  1
  F  F25  1  0.268838  0.393393  0.822016  1
  F  F26  1  0.276026  0.624879  0.983587  1
  F  F27  1  0.744344  0.387781  0.364066  1
  F  F28  1  0.752289  0.621268  0.534268  1
  F  F29  1  0.743249  0.612545  0.866631  1
  F  F30  1  0.764480  0.877019  0.357906  1
  F  F31  1  0.750898  0.116884  0.184768  1
  F  F32  1  0.773082  0.127002  0.517283  1
  F  F33  1  0.764045  0.879812  0.012046  1
  F  F34  1  0.761957  0.121815  0.850189  1
  F  F35  1  0.756156  0.873225  0.682220  1
