# generated using pymatgen
data_Zr2N2O
_symmetry_space_group_name_H-M   'P 1'
_cell_length_a   8.88664349
_cell_length_b   8.86917951
_cell_length_c   8.86138871
_cell_angle_alpha   109.31487378
_cell_angle_beta   109.41995798
_cell_angle_gamma   109.58025823
_symmetry_Int_Tables_number   1
_chemical_formula_structural   Zr2N2O
_chemical_formula_sum   'Zr16 N16 O8'
_cell_volume   538.30266115
_cell_formula_units_Z   8
loop_
 _symmetry_equiv_pos_site_id
 _symmetry_equiv_pos_as_xyz
  1  'x, y, z'
loop_
 _atom_site_type_symbol
 _atom_site_label
 _atom_site_symmetry_multiplicity
 _atom_site_fract_x
 _atom_site_fract_y
 _atom_site_fract_z
 _atom_site_occupancy
  Zr  Zr0  1  0.499491  0.999015  0.987812  1
  Zr  Zr1  1  0.749517  0.291469  0.541819  1
  Zr  Zr2  1  0.720151  0.472202  0.249066  1
  Zr  Zr3  1  0.217043  0.960528  0.249134  1
  Zr  Zr4  1  0.249669  0.213156  0.953590  1
  Zr  Zr5  1  0.997591  0.508151  0.996051  1
  Zr  Zr6  1  0.966018  0.258847  0.218030  1
  Zr  Zr7  1  0.998366  0.998540  0.508095  1
  Zr  Zr8  1  0.502934  0.498807  0.509848  1
  Zr  Zr9  1  0.533282  0.749484  0.291840  1
  Zr  Zr10  1  0.029252  0.741321  0.775904  1
  Zr  Zr11  1  0.469358  0.255347  0.716665  1
  Zr  Zr12  1  0.752145  0.782610  0.034319  1
  Zr  Zr13  1  0.282363  0.533815  0.745022  1
  Zr  Zr14  1  0.779923  0.030606  0.754719  1
  Zr  Zr15  1  0.250415  0.706531  0.463574  1
  N  N16  1  0.730448  0.992605  0.961954  1
  N  N17  1  0.510320  0.237225  0.971475  1
  N  N18  1  0.770254  0.542104  0.527683  1
  N  N19  1  0.769616  0.730171  0.262217  1
  N  N20  1  0.729083  0.257349  0.773066  1
  N  N21  1  0.462201  0.224593  0.452860  1
  N  N22  1  0.964001  0.505534  0.236602  1
  N  N23  1  0.226503  0.451515  0.464929  1
  N  N24  1  0.956689  0.730810  0.989704  1
  N  N25  1  0.275436  0.743084  0.226873  1
  N  N26  1  0.537327  0.772683  0.542543  1
  N  N27  1  0.989712  0.959554  0.728995  1
  N  N28  1  0.226237  0.269325  0.736491  1
  N  N29  1  0.547094  0.535051  0.774962  1
  N  N30  1  0.034143  0.487974  0.760957  1
  N  N31  1  0.267176  0.779957  0.729608  1
  O  O32  1  0.740341  0.220764  0.276264  1
  O  O33  1  0.762635  0.035927  0.482922  1
  O  O34  1  0.273795  0.010225  0.046708  1
  O  O35  1  0.053203  0.274769  0.019661  1
  O  O36  1  0.446204  0.466217  0.221496  1
  O  O37  1  0.487741  0.763756  0.035661  1
  O  O38  1  0.227993  0.961261  0.504226  1
  O  O39  1  0.014326  0.047121  0.276656  1
