# generated using pymatgen
data_Ti3MnV2(PO4)6
_symmetry_space_group_name_H-M   'P 1'
_cell_length_a   8.59099454
_cell_length_b   8.70613416
_cell_length_c   8.70613436
_cell_angle_alpha   59.99999984
_cell_angle_beta   59.55565533
_cell_angle_gamma   59.55565517
_symmetry_Int_Tables_number   1
_chemical_formula_structural   Ti3MnV2(PO4)6
_chemical_formula_sum   'Ti3 Mn1 V2 P6 O24'
_cell_volume   457.32973518
_cell_formula_units_Z   1
loop_
 _symmetry_equiv_pos_site_id
 _symmetry_equiv_pos_as_xyz
  1  'x, y, z'
loop_
 _atom_site_type_symbol
 _atom_site_label
 _atom_site_symmetry_multiplicity
 _atom_site_fract_x
 _atom_site_fract_y
 _atom_site_fract_z
 _atom_site_occupancy
  Ti  Ti0  1  0.062462  0.645846  0.645846  1
  Ti  Ti1  1  0.429889  0.856704  0.856704  1
  Ti  Ti2  1  0.937602  0.354133  0.354133  1
  Mn  Mn3  1  0.565761  0.144747  0.144747  1
  V  V4  1  0.997619  0.000793  0.000793  1
  V  V5  1  0.495285  0.501572  0.501572  1
  P  P6  1  0.252218  0.248556  0.547113  1
  P  P7  1  0.252218  0.952114  0.248556  1
  P  P8  1  0.252218  0.547113  0.952114  1
  P  P9  1  0.750985  0.458152  0.044622  1
  P  P10  1  0.750985  0.044622  0.746242  1
  P  P11  1  0.750985  0.746242  0.458152  1
  O  O12  1  0.072448  0.119790  0.310885  1
  O  O13  1  0.072448  0.496877  0.119790  1
  O  O14  1  0.072448  0.310885  0.496877  1
  O  O15  1  0.224805  0.090163  0.744618  1
  O  O16  1  0.436498  0.184966  0.400258  1
  O  O17  1  0.257564  0.412172  0.571905  1
  O  O18  1  0.224805  0.940415  0.090163  1
  O  O19  1  0.257564  0.758358  0.412172  1
  O  O20  1  0.568393  0.619291  0.998904  1
  O  O21  1  0.257564  0.571905  0.758358  1
  O  O22  1  0.785914  0.266120  0.049713  1
  O  O23  1  0.568393  0.998904  0.813411  1
  O  O24  1  0.436498  0.978279  0.184966  1
  O  O25  1  0.224805  0.744618  0.940415  1
  O  O26  1  0.728701  0.446748  0.239424  1
  O  O27  1  0.436498  0.400258  0.978279  1
  O  O28  1  0.728701  0.239424  0.585127  1
  O  O29  1  0.785914  0.049713  0.898252  1
  O  O30  1  0.728701  0.585127  0.446748  1
  O  O31  1  0.568393  0.813411  0.619291  1
  O  O32  1  0.785914  0.898252  0.266120  1
  O  O33  1  0.926269  0.667451  0.517854  1
  O  O34  1  0.926269  0.517854  0.888427  1
  O  O35  1  0.926269  0.888427  0.667451  1
