# generated using pymatgen
data_Li2Co3SnO8
_symmetry_space_group_name_H-M   'P 1'
_cell_length_a   5.79759196
_cell_length_b   5.79759231
_cell_length_c   5.79759256
_cell_angle_alpha   60.47654704
_cell_angle_beta   60.47655202
_cell_angle_gamma   60.47654753
_symmetry_Int_Tables_number   1
_chemical_formula_structural   Li2Co3SnO8
_chemical_formula_sum   'Li2 Co3 Sn1 O8'
_cell_volume   139.27752577
_cell_formula_units_Z   1
loop_
 _symmetry_equiv_pos_site_id
 _symmetry_equiv_pos_as_xyz
  1  'x, y, z'
loop_
 _atom_site_type_symbol
 _atom_site_label
 _atom_site_symmetry_multiplicity
 _atom_site_fract_x
 _atom_site_fract_y
 _atom_site_fract_z
 _atom_site_occupancy
  Li  Li0  1  0.120390  0.120390  0.120390  1
  Li  Li1  1  0.495258  0.495258  0.495258  1
  Co  Co2  1  0.014491  0.497310  0.497310  1
  Co  Co3  1  0.497310  0.497310  0.014491  1
  Co  Co4  1  0.497310  0.014491  0.497310  1
  Sn  Sn5  1  0.887460  0.887460  0.887460  1
  O  O6  1  0.265269  0.265269  0.265269  1
  O  O7  1  0.247051  0.710387  0.247051  1
  O  O8  1  0.247051  0.247051  0.710387  1
  O  O9  1  0.710387  0.247051  0.247051  1
  O  O10  1  0.299295  0.738555  0.738555  1
  O  O11  1  0.738555  0.738555  0.299295  1
  O  O12  1  0.738555  0.299295  0.738555  1
  O  O13  1  0.741620  0.741620  0.741620  1
