# generated using pymatgen
data_DyTmO3
_symmetry_space_group_name_H-M   'P 1'
_cell_length_a   5.90736300
_cell_length_b   8.32893800
_cell_length_c   5.63790569
_cell_angle_alpha   90.00000000
_cell_angle_beta   90.00000000
_cell_angle_gamma   90.00000000
_symmetry_Int_Tables_number   1
_chemical_formula_structural   DyTmO3
_chemical_formula_sum   'Dy4 Tm4 O12'
_cell_volume   277.39657499
_cell_formula_units_Z   4
loop_
 _symmetry_equiv_pos_site_id
 _symmetry_equiv_pos_as_xyz
  1  'x, y, z'
loop_
 _atom_site_type_symbol
 _atom_site_label
 _atom_site_symmetry_multiplicity
 _atom_site_fract_x
 _atom_site_fract_y
 _atom_site_fract_z
 _atom_site_occupancy
  Dy  Dy0  1  0.053512  0.250000  0.983748  1
  Dy  Dy1  1  0.446488  0.750000  0.483748  1
  Dy  Dy2  1  0.553512  0.250000  0.516252  1
  Dy  Dy3  1  0.946488  0.750000  0.016252  1
  Tm  Tm4  1  0.000000  0.000000  0.500000  1
  Tm  Tm5  1  0.000000  0.500000  0.500000  1
  Tm  Tm6  1  0.500000  0.000000  0.000000  1
  Tm  Tm7  1  0.500000  0.500000  0.000000  1
  O  O8  1  0.076237  0.750000  0.645623  1
  O  O9  1  0.185047  0.576113  0.181364  1
  O  O10  1  0.185047  0.923887  0.181364  1
  O  O11  1  0.314953  0.076113  0.681364  1
  O  O12  1  0.314953  0.423887  0.681364  1
  O  O13  1  0.423763  0.250000  0.145623  1
  O  O14  1  0.576237  0.750000  0.854377  1
  O  O15  1  0.685047  0.923887  0.318637  1
  O  O16  1  0.685047  0.576113  0.318637  1
  O  O17  1  0.814953  0.076113  0.818636  1
  O  O18  1  0.814953  0.423887  0.818636  1
  O  O19  1  0.923763  0.250000  0.354377  1
