# generated using pymatgen
data_Fe3O5F
_symmetry_space_group_name_H-M   'P 1'
_cell_length_a   10.38721126
_cell_length_b   6.58134367
_cell_length_c   3.00234890
_cell_angle_alpha   90.00000000
_cell_angle_beta   90.00000000
_cell_angle_gamma   71.58126057
_symmetry_Int_Tables_number   1
_chemical_formula_structural   Fe3O5F
_chemical_formula_sum   'Fe6 O10 F2'
_cell_volume   194.73180273
_cell_formula_units_Z   2
loop_
 _symmetry_equiv_pos_site_id
 _symmetry_equiv_pos_as_xyz
  1  'x, y, z'
loop_
 _atom_site_type_symbol
 _atom_site_label
 _atom_site_symmetry_multiplicity
 _atom_site_fract_x
 _atom_site_fract_y
 _atom_site_fract_z
 _atom_site_occupancy
  Fe  Fe0  1  0.017252  0.992185  0.000000  1
  Fe  Fe1  1  0.998162  0.501744  0.500000  1
  Fe  Fe2  1  0.327105  0.347867  0.000000  1
  Fe  Fe3  1  0.653189  0.173493  0.500000  1
  Fe  Fe4  1  0.338478  0.813206  0.500000  1
  Fe  Fe5  1  0.666330  0.667420  0.000000  1
  O  O6  1  0.000770  0.306739  0.000000  1
  O  O7  1  0.000528  0.693743  0.000000  1
  O  O8  1  0.203463  0.397131  0.500000  1
  O  O9  1  0.452061  0.270203  0.500000  1
  O  O10  1  0.138974  0.934378  0.500000  1
  O  O11  1  0.337603  0.637573  0.000000  1
  O  O12  1  0.662722  0.355616  0.000000  1
  O  O13  1  0.539352  0.731715  0.500000  1
  O  O14  1  0.791558  0.604105  0.500000  1
  O  O15  1  0.662950  0.981487  0.000000  1
  F  F16  1  0.336600  0.027381  0.000000  1
  F  F17  1  0.872901  0.064015  0.500000  1
