# generated using pymatgen
data_Li3Ti2(PO4)3
_symmetry_space_group_name_H-M   'P 1'
_cell_length_a   9.87484135
_cell_length_b   9.84571485
_cell_length_c   9.84571507
_cell_angle_alpha   85.68558938
_cell_angle_beta   85.68291806
_cell_angle_gamma   85.68291960
_symmetry_Int_Tables_number   1
_chemical_formula_structural   Li3Ti2(PO4)3
_chemical_formula_sum   'Li12 Ti8 P12 O48'
_cell_volume   949.49203486
_cell_formula_units_Z   4
loop_
 _symmetry_equiv_pos_site_id
 _symmetry_equiv_pos_as_xyz
  1  'x, y, z'
loop_
 _atom_site_type_symbol
 _atom_site_label
 _atom_site_symmetry_multiplicity
 _atom_site_fract_x
 _atom_site_fract_y
 _atom_site_fract_z
 _atom_site_occupancy
  Li  Li0  1  0.160483  0.033161  0.730502  1
  Li  Li1  1  0.271107  0.816492  0.988788  1
  Li  Li2  1  0.339517  0.769498  0.466839  1
  Li  Li3  1  0.228893  0.511212  0.683508  1
  Li  Li4  1  0.493657  0.520571  0.464188  1
  Li  Li5  1  0.006343  0.035812  0.979429  1
  Li  Li6  1  0.486013  0.332885  0.762274  1
  Li  Li7  1  0.013987  0.737726  0.167115  1
  Li  Li8  1  0.746860  0.510348  0.327642  1
  Li  Li9  1  0.661553  0.249295  0.497840  1
  Li  Li10  1  0.753140  0.172358  0.989652  1
  Li  Li11  1  0.838447  0.002160  0.250705  1
  Ti  Ti12  1  0.539042  0.961148  0.750279  1
  Ti  Ti13  1  0.036732  0.252966  0.467646  1
  Ti  Ti14  1  0.250000  0.459880  0.040120  1
  Ti  Ti15  1  0.250000  0.249133  0.250867  1
  Ti  Ti16  1  0.750000  0.749561  0.750439  1
  Ti  Ti17  1  0.960958  0.749721  0.538852  1
  Ti  Ti18  1  0.750000  0.536419  0.963581  1
  Ti  Ti19  1  0.463268  0.032354  0.247034  1
  P  P20  1  0.150509  0.946760  0.328503  1
  P  P21  1  0.054425  0.673721  0.849687  1
  P  P22  1  0.171587  0.554432  0.350012  1
  P  P23  1  0.445575  0.650313  0.826279  1
  P  P24  1  0.652752  0.818466  0.446327  1
  P  P25  1  0.678114  0.848350  0.053399  1
  P  P26  1  0.328413  0.149988  0.945568  1
  P  P27  1  0.349491  0.171497  0.553240  1
  P  P28  1  0.554336  0.341738  0.180521  1
  P  P29  1  0.821886  0.446601  0.651650  1
  P  P30  1  0.945664  0.319479  0.158262  1
  P  P31  1  0.847248  0.053673  0.681534  1
  O  O32  1  0.078232  0.904036  0.208219  1
  O  O33  1  0.103142  0.878941  0.468447  1
  O  O34  1  0.094948  0.791926  0.927202  1
  O  O35  1  0.087637  0.687656  0.691368  1
  O  O36  1  0.308503  0.913425  0.315922  1
  O  O37  1  0.030133  0.622480  0.392502  1
  O  O38  1  0.124457  0.534126  0.895591  1
  O  O39  1  0.412363  0.808632  0.812344  1
  O  O40  1  0.186783  0.587203  0.191771  1
  O  O41  1  0.597965  0.955869  0.377980  1
  O  O42  1  0.537602  0.899902  0.115750  1
  O  O43  1  0.286336  0.596056  0.431393  1
  O  O44  1  0.375543  0.604409  0.965874  1
  O  O45  1  0.103830  0.325730  0.122936  1
  O  O46  1  0.169131  0.394500  0.379233  1
  O  O47  1  0.670900  0.878185  0.893217  1
  O  O48  1  0.623224  0.830556  0.605918  1
  O  O49  1  0.405052  0.572798  0.708074  1
  O  O50  1  0.584959  0.692878  0.410181  1
  O  O51  1  0.796391  0.925082  0.093456  1
  O  O52  1  0.604360  0.623115  0.833732  1
  O  O53  1  0.876776  0.894082  0.669444  1
  O  O54  1  0.313217  0.308229  0.912797  1
  O  O55  1  0.191497  0.184078  0.586575  1
  O  O56  1  0.810301  0.812266  0.411461  1
  O  O57  1  0.700643  0.691172  0.083674  1
  O  O58  1  0.120458  0.105930  0.333512  1
  O  O59  1  0.396170  0.377064  0.174270  1
  O  O60  1  0.213664  0.068607  0.903944  1
  O  O61  1  0.421768  0.291781  0.595964  1
  O  O62  1  0.599498  0.397551  0.310255  1
  O  O63  1  0.330869  0.120767  0.105500  1
  O  O64  1  0.379542  0.166488  0.394070  1
  O  O65  1  0.829100  0.606783  0.621815  1
  O  O66  1  0.895640  0.666268  0.876885  1
  O  O67  1  0.622383  0.397967  0.043978  1
  O  O68  1  0.703609  0.406544  0.574918  1
  O  O69  1  0.396858  0.031553  0.621059  1
  O  O70  1  0.469867  0.107498  0.877520  1
  O  O71  1  0.799357  0.416326  0.808828  1
  O  O72  1  0.585114  0.183253  0.183082  1
  O  O73  1  0.877617  0.456022  0.102033  1
  O  O74  1  0.962398  0.384250  0.600098  1
  O  O75  1  0.689699  0.088539  0.687734  1
  O  O76  1  0.914886  0.316918  0.316747  1
  O  O77  1  0.900502  0.189745  0.102449  1
  O  O78  1  0.902035  0.122020  0.544131  1
  O  O79  1  0.915041  0.089819  0.807122  1
