# generated using pymatgen
data_LiFeP2O7
_symmetry_space_group_name_H-M   'P 1'
_cell_length_a   6.26930747
_cell_length_b   6.26930747
_cell_length_c   14.02545603
_cell_angle_alpha   76.44427770
_cell_angle_beta   81.83694699
_cell_angle_gamma   99.08928922
_symmetry_Int_Tables_number   1
_chemical_formula_structural   LiFeP2O7
_chemical_formula_sum   'Li4 Fe4 P8 O28'
_cell_volume   519.89031196
_cell_formula_units_Z   4
loop_
 _symmetry_equiv_pos_site_id
 _symmetry_equiv_pos_as_xyz
  1  'x, y, z'
loop_
 _atom_site_type_symbol
 _atom_site_label
 _atom_site_symmetry_multiplicity
 _atom_site_fract_x
 _atom_site_fract_y
 _atom_site_fract_z
 _atom_site_occupancy
  Li  Li0  1  0.214059  0.623040  0.655660  1
  Li  Li1  1  0.778700  0.869719  0.844340  1
  Li  Li2  1  0.221300  0.130281  0.155660  1
  Li  Li3  1  0.785941  0.376960  0.344340  1
  Fe  Fe4  1  0.412900  0.993219  0.352583  1
  Fe  Fe5  1  0.154199  0.234517  0.852583  1
  Fe  Fe6  1  0.845801  0.765483  0.147417  1
  Fe  Fe7  1  0.587100  0.006781  0.647417  1
  P  P8  1  0.278057  0.765455  0.866301  1
  P  P9  1  0.345255  0.676743  0.087304  1
  P  P10  1  0.264047  0.432558  0.412696  1
  P  P11  1  0.868243  0.855641  0.366301  1
  P  P12  1  0.131757  0.144359  0.633699  1
  P  P13  1  0.735953  0.567442  0.587304  1
  P  P14  1  0.654745  0.323257  0.912696  1
  P  P15  1  0.721943  0.234545  0.133699  1
  O  O16  1  0.094135  0.898631  0.879091  1
  O  O17  1  0.176790  0.824050  0.111789  1
  O  O18  1  0.277720  0.973225  0.620909  1
  O  O19  1  0.484941  0.911413  0.792227  1
  O  O20  1  0.081482  0.425384  0.356672  1
  O  O21  1  0.194639  0.557982  0.832369  1
  O  O22  1  0.353305  0.686368  0.968804  1
  O  O23  1  0.378600  0.670091  0.412499  1
  O  O24  1  0.582590  0.791100  0.087501  1
  O  O25  1  0.282056  0.438154  0.143328  1
  O  O26  1  0.155173  0.322108  0.531196  1
  O  O27  1  0.564161  0.711421  0.611789  1
  O  O28  1  0.890351  0.027008  0.667631  1
  O  O29  1  0.203639  0.277167  0.707773  1
  O  O30  1  0.796361  0.722833  0.292227  1
  O  O31  1  0.109649  0.972992  0.332369  1
  O  O32  1  0.435839  0.288579  0.388211  1
  O  O33  1  0.844827  0.677892  0.468804  1
  O  O34  1  0.717944  0.561846  0.856672  1
  O  O35  1  0.417410  0.208900  0.912499  1
  O  O36  1  0.621400  0.329909  0.587501  1
  O  O37  1  0.646695  0.313632  0.031196  1
  O  O38  1  0.805361  0.442018  0.167631  1
  O  O39  1  0.918518  0.574616  0.643328  1
  O  O40  1  0.515059  0.088587  0.207773  1
  O  O41  1  0.722280  0.026775  0.379091  1
  O  O42  1  0.823210  0.175950  0.888211  1
  O  O43  1  0.905865  0.101369  0.120909  1
