# generated using pymatgen
data_Li8Mn7Fe(BO3)8
_symmetry_space_group_name_H-M   'P 1'
_cell_length_a   5.25851706
_cell_length_b   9.11341435
_cell_length_c   11.59420215
_cell_angle_alpha   68.48784417
_cell_angle_beta   77.86803799
_cell_angle_gamma   89.81938485
_symmetry_Int_Tables_number   1
_chemical_formula_structural   Li8Mn7Fe(BO3)8
_chemical_formula_sum   'Li8 Mn7 Fe1 B8 O24'
_cell_volume   503.70781659
_cell_formula_units_Z   1
loop_
 _symmetry_equiv_pos_site_id
 _symmetry_equiv_pos_as_xyz
  1  'x, y, z'
loop_
 _atom_site_type_symbol
 _atom_site_label
 _atom_site_symmetry_multiplicity
 _atom_site_fract_x
 _atom_site_fract_y
 _atom_site_fract_z
 _atom_site_occupancy
  Li  Li0  1  0.970296  0.959694  0.417883  1
  Li  Li1  1  0.705278  0.715271  0.917814  1
  Li  Li2  1  0.519472  0.491787  0.667958  1
  Li  Li3  1  0.727720  0.755676  0.167890  1
  Li  Li4  1  0.471563  0.459171  0.417949  1
  Li  Li5  1  0.205055  0.215437  0.917870  1
  Li  Li6  1  0.019634  0.991521  0.667809  1
  Li  Li7  1  0.229389  0.255576  0.167464  1
  Mn  Mn8  1  0.977003  0.644553  0.383144  1
  Mn  Mn9  1  0.727431  0.060267  0.883066  1
  Mn  Mn10  1  0.523996  0.846892  0.630951  1
  Mn  Mn11  1  0.753452  0.433009  0.134533  1
  Mn  Mn12  1  0.227575  0.560566  0.883122  1
  Mn  Mn13  1  0.255323  0.934961  0.133064  1
  Mn  Mn14  1  0.024689  0.344863  0.633517  1
  Fe  Fe15  1  0.470717  0.145539  0.382821  1
  B  B16  1  0.977017  0.312561  0.377123  1
  B  B17  1  0.734004  0.394954  0.875785  1
  B  B18  1  0.763180  0.107117  0.126691  1
  B  B19  1  0.529808  0.186320  0.624630  1
  B  B20  1  0.475817  0.816766  0.375001  1
  B  B21  1  0.234131  0.894925  0.875762  1
  B  B22  1  0.263160  0.607332  0.126184  1
  B  B23  1  0.029508  0.685725  0.625772  1
  O  O24  1  0.980109  0.890102  0.861099  1
  O  O25  1  0.903500  0.288530  0.845201  1
  O  O26  1  0.823734  0.506006  0.917785  1
  O  O27  1  0.927934  0.830154  0.611270  1
  O  O28  1  0.898993  0.575289  0.595630  1
  O  O29  1  0.761668  0.150263  0.666133  1
  O  O30  1  0.731603  0.338971  0.347667  1
  O  O31  1  0.479876  0.389806  0.861377  1
  O  O32  1  0.403585  0.788711  0.845136  1
  O  O33  1  0.596769  0.919608  0.415226  1
  O  O34  1  0.595453  0.686202  0.361916  1
  O  O35  1  0.323657  0.006139  0.917791  1
  O  O36  1  0.663794  0.986954  0.095844  1
  O  O37  1  0.428785  0.330790  0.611120  1
  O  O38  1  0.399207  0.076876  0.593681  1
  O  O39  1  0.593788  0.205098  0.167851  1
  O  O40  1  0.530393  0.628855  0.112065  1
  O  O41  1  0.262076  0.650509  0.666573  1
  O  O42  1  0.230546  0.846189  0.345204  1
  O  O43  1  0.097101  0.415456  0.417139  1
  O  O44  1  0.102056  0.183744  0.362810  1
  O  O45  1  0.162561  0.486696  0.096327  1
  O  O46  1  0.094004  0.705924  0.166925  1
  O  O47  1  0.030386  0.129444  0.112024  1
