# generated using pymatgen
data_Li4Mn5O9F
_symmetry_space_group_name_H-M   'P 1'
_cell_length_a   2.89744102
_cell_length_b   5.13428316
_cell_length_c   13.87928588
_cell_angle_alpha   80.53436983
_cell_angle_beta   95.99144959
_cell_angle_gamma   106.38952527
_symmetry_Int_Tables_number   1
_chemical_formula_structural   Li4Mn5O9F
_chemical_formula_sum   'Li4 Mn5 O9 F1'
_cell_volume   195.01826243
_cell_formula_units_Z   1
loop_
 _symmetry_equiv_pos_site_id
 _symmetry_equiv_pos_as_xyz
  1  'x, y, z'
loop_
 _atom_site_type_symbol
 _atom_site_label
 _atom_site_symmetry_multiplicity
 _atom_site_fract_x
 _atom_site_fract_y
 _atom_site_fract_z
 _atom_site_occupancy
  Li  Li0  1  0.803285  0.000754  0.605815  1
  Li  Li1  1  0.607746  0.011951  0.203541  1
  Li  Li2  1  0.383607  0.953279  0.813934  1
  Li  Li3  1  0.209723  0.021278  0.398167  1
  Mn  Mn4  1  0.909716  0.519143  0.300289  1
  Mn  Mn5  1  0.667798  0.439042  0.896554  1
  Mn  Mn6  1  0.329337  0.567609  0.091065  1
  Mn  Mn7  1  0.510561  0.525846  0.495276  1
  Mn  Mn8  1  0.093226  0.490251  0.696202  1
  O  O9  1  0.876933  0.312025  0.441840  1
  O  O10  1  0.953102  0.731769  0.174435  1
  O  O11  1  0.726998  0.714924  0.739074  1
  O  O12  1  0.543740  0.744972  0.342509  1
  O  O13  1  0.461860  0.281216  0.642505  1
  O  O14  1  0.277255  0.286978  0.267532  1
  O  O15  1  0.298210  0.656955  0.939464  1
  O  O16  1  0.039751  0.236321  0.843181  1
  O  O17  1  0.145405  0.755250  0.535559  1
  F  F18  1  0.661749  0.250439  0.073058  1
