# generated using pymatgen
data_LiAg2F5
_symmetry_space_group_name_H-M   'P 1'
_cell_length_a   8.10225134
_cell_length_b   10.70927294
_cell_length_c   11.71823470
_cell_angle_alpha   90.21272245
_cell_angle_beta   88.92018397
_cell_angle_gamma   71.09852683
_symmetry_Int_Tables_number   1
_chemical_formula_structural   LiAg2F5
_chemical_formula_sum   'Li8 Ag16 F40'
_cell_volume   961.73155185
_cell_formula_units_Z   8
loop_
 _symmetry_equiv_pos_site_id
 _symmetry_equiv_pos_as_xyz
  1  'x, y, z'
loop_
 _atom_site_type_symbol
 _atom_site_label
 _atom_site_symmetry_multiplicity
 _atom_site_fract_x
 _atom_site_fract_y
 _atom_site_fract_z
 _atom_site_occupancy
  Li  Li0  1  0.297015  0.280316  0.054873  1
  Li  Li1  1  0.199331  0.600484  0.215954  1
  Li  Li2  1  0.381044  0.330899  0.551056  1
  Li  Li3  1  0.301500  0.902003  0.778687  1
  Li  Li4  1  0.698824  0.098318  0.221538  1
  Li  Li5  1  0.618672  0.669458  0.449059  1
  Li  Li6  1  0.800738  0.399539  0.784791  1
  Li  Li7  1  0.703619  0.719351  0.944892  1
  Ag  Ag8  1  0.123899  0.092464  0.234029  1
  Ag  Ag9  1  0.999894  0.499856  0.000161  1
  Ag  Ag10  1  0.125066  0.172956  0.748477  1
  Ag  Ag11  1  0.500385  0.000259  0.499943  1
  Ag  Ag12  1  0.396978  0.334797  0.268948  1
  Ag  Ag13  1  0.216060  0.768564  0.501517  1
  Ag  Ag14  1  0.251213  0.747994  0.000124  1
  Ag  Ag15  1  0.376577  0.421626  0.774244  1
  Ag  Ag16  1  0.622740  0.578780  0.225829  1
  Ag  Ag17  1  0.749065  0.251353  0.999419  1
  Ag  Ag18  1  0.783110  0.232305  0.498647  1
  Ag  Ag19  1  0.602644  0.664783  0.731019  1
  Ag  Ag20  1  0.500343  0.000073  0.999662  1
  Ag  Ag21  1  0.999705  0.499040  0.499700  1
  Ag  Ag22  1  0.874626  0.827190  0.250889  1
  Ag  Ag23  1  0.876622  0.907779  0.766119  1
  F  F24  1  0.021525  0.056504  0.381013  1
  F  F25  1  0.238776  0.124070  0.085058  1
  F  F26  1  0.280492  0.061732  0.607106  1
  F  F27  1  0.162134  0.426973  0.157277  1
  F  F28  1  0.053730  0.720796  0.106581  1
  F  F29  1  0.071320  0.648136  0.570460  1
  F  F30  1  0.306485  0.147603  0.311934  1
  F  F31  1  0.207375  0.359550  0.671551  1
  F  F32  1  0.348912  0.053585  0.842558  1
  F  F33  1  0.115681  0.727106  0.337846  1
  F  F34  1  0.247361  0.417317  0.426872  1
  F  F35  1  0.248942  0.379958  0.922283  1
  F  F36  1  0.168272  0.664941  0.870624  1
  F  F37  1  0.066562  0.958308  0.843368  1
  F  F38  1  0.541515  0.222517  0.104396  1
  F  F39  1  0.424647  0.525711  0.149027  1
  F  F40  1  0.565846  0.163365  0.559485  1
  F  F41  1  0.339288  0.828076  0.130967  1
  F  F42  1  0.497086  0.438432  0.619953  1
  F  F43  1  0.351084  0.772694  0.660397  1
  F  F44  1  0.648694  0.228196  0.340528  1
  F  F45  1  0.501403  0.562861  0.380053  1
  F  F46  1  0.660431  0.170398  0.868871  1
  F  F47  1  0.575245  0.473392  0.851525  1
  F  F48  1  0.435275  0.837052  0.440675  1
  F  F49  1  0.456758  0.777371  0.896870  1
  F  F50  1  0.933458  0.042189  0.156461  1
  F  F51  1  0.833156  0.335884  0.130440  1
  F  F52  1  0.750856  0.620426  0.077763  1
  F  F53  1  0.752495  0.582199  0.572908  1
  F  F54  1  0.883396  0.272887  0.661603  1
  F  F55  1  0.651159  0.946792  0.156937  1
  F  F56  1  0.791842  0.640861  0.328429  1
  F  F57  1  0.693902  0.852017  0.688604  1
  F  F58  1  0.928745  0.350953  0.428165  1
  F  F59  1  0.948581  0.278758  0.891865  1
  F  F60  1  0.837485  0.572690  0.842715  1
  F  F61  1  0.719608  0.939298  0.392576  1
  F  F62  1  0.762819  0.875066  0.915527  1
  F  F63  1  0.977987  0.943160  0.619165  1
