# generated using pymatgen
data_Li4V5Fe3O16
_symmetry_space_group_name_H-M   'P 1'
_cell_length_a   5.97188555
_cell_length_b   5.91913475
_cell_length_c   9.53455577
_cell_angle_alpha   89.91176700
_cell_angle_beta   89.89441083
_cell_angle_gamma   120.12292484
_symmetry_Int_Tables_number   1
_chemical_formula_structural   Li4V5Fe3O16
_chemical_formula_sum   'Li4 V5 Fe3 O16'
_cell_volume   291.51373018
_cell_formula_units_Z   1
loop_
 _symmetry_equiv_pos_site_id
 _symmetry_equiv_pos_as_xyz
  1  'x, y, z'
loop_
 _atom_site_type_symbol
 _atom_site_label
 _atom_site_symmetry_multiplicity
 _atom_site_fract_x
 _atom_site_fract_y
 _atom_site_fract_z
 _atom_site_occupancy
  Li  Li0  1  0.335802  0.668726  0.896582  1
  Li  Li1  1  0.995082  0.995879  0.995115  1
  Li  Li2  1  0.994741  0.993837  0.489969  1
  Li  Li3  1  0.677132  0.340235  0.396311  1
  V  V4  1  0.822967  0.650727  0.717132  1
  V  V5  1  0.333019  0.663664  0.492635  1
  V  V6  1  0.654572  0.827193  0.218432  1
  V  V7  1  0.668101  0.332949  0.996340  1
  V  V8  1  0.825013  0.169880  0.713126  1
  Fe  Fe9  1  0.182399  0.832499  0.217697  1
  Fe  Fe10  1  0.182268  0.349583  0.217656  1
  Fe  Fe11  1  0.333546  0.164095  0.714417  1
  O  O12  1  0.164275  0.827701  0.597801  1
  O  O13  1  0.044116  0.520981  0.344603  1
  O  O14  1  0.338437  0.670061  0.102935  1
  O  O15  1  0.000673  0.999289  0.296956  1
  O  O16  1  0.989687  0.985922  0.806725  1
  O  O17  1  0.163798  0.337730  0.598086  1
  O  O18  1  0.484462  0.960283  0.349933  1
  O  O19  1  0.484334  0.522466  0.348198  1
  O  O20  1  0.348124  0.173931  0.085149  1
  O  O21  1  0.662301  0.826348  0.597564  1
  O  O22  1  0.526232  0.483470  0.843141  1
  O  O23  1  0.525424  0.046501  0.843695  1
  O  O24  1  0.672080  0.350674  0.603225  1
  O  O25  1  0.817677  0.645415  0.089100  1
  O  O26  1  0.954232  0.487550  0.847622  1
  O  O27  1  0.819508  0.172714  0.087695  1
