# generated using pymatgen
data_Li24Mn7Cr5O36
_symmetry_space_group_name_H-M   'P 1'
_cell_length_a   5.01502439
_cell_length_b   13.27839337
_cell_length_c   9.74686046
_cell_angle_alpha   97.20789649
_cell_angle_beta   94.77815901
_cell_angle_gamma   100.76348899
_symmetry_Int_Tables_number   1
_chemical_formula_structural   Li24Mn7Cr5O36
_chemical_formula_sum   'Li24 Mn7 Cr5 O36'
_cell_volume   628.79508449
_cell_formula_units_Z   1
loop_
 _symmetry_equiv_pos_site_id
 _symmetry_equiv_pos_as_xyz
  1  'x, y, z'
loop_
 _atom_site_type_symbol
 _atom_site_label
 _atom_site_symmetry_multiplicity
 _atom_site_fract_x
 _atom_site_fract_y
 _atom_site_fract_z
 _atom_site_occupancy
  Li  Li0  1  0.834871  0.165353  0.000240  1
  Li  Li1  1  0.952518  0.386393  0.999249  1
  Li  Li2  1  0.998762  0.749800  0.249814  1
  Li  Li3  1  0.670548  0.082544  0.249336  1
  Li  Li4  1  0.950611  0.888091  0.501171  1
  Li  Li5  1  0.621467  0.222950  0.500381  1
  Li  Li6  1  0.834945  0.667146  0.500554  1
  Li  Li7  1  0.497954  0.999007  0.499976  1
  Li  Li8  1  0.720971  0.444811  0.499774  1
  Li  Li9  1  0.670500  0.584285  0.749385  1
  Li  Li10  1  0.494168  0.501118  0.000978  1
  Li  Li11  1  0.718194  0.946676  -0.000023  1
  Li  Li12  1  0.380606  0.280123  0.000015  1
  Li  Li13  1  0.620265  0.721368  0.001092  1
  Li  Li14  1  0.281157  0.052669  0.999187  1
  Li  Li15  1  0.330943  0.416177  0.251220  1
  Li  Li16  1  0.280667  0.553610  0.499308  1
  Li  Li17  1  0.163927  0.333121  0.499337  1
  Li  Li18  1  0.380679  0.778770  0.497831  1
  Li  Li19  1  0.046874  0.112476  0.500713  1
  Li  Li20  1  0.335300  0.916728  0.750929  1
  Li  Li21  1  0.167621  0.833118  0.999768  1
  Li  Li22  1  0.001953  0.250444  0.749932  1
  Li  Li23  1  0.047438  0.613704  0.001723  1
  Mn  Mn24  1  0.890527  0.026912  0.750924  1
  Mn  Mn25  1  0.781934  0.305994  0.252774  1
  Mn  Mn26  1  0.779946  0.806606  0.751596  1
  Mn  Mn27  1  0.555188  0.861179  0.250223  1
  Mn  Mn28  1  0.442851  0.640012  0.248506  1
  Mn  Mn29  1  0.106159  0.471703  0.748203  1
  Mn  Mn30  1  0.107518  0.971266  0.248609  1
  Cr  Cr31  1  0.882679  0.526389  0.249756  1
  Cr  Cr32  1  0.553282  0.363367  0.748593  1
  Cr  Cr33  1  0.449279  0.139052  0.750722  1
  Cr  Cr34  1  0.230329  0.192831  0.249501  1
  Cr  Cr35  1  0.229638  0.694008  0.749739  1
  O  O36  1  0.996803  0.068216  0.136357  1
  O  O37  1  0.929366  0.214330  0.363570  1
  O  O38  1  0.994374  0.568886  0.635882  1
  O  O39  1  0.862308  0.356800  0.637152  1
  O  O40  1  0.735535  0.116548  0.635774  1
  O  O41  1  0.671978  0.404991  0.138450  1
  O  O42  1  0.929253  0.715269  0.864120  1
  O  O43  1  0.807472  0.474889  0.861711  1
  O  O44  1  0.599255  0.047291  0.864778  1
  O  O45  1  0.855720  0.856511  0.138644  1
  O  O46  1  0.731865  0.619814  0.133968  1
  O  O47  1  0.521398  0.191238  0.138615  1
  O  O48  1  0.658672  0.261192  0.862198  1
  O  O49  1  0.808608  0.976342  0.361687  1
  O  O50  1  0.601434  0.550118  0.363093  1
  O  O51  1  0.483890  0.311973  0.362956  1
  O  O52  1  0.666769  0.762363  0.361539  1
  O  O53  1  0.327771  0.095955  0.361649  1
  O  O54  1  0.665922  0.904321  0.638505  1
  O  O55  1  0.337965  0.239830  0.636944  1
  O  O56  1  0.522285  0.691388  0.638106  1
  O  O57  1  0.402845  0.452150  0.636552  1
  O  O58  1  0.188857  0.024528  0.637567  1
  O  O59  1  0.331207  0.738665  0.138035  1
  O  O60  1  0.483123  0.811196  0.863361  1
  O  O61  1  0.257632  0.382929  0.865542  1
  O  O62  1  0.140450  0.142071  0.862613  1
  O  O63  1  0.402764  0.952002  0.136979  1
  O  O64  1  0.190173  0.524705  0.138049  1
  O  O65  1  0.069474  0.283957  0.136267  1
  O  O66  1  0.327277  0.596360  0.861396  1
  O  O67  1  0.263049  0.881550  0.364015  1
  O  O68  1  0.145088  0.642608  0.361946  1
  O  O69  1  0.004509  0.426875  0.362889  1
  O  O70  1  0.068303  0.783791  0.636240  1
  O  O71  1  0.004339  0.928545  0.861813  1
