# generated using pymatgen
data_Li2Co3SbO8
_symmetry_space_group_name_H-M   'P 1'
_cell_length_a   8.25879580
_cell_length_b   8.25889283
_cell_length_c   8.25878690
_cell_angle_alpha   89.97709033
_cell_angle_beta   89.98473590
_cell_angle_gamma   90.00727869
_symmetry_Int_Tables_number   1
_chemical_formula_structural   Li2Co3SbO8
_chemical_formula_sum   'Li8 Co12 Sb4 O32'
_cell_volume   563.31947447
_cell_formula_units_Z   4
loop_
 _symmetry_equiv_pos_site_id
 _symmetry_equiv_pos_as_xyz
  1  'x, y, z'
loop_
 _atom_site_type_symbol
 _atom_site_label
 _atom_site_symmetry_multiplicity
 _atom_site_fract_x
 _atom_site_fract_y
 _atom_site_fract_z
 _atom_site_occupancy
  Li  Li0  1  0.996054  0.996045  0.996044  1
  Li  Li1  1  0.253953  0.253982  0.253971  1
  Li  Li2  1  0.246083  0.746061  0.753906  1
  Li  Li3  1  0.503891  0.003931  0.496095  1
  Li  Li4  1  0.496037  0.503955  0.003917  1
  Li  Li5  1  0.753949  0.246074  0.746062  1
  Li  Li6  1  0.746082  0.753937  0.246046  1
  Li  Li7  1  0.003978  0.496073  0.503946  1
  Co  Co8  1  0.117979  0.132081  0.625001  1
  Co  Co9  1  0.125028  0.382081  0.867917  1
  Co  Co10  1  0.132067  0.624994  0.117932  1
  Co  Co11  1  0.367941  0.375024  0.617969  1
  Co  Co12  1  0.374972  0.617924  0.367979  1
  Co  Co13  1  0.382055  0.867907  0.124992  1
  Co  Co14  1  0.617885  0.367947  0.375042  1
  Co  Co15  1  0.624986  0.117920  0.132061  1
  Co  Co16  1  0.632054  0.874987  0.882035  1
  Co  Co17  1  0.867941  0.124999  0.382106  1
  Co  Co18  1  0.875021  0.882065  0.632074  1
  Co  Co19  1  0.882080  0.632063  0.874988  1
  Sb  Sb20  1  0.124996  0.875005  0.374983  1
  Sb  Sb21  1  0.375001  0.125012  0.875002  1
  Sb  Sb22  1  0.625009  0.625009  0.625000  1
  Sb  Sb23  1  0.874987  0.374994  0.125008  1
  O  O24  1  0.105857  0.119720  0.390105  1
  O  O25  1  0.109914  0.894213  0.619701  1
  O  O26  1  0.112200  0.612193  0.887813  1
  O  O27  1  0.130306  0.144208  0.859901  1
  O  O28  1  0.119708  0.390105  0.105776  1
  O  O29  1  0.137871  0.362203  0.637811  1
  O  O30  1  0.140088  0.630284  0.355810  1
  O  O31  1  0.144191  0.859908  0.130268  1
  O  O32  1  0.355825  0.140181  0.630297  1
  O  O33  1  0.359927  0.369734  0.855751  1
  O  O34  1  0.362172  0.637818  0.137838  1
  O  O35  1  0.380283  0.609859  0.605860  1
  O  O36  1  0.369696  0.855761  0.359917  1
  O  O37  1  0.387781  0.387833  0.387892  1
  O  O38  1  0.390044  0.105803  0.119706  1
  O  O39  1  0.394175  0.880300  0.890066  1
  O  O40  1  0.605736  0.380297  0.609974  1
  O  O41  1  0.609888  0.605840  0.380312  1
  O  O42  1  0.612157  0.887791  0.112155  1
  O  O43  1  0.630271  0.355816  0.140099  1
  O  O44  1  0.619701  0.109905  0.894139  1
  O  O45  1  0.637800  0.137820  0.362201  1
  O  O46  1  0.640092  0.869710  0.644172  1
  O  O47  1  0.644189  0.640075  0.869702  1
  O  O48  1  0.855767  0.359924  0.369732  1
  O  O49  1  0.859932  0.130289  0.144217  1
  O  O50  1  0.862175  0.862177  0.862158  1
  O  O51  1  0.880299  0.890058  0.394222  1
  O  O52  1  0.869737  0.644193  0.640080  1
  O  O53  1  0.887849  0.112161  0.612207  1
  O  O54  1  0.890132  0.394202  0.880295  1
  O  O55  1  0.894209  0.619691  0.109893  1
