# generated using pymatgen
data_V2(OF)3
_symmetry_space_group_name_H-M   'P 1'
_cell_length_a   5.23707484
_cell_length_b   13.24669762
_cell_length_c   5.23703084
_cell_angle_alpha   89.79642220
_cell_angle_beta   120.26236675
_cell_angle_gamma   89.90403403
_symmetry_Int_Tables_number   1
_chemical_formula_structural   V2(OF)3
_chemical_formula_sum   'V6 O9 F9'
_cell_volume   313.79908072
_cell_formula_units_Z   3
loop_
 _symmetry_equiv_pos_site_id
 _symmetry_equiv_pos_as_xyz
  1  'x, y, z'
loop_
 _atom_site_type_symbol
 _atom_site_label
 _atom_site_symmetry_multiplicity
 _atom_site_fract_x
 _atom_site_fract_y
 _atom_site_fract_z
 _atom_site_occupancy
  V  V0  1  0.044662  0.491418  0.020735  1
  V  V1  1  0.014599  0.993762  0.019719  1
  V  V2  1  0.637536  0.825135  0.350987  1
  V  V3  1  0.316423  0.666032  0.707610  1
  V  V4  1  0.728676  0.332875  0.350151  1
  V  V5  1  0.343978  0.152899  0.638136  1
  O  O6  1  0.417601  0.746650  0.992377  1
  O  O7  1  0.327740  0.416527  0.088464  1
  O  O8  1  0.094010  0.087903  0.337596  1
  O  O9  1  0.312851  0.918057  0.226153  1
  O  O10  1  0.999699  0.253058  0.574381  1
  O  O11  1  0.092635  0.585453  0.752702  1
  O  O12  1  0.569814  0.753041  0.571243  1
  O  O13  1  0.906689  0.415565  0.248139  1
  O  O14  1  0.654765  0.084637  0.750377  1
  F  F15  1  0.002705  0.751652  0.415200  1
  F  F16  1  0.252120  0.588447  0.337803  1
  F  F17  1  0.578809  0.251927  0.002952  1
  F  F18  1  0.732675  0.916817  0.071050  1
  F  F19  1  0.418502  0.253144  0.422308  1
  F  F20  1  0.243419  0.089355  0.909635  1
  F  F21  1  0.738711  0.417426  0.658198  1
  F  F22  1  0.907720  0.921781  0.647768  1
  F  F23  1  0.663660  0.586436  0.906319  1
