# generated using pymatgen
data_TiFe3Ni2(PO4)6
_symmetry_space_group_name_H-M   'P 1'
_cell_length_a   8.48515743
_cell_length_b   8.48515661
_cell_length_c   8.48515688
_cell_angle_alpha   61.06576076
_cell_angle_beta   61.06575607
_cell_angle_gamma   61.06575418
_symmetry_Int_Tables_number   1
_chemical_formula_structural   TiFe3Ni2(PO4)6
_chemical_formula_sum   'Ti1 Fe3 Ni2 P6 O24'
_cell_volume   442.34652931
_cell_formula_units_Z   1
loop_
 _symmetry_equiv_pos_site_id
 _symmetry_equiv_pos_as_xyz
  1  'x, y, z'
loop_
 _atom_site_type_symbol
 _atom_site_label
 _atom_site_symmetry_multiplicity
 _atom_site_fract_x
 _atom_site_fract_y
 _atom_site_fract_z
 _atom_site_occupancy
  Ti  Ti0  1  0.855190  0.855190  0.855190  1
  Fe  Fe1  1  0.145079  0.145079  0.145079  1
  Fe  Fe2  1  0.356236  0.356236  0.356236  1
  Fe  Fe3  1  0.643950  0.643950  0.643950  1
  Ni  Ni4  1  0.000839  0.000839  0.000839  1
  Ni  Ni5  1  0.500687  0.500687  0.500687  1
  P  P6  1  0.749532  0.452407  0.045906  1
  P  P7  1  0.045906  0.749532  0.452407  1
  P  P8  1  0.452407  0.045906  0.749532  1
  P  P9  1  0.250875  0.545628  0.953811  1
  P  P10  1  0.545628  0.953811  0.250875  1
  P  P11  1  0.953811  0.250875  0.545628  1
  O  O12  1  0.110154  0.317639  0.507261  1
  O  O13  1  0.317639  0.507261  0.110154  1
  O  O14  1  0.060521  0.908636  0.255396  1
  O  O15  1  0.507261  0.110154  0.317639  1
  O  O16  1  0.992656  0.822258  0.614637  1
  O  O17  1  0.243986  0.593183  0.444770  1
  O  O18  1  0.255396  0.060521  0.908636  1
  O  O19  1  0.444770  0.243986  0.593183  1
  O  O20  1  0.180704  0.390786  0.995055  1
  O  O21  1  0.593183  0.444770  0.243986  1
  O  O22  1  0.090002  0.746194  0.936786  1
  O  O23  1  0.390786  0.995055  0.180704  1
  O  O24  1  0.614637  0.992656  0.822258  1
  O  O25  1  0.908636  0.255396  0.060521  1
  O  O26  1  0.407283  0.562739  0.753708  1
  O  O27  1  0.822258  0.614637  0.992656  1
  O  O28  1  0.562739  0.753708  0.407283  1
  O  O29  1  0.746194  0.936786  0.090002  1
  O  O30  1  0.753708  0.407283  0.562739  1
  O  O31  1  0.995055  0.180704  0.390786  1
  O  O32  1  0.495209  0.890994  0.679303  1
  O  O33  1  0.936786  0.090002  0.746194  1
  O  O34  1  0.679303  0.495209  0.890994  1
  O  O35  1  0.890994  0.679303  0.495209  1
