# generated using pymatgen
data_Fe3CuNi2(PO4)6
_symmetry_space_group_name_H-M   'P 1'
_cell_length_a   8.48152134
_cell_length_b   8.48152094
_cell_length_c   8.48152061
_cell_angle_alpha   60.96258305
_cell_angle_beta   60.96258033
_cell_angle_gamma   60.96258041
_symmetry_Int_Tables_number   1
_chemical_formula_structural   Fe3CuNi2(PO4)6
_chemical_formula_sum   'Fe3 Cu1 Ni2 P6 O24'
_cell_volume   440.78246054
_cell_formula_units_Z   1
loop_
 _symmetry_equiv_pos_site_id
 _symmetry_equiv_pos_as_xyz
  1  'x, y, z'
loop_
 _atom_site_type_symbol
 _atom_site_label
 _atom_site_symmetry_multiplicity
 _atom_site_fract_x
 _atom_site_fract_y
 _atom_site_fract_z
 _atom_site_occupancy
  Fe  Fe0  1  0.143679  0.143679  0.143679  1
  Fe  Fe1  1  0.355204  0.355204  0.355204  1
  Fe  Fe2  1  0.643634  0.643634  0.643634  1
  Cu  Cu3  1  0.855734  0.855734  0.855734  1
  Ni  Ni4  1  0.999585  0.999585  0.999585  1
  Ni  Ni5  1  0.499928  0.499928  0.499928  1
  P  P6  1  0.044619  0.750343  0.456015  1
  P  P7  1  0.456015  0.044619  0.750343  1
  P  P8  1  0.750343  0.456015  0.044619  1
  P  P9  1  0.248771  0.545766  0.952337  1
  P  P10  1  0.545766  0.952337  0.248771  1
  P  P11  1  0.952337  0.248771  0.545766  1
  O  O12  1  0.109083  0.317093  0.505726  1
  O  O13  1  0.317093  0.505726  0.109083  1
  O  O14  1  0.059209  0.908456  0.256107  1
  O  O15  1  0.505726  0.109083  0.317093  1
  O  O16  1  0.016418  0.813597  0.611665  1
  O  O17  1  0.245338  0.592075  0.436969  1
  O  O18  1  0.256107  0.059209  0.908456  1
  O  O19  1  0.436969  0.245338  0.592075  1
  O  O20  1  0.181854  0.388957  0.993264  1
  O  O21  1  0.592075  0.436969  0.245338  1
  O  O22  1  0.088913  0.744410  0.944160  1
  O  O23  1  0.388957  0.993264  0.181854  1
  O  O24  1  0.611665  0.016418  0.813597  1
  O  O25  1  0.908456  0.256107  0.059209  1
  O  O26  1  0.407115  0.561805  0.753808  1
  O  O27  1  0.813597  0.611665  0.016418  1
  O  O28  1  0.561805  0.753808  0.407115  1
  O  O29  1  0.744410  0.944160  0.088913  1
  O  O30  1  0.753808  0.407115  0.561805  1
  O  O31  1  0.993264  0.181854  0.388957  1
  O  O32  1  0.497219  0.888080  0.683069  1
  O  O33  1  0.944160  0.088913  0.744410  1
  O  O34  1  0.683069  0.497219  0.888080  1
  O  O35  1  0.888080  0.683069  0.497219  1
