# generated using pymatgen
data_Li5Sm3(SbO6)2
_symmetry_space_group_name_H-M   'P 1'
_cell_length_a   11.04645192
_cell_length_b   11.03405753
_cell_length_c   11.04874509
_cell_angle_alpha   109.65639555
_cell_angle_beta   109.62729473
_cell_angle_gamma   109.20356250
_symmetry_Int_Tables_number   1
_chemical_formula_structural   Li5Sm3(SbO6)2
_chemical_formula_sum   'Li20 Sm12 Sb8 O48'
_cell_volume   1035.73270602
_cell_formula_units_Z   4
loop_
 _symmetry_equiv_pos_site_id
 _symmetry_equiv_pos_as_xyz
  1  'x, y, z'
loop_
 _atom_site_type_symbol
 _atom_site_label
 _atom_site_symmetry_multiplicity
 _atom_site_fract_x
 _atom_site_fract_y
 _atom_site_fract_z
 _atom_site_occupancy
  Li  Li0  1  0.789244  0.017027  0.628051  1
  Li  Li1  1  0.742769  0.317519  0.211879  1
  Li  Li2  1  0.746097  0.371659  0.613416  1
  Li  Li3  1  0.611564  0.427037  0.258213  1
  Li  Li4  1  0.886362  0.167848  0.888974  1
  Li  Li5  1  0.849020  0.886945  0.150184  1
  Li  Li6  1  0.581213  0.767533  0.976768  1
  Li  Li7  1  0.659099  0.784693  0.292564  1
  Li  Li8  1  0.475639  0.269704  0.605361  1
  Li  Li9  1  0.327395  0.221639  0.723612  1
  Li  Li10  1  0.893461  0.264687  0.131233  1
  Li  Li11  1  0.477751  0.712384  0.381863  1
  Li  Li12  1  0.374664  0.486155  0.705193  1
  Li  Li13  1  0.123531  0.882874  0.242831  1
  Li  Li14  1  0.272471  0.612721  0.488302  1
  Li  Li15  1  0.213429  0.723707  0.325419  1
  Li  Li16  1  0.244484  0.131161  0.876032  1
  Li  Li17  1  0.279139  0.671278  0.780835  1
  Li  Li18  1  0.005926  0.629578  0.787346  1
  Li  Li19  1  0.163700  0.894084  0.885572  1
  Sm  Sm20  1  0.748906  0.126469  0.370965  1
  Sm  Sm21  1  0.880729  0.634549  0.247822  1
  Sm  Sm22  1  0.372211  0.127966  0.245009  1
  Sm  Sm23  1  0.242352  0.374505  0.120188  1
  Sm  Sm24  1  0.119840  0.243421  0.365967  1
  Sm  Sm25  1  0.360065  0.754217  0.116040  1
  Sm  Sm26  1  0.629170  0.254300  0.879167  1
  Sm  Sm27  1  0.858981  0.746307  0.606188  1
  Sm  Sm28  1  0.746975  0.619962  0.862300  1
  Sm  Sm29  1  0.106903  0.363797  0.745049  1
  Sm  Sm30  1  0.617104  0.865582  0.747468  1
  Sm  Sm31  1  0.250500  0.887324  0.626912  1
  Sb  Sb32  1  0.502398  0.012254  0.004845  1
  Sb  Sb33  1  0.991685  0.994129  0.988162  1
  Sb  Sb34  1  0.498889  0.002928  0.501510  1
  Sb  Sb35  1  0.498422  0.503977  0.998945  1
  Sb  Sb36  1  0.496425  0.497113  0.492301  1
  Sb  Sb37  1  0.998133  0.501618  0.995343  1
  Sb  Sb38  1  0.004603  0.005695  0.497256  1
  Sb  Sb39  1  0.000379  0.505538  0.497089  1
  O  O40  1  0.879528  0.407819  0.075698  1
  O  O41  1  0.916385  0.305043  0.321536  1
  O  O42  1  0.914238  0.119826  0.582039  1
  O  O43  1  0.581740  0.183734  0.206096  1
  O  O44  1  0.975069  0.677140  0.092389  1
  O  O45  1  0.626236  0.429118  0.091794  1
  O  O46  1  0.191817  0.102919  0.013199  1
  O  O47  1  0.693588  0.682527  0.073390  1
  O  O48  1  0.582915  0.174796  0.474216  1
  O  O49  1  0.909754  0.389339  0.580439  1
  O  O50  1  0.104697  0.024616  0.191173  1
  O  O51  1  0.669825  0.074542  0.702936  1
  O  O52  1  0.824363  0.523818  0.391773  1
  O  O53  1  0.456993  0.373741  0.287490  1
  O  O54  1  0.026009  0.328053  0.906136  1
  O  O55  1  0.019914  0.198126  0.099992  1
  O  O56  1  0.472627  0.602524  0.171686  1
  O  O57  1  0.420562  0.097961  0.626119  1
  O  O58  1  0.909080  0.036081  0.327683  1
  O  O59  1  0.587339  0.923002  0.121937  1
  O  O60  1  0.833010  0.803946  0.415538  1
  O  O61  1  0.680637  0.117411  0.991673  1
  O  O62  1  0.697257  0.524022  0.610048  1
  O  O63  1  0.798943  0.423886  0.820485  1
  O  O64  1  0.370688  0.299748  0.464497  1
  O  O65  1  0.172414  0.212261  0.581085  1
  O  O66  1  0.400990  0.084049  0.878354  1
  O  O67  1  0.615178  0.701635  0.525965  1
  O  O68  1  0.298836  0.475169  0.372125  1
  O  O69  1  0.202966  0.584205  0.166885  1
  O  O70  1  0.514967  0.403882  0.814890  1
  O  O71  1  0.965845  0.794686  0.861748  1
  O  O72  1  0.583122  0.905692  0.387347  1
  O  O73  1  0.525036  0.615927  0.695500  1
  O  O74  1  0.867688  0.972853  0.790600  1
  O  O75  1  0.181417  0.487740  0.591355  1
  O  O76  1  0.321475  0.912510  0.299533  1
  O  O77  1  0.299321  0.327486  0.910775  1
  O  O78  1  0.398687  0.817639  0.513317  1
  O  O79  1  0.098914  0.632827  0.423532  1
  O  O80  1  0.790943  0.871986  0.962116  1
  O  O81  1  0.383350  0.586410  0.897001  1
  O  O82  1  0.427541  0.837553  0.805646  1
  O  O83  1  0.083936  0.885601  0.402226  1
  O  O84  1  0.082666  0.703976  0.678113  1
  O  O85  1  0.119358  0.587578  0.910641  1
  O  O86  1  0.326889  0.912548  0.025853  1
  O  O87  1  0.097622  0.980561  0.671663  1
