# generated using pymatgen
data_Mg11AlFeSi11O36
_symmetry_space_group_name_H-M   'P 1'
_cell_length_a   14.51612149
_cell_length_b   5.00545316
_cell_length_c   7.00227646
_cell_angle_alpha   89.89725641
_cell_angle_beta   89.99771919
_cell_angle_gamma   90.08585151
_symmetry_Int_Tables_number   1
_chemical_formula_structural   Mg11AlFeSi11O36
_chemical_formula_sum   'Mg11 Al1 Fe1 Si11 O36'
_cell_volume   508.78238108
_cell_formula_units_Z   1
loop_
 _symmetry_equiv_pos_site_id
 _symmetry_equiv_pos_as_xyz
  1  'x, y, z'
loop_
 _atom_site_type_symbol
 _atom_site_label
 _atom_site_symmetry_multiplicity
 _atom_site_fract_x
 _atom_site_fract_y
 _atom_site_fract_z
 _atom_site_occupancy
  Mg  Mg0  1  0.003451  0.940624  0.745376  1
  Mg  Mg1  1  0.163451  0.442652  0.746876  1
  Mg  Mg2  1  0.171815  0.555811  0.253132  1
  Mg  Mg3  1  0.328807  0.058831  0.249237  1
  Mg  Mg4  1  0.339696  0.941182  0.749537  1
  Mg  Mg5  1  0.495102  0.441919  0.750401  1
  Mg  Mg6  1  0.504692  0.558401  0.249656  1
  Mg  Mg7  1  0.660293  0.059151  0.250240  1
  Mg  Mg8  1  0.670815  0.941798  0.750906  1
  Mg  Mg9  1  0.828244  0.443360  0.748250  1
  Mg  Mg10  1  0.837363  0.560293  0.252184  1
  Al  Al11  1  0.001085  0.500966  0.503597  1
  Fe  Fe12  1  0.994383  0.067271  0.256652  1
  Si  Si13  1  0.167245  0.998045  0.995566  1
  Si  Si14  1  0.168286  0.994222  0.505333  1
  Si  Si15  1  0.333858  0.499342  0.499135  1
  Si  Si16  1  0.333090  0.499793  0.000211  1
  Si  Si17  1  0.499938  0.000134  0.500016  1
  Si  Si18  1  0.499876  0.000127  0.999994  1
  Si  Si19  1  0.665936  0.500576  0.500163  1
  Si  Si20  1  0.666566  0.500158  0.000566  1
  Si  Si21  1  0.831618  0.001407  0.001322  1
  Si  Si22  1  0.830628  0.004233  0.498235  1
  Si  Si23  1  0.001898  0.500115  0.996671  1
  O  O24  1  0.035362  0.459820  0.238370  1
  O  O25  1  0.065557  0.196270  0.941086  1
  O  O26  1  0.067434  0.184074  0.547659  1
  O  O27  1  0.107334  0.699608  0.551509  1
  O  O28  1  0.102406  0.700856  0.942834  1
  O  O29  1  0.130207  0.966119  0.245779  1
  O  O30  1  0.203898  0.036822  0.751351  1
  O  O31  1  0.233262  0.296072  0.446448  1
  O  O32  1  0.232066  0.298517  0.053579  1
  O  O33  1  0.269536  0.799970  0.444712  1
  O  O34  1  0.267721  0.798345  0.054334  1
  O  O35  1  0.299776  0.535103  0.749745  1
  O  O36  1  0.368108  0.465601  0.249524  1
  O  O37  1  0.399357  0.201148  0.553341  1
  O  O38  1  0.398809  0.201005  0.946874  1
  O  O39  1  0.434978  0.700775  0.553142  1
  O  O40  1  0.434578  0.701285  0.946944  1
  O  O41  1  0.465881  0.965975  0.249831  1
  O  O42  1  0.534173  0.034290  0.750201  1
  O  O43  1  0.565292  0.299077  0.053257  1
  O  O44  1  0.565017  0.299509  0.446709  1
  O  O45  1  0.601355  0.799361  0.052804  1
  O  O46  1  0.600920  0.799319  0.446967  1
  O  O47  1  0.632096  0.535008  0.750451  1
  O  O48  1  0.700407  0.465655  0.250383  1
  O  O49  1  0.730329  0.200930  0.554336  1
  O  O50  1  0.731778  0.202700  0.946693  1
  O  O51  1  0.767522  0.701559  0.553168  1
  O  O52  1  0.768633  0.699319  0.947432  1
  O  O53  1  0.795567  0.963793  0.248414  1
  O  O54  1  0.866547  0.036298  0.753246  1
  O  O55  1  0.899754  0.293669  0.061303  1
  O  O56  1  0.894850  0.295156  0.444113  1
  O  O57  1  0.932251  0.814176  0.446234  1
  O  O58  1  0.935198  0.804359  0.062129  1
  O  O59  1  0.963906  0.538045  0.761842  1
