# generated using pymatgen
data_MnOF
_symmetry_space_group_name_H-M   'P 1'
_cell_length_a   4.53874659
_cell_length_b   5.67656321
_cell_length_c   5.17161793
_cell_angle_alpha   90.00000000
_cell_angle_beta   90.00000000
_cell_angle_gamma   90.00000000
_symmetry_Int_Tables_number   1
_chemical_formula_structural   MnOF
_chemical_formula_sum   'Mn4 O4 F4'
_cell_volume   133.24405661
_cell_formula_units_Z   4
loop_
 _symmetry_equiv_pos_site_id
 _symmetry_equiv_pos_as_xyz
  1  'x, y, z'
loop_
 _atom_site_type_symbol
 _atom_site_label
 _atom_site_symmetry_multiplicity
 _atom_site_fract_x
 _atom_site_fract_y
 _atom_site_fract_z
 _atom_site_occupancy
  Mn  Mn0  1  0.014588  0.848426  0.723317  1
  Mn  Mn1  1  0.014588  0.151574  0.223317  1
  Mn  Mn2  1  0.514588  0.348426  0.776683  1
  Mn  Mn3  1  0.514588  0.651574  0.276683  1
  O  O4  1  0.226321  0.115857  0.902161  1
  O  O5  1  0.226321  0.884143  0.402161  1
  O  O6  1  0.726321  0.384143  0.097839  1
  O  O7  1  0.726321  0.615857  0.597839  1
  F  F8  1  0.259090  0.381493  0.461351  1
  F  F9  1  0.259090  0.618507  0.961351  1
  F  F10  1  0.759090  0.118507  0.538649  1
  F  F11  1  0.759090  0.881493  0.038649  1
