# generated using pymatgen
data_Ca11Tl9O24
_symmetry_space_group_name_H-M   'P 1'
_cell_length_a   11.38991149
_cell_length_b   16.84262788
_cell_length_c   6.75746608
_cell_angle_alpha   90.00000000
_cell_angle_beta   90.00000000
_cell_angle_gamma   89.85111834
_symmetry_Int_Tables_number   1
_chemical_formula_structural   Ca11Tl9O24
_chemical_formula_sum   'Ca22 Tl18 O48'
_cell_volume   1296.32116258
_cell_formula_units_Z   2
loop_
 _symmetry_equiv_pos_site_id
 _symmetry_equiv_pos_as_xyz
  1  'x, y, z'
loop_
 _atom_site_type_symbol
 _atom_site_label
 _atom_site_symmetry_multiplicity
 _atom_site_fract_x
 _atom_site_fract_y
 _atom_site_fract_z
 _atom_site_occupancy
  Ca  Ca0  1  0.103598  0.858648  0.250000  1
  Ca  Ca1  1  0.105504  0.855133  0.750000  1
  Ca  Ca2  1  0.133987  0.458670  0.750000  1
  Ca  Ca3  1  0.134594  0.459071  0.250000  1
  Ca  Ca4  1  0.169010  0.224100  0.250000  1
  Ca  Ca5  1  0.168851  0.223610  0.750000  1
  Ca  Ca6  1  0.331099  0.724703  0.250000  1
  Ca  Ca7  1  0.366431  0.959315  0.250000  1
  Ca  Ca8  1  0.364828  0.960255  0.750000  1
  Ca  Ca9  1  0.393151  0.352079  0.250000  1
  Ca  Ca10  1  0.390851  0.352205  0.750000  1
  Ca  Ca11  1  0.609149  0.647795  0.250000  1
  Ca  Ca12  1  0.606849  0.647921  0.750000  1
  Ca  Ca13  1  0.635172  0.039745  0.250000  1
  Ca  Ca14  1  0.633569  0.040685  0.750000  1
  Ca  Ca15  1  0.668901  0.275297  0.750000  1
  Ca  Ca16  1  0.831149  0.776390  0.250000  1
  Ca  Ca17  1  0.830990  0.775900  0.750000  1
  Ca  Ca18  1  0.866013  0.541330  0.250000  1
  Ca  Ca19  1  0.865406  0.540929  0.750000  1
  Ca  Ca20  1  0.894496  0.144867  0.250000  1
  Ca  Ca21  1  0.896402  0.141352  0.750000  1
  Tl  Tl22  1  0.082957  0.646213  0.000562  1
  Tl  Tl23  1  0.082957  0.646213  0.499438  1
  Tl  Tl24  1  0.134900  0.045359  0.499678  1
  Tl  Tl25  1  0.134900  0.045359  0.000322  1
  Tl  Tl26  1  0.330091  0.726602  0.750000  1
  Tl  Tl27  1  0.365122  0.543846  0.000692  1
  Tl  Tl28  1  0.365122  0.543846  0.499308  1
  Tl  Tl29  1  0.414203  0.147644  0.998729  1
  Tl  Tl30  1  0.414203  0.147644  0.501271  1
  Tl  Tl31  1  0.585797  0.852356  0.001271  1
  Tl  Tl32  1  0.585797  0.852356  0.498729  1
  Tl  Tl33  1  0.634878  0.456154  0.999308  1
  Tl  Tl34  1  0.634878  0.456154  0.500692  1
  Tl  Tl35  1  0.669909  0.273398  0.250000  1
  Tl  Tl36  1  0.865100  0.954641  0.999678  1
  Tl  Tl37  1  0.865100  0.954641  0.500322  1
  Tl  Tl38  1  0.917043  0.353787  0.999438  1
  Tl  Tl39  1  0.917043  0.353787  0.500562  1
  O  O40  1  0.000287  0.999210  0.250000  1
  O  O41  1  0.999713  0.000790  0.750000  1
  O  O42  1  0.000000  0.500000  0.000000  1
  O  O43  1  0.000000  0.500000  0.500000  1
  O  O44  1  0.044375  0.333772  0.750000  1
  O  O45  1  0.043628  0.334083  0.250000  1
  O  O46  1  0.049113  0.160506  0.999995  1
  O  O47  1  0.049113  0.160506  0.500005  1
  O  O48  1  0.194292  0.758846  0.504041  1
  O  O49  1  0.194292  0.758846  0.995959  1
  O  O50  1  0.219115  0.594397  0.250000  1
  O  O51  1  0.221535  0.596359  0.750000  1
  O  O52  1  0.219608  0.930419  0.499363  1
  O  O53  1  0.219608  0.930419  0.000637  1
  O  O54  1  0.279151  0.429438  0.999294  1
  O  O55  1  0.279151  0.429438  0.500706  1
  O  O56  1  0.282146  0.094304  0.250000  1
  O  O57  1  0.279706  0.093584  0.750000  1
  O  O58  1  0.306386  0.259992  0.999751  1
  O  O59  1  0.306386  0.259992  0.500249  1
  O  O60  1  0.448190  0.660804  0.997566  1
  O  O61  1  0.448190  0.660804  0.502434  1
  O  O62  1  0.456648  0.833464  0.250000  1
  O  O63  1  0.453458  0.832756  0.750000  1
  O  O64  1  0.500000  0.000000  0.000000  1
  O  O65  1  0.500000  0.000000  0.500000  1
  O  O66  1  0.500474  0.501222  0.250000  1
  O  O67  1  0.499526  0.498778  0.750000  1
  O  O68  1  0.546542  0.167244  0.250000  1
  O  O69  1  0.543352  0.166537  0.750000  1
  O  O70  1  0.551810  0.339196  0.002434  1
  O  O71  1  0.551810  0.339196  0.497566  1
  O  O72  1  0.693614  0.740008  0.000249  1
  O  O73  1  0.693614  0.740008  0.499751  1
  O  O74  1  0.720294  0.906416  0.250000  1
  O  O75  1  0.717854  0.905696  0.750000  1
  O  O76  1  0.720849  0.570562  0.000706  1
  O  O77  1  0.720849  0.570562  0.499294  1
  O  O78  1  0.780392  0.069581  0.999363  1
  O  O79  1  0.780392  0.069581  0.500637  1
  O  O80  1  0.778465  0.403641  0.250000  1
  O  O81  1  0.780885  0.405603  0.750000  1
  O  O82  1  0.805708  0.241154  0.004041  1
  O  O83  1  0.805708  0.241154  0.495959  1
  O  O84  1  0.950887  0.839494  0.000005  1
  O  O85  1  0.950887  0.839494  0.499995  1
  O  O86  1  0.955625  0.666228  0.250000  1
  O  O87  1  0.956372  0.665917  0.750000  1
