# generated using pymatgen
data_Mn12O7F17
_symmetry_space_group_name_H-M   'P 1'
_cell_length_a   4.79456345
_cell_length_b   5.77747843
_cell_length_c   15.86714878
_cell_angle_alpha   89.90456596
_cell_angle_beta   89.53536733
_cell_angle_gamma   86.92250501
_symmetry_Int_Tables_number   1
_chemical_formula_structural   Mn12O7F17
_chemical_formula_sum   'Mn12 O7 F17'
_cell_volume   438.87911068
_cell_formula_units_Z   1
loop_
 _symmetry_equiv_pos_site_id
 _symmetry_equiv_pos_as_xyz
  1  'x, y, z'
loop_
 _atom_site_type_symbol
 _atom_site_label
 _atom_site_symmetry_multiplicity
 _atom_site_fract_x
 _atom_site_fract_y
 _atom_site_fract_z
 _atom_site_occupancy
  Mn  Mn0  1  0.994622  0.155846  0.416078  1
  Mn  Mn1  1  0.021012  0.834905  0.239092  1
  Mn  Mn2  1  0.999444  0.157404  0.079554  1
  Mn  Mn3  1  0.070479  0.167311  0.751203  1
  Mn  Mn4  1  0.011476  0.850353  0.581026  1
  Mn  Mn5  1  0.015826  0.845230  0.908635  1
  Mn  Mn6  1  0.472830  0.311450  0.589222  1
  Mn  Mn7  1  0.514569  0.351814  0.918795  1
  Mn  Mn8  1  0.520086  0.338532  0.261064  1
  Mn  Mn9  1  0.495601  0.651953  0.082873  1
  Mn  Mn10  1  0.504909  0.662325  0.421973  1
  Mn  Mn11  1  0.487764  0.652016  0.753539  1
  O  O12  1  0.201406  0.092923  0.640430  1
  O  O13  1  0.226965  0.885627  0.129347  1
  O  O14  1  0.215641  0.896095  0.470312  1
  O  O15  1  0.237543  0.889643  0.802621  1
  O  O16  1  0.304204  0.400732  0.812938  1
  O  O17  1  0.710803  0.382844  0.028402  1
  O  O18  1  0.727964  0.386976  0.369371  1
  F  F19  1  0.217018  0.117328  0.306169  1
  F  F20  1  0.229967  0.123935  0.969188  1
  F  F21  1  0.260788  0.388216  0.149498  1
  F  F22  1  0.275847  0.620093  0.311557  1
  F  F23  1  0.250999  0.394870  0.475079  1
  F  F24  1  0.254955  0.593008  0.641631  1
  F  F25  1  0.263994  0.614849  0.976974  1
  F  F26  1  0.719730  0.614980  0.191892  1
  F  F27  1  0.729035  0.623209  0.533373  1
  F  F28  1  0.740136  0.615426  0.864878  1
  F  F29  1  0.744825  0.382935  0.700476  1
  F  F30  1  0.769284  0.115919  0.188851  1
  F  F31  1  0.751568  0.115247  0.520007  1
  F  F32  1  0.763040  0.888381  0.351413  1
  F  F33  1  0.762631  0.886114  0.017845  1
  F  F34  1  0.790956  0.131089  0.854943  1
  F  F35  1  0.742084  0.860420  0.689750  1
