# generated using pymatgen
data_V3O2F5
_symmetry_space_group_name_H-M   'P 1'
_cell_length_a   5.11329705
_cell_length_b   16.81532254
_cell_length_c   4.92194432
_cell_angle_alpha   89.99911601
_cell_angle_beta   89.99982189
_cell_angle_gamma   89.99881936
_symmetry_Int_Tables_number   1
_chemical_formula_structural   V3O2F5
_chemical_formula_sum   'V12 O8 F20'
_cell_volume   423.19733251
_cell_formula_units_Z   4
loop_
 _symmetry_equiv_pos_site_id
 _symmetry_equiv_pos_as_xyz
  1  'x, y, z'
loop_
 _atom_site_type_symbol
 _atom_site_label
 _atom_site_symmetry_multiplicity
 _atom_site_fract_x
 _atom_site_fract_y
 _atom_site_fract_z
 _atom_site_occupancy
  V  V0  1  0.059352  0.749991  0.948507  1
  V  V1  1  0.122754  0.597540  0.548704  1
  V  V2  1  0.122775  0.902445  0.548684  1
  V  V3  1  0.377215  0.097528  0.048677  1
  V  V4  1  0.377220  0.402492  0.048662  1
  V  V5  1  0.440661  0.250003  0.448478  1
  V  V6  1  0.559349  0.749985  0.551508  1
  V  V7  1  0.622781  0.902445  0.951325  1
  V  V8  1  0.622752  0.597537  0.951322  1
  V  V9  1  0.877212  0.097529  0.451308  1
  V  V10  1  0.877216  0.402489  0.451317  1
  V  V11  1  0.940663  0.250006  0.051507  1
  O  O12  1  0.160386  0.172968  0.286122  1
  O  O13  1  0.160459  0.327041  0.286127  1
  O  O14  1  0.339623  0.827033  0.786150  1
  O  O15  1  0.339556  0.672954  0.786183  1
  O  O16  1  0.660454  0.327042  0.213840  1
  O  O17  1  0.660387  0.172969  0.213855  1
  O  O18  1  0.839553  0.672955  0.713861  1
  O  O19  1  0.839617  0.827033  0.713860  1
  F  F20  1  0.050142  0.113523  0.816693  1
  F  F21  1  0.050182  0.386484  0.816682  1
  F  F22  1  0.170601  0.025736  0.324833  1
  F  F23  1  0.170656  0.474276  0.324840  1
  F  F24  1  0.222876  0.749994  0.320410  1
  F  F25  1  0.277057  0.250005  0.820349  1
  F  F26  1  0.329354  0.525726  0.824846  1
  F  F27  1  0.329446  0.974254  0.824834  1
  F  F28  1  0.449829  0.613534  0.316701  1
  F  F29  1  0.449863  0.886465  0.316690  1
  F  F30  1  0.550182  0.386485  0.683301  1
  F  F31  1  0.550139  0.113524  0.683292  1
  F  F32  1  0.670600  0.025736  0.175165  1
  F  F33  1  0.670656  0.474282  0.175144  1
  F  F34  1  0.722887  0.749995  0.179598  1
  F  F35  1  0.777064  0.250007  0.679635  1
  F  F36  1  0.829440  0.974254  0.675178  1
  F  F37  1  0.829353  0.525731  0.675169  1
  F  F38  1  0.949864  0.886469  0.183318  1
  F  F39  1  0.949824  0.613533  0.183323  1
