# generated using pymatgen
data_Li3B2SbO6
_symmetry_space_group_name_H-M   'P 1'
_cell_length_a   8.88321193
_cell_length_b   6.49195460
_cell_length_c   10.01958108
_cell_angle_alpha   90.00000000
_cell_angle_beta   65.03465291
_cell_angle_gamma   90.00000000
_symmetry_Int_Tables_number   1
_chemical_formula_structural   Li3B2SbO6
_chemical_formula_sum   'Li12 B8 Sb4 O24'
_cell_volume   523.83336755
_cell_formula_units_Z   4
loop_
 _symmetry_equiv_pos_site_id
 _symmetry_equiv_pos_as_xyz
  1  'x, y, z'
loop_
 _atom_site_type_symbol
 _atom_site_label
 _atom_site_symmetry_multiplicity
 _atom_site_fract_x
 _atom_site_fract_y
 _atom_site_fract_z
 _atom_site_occupancy
  Li  Li0  1  0.128349  0.255861  0.479429  1
  Li  Li1  1  0.040696  0.562435  0.669802  1
  Li  Li2  1  0.371651  0.755861  0.020571  1
  Li  Li3  1  0.297034  0.780232  0.546546  1
  Li  Li4  1  0.540695  0.937565  0.169802  1
  Li  Li5  1  0.202966  0.280232  0.953454  1
  Li  Li6  1  0.797034  0.719768  0.046546  1
  Li  Li7  1  0.459305  0.062435  0.830198  1
  Li  Li8  1  0.702966  0.219768  0.453454  1
  Li  Li9  1  0.628349  0.244139  0.979429  1
  Li  Li10  1  0.959305  0.437565  0.330198  1
  Li  Li11  1  0.871651  0.744139  0.520571  1
  B  B12  1  0.283394  0.163667  0.177158  1
  B  B13  1  0.216606  0.663667  0.322842  1
  B  B14  1  0.161122  0.669342  0.889444  1
  B  B15  1  0.338878  0.169342  0.610556  1
  B  B16  1  0.661122  0.830658  0.389444  1
  B  B17  1  0.838878  0.330658  0.110556  1
  B  B18  1  0.783394  0.336333  0.677158  1
  B  B19  1  0.716606  0.836333  0.822842  1
  Sb  Sb20  1  0.009156  0.030587  0.798117  1
  Sb  Sb21  1  0.509156  0.469413  0.298117  1
  Sb  Sb22  1  0.490844  0.530587  0.701883  1
  Sb  Sb23  1  0.990844  0.969413  0.201883  1
  O  O24  1  0.067885  0.712826  0.314972  1
  O  O25  1  0.126871  0.205543  0.288794  1
  O  O26  1  0.287494  0.060134  0.053407  1
  O  O27  1  0.212506  0.560134  0.446593  1
  O  O28  1  0.373129  0.705543  0.211206  1
  O  O29  1  0.024084  0.775824  0.985747  1
  O  O30  1  0.231495  0.067780  0.563379  1
  O  O31  1  0.432115  0.212826  0.185028  1
  O  O32  1  0.197155  0.669915  0.740990  1
  O  O33  1  0.302845  0.169915  0.759010  1
  O  O34  1  0.268505  0.567780  0.936621  1
  O  O35  1  0.475916  0.275824  0.514253  1
  O  O36  1  0.524084  0.724176  0.485747  1
  O  O37  1  0.731495  0.432220  0.063379  1
  O  O38  1  0.697155  0.830085  0.240990  1
  O  O39  1  0.802845  0.330085  0.259010  1
  O  O40  1  0.567885  0.787174  0.814972  1
  O  O41  1  0.768505  0.932220  0.436621  1
  O  O42  1  0.975916  0.224176  0.014253  1
  O  O43  1  0.626871  0.294457  0.788794  1
  O  O44  1  0.787494  0.439866  0.553407  1
  O  O45  1  0.712506  0.939866  0.946593  1
  O  O46  1  0.873129  0.794457  0.711206  1
  O  O47  1  0.932115  0.287174  0.685028  1
