# generated using pymatgen
data_Li4Fe5Ni3O16
_symmetry_space_group_name_H-M   'P 1'
_cell_length_a   5.86378215
_cell_length_b   5.82698883
_cell_length_c   9.45438503
_cell_angle_alpha   89.96478296
_cell_angle_beta   90.50488365
_cell_angle_gamma   119.83359129
_symmetry_Int_Tables_number   1
_chemical_formula_structural   Li4Fe5Ni3O16
_chemical_formula_sum   'Li4 Fe5 Ni3 O16'
_cell_volume   280.21460877
_cell_formula_units_Z   1
loop_
 _symmetry_equiv_pos_site_id
 _symmetry_equiv_pos_as_xyz
  1  'x, y, z'
loop_
 _atom_site_type_symbol
 _atom_site_label
 _atom_site_symmetry_multiplicity
 _atom_site_fract_x
 _atom_site_fract_y
 _atom_site_fract_z
 _atom_site_occupancy
  Li  Li0  1  0.328489  0.664257  0.892606  1
  Li  Li1  1  0.989337  0.994546  0.993337  1
  Li  Li2  1  0.997768  0.998919  0.496863  1
  Li  Li3  1  0.672671  0.336541  0.396327  1
  Fe  Fe4  1  0.169993  0.830732  0.214426  1
  Fe  Fe5  1  0.340523  0.670437  0.489376  1
  Fe  Fe6  1  0.170090  0.339283  0.214413  1
  Fe  Fe7  1  0.341360  0.170780  0.714860  1
  Fe  Fe8  1  0.665805  0.332734  0.987907  1
  Ni  Ni9  1  0.658917  0.829590  0.212110  1
  Ni  Ni10  1  0.829697  0.660373  0.713014  1
  Ni  Ni11  1  0.829630  0.169286  0.713017  1
  O  O12  1  0.173795  0.840310  0.600487  1
  O  O13  1  0.038197  0.519005  0.342647  1
  O  O14  1  0.332960  0.666510  0.103817  1
  O  O15  1  -0.007783  -0.003962  0.307552  1
  O  O16  1  -0.008834  -0.004980  0.804272  1
  O  O17  1  0.174273  0.333940  0.600337  1
  O  O18  1  0.483744  0.964681  0.343255  1
  O  O19  1  0.485037  0.520810  0.342808  1
  O  O20  1  0.326828  0.163383  0.098850  1
  O  O21  1  0.677668  0.839145  0.601156  1
  O  O22  1  0.515354  0.479608  0.841807  1
  O  O23  1  0.515150  0.035816  0.842000  1
  O  O24  1  0.674813  0.337977  0.608237  1
  O  O25  1  0.833689  0.667146  0.097804  1
  O  O26  1  0.958094  0.478749  0.836466  1
  O  O27  1  0.832736  0.164680  0.098088  1
