# generated using pymatgen
data_Li6V3P8O29
_symmetry_space_group_name_H-M   'P 1'
_cell_length_a   9.78936011
_cell_length_b   9.78306428
_cell_length_c   13.97568993
_cell_angle_alpha   89.79447509
_cell_angle_beta   89.90622974
_cell_angle_gamma   60.27736428
_symmetry_Int_Tables_number   1
_chemical_formula_structural   Li6V3P8O29
_chemical_formula_sum   'Li12 V6 P16 O58'
_cell_volume   1162.35112452
_cell_formula_units_Z   2
loop_
 _symmetry_equiv_pos_site_id
 _symmetry_equiv_pos_as_xyz
  1  'x, y, z'
loop_
 _atom_site_type_symbol
 _atom_site_label
 _atom_site_symmetry_multiplicity
 _atom_site_fract_x
 _atom_site_fract_y
 _atom_site_fract_z
 _atom_site_occupancy
  Li  Li0  1  0.766052  0.901847  0.559206  1
  Li  Li1  1  0.905729  0.334605  0.560832  1
  Li  Li2  1  0.766034  0.330551  0.057434  1
  Li  Li3  1  0.337168  0.895571  0.059080  1
  Li  Li4  1  0.667173  0.238036  0.440996  1
  Li  Li5  1  0.337166  0.765899  0.562847  1
  Li  Li6  1  0.678925  0.084014  0.936949  1
  Li  Li7  1  0.329235  0.345905  0.111473  1
  Li  Li8  1  0.097881  0.666730  0.438515  1
  Li  Li9  1  0.094608  0.227384  0.938603  1
  Li  Li10  1  0.022823  0.919955  0.007034  1
  Li  Li11  1  0.038284  0.014286  0.494425  1
  V  V12  1  0.561273  0.439992  0.249575  1
  V  V13  1  0.432285  0.564771  0.754424  1
  V  V14  1  0.563935  0.997636  0.747795  1
  V  V15  1  0.432326  0.003557  0.252332  1
  V  V16  1  0.994181  0.567732  0.248566  1
  V  V17  1  0.000839  0.436849  0.751066  1
  P  P18  1  0.913814  0.777044  0.839921  1
  P  P19  1  0.772812  0.917102  0.340840  1
  P  P20  1  0.914623  0.309002  0.345060  1
  P  P21  1  0.663926  0.668082  0.129696  1
  P  P22  1  0.666279  0.664421  0.630658  1
  P  P23  1  0.772980  0.314043  0.841506  1
  P  P24  1  0.685570  0.228355  0.657602  1
  P  P25  1  0.312246  0.913079  0.845432  1
  P  P26  1  0.685656  0.090624  0.154330  1
  P  P27  1  0.313094  0.773677  0.344292  1
  P  P28  1  0.217266  0.692024  0.159934  1
  P  P29  1  0.331393  0.337273  0.368326  1
  P  P30  1  0.337106  0.328230  0.871001  1
  P  P31  1  0.085450  0.689297  0.655139  1
  P  P32  1  0.220498  0.086487  0.660806  1
  P  P33  1  0.089193  0.225601  0.159480  1
  O  O34  1  0.000078  0.772389  0.564222  1
  O  O35  1  0.915421  0.749366  0.341570  1
  O  O36  1  0.770767  0.007189  0.065194  1
  O  O37  1  0.740453  0.914710  0.836040  1
  O  O38  1  0.919853  0.616740  0.830769  1
  O  O39  1  0.809892  0.666292  0.177689  1
  O  O40  1  0.920842  0.462225  0.334253  1
  O  O41  1  0.995925  0.236590  0.070918  1
  O  O42  1  0.920233  0.334509  0.840706  1
  O  O43  1  0.677685  0.809612  0.669359  1
  O  O44  1  0.617232  0.916071  0.329820  1
  O  O45  1  0.811533  0.511229  0.671971  1
  O  O46  1  0.667746  0.656082  0.023667  1
  O  O47  1  0.664697  0.663605  0.523676  1
  O  O48  1  0.665694  0.517371  0.174038  1
  O  O49  1  0.467635  0.913924  0.830046  1
  O  O50  1  0.512654  0.817157  0.167615  1
  O  O51  1  0.745285  0.336909  0.339222  1
  O  O52  1  0.794963  0.203695  0.750249  1
  O  O53  1  0.777070  0.225191  0.569427  1
  O  O54  1  0.770305  0.228486  0.930810  1
  O  O55  1  0.622785  0.473450  0.827678  1
  O  O56  1  0.512115  0.673997  0.672671  1
  O  O57  1  0.660927  0.259662  0.156144  1
  O  O58  1  0.468765  0.618176  0.333531  1
  O  O59  1  0.339149  0.914258  0.334716  1
  O  O60  1  0.792986  0.002643  0.247011  1
  O  O61  1  0.774782  0.005631  0.429225  1
  O  O62  1  0.206840  0.994020  0.579562  1
  O  O63  1  0.660321  0.083633  0.657299  1
  O  O64  1  0.530784  0.382916  0.669676  1
  O  O65  1  0.339041  0.745888  0.839225  1
  O  O66  1  0.483576  0.330918  0.322323  1
  O  O67  1  0.372288  0.530218  0.165614  1
  O  O68  1  0.212002  0.795945  0.079292  1
  O  O69  1  0.225753  0.781289  0.435845  1
  O  O70  1  0.198947  0.786609  0.257957  1
  O  O71  1  0.252122  0.667215  0.658491  1
  O  O72  1  0.490054  0.184295  0.831118  1
  O  O73  1  0.522467  0.102510  0.168751  1
  O  O74  1  0.332110  0.478620  0.826291  1
  O  O75  1  0.341387  0.326445  0.978448  1
  O  O76  1  0.345871  0.335285  0.474500  1
  O  O77  1  0.185130  0.492440  0.330436  1
  O  O78  1  0.379944  0.081489  0.668422  1
  O  O79  1  0.324759  0.195066  0.321517  1
  O  O80  1  0.079210  0.660251  0.158602  1
  O  O81  1  0.990548  0.801497  0.743145  1
  O  O82  1  0.996975  0.792929  0.923512  1
  O  O83  1  0.089395  0.531398  0.670955  1
  O  O84  1  0.190326  0.320976  0.833529  1
  O  O85  1  0.107176  0.374153  0.172517  1
  O  O86  1  0.255130  0.080427  0.156108  1
  O  O87  1  0.229503  0.995440  0.936472  1
  O  O88  1  0.196064  0.013949  0.758858  1
  O  O89  1  0.082996  0.259016  0.659089  1
  O  O90  1  0.991604  0.218466  0.434968  1
  O  O91  1  0.005273  0.202525  0.252120  1
