# generated using pymatgen
data_Ni2(PO3)5
_symmetry_space_group_name_H-M   'P 1'
_cell_length_a   12.79504134
_cell_length_b   8.63650641
_cell_length_c   5.34095595
_cell_angle_alpha   90.00000000
_cell_angle_beta   93.91097332
_cell_angle_gamma   90.00000000
_symmetry_Int_Tables_number   1
_chemical_formula_structural   Ni2(PO3)5
_chemical_formula_sum   'Ni4 P10 O30'
_cell_volume   588.82499872
_cell_formula_units_Z   2
loop_
 _symmetry_equiv_pos_site_id
 _symmetry_equiv_pos_as_xyz
  1  'x, y, z'
loop_
 _atom_site_type_symbol
 _atom_site_label
 _atom_site_symmetry_multiplicity
 _atom_site_fract_x
 _atom_site_fract_y
 _atom_site_fract_z
 _atom_site_occupancy
  Ni  Ni0  1  0.455263  0.719299  0.345554  1
  Ni  Ni1  1  0.546686  0.280122  0.653502  1
  Ni  Ni2  1  0.046686  0.719878  0.153502  1
  Ni  Ni3  1  0.955263  0.280701  0.845554  1
  P  P4  1  0.591283  0.822018  0.888322  1
  P  P5  1  0.361153  0.487569  0.900041  1
  P  P6  1  0.861153  0.512431  0.400041  1
  P  P7  1  0.251095  0.943649  0.250102  1
  P  P8  1  0.091283  0.177982  0.388322  1
  P  P9  1  0.911067  0.825134  0.606476  1
  P  P10  1  0.640707  0.510293  0.101953  1
  P  P11  1  0.140707  0.489707  0.601953  1
  P  P12  1  0.751095  0.056351  0.750102  1
  P  P13  1  0.411067  0.174866  0.106476  1
  O  O14  1  0.650388  0.657677  0.922150  1
  O  O15  1  0.173138  0.854997  0.081229  1
  O  O16  1  0.539352  0.825092  0.629835  1
  O  O17  1  0.136420  0.631856  0.442122  1
  O  O18  1  0.751476  0.511074  0.248524  1
  O  O19  1  0.850572  0.661706  0.575088  1
  O  O20  1  0.364266  0.627662  0.064374  1
  O  O21  1  0.026982  0.145883  0.606780  1
  O  O22  1  0.329069  0.856200  0.420608  1
  O  O23  1  0.864266  0.372338  0.564374  1
  O  O24  1  0.039352  0.174908  0.129835  1
  O  O25  1  0.812790  0.941251  0.574783  1
  O  O26  1  0.350572  0.338294  0.075088  1
  O  O27  1  0.636420  0.368144  0.942122  1
  O  O28  1  0.829069  0.143800  0.920608  1
  O  O29  1  0.690020  0.937553  0.921371  1
  O  O30  1  0.526982  0.854117  0.106780  1
  O  O31  1  0.964971  0.827325  0.863038  1
  O  O32  1  0.251476  0.488926  0.748524  1
  O  O33  1  0.058981  0.466546  0.789749  1
  O  O34  1  0.464971  0.172675  0.363038  1
  O  O35  1  0.443909  0.465887  0.714402  1
  O  O36  1  0.473667  0.142933  0.884810  1
  O  O37  1  0.943909  0.534113  0.214402  1
  O  O38  1  0.558981  0.533454  0.289749  1
  O  O39  1  0.973667  0.857067  0.384810  1
  O  O40  1  0.312791  0.058749  0.074783  1
  O  O41  1  0.150388  0.342323  0.422150  1
  O  O42  1  0.673138  0.145003  0.581229  1
  O  O43  1  0.190020  0.062447  0.421371  1
