# generated using pymatgen
data_BaYI5
_symmetry_space_group_name_H-M   'P 1'
_cell_length_a   13.92137968
_cell_length_b   11.74224267
_cell_length_c   15.88008800
_cell_angle_alpha   90.00000000
_cell_angle_beta   94.35622505
_cell_angle_gamma   90.00000000
_symmetry_Int_Tables_number   1
_chemical_formula_structural   BaYI5
_chemical_formula_sum   'Ba8 Y8 I40'
_cell_volume   2588.39036672
_cell_formula_units_Z   8
loop_
 _symmetry_equiv_pos_site_id
 _symmetry_equiv_pos_as_xyz
  1  'x, y, z'
loop_
 _atom_site_type_symbol
 _atom_site_label
 _atom_site_symmetry_multiplicity
 _atom_site_fract_x
 _atom_site_fract_y
 _atom_site_fract_z
 _atom_site_occupancy
  Ba  Ba0  1  0.192329  0.717394  0.860572  1
  Ba  Ba1  1  0.259924  0.733975  0.461320  1
  Ba  Ba2  1  0.307671  0.217394  0.639428  1
  Ba  Ba3  1  0.240076  0.233975  0.038680  1
  Ba  Ba4  1  0.759924  0.766025  0.961320  1
  Ba  Ba5  1  0.692329  0.782606  0.360572  1
  Ba  Ba6  1  0.740076  0.266025  0.538680  1
  Ba  Ba7  1  0.807671  0.282606  0.139428  1
  Y  Y8  1  0.019558  0.191762  0.807159  1
  Y  Y9  1  0.126971  0.221789  0.335981  1
  Y  Y10  1  0.373028  0.721789  0.164019  1
  Y  Y11  1  0.480442  0.691762  0.692841  1
  Y  Y12  1  0.519558  0.308238  0.307159  1
  Y  Y13  1  0.626972  0.278211  0.835981  1
  Y  Y14  1  0.873028  0.778211  0.664019  1
  Y  Y15  1  0.980442  0.808238  0.192841  1
  I  I16  1  0.045722  0.230626  0.626062  1
  I  I17  1  0.016960  0.818500  0.007557  1
  I  I18  1  0.084003  0.780179  0.639422  1
  I  I19  1  0.139713  0.399325  0.857033  1
  I  I20  1  0.084391  0.367972  0.182194  1
  I  I21  1  0.096596  0.025089  0.207582  1
  I  I22  1  0.201586  0.049711  0.830292  1
  I  I23  1  0.189673  0.410362  0.453572  1
  I  I24  1  0.194561  0.042723  0.465688  1
  I  I25  1  0.171622  0.686179  0.238497  1
  I  I26  1  0.298414  0.549711  0.669708  1
  I  I27  1  0.328378  0.186179  0.261503  1
  I  I28  1  0.305439  0.542723  0.034312  1
  I  I29  1  0.310327  0.910362  0.046428  1
  I  I30  1  0.360287  0.899325  0.642967  1
  I  I31  1  0.415997  0.280179  0.860578  1
  I  I32  1  0.403404  0.525089  0.292418  1
  I  I33  1  0.415608  0.867972  0.317806  1
  I  I34  1  0.454278  0.730626  0.873938  1
  I  I35  1  0.483040  0.318500  0.492443  1
  I  I36  1  0.516960  0.681500  0.507557  1
  I  I37  1  0.545722  0.269374  0.126062  1
  I  I38  1  0.584391  0.132028  0.682194  1
  I  I39  1  0.596596  0.474911  0.707582  1
  I  I40  1  0.584003  0.719821  0.139422  1
  I  I41  1  0.639713  0.100675  0.357033  1
  I  I42  1  0.689673  0.089638  0.953572  1
  I  I43  1  0.694561  0.457277  0.965688  1
  I  I44  1  0.671622  0.813821  0.738497  1
  I  I45  1  0.701586  0.450289  0.330292  1
  I  I46  1  0.828378  0.313821  0.761503  1
  I  I47  1  0.805439  0.957277  0.534312  1
  I  I48  1  0.810327  0.589638  0.546428  1
  I  I49  1  0.798414  0.950289  0.169708  1
  I  I50  1  0.903404  0.974911  0.792418  1
  I  I51  1  0.915609  0.632028  0.817806  1
  I  I52  1  0.860287  0.600675  0.142967  1
  I  I53  1  0.915997  0.219821  0.360578  1
  I  I54  1  0.983040  0.181500  0.992443  1
  I  I55  1  0.954278  0.769374  0.373938  1
