# generated using pymatgen
data_SnH3S4N4Cl5O
_symmetry_space_group_name_H-M   'P 1'
_cell_length_a   9.35834106
_cell_length_b   24.37560484
_cell_length_c   6.84285049
_cell_angle_alpha   90.00000000
_cell_angle_beta   101.91464309
_cell_angle_gamma   90.00000000
_symmetry_Int_Tables_number   1
_chemical_formula_structural   SnH3S4N4Cl5O
_chemical_formula_sum   'Sn4 H12 S16 N16 Cl20 O4'
_cell_volume   1527.32947838
_cell_formula_units_Z   4
loop_
 _symmetry_equiv_pos_site_id
 _symmetry_equiv_pos_as_xyz
  1  'x, y, z'
loop_
 _atom_site_type_symbol
 _atom_site_label
 _atom_site_symmetry_multiplicity
 _atom_site_fract_x
 _atom_site_fract_y
 _atom_site_fract_z
 _atom_site_occupancy
  Sn  Sn0  1  0.751395  0.637983  0.477996  1
  Sn  Sn1  1  0.248605  0.137983  0.022004  1
  Sn  Sn2  1  0.248605  0.362017  0.522004  1
  Sn  Sn3  1  0.751395  0.862017  0.977996  1
  H  H4  1  0.492550  0.609133  0.066937  1
  H  H5  1  0.507450  0.109133  0.433063  1
  H  H6  1  0.507450  0.390867  0.933063  1
  H  H7  1  0.492550  0.890867  0.566937  1
  H  H8  1  0.740383  0.715461  0.786895  1
  H  H9  1  0.259617  0.215461  0.713105  1
  H  H10  1  0.259617  0.284539  0.213105  1
  H  H11  1  0.740383  0.784539  0.286895  1
  H  H12  1  0.737664  0.657073  0.889958  1
  H  H13  1  0.262336  0.157073  0.610042  1
  H  H14  1  0.262336  0.342927  0.110042  1
  H  H15  1  0.737664  0.842927  0.389958  1
  S  S16  1  0.325322  0.657283  0.823511  1
  S  S17  1  0.674678  0.157283  0.676489  1
  S  S18  1  0.674678  0.342717  0.176489  1
  S  S19  1  0.325322  0.842717  0.323511  1
  S  S20  1  0.159707  0.677112  0.143954  1
  S  S21  1  0.840293  0.177112  0.356046  1
  S  S22  1  0.840293  0.322888  0.856046  1
  S  S23  1  0.159707  0.822888  0.643954  1
  S  S24  1  0.176899  0.557620  0.241805  1
  S  S25  1  0.823101  0.057620  0.258195  1
  S  S26  1  0.823101  0.442380  0.758195  1
  S  S27  1  0.176899  0.942380  0.741805  1
  S  S28  1  0.328316  0.541609  0.904497  1
  S  S29  1  0.671684  0.041609  0.595503  1
  S  S30  1  0.671684  0.458391  0.095503  1
  S  S31  1  0.328316  0.958391  0.404497  1
  N  N32  1  0.410450  0.602930  0.943450  1
  N  N33  1  0.589550  0.102930  0.556550  1
  N  N34  1  0.589550  0.397070  0.056550  1
  N  N35  1  0.410450  0.897070  0.443450  1
  N  N36  1  0.219060  0.685126  0.948874  1
  N  N37  1  0.780940  0.185126  0.551126  1
  N  N38  1  0.780940  0.314874  0.051126  1
  N  N39  1  0.219060  0.814874  0.448874  1
  N  N40  1  0.194707  0.622154  0.270495  1
  N  N41  1  0.805293  0.122154  0.229505  1
  N  N42  1  0.805293  0.377846  0.729505  1
  N  N43  1  0.194707  0.877846  0.770495  1
  N  N44  1  0.232132  0.529480  0.067028  1
  N  N45  1  0.767868  0.029480  0.432972  1
  N  N46  1  0.767868  0.470520  0.932972  1
  N  N47  1  0.232132  0.970520  0.567028  1
  Cl  Cl48  1  0.941832  0.583786  0.683820  1
  Cl  Cl49  1  0.058168  0.083786  0.816180  1
  Cl  Cl50  1  0.058168  0.416214  0.316180  1
  Cl  Cl51  1  0.941832  0.916214  0.183820  1
  Cl  Cl52  1  0.920925  0.714135  0.476533  1
  Cl  Cl53  1  0.079075  0.214135  0.023467  1
  Cl  Cl54  1  0.079075  0.285865  0.523467  1
  Cl  Cl55  1  0.920925  0.785865  0.976533  1
  Cl  Cl56  1  0.556087  0.697479  0.301227  1
  Cl  Cl57  1  0.443913  0.197479  0.198773  1
  Cl  Cl58  1  0.443913  0.302521  0.698773  1
  Cl  Cl59  1  0.556087  0.802521  0.801227  1
  Cl  Cl60  1  0.569964  0.568574  0.504993  1
  Cl  Cl61  1  0.430036  0.068574  0.995007  1
  Cl  Cl62  1  0.430036  0.431426  0.495007  1
  Cl  Cl63  1  0.569964  0.931426  0.004993  1
  Cl  Cl64  1  0.790528  0.600766  0.155594  1
  Cl  Cl65  1  0.209472  0.100766  0.344406  1
  Cl  Cl66  1  0.209472  0.399234  0.844406  1
  Cl  Cl67  1  0.790528  0.899234  0.655594  1
  O  O68  1  0.703462  0.677718  0.763771  1
  O  O69  1  0.296538  0.177718  0.736229  1
  O  O70  1  0.296538  0.322282  0.236229  1
  O  O71  1  0.703462  0.822282  0.263771  1
