# generated using pymatgen
data_HgH3CSO3
_symmetry_space_group_name_H-M   'P 1'
_cell_length_a   8.97785378
_cell_length_b   8.61206754
_cell_length_c   8.97785378
_cell_angle_alpha   118.45940773
_cell_angle_beta   120.35409710
_cell_angle_gamma   92.24263112
_symmetry_Int_Tables_number   1
_chemical_formula_structural   HgH3CSO3
_chemical_formula_sum   'Hg4 H12 C4 S4 O12'
_cell_volume   489.44336715
_cell_formula_units_Z   4
loop_
 _symmetry_equiv_pos_site_id
 _symmetry_equiv_pos_as_xyz
  1  'x, y, z'
loop_
 _atom_site_type_symbol
 _atom_site_label
 _atom_site_symmetry_multiplicity
 _atom_site_fract_x
 _atom_site_fract_y
 _atom_site_fract_z
 _atom_site_occupancy
  Hg  Hg0  1  0.227830  0.107566  0.543388  1
  Hg  Hg1  1  0.435823  0.392434  0.620264  1
  Hg  Hg2  1  0.772170  0.892434  0.456612  1
  Hg  Hg3  1  0.564177  0.607566  0.379736  1
  H  H4  1  0.859693  0.445385  0.215200  1
  H  H5  1  0.769815  0.054615  0.914307  1
  H  H6  1  0.140307  0.554615  0.784800  1
  H  H7  1  0.230185  0.945385  0.085693  1
  H  H8  1  0.872931  0.538706  0.078501  1
  H  H9  1  0.539795  0.961294  0.834225  1
  H  H10  1  0.127069  0.461294  0.921499  1
  H  H11  1  0.460205  0.038706  0.165775  1
  H  H12  1  0.988834  0.377404  0.105663  1
  H  H13  1  0.728259  0.122596  0.111430  1
  H  H14  1  0.011166  0.622596  0.894337  1
  H  H15  1  0.271741  0.877404  0.888570  1
  C  C16  1  0.945627  0.490250  0.178886  1
  C  C17  1  0.688636  0.009750  0.955377  1
  C  C18  1  0.054373  0.509750  0.821114  1
  C  C19  1  0.311364  0.990250  0.044623  1
  S  S20  1  0.151443  0.682455  0.420522  1
  S  S21  1  0.738067  0.817545  0.968987  1
  S  S22  1  0.848557  0.317545  0.579478  1
  S  S23  1  0.261933  0.182455  0.031013  1
  O  O24  1  0.223956  0.628998  0.568712  1
  O  O25  1  0.939714  0.871002  0.094958  1
  O  O26  1  0.776044  0.371002  0.431288  1
  O  O27  1  0.060286  0.128998  0.905042  1
  O  O28  1  0.278049  0.730796  0.378676  1
  O  O29  1  0.647880  0.769204  0.047253  1
  O  O30  1  0.721951  0.269204  0.621324  1
  O  O31  1  0.352120  0.230796  0.952747  1
  O  O32  1  0.088792  0.848338  0.496359  1
  O  O33  1  0.648022  0.651662  0.740455  1
  O  O34  1  0.911208  0.151662  0.503641  1
  O  O35  1  0.351978  0.348338  0.259545  1
