# generated using pymatgen
data_LiVFeP2(HO5)2
_symmetry_space_group_name_H-M   'P 1'
_cell_length_a   5.30510875
_cell_length_b   14.72749827
_cell_length_c   7.41785435
_cell_angle_alpha   95.80045721
_cell_angle_beta   69.84404776
_cell_angle_gamma   87.85377571
_symmetry_Int_Tables_number   1
_chemical_formula_structural   LiVFeP2(HO5)2
_chemical_formula_sum   'Li3 V3 Fe3 P6 H6 O30'
_cell_volume   539.66180047
_cell_formula_units_Z   3
loop_
 _symmetry_equiv_pos_site_id
 _symmetry_equiv_pos_as_xyz
  1  'x, y, z'
loop_
 _atom_site_type_symbol
 _atom_site_label
 _atom_site_symmetry_multiplicity
 _atom_site_fract_x
 _atom_site_fract_y
 _atom_site_fract_z
 _atom_site_occupancy
  Li  Li0  1  0.921391  0.643319  0.489315  1
  Li  Li1  1  0.412512  0.021769  0.177269  1
  Li  Li2  1  0.253820  0.311060  0.155058  1
  V  V3  1  0.666735  0.833058  0.333211  1
  V  V4  1  0.333479  0.166299  0.666684  1
  V  V5  1  0.000515  0.501623  0.996731  1
  Fe  Fe6  1  0.665297  0.334356  0.339679  1
  Fe  Fe7  1  0.333061  0.668260  0.673183  1
  Fe  Fe8  1  0.002834  0.997302  0.991359  1
  P  P9  1  0.980133  0.150500  0.375196  1
  P  P10  1  0.687566  0.182007  0.957383  1
  P  P11  1  0.645283  0.484334  0.710100  1
  P  P12  1  0.357073  0.516366  0.287320  1
  P  P13  1  0.309303  0.816632  0.046541  1
  P  P14  1  0.024812  0.849408  0.619139  1
  H  H15  1  0.954871  0.332038  0.983811  1
  H  H16  1  0.711440  0.001830  0.348837  1
  H  H17  1  0.623786  0.664129  0.317232  1
  H  H18  1  0.356487  0.335962  0.679333  1
  H  H19  1  0.310642  0.996606  0.653233  1
  H  H20  1  0.022924  0.670618  0.013017  1
  O  O21  1  0.931742  0.897871  0.826453  1
  O  O22  1  0.967160  0.213957  0.836926  1
  O  O23  1  0.851028  0.457700  0.806866  1
  O  O24  1  0.699041  0.078878  0.971809  1
  O  O25  1  0.968674  0.253831  0.360813  1
  O  O26  1  0.815447  0.875703  0.524805  1
  O  O27  1  0.633463  0.587885  0.696834  1
  O  O28  1  0.956171  0.376501  0.092810  1
  O  O29  1  0.734963  0.432038  0.506138  1
  O  O30  1  0.700202  0.118955  0.496476  1
  O  O31  1  0.712476  0.957194  0.239364  1
  O  O32  1  0.472175  0.211020  0.870086  1
  O  O33  1  0.621068  0.709186  0.427023  1
  O  O34  1  0.402038  0.768354  0.839152  1
  O  O35  1  0.365257  0.452113  0.832035  1
  O  O36  1  0.636173  0.550848  0.171989  1
  O  O37  1  0.588621  0.237509  0.160446  1
  O  O38  1  0.397130  0.285749  0.572083  1
  O  O39  1  0.518423  0.790677  0.141331  1
  O  O40  1  0.269131  0.047003  0.760873  1
  O  O41  1  0.302637  0.885156  0.502997  1
  O  O42  1  0.256306  0.568149  0.493489  1
  O  O43  1  0.065907  0.620163  0.905115  1
  O  O44  1  0.382369  0.411727  0.282465  1
  O  O45  1  0.195241  0.121950  0.463050  1
  O  O46  1  0.052054  0.744526  0.613377  1
  O  O47  1  0.282624  0.921476  0.052065  1
  O  O48  1  0.139579  0.545224  0.201837  1
  O  O49  1  0.031114  0.781201  0.162948  1
  O  O50  1  0.078180  0.095208  0.172484  1
