# generated using pymatgen
data_Al12PbO19
_symmetry_space_group_name_H-M   'P 1'
_cell_length_a   5.63028233
_cell_length_b   5.63029581
_cell_length_c   22.24682982
_cell_angle_alpha   90.00008833
_cell_angle_beta   90.00006767
_cell_angle_gamma   120.00006746
_symmetry_Int_Tables_number   1
_chemical_formula_structural   Al12PbO19
_chemical_formula_sum   'Al24 Pb2 O38'
_cell_volume   610.74490795
_cell_formula_units_Z   2
loop_
 _symmetry_equiv_pos_site_id
 _symmetry_equiv_pos_as_xyz
  1  'x, y, z'
loop_
 _atom_site_type_symbol
 _atom_site_label
 _atom_site_symmetry_multiplicity
 _atom_site_fract_x
 _atom_site_fract_y
 _atom_site_fract_z
 _atom_site_occupancy
  Al  Al0  1  0.169056  0.830977  0.892063  1
  Al  Al1  1  0.167592  0.832426  0.608743  1
  Al  Al2  1  0.333342  0.666667  0.028448  1
  Al  Al3  1  0.333335  0.666674  0.190293  1
  Al  Al4  1  0.333331  0.666655  0.309804  1
  Al  Al5  1  0.167576  0.335166  0.608743  1
  Al  Al6  1  0.000011  0.000000  0.000294  1
  Al  Al7  1  0.999998  0.999995  0.258778  1
  Al  Al8  1  -0.000000  1.000000  0.500294  1
  Al  Al9  1  0.000003  0.000006  0.758779  1
  Al  Al10  1  0.333331  0.666659  0.471911  1
  Al  Al11  1  0.169024  0.338075  0.892063  1
  Al  Al12  1  0.664836  0.832413  0.608743  1
  Al  Al13  1  0.661925  0.830948  0.892063  1
  Al  Al14  1  0.335178  0.167590  0.108743  1
  Al  Al15  1  0.338076  0.169051  0.392063  1
  Al  Al16  1  0.666669  0.333340  0.809804  1
  Al  Al17  1  0.666671  0.333342  0.690294  1
  Al  Al18  1  0.830979  0.661926  0.392063  1
  Al  Al19  1  0.832429  0.664835  0.108743  1
  Al  Al20  1  0.666671  0.333340  0.528448  1
  Al  Al21  1  0.666673  0.333337  0.971911  1
  Al  Al22  1  0.832432  0.167579  0.108741  1
  Al  Al23  1  0.830945  0.169022  0.392063  1
  Pb  Pb24  1  0.333330  0.666659  0.748678  1
  Pb  Pb25  1  0.666675  0.333316  0.248681  1
  O  O26  1  0.155328  0.844719  0.051222  1
  O  O27  1  0.154508  0.845544  0.447979  1
  O  O28  1  0.003028  0.501525  0.852993  1
  O  O29  1  0.002664  0.501337  0.647434  1
  O  O30  1  0.181612  0.818374  0.250810  1
  O  O31  1  0.154457  0.308954  0.447979  1
  O  O32  1  0.333324  0.666642  0.554173  1
  O  O33  1  0.000012  0.000002  0.147030  1
  O  O34  1  0.000000  0.999998  0.350271  1
  O  O35  1  0.181616  0.363230  0.250812  1
  O  O36  1  0.000001  0.000004  0.647030  1
  O  O37  1  0.000001  0.000002  0.850269  1
  O  O38  1  0.333325  0.666651  0.945938  1
  O  O39  1  0.155323  0.310597  0.051222  1
  O  O40  1  0.498676  0.997344  0.647433  1
  O  O41  1  0.498501  0.996975  0.852993  1
  O  O42  1  0.636763  0.818387  0.250812  1
  O  O43  1  0.310601  0.155319  0.551221  1
  O  O44  1  0.308968  0.154496  0.947979  1
  O  O45  1  0.498668  0.501332  0.647433  1
  O  O46  1  0.498474  0.501503  0.852994  1
  O  O47  1  0.501525  0.498493  0.352995  1
  O  O48  1  0.501343  0.498674  0.147435  1
  O  O49  1  0.689412  0.844676  0.051221  1
  O  O50  1  0.691036  0.845502  0.447979  1
  O  O51  1  0.363241  0.181625  0.750809  1
  O  O52  1  0.501499  0.003023  0.352994  1
  O  O53  1  0.666679  0.333356  0.445939  1
  O  O54  1  0.818381  0.636773  0.750809  1
  O  O55  1  0.666699  0.333325  0.054175  1
  O  O56  1  0.845540  0.691039  0.947979  1
  O  O57  1  0.501341  0.002668  0.147433  1
  O  O58  1  0.844730  0.689407  0.551223  1
  O  O59  1  0.818396  0.181635  0.750810  1
  O  O60  1  0.997350  0.498670  0.147433  1
  O  O61  1  0.996971  0.498473  0.352995  1
  O  O62  1  0.845500  0.154458  0.947979  1
  O  O63  1  0.844671  0.155273  0.551221  1
