# generated using pymatgen
data_LiMn3(PO4)3
_symmetry_space_group_name_H-M   'P 1'
_cell_length_a   12.59658791
_cell_length_b   9.04040843
_cell_length_c   8.60220426
_cell_angle_alpha   103.42830987
_cell_angle_beta   79.60659997
_cell_angle_gamma   75.16460448
_symmetry_Int_Tables_number   1
_chemical_formula_structural   LiMn3(PO4)3
_chemical_formula_sum   'Li4 Mn12 P12 O48'
_cell_volume   890.58463993
_cell_formula_units_Z   4
loop_
 _symmetry_equiv_pos_site_id
 _symmetry_equiv_pos_as_xyz
  1  'x, y, z'
loop_
 _atom_site_type_symbol
 _atom_site_label
 _atom_site_symmetry_multiplicity
 _atom_site_fract_x
 _atom_site_fract_y
 _atom_site_fract_z
 _atom_site_occupancy
  Li  Li0  1  0.238962  0.262018  0.492457  1
  Li  Li1  1  0.497642  0.000446  0.501144  1
  Li  Li2  1  0.761015  0.739169  0.508617  1
  Li  Li3  1  0.882567  0.128350  0.986885  1
  Mn  Mn4  1  0.042563  0.890969  0.613002  1
  Mn  Mn5  1  0.238362  0.495252  0.264766  1
  Mn  Mn6  1  0.133307  0.482067  0.932411  1
  Mn  Mn7  1  0.366527  0.018342  0.067231  1
  Mn  Mn8  1  0.458637  0.607269  0.383997  1
  Mn  Mn9  1  0.257549  0.002869  0.735587  1
  Mn  Mn10  1  0.740841  0.990746  0.272930  1
  Mn  Mn11  1  0.540248  0.394523  0.614594  1
  Mn  Mn12  1  0.629898  0.985837  0.935483  1
  Mn  Mn13  1  0.869424  0.520205  0.065357  1
  Mn  Mn14  1  0.759856  0.506830  0.733400  1
  Mn  Mn15  1  0.961912  0.103457  0.382874  1
  P  P16  1  0.111745  0.235702  0.130751  1
  P  P17  1  0.252258  0.881236  0.348348  1
  P  P18  1  0.020086  0.267073  0.708244  1
  P  P19  1  0.250731  0.615430  0.650620  1
  P  P20  1  0.608278  0.739937  0.133925  1
  P  P21  1  0.480465  0.230546  0.289065  1
  P  P22  1  0.519490  0.769795  0.711187  1
  P  P23  1  0.391066  0.260368  0.865660  1
  P  P24  1  0.750266  0.379852  0.344719  1
  P  P25  1  0.980035  0.732753  0.291486  1
  P  P26  1  0.750049  0.119422  0.653356  1
  P  P27  1  0.886483  0.769031  0.870537  1
  O  O28  1  0.050796  0.361708  0.046895  1
  O  O29  1  0.118164  0.926542  0.408067  1
  O  O30  1  0.097251  0.633809  0.169944  1
  O  O31  1  0.022797  0.152940  0.181259  1
  O  O32  1  0.281613  0.907359  0.177516  1
  O  O33  1  0.007011  0.259879  0.531528  1
  O  O34  1  0.154307  0.314985  0.272314  1
  O  O35  1  0.293291  0.986151  0.476883  1
  O  O36  1  0.285123  0.383222  0.997227  1
  O  O37  1  0.199706  0.796128  0.669122  1
  O  O38  1  0.300087  0.700608  0.330018  1
  O  O39  1  0.213238  0.507309  0.521654  1
  O  O40  1  0.115872  0.344752  0.725084  1
  O  O41  1  0.548556  0.859351  0.043640  1
  O  O42  1  0.060502  0.100657  0.741344  1
  O  O43  1  0.219317  0.592221  0.822740  1
  O  O44  1  0.526311  0.650157  0.187263  1
  O  O45  1  0.433136  0.398184  0.267854  1
  O  O46  1  0.401765  0.865190  0.832777  1
  O  O47  1  0.384893  0.574585  0.593416  1
  O  O48  1  0.387082  0.146584  0.275569  1
  O  O49  1  0.504690  0.769999  0.534445  1
  O  O50  1  0.638013  0.836270  0.282813  1
  O  O51  1  0.787282  0.896499  0.011607  1
  O  O52  1  0.213378  0.109486  0.993398  1
  O  O53  1  0.360303  0.163468  0.718419  1
  O  O54  1  0.497602  0.229451  0.465131  1
  O  O55  1  0.613676  0.852636  0.727230  1
  O  O56  1  0.616271  0.425344  0.400985  1
  O  O57  1  0.598471  0.134304  0.166694  1
  O  O58  1  0.567506  0.600793  0.730835  1
  O  O59  1  0.474429  0.348016  0.811479  1
  O  O60  1  0.790290  0.390693  0.165808  1
  O  O61  1  0.935630  0.900886  0.264395  1
  O  O62  1  0.450152  0.141286  0.957233  1
  O  O63  1  0.882416  0.657081  0.273682  1
  O  O64  1  0.788256  0.489131  0.471551  1
  O  O65  1  0.701393  0.299025  0.668565  1
  O  O66  1  0.798855  0.198268  0.325391  1
  O  O67  1  0.715083  0.617880  0.003464  1
  O  O68  1  0.706178  0.012770  0.530853  1
  O  O69  1  0.843979  0.687103  0.730425  1
  O  O70  1  0.991831  0.738922  0.468785  1
  O  O71  1  0.724448  0.094982  0.827204  1
  O  O72  1  0.964823  0.867631  0.819291  1
  O  O73  1  0.901906  0.363537  0.832818  1
  O  O74  1  0.883679  0.072663  0.591256  1
  O  O75  1  0.951113  0.642792  0.950027  1
