# generated using pymatgen
data_NaH2SO4
_symmetry_space_group_name_H-M   'P 1'
_cell_length_a   6.89299465
_cell_length_b   11.02785070
_cell_length_c   10.90862984
_cell_angle_alpha   90.00000000
_cell_angle_beta   90.00000000
_cell_angle_gamma   90.00000000
_symmetry_Int_Tables_number   1
_chemical_formula_structural   NaH2SO4
_chemical_formula_sum   'Na8 H16 S8 O32'
_cell_volume   829.21857961
_cell_formula_units_Z   8
loop_
 _symmetry_equiv_pos_site_id
 _symmetry_equiv_pos_as_xyz
  1  'x, y, z'
loop_
 _atom_site_type_symbol
 _atom_site_label
 _atom_site_symmetry_multiplicity
 _atom_site_fract_x
 _atom_site_fract_y
 _atom_site_fract_z
 _atom_site_occupancy
  Na  Na0  1  0.533302  0.444079  0.666346  1
  Na  Na1  1  0.033302  0.055921  0.833654  1
  Na  Na2  1  0.466698  0.944079  0.333654  1
  Na  Na3  1  0.966698  0.555921  0.166346  1
  Na  Na4  1  0.466698  0.555921  0.333654  1
  Na  Na5  1  0.966698  0.944079  0.166346  1
  Na  Na6  1  0.533302  0.055921  0.666346  1
  Na  Na7  1  0.033302  0.444079  0.833654  1
  H  H8  1  0.342082  0.447546  0.113511  1
  H  H9  1  0.842082  0.052454  0.386489  1
  H  H10  1  0.657918  0.947546  0.886489  1
  H  H11  1  0.157918  0.552454  0.613511  1
  H  H12  1  0.657918  0.552454  0.886489  1
  H  H13  1  0.157918  0.947546  0.613511  1
  H  H14  1  0.342082  0.052454  0.113511  1
  H  H15  1  0.842082  0.447546  0.386489  1
  H  H16  1  0.260921  0.371921  0.225543  1
  H  H17  1  0.760921  0.128079  0.274457  1
  H  H18  1  0.739079  0.871921  0.774457  1
  H  H19  1  0.239079  0.628079  0.725543  1
  H  H20  1  0.739079  0.628079  0.774457  1
  H  H21  1  0.239079  0.871921  0.725543  1
  H  H22  1  0.260921  0.128079  0.225543  1
  H  H23  1  0.760921  0.371921  0.274457  1
  S  S24  1  0.828270  0.250000  0.047904  1
  S  S25  1  0.328270  0.250000  0.452096  1
  S  S26  1  0.171730  0.750000  0.952096  1
  S  S27  1  0.671730  0.750000  0.547904  1
  S  S28  1  0.454230  0.250000  0.895880  1
  S  S29  1  0.954230  0.250000  0.604120  1
  S  S30  1  0.545770  0.750000  0.104120  1
  S  S31  1  0.045770  0.750000  0.395880  1
  O  O32  1  0.939631  0.138308  0.019163  1
  O  O33  1  0.439631  0.361692  0.480837  1
  O  O34  1  0.060369  0.638308  0.980837  1
  O  O35  1  0.560369  0.861692  0.519163  1
  O  O36  1  0.060369  0.861692  0.980837  1
  O  O37  1  0.560369  0.638308  0.519163  1
  O  O38  1  0.939631  0.361692  0.019163  1
  O  O39  1  0.439631  0.138308  0.480837  1
  O  O40  1  0.749048  0.250000  0.174540  1
  O  O41  1  0.249048  0.250000  0.325460  1
  O  O42  1  0.250952  0.750000  0.825460  1
  O  O43  1  0.750952  0.750000  0.674540  1
  O  O44  1  0.484238  0.858896  0.031421  1
  O  O45  1  0.984238  0.641104  0.468579  1
  O  O46  1  0.515762  0.358896  0.968579  1
  O  O47  1  0.015762  0.141104  0.531421  1
  O  O48  1  0.515762  0.141104  0.968579  1
  O  O49  1  0.015762  0.358896  0.531421  1
  O  O50  1  0.484238  0.641104  0.031421  1
  O  O51  1  0.984238  0.858896  0.468579  1
  O  O52  1  0.553098  0.250000  0.772459  1
  O  O53  1  0.053098  0.250000  0.727541  1
  O  O54  1  0.446902  0.750000  0.227541  1
  O  O55  1  0.946902  0.750000  0.272459  1
  O  O56  1  0.771019  0.044941  0.309098  1
  O  O57  1  0.271019  0.455059  0.190902  1
  O  O58  1  0.228981  0.544941  0.690902  1
  O  O59  1  0.728981  0.955059  0.809098  1
  O  O60  1  0.228981  0.955059  0.690902  1
  O  O61  1  0.728981  0.544941  0.809098  1
  O  O62  1  0.771019  0.455059  0.309098  1
  O  O63  1  0.271019  0.044941  0.190902  1
