# generated using pymatgen
data_CrHSe3O8
_symmetry_space_group_name_H-M   'P 1'
_cell_length_a   7.82385538
_cell_length_b   14.02090993
_cell_length_c   7.72693918
_cell_angle_alpha   90.00000000
_cell_angle_beta   92.89242549
_cell_angle_gamma   90.00000000
_symmetry_Int_Tables_number   1
_chemical_formula_structural   CrHSe3O8
_chemical_formula_sum   'Cr4 H4 Se12 O32'
_cell_volume   846.54661892
_cell_formula_units_Z   4
loop_
 _symmetry_equiv_pos_site_id
 _symmetry_equiv_pos_as_xyz
  1  'x, y, z'
loop_
 _atom_site_type_symbol
 _atom_site_label
 _atom_site_symmetry_multiplicity
 _atom_site_fract_x
 _atom_site_fract_y
 _atom_site_fract_z
 _atom_site_occupancy
  Cr  Cr0  1  0.048868  0.165947  0.162700  1
  Cr  Cr1  1  0.548868  0.334053  0.662700  1
  Cr  Cr2  1  0.951132  0.834053  0.837300  1
  Cr  Cr3  1  0.451132  0.665947  0.337300  1
  H  H4  1  0.998239  0.300393  0.407743  1
  H  H5  1  0.498239  0.199607  0.907743  1
  H  H6  1  0.001761  0.699607  0.592257  1
  H  H7  1  0.501761  0.800393  0.092257  1
  Se  Se8  1  0.425567  0.302429  0.133915  1
  Se  Se9  1  0.925567  0.197571  0.633915  1
  Se  Se10  1  0.574433  0.697571  0.866085  1
  Se  Se11  1  0.074433  0.802429  0.366085  1
  Se  Se12  1  0.439532  0.106137  0.391551  1
  Se  Se13  1  0.939532  0.393863  0.891551  1
  Se  Se14  1  0.560468  0.893863  0.608449  1
  Se  Se15  1  0.060468  0.606137  0.108449  1
  Se  Se16  1  0.789191  0.008554  0.037230  1
  Se  Se17  1  0.289191  0.491446  0.537230  1
  Se  Se18  1  0.210809  0.991446  0.962770  1
  Se  Se19  1  0.710809  0.508554  0.462770  1
  O  O20  1  0.967768  0.232043  0.404702  1
  O  O21  1  0.467768  0.267957  0.904702  1
  O  O22  1  0.032232  0.767957  0.595298  1
  O  O23  1  0.532232  0.732043  0.095298  1
  O  O24  1  0.214303  0.285286  0.145492  1
  O  O25  1  0.714303  0.214714  0.645492  1
  O  O26  1  0.785697  0.714714  0.854508  1
  O  O27  1  0.285697  0.785286  0.354508  1
  O  O28  1  0.231340  0.101680  0.321070  1
  O  O29  1  0.731340  0.398320  0.821070  1
  O  O30  1  0.768660  0.898320  0.678930  1
  O  O31  1  0.268660  0.601680  0.178930  1
  O  O32  1  0.889512  0.228441  0.061252  1
  O  O33  1  0.389512  0.271559  0.561252  1
  O  O34  1  0.110488  0.771559  0.938748  1
  O  O35  1  0.610488  0.728441  0.438748  1
  O  O36  1  0.576038  0.546620  0.293760  1
  O  O37  1  0.076038  0.953380  0.793760  1
  O  O38  1  0.423962  0.453380  0.706240  1
  O  O39  1  0.923962  0.046620  0.206240  1
  O  O40  1  0.850601  0.890388  0.042787  1
  O  O41  1  0.350601  0.609612  0.542787  1
  O  O42  1  0.149399  0.109612  0.957213  1
  O  O43  1  0.649399  0.390388  0.457213  1
  O  O44  1  0.972270  0.512097  0.199993  1
  O  O45  1  0.472270  0.987903  0.699993  1
  O  O46  1  0.027730  0.487903  0.800007  1
  O  O47  1  0.527730  0.012097  0.300007  1
  O  O48  1  0.970360  0.702587  0.281666  1
  O  O49  1  0.470360  0.797413  0.781666  1
  O  O50  1  0.029640  0.297413  0.718334  1
  O  O51  1  0.529640  0.202587  0.218334  1
