# generated using pymatgen
data_LiFeSiO4
_symmetry_space_group_name_H-M   'P 1'
_cell_length_a   5.18286622
_cell_length_b   5.18286608
_cell_length_c   6.68841936
_cell_angle_alpha   90.00000000
_cell_angle_beta   90.00000000
_cell_angle_gamma   90.99203275
_symmetry_Int_Tables_number   1
_chemical_formula_structural   LiFeSiO4
_chemical_formula_sum   'Li2 Fe2 Si2 O8'
_cell_volume   179.63807028
_cell_formula_units_Z   2
loop_
 _symmetry_equiv_pos_site_id
 _symmetry_equiv_pos_as_xyz
  1  'x, y, z'
loop_
 _atom_site_type_symbol
 _atom_site_label
 _atom_site_symmetry_multiplicity
 _atom_site_fract_x
 _atom_site_fract_y
 _atom_site_fract_z
 _atom_site_occupancy
  Li  Li0  1  0.306998  0.693002  0.500000  1
  Li  Li1  1  0.693002  0.306998  0.000000  1
  Fe  Fe2  1  0.315909  0.684091  0.000000  1
  Fe  Fe3  1  0.684091  0.315909  0.500000  1
  Si  Si4  1  0.178947  0.178947  0.250000  1
  Si  Si5  1  0.821053  0.821053  0.750000  1
  O  O6  1  0.132790  0.765940  0.762962  1
  O  O7  1  0.234060  0.867210  0.237038  1
  O  O8  1  0.322045  0.301140  0.449614  1
  O  O9  1  0.301140  0.322045  0.050386  1
  O  O10  1  0.698860  0.677955  0.550386  1
  O  O11  1  0.677955  0.698860  0.949614  1
  O  O12  1  0.765940  0.132790  0.737038  1
  O  O13  1  0.867210  0.234060  0.262962  1
