# generated using pymatgen
data_LiAg2F4
_symmetry_space_group_name_H-M   'P 1'
_cell_length_a   9.95000100
_cell_length_b   7.27932191
_cell_length_c   5.58988080
_cell_angle_alpha   90.00000000
_cell_angle_beta   90.00000000
_cell_angle_gamma   90.00000000
_symmetry_Int_Tables_number   1
_chemical_formula_structural   LiAg2F4
_chemical_formula_sum   'Li4 Ag8 F16'
_cell_volume   404.87093142
_cell_formula_units_Z   4
loop_
 _symmetry_equiv_pos_site_id
 _symmetry_equiv_pos_as_xyz
  1  'x, y, z'
loop_
 _atom_site_type_symbol
 _atom_site_label
 _atom_site_symmetry_multiplicity
 _atom_site_fract_x
 _atom_site_fract_y
 _atom_site_fract_z
 _atom_site_occupancy
  Li  Li0  1  0.176331  0.750000  0.483543  1
  Li  Li1  1  0.323669  0.250000  0.983543  1
  Li  Li2  1  0.676331  0.750000  0.016457  1
  Li  Li3  1  0.823669  0.250000  0.516457  1
  Ag  Ag4  1  0.000000  0.000000  0.000000  1
  Ag  Ag5  1  0.000000  0.500000  0.000000  1
  Ag  Ag6  1  0.149352  0.250000  0.482167  1
  Ag  Ag7  1  0.350648  0.750000  0.982167  1
  Ag  Ag8  1  0.500000  0.000000  0.500000  1
  Ag  Ag9  1  0.500000  0.500000  0.500000  1
  Ag  Ag10  1  0.649352  0.250000  0.017833  1
  Ag  Ag11  1  0.850648  0.750000  0.517833  1
  F  F12  1  0.108313  0.539177  0.322479  1
  F  F13  1  0.108313  0.960823  0.322479  1
  F  F14  1  0.130620  0.750000  0.809422  1
  F  F15  1  0.135744  0.250000  0.907870  1
  F  F16  1  0.364256  0.750000  0.407870  1
  F  F17  1  0.369380  0.250000  0.309422  1
  F  F18  1  0.391687  0.039177  0.822479  1
  F  F19  1  0.391687  0.460823  0.822479  1
  F  F20  1  0.608313  0.539177  0.177521  1
  F  F21  1  0.608313  0.960823  0.177521  1
  F  F22  1  0.630620  0.750000  0.690578  1
  F  F23  1  0.635744  0.250000  0.592130  1
  F  F24  1  0.864256  0.750000  0.092130  1
  F  F25  1  0.869380  0.250000  0.190578  1
  F  F26  1  0.891687  0.039177  0.677521  1
  F  F27  1  0.891687  0.460823  0.677521  1
