# generated using pymatgen
data_Be3Fe4Si3SeO12
_symmetry_space_group_name_H-M   'P 1'
_cell_length_a   8.36032226
_cell_length_b   8.36237859
_cell_length_c   8.36635512
_cell_angle_alpha   89.69511462
_cell_angle_beta   90.00687425
_cell_angle_gamma   89.73813996
_symmetry_Int_Tables_number   1
_chemical_formula_structural   Be3Fe4Si3SeO12
_chemical_formula_sum   'Be6 Fe8 Si6 Se2 O24'
_cell_volume   584.89572776
_cell_formula_units_Z   2
loop_
 _symmetry_equiv_pos_site_id
 _symmetry_equiv_pos_as_xyz
  1  'x, y, z'
loop_
 _atom_site_type_symbol
 _atom_site_label
 _atom_site_symmetry_multiplicity
 _atom_site_fract_x
 _atom_site_fract_y
 _atom_site_fract_z
 _atom_site_occupancy
  Be  Be0  1  -0.000034  0.750004  0.498828  1
  Be  Be1  1  0.249937  0.499989  0.999968  1
  Be  Be2  1  0.500034  0.000278  0.750029  1
  Be  Be3  1  0.499755  -0.000006  0.249983  1
  Be  Be4  1  0.998691  0.250101  0.500040  1
  Be  Be5  1  0.750000  0.499988  0.999967  1
  Fe  Fe6  1  0.675281  0.674543  0.677044  1
  Fe  Fe7  1  0.825714  0.177442  0.824639  1
  Fe  Fe8  1  0.674926  0.322889  0.325458  1
  Fe  Fe9  1  0.325454  0.677451  0.324553  1
  Fe  Fe10  1  0.825731  0.822722  0.175126  1
  Fe  Fe11  1  0.177356  0.824646  0.824862  1
  Fe  Fe12  1  0.177027  0.174223  0.175843  1
  Fe  Fe13  1  0.324912  0.324804  0.677513  1
  Si  Si14  1  0.000195  0.500332  0.249863  1
  Si  Si15  1  0.501231  0.250078  0.999377  1
  Si  Si16  1  0.499395  0.750150  0.001238  1
  Si  Si17  1  0.999885  0.499611  0.749592  1
  Si  Si18  1  0.749576  0.000390  0.500190  1
  Si  Si19  1  0.249384  0.999631  0.500155  1
  Se  Se20  1  0.500586  0.499987  0.501057  1
  Se  Se21  1  0.001336  0.999846  0.000567  1
  O  O22  1  0.857552  0.859064  0.416068  1
  O  O23  1  0.359480  0.916538  0.359708  1
  O  O24  1  0.859282  0.583825  0.139176  1
  O  O25  1  0.140869  0.583113  0.857674  1
  O  O26  1  0.142181  0.416534  0.142084  1
  O  O27  1  0.583658  0.141466  0.857419  1
  O  O28  1  0.357978  0.640783  0.083468  1
  O  O29  1  0.357566  0.083271  0.640868  1
  O  O30  1  0.583248  0.858231  0.142240  1
  O  O31  1  0.639186  0.083832  0.359290  1
  O  O32  1  0.083142  0.641987  0.356989  1
  O  O33  1  0.139934  0.141500  0.416772  1
  O  O34  1  0.416207  0.860593  0.860295  1
  O  O35  1  0.857179  0.141330  0.583232  1
  O  O36  1  0.916649  0.641656  0.640386  1
  O  O37  1  0.642100  0.358449  0.083304  1
  O  O38  1  0.140960  0.857515  0.582839  1
  O  O39  1  0.639648  0.640347  0.916438  1
  O  O40  1  0.082574  0.357482  0.641204  1
  O  O41  1  0.641839  0.916485  0.641880  1
  O  O42  1  0.916210  0.359250  0.357425  1
  O  O43  1  0.416521  0.140522  0.139326  1
  O  O44  1  0.360098  0.360604  0.916090  1
  O  O45  1  0.859568  0.416526  0.859933  1
