# generated using pymatgen
data_K3Li5Al6Si10(O5F)6
_symmetry_space_group_name_H-M   'P 1'
_cell_length_a   5.45197480
_cell_length_b   5.35262576
_cell_length_c   33.26119331
_cell_angle_alpha   78.73168502
_cell_angle_beta   95.47800911
_cell_angle_gamma   117.70193867
_symmetry_Int_Tables_number   1
_chemical_formula_structural   K3Li5Al6Si10(O5F)6
_chemical_formula_sum   'K3 Li5 Al6 Si10 O30 F6'
_cell_volume   842.80549851
_cell_formula_units_Z   1
loop_
 _symmetry_equiv_pos_site_id
 _symmetry_equiv_pos_as_xyz
  1  'x, y, z'
loop_
 _atom_site_type_symbol
 _atom_site_label
 _atom_site_symmetry_multiplicity
 _atom_site_fract_x
 _atom_site_fract_y
 _atom_site_fract_z
 _atom_site_occupancy
  K  K0  1  0.414486  0.346646  0.626053  1
  K  K1  1  0.500000  0.500000  0.333333  1
  K  K2  1  0.585514  0.653354  0.040614  1
  Li  Li3  1  0.000000  0.000000  0.833333  1
  Li  Li4  1  0.173867  0.643900  0.545712  1
  Li  Li5  1  0.974086  0.024238  0.528773  1
  Li  Li6  1  0.025914  0.975762  0.137894  1
  Li  Li7  1  0.826133  0.356100  0.120955  1
  Al  Al8  1  0.285337  0.935096  0.452121  1
  Al  Al9  1  0.279422  0.650255  0.844594  1
  Al  Al10  1  0.465287  0.683778  0.150363  1
  Al  Al11  1  0.720578  0.349745  0.822072  1
  Al  Al12  1  0.534713  0.316222  0.516304  1
  Al  Al13  1  0.714663  0.064904  0.214546  1
  Si  Si14  1  0.109284  0.497997  0.242977  1
  Si  Si15  1  0.273058  0.959767  0.076301  1
  Si  Si16  1  0.257233  0.875640  0.919892  1
  Si  Si17  1  0.083787  0.779534  0.746759  1
  Si  Si18  1  0.102058  0.884346  0.363006  1
  Si  Si19  1  0.726942  0.040233  0.590366  1
  Si  Si20  1  0.897942  0.115654  0.303660  1
  Si  Si21  1  0.916213  0.220466  0.919908  1
  Si  Si22  1  0.742767  0.124360  0.746775  1
  Si  Si23  1  0.890716  0.502003  0.423689  1
  O  O24  1  0.421811  0.001187  0.368066  1
  O  O25  1  0.266778  0.913733  0.868866  1
  O  O26  1  0.910096  0.473482  0.730134  1
  O  O27  1  0.153145  0.553183  0.454423  1
  O  O28  1  0.266640  0.000169  0.501144  1
  O  O29  1  0.931689  0.522326  0.373405  1
  O  O30  1  0.194274  0.723803  0.121175  1
  O  O31  1  0.588975  0.037235  0.932981  1
  O  O32  1  0.129991  0.809860  0.036465  1
  O  O33  1  0.053103  0.678712  0.799799  1
  O  O34  1  0.920010  0.972375  0.735392  1
  O  O35  1  0.389523  0.855561  0.590929  1
  O  O36  1  0.988002  0.880420  0.412149  1
  O  O37  1  0.398233  0.757693  0.227865  1
  O  O38  1  0.165669  0.188779  0.082878  1
  O  O39  1  0.079990  0.027625  0.931275  1
  O  O40  1  0.411025  0.962765  0.733686  1
  O  O41  1  0.834331  0.811221  0.583788  1
  O  O42  1  0.601767  0.242307  0.438801  1
  O  O43  1  0.011998  0.119580  0.254518  1
  O  O44  1  0.846855  0.446817  0.212244  1
  O  O45  1  0.089904  0.526518  0.936533  1
  O  O46  1  0.610477  0.144439  0.075738  1
  O  O47  1  0.946897  0.321288  0.866868  1
  O  O48  1  0.870009  0.190140  0.630202  1
  O  O49  1  0.578189  -0.001187  0.298601  1
  O  O50  1  0.805726  0.276197  0.545491  1
  O  O51  1  0.068311  0.477674  0.293261  1
  O  O52  1  0.733360  -0.000169  0.165522  1
  O  O53  1  0.733222  0.086267  0.797801  1
  F  F54  1  0.580678  0.629719  0.863702  1
  F  F55  1  0.334742  0.385009  0.546185  1
  F  F56  1  0.419322  0.370281  0.802965  1
  F  F57  1  0.301722  0.348413  0.179920  1
  F  F58  1  0.698278  0.651587  0.486746  1
  F  F59  1  0.665258  0.614991  0.120482  1
