# generated using pymatgen
data_Li3AgF4
_symmetry_space_group_name_H-M   'P 1'
_cell_length_a   8.85312825
_cell_length_b   8.91054950
_cell_length_c   11.06890466
_cell_angle_alpha   99.48709868
_cell_angle_beta   82.19575049
_cell_angle_gamma   75.67303637
_symmetry_Int_Tables_number   1
_chemical_formula_structural   Li3AgF4
_chemical_formula_sum   'Li24 Ag8 F32'
_cell_volume   820.08833262
_cell_formula_units_Z   8
loop_
 _symmetry_equiv_pos_site_id
 _symmetry_equiv_pos_as_xyz
  1  'x, y, z'
loop_
 _atom_site_type_symbol
 _atom_site_label
 _atom_site_symmetry_multiplicity
 _atom_site_fract_x
 _atom_site_fract_y
 _atom_site_fract_z
 _atom_site_occupancy
  Li  Li0  1  0.006418  0.106645  0.646608  1
  Li  Li1  1  0.007605  0.363549  0.798157  1
  Li  Li2  1  0.129515  0.138520  0.266299  1
  Li  Li3  1  0.017365  0.879161  0.310940  1
  Li  Li4  1  0.139375  0.492636  0.308814  1
  Li  Li5  1  0.139531  0.606028  0.750888  1
  Li  Li6  1  0.164156  0.980620  0.800162  1
  Li  Li7  1  0.377689  0.504201  0.146256  1
  Li  Li8  1  0.501665  0.102166  0.076715  1
  Li  Li9  1  0.391606  0.351546  0.756637  1
  Li  Li10  1  0.372184  0.884384  0.256111  1
  Li  Li11  1  0.514175  0.349293  0.303256  1
  Li  Li12  1  0.416592  0.973153  0.560672  1
  Li  Li13  1  0.502982  0.615732  0.646315  1
  Li  Li14  1  0.640964  0.106349  0.753144  1
  Li  Li15  1  0.608272  0.624633  0.273575  1
  Li  Li16  1  0.513744  0.866643  0.800323  1
  Li  Li17  1  0.650216  0.480978  0.801305  1
  Li  Li18  1  0.871931  0.014561  0.152760  1
  Li  Li19  1  0.622930  0.993448  0.302544  1
  Li  Li20  1  0.871575  0.384647  0.264925  1
  Li  Li21  1  0.904998  0.475162  0.567808  1
  Li  Li22  1  0.985489  0.636171  0.155750  1
  Li  Li23  1  0.890698  0.854975  0.756325  1
  Ag  Ag24  1  0.162721  0.253454  0.001758  1
  Ag  Ag25  1  0.257369  0.308135  0.514958  1
  Ag  Ag26  1  0.200278  0.729141  0.504851  1
  Ag  Ag27  1  0.265971  0.805998  0.999039  1
  Ag  Ag28  1  0.688633  0.231730  0.507124  1
  Ag  Ag29  1  0.769837  0.311337  0.005067  1
  Ag  Ag30  1  0.683671  0.737084  0.008690  1
  Ag  Ag31  1  0.769417  0.808885  0.499839  1
  F  F32  1  0.022526  0.305221  0.624492  1
  F  F33  1  0.036930  0.354198  0.366032  1
  F  F34  1  0.031899  0.824481  0.133679  1
  F  F35  1  0.175540  0.476142  0.134279  1
  F  F36  1  0.328629  0.045245  0.154616  1
  F  F37  1  0.077655  0.817885  0.830333  1
  F  F38  1  0.179130  0.430430  0.833888  1
  F  F39  1  0.170416  0.966551  0.354002  1
  F  F40  1  0.326166  0.015033  0.882222  1
  F  F41  1  0.331572  0.523102  0.335012  1
  F  F42  1  0.209254  0.962917  0.623664  1
  F  F43  1  0.339084  0.520336  0.640308  1
  F  F44  1  0.479900  0.185835  0.374327  1
  F  F45  1  0.479324  0.148659  0.643479  1
  F  F46  1  0.529937  0.306197  0.125253  1
  F  F47  1  0.460132  0.678916  0.150630  1
  F  F48  1  0.488121  0.673066  0.833625  1
  F  F49  1  0.571609  0.317233  0.838138  1
  F  F50  1  0.533459  0.845480  0.363561  1
  F  F51  1  0.538867  0.808749  0.623952  1
  F  F52  1  0.665799  0.442972  0.351591  1
  F  F53  1  0.816397  0.020026  0.338102  1
  F  F54  1  0.699195  0.465215  0.626321  1
  F  F55  1  0.675994  0.975293  0.128816  1
  F  F56  1  0.842235  0.011527  0.643543  1
  F  F57  1  0.815548  0.549492  0.167131  1
  F  F58  1  0.678416  0.940581  0.847987  1
  F  F59  1  0.962016  0.184326  0.155902  1
  F  F60  1  0.817527  0.504913  0.877661  1
  F  F61  1  0.994030  0.167966  0.834766  1
  F  F62  1  0.990984  0.690228  0.347439  1
  F  F63  1  0.976569  0.650027  0.637481  1
