# generated using pymatgen
data_Yb2Se3
_symmetry_space_group_name_H-M   'P 1'
_cell_length_a   6.80623517
_cell_length_b   6.80623517
_cell_length_c   15.25856153
_cell_angle_alpha   96.16759310
_cell_angle_beta   96.16759312
_cell_angle_gamma   121.21724554
_symmetry_Int_Tables_number   1
_chemical_formula_structural   Yb2Se3
_chemical_formula_sum   'Yb8 Se12'
_cell_volume   589.84153862
_cell_formula_units_Z   4
loop_
 _symmetry_equiv_pos_site_id
 _symmetry_equiv_pos_as_xyz
  1  'x, y, z'
loop_
 _atom_site_type_symbol
 _atom_site_label
 _atom_site_symmetry_multiplicity
 _atom_site_fract_x
 _atom_site_fract_y
 _atom_site_fract_z
 _atom_site_occupancy
  Se  Se0  1  0.449842  0.697795  0.909205  1
  Se  Se1  1  0.788591  0.040638  0.590795  1
  Se  Se2  1  0.302205  0.550158  0.590795  1
  Se  Se3  1  0.959362  0.211409  0.909205  1
  Se  Se4  1  0.550158  0.302205  0.090795  1
  Se  Se5  1  0.211409  0.959362  0.409205  1
  Se  Se6  1  0.697795  0.449842  0.409205  1
  Se  Se7  1  0.040638  0.788591  0.090795  1
  Se  Se8  1  0.306940  0.056940  0.750000  1
  Se  Se9  1  0.943060  0.693060  0.750000  1
  Se  Se10  1  0.693060  0.943060  0.250000  1
  Se  Se11  1  0.056940  0.306940  0.250000  1
  Yb  Yb12  1  0.625463  0.875463  0.750926  1
  Yb  Yb13  1  0.124537  0.374537  0.749074  1
  Yb  Yb14  1  0.374537  0.124537  0.249074  1
  Yb  Yb15  1  0.875463  0.625463  0.250926  1
  Yb  Yb16  1  0.966412  0.216412  0.432824  1
  Yb  Yb17  1  0.783588  0.033588  0.067176  1
  Yb  Yb18  1  0.033588  0.783588  0.567176  1
  Yb  Yb19  1  0.216412  0.966412  0.932824  1
