# generated using pymatgen
data_Li3MnV(PO4)3
_symmetry_space_group_name_H-M   'P 1'
_cell_length_a   8.63690945
_cell_length_b   8.67903601
_cell_length_c   12.65799143
_cell_angle_alpha   74.36571661
_cell_angle_beta   105.83448391
_cell_angle_gamma   84.61709360
_symmetry_Int_Tables_number   1
_chemical_formula_structural   Li3MnV(PO4)3
_chemical_formula_sum   'Li12 Mn4 V4 P12 O48'
_cell_volume   864.60555187
_cell_formula_units_Z   4
loop_
 _symmetry_equiv_pos_site_id
 _symmetry_equiv_pos_as_xyz
  1  'x, y, z'
loop_
 _atom_site_type_symbol
 _atom_site_label
 _atom_site_symmetry_multiplicity
 _atom_site_fract_x
 _atom_site_fract_y
 _atom_site_fract_z
 _atom_site_occupancy
  Li  Li0  1  0.006284  0.001271  0.873262  1
  Li  Li1  1  0.001076  0.001476  0.375439  1
  Li  Li2  1  0.288629  0.287829  0.625868  1
  Li  Li3  1  0.499763  0.502000  0.749563  1
  Li  Li4  1  0.285728  0.292031  0.122431  1
  Li  Li5  1  0.502652  0.499625  0.501786  1
  Li  Li6  1  0.712103  0.709835  0.874842  1
  Li  Li7  1  0.500207  0.500222  0.248841  1
  Li  Li8  1  0.500200  0.500026  0.999789  1
  Li  Li9  1  0.712675  0.710439  0.376711  1
  Li  Li10  1  0.997896  0.997023  0.626463  1
  Li  Li11  1  0.992234  0.998415  0.124697  1
  Mn  Mn12  1  0.058455  0.629750  0.816423  1
  Mn  Mn13  1  0.374212  0.943507  0.564922  1
  Mn  Mn14  1  0.941129  0.370622  0.685353  1
  Mn  Mn15  1  0.941916  0.373300  0.183690  1
  V  V16  1  0.057367  0.622485  0.320118  1
  V  V17  1  0.620236  0.055938  0.929897  1
  V  V18  1  0.378676  0.944153  0.068572  1
  V  V19  1  0.623020  0.056478  0.430980  1
  P  P20  1  0.284300  0.289914  0.874630  1
  P  P21  1  0.134790  0.665694  0.568483  1
  P  P22  1  0.338838  0.867341  0.815805  1
  P  P23  1  0.287226  0.286762  0.374920  1
  P  P24  1  0.141119  0.664950  0.067254  1
  P  P25  1  0.338020  0.861494  0.318905  1
  P  P26  1  0.665358  0.134586  0.682729  1
  P  P27  1  0.858585  0.334074  0.932326  1
  P  P28  1  0.714751  0.712617  0.625474  1
  P  P29  1  0.662236  0.131699  0.182736  1
  P  P30  1  0.861250  0.339454  0.431909  1
  P  P31  1  0.714781  0.712506  0.124916  1
  O  O32  1  0.015818  0.662148  0.952330  1
  O  O33  1  0.051823  0.609057  0.665657  1
  O  O34  1  0.258103  0.173908  0.982848  1
  O  O35  1  0.010339  0.655095  0.456172  1
  O  O36  1  0.173884  0.265406  0.762307  1
  O  O37  1  0.155312  0.857140  0.802227  1
  O  O38  1  0.259387  0.463888  0.886000  1
  O  O39  1  0.144561  0.850314  0.547827  1
  O  O40  1  0.054277  0.615364  0.161814  1
  O  O41  1  0.262100  0.173342  0.485289  1
  O  O42  1  0.172729  0.262565  0.263510  1
  O  O43  1  0.155735  0.842889  0.306431  1
  O  O44  1  0.296473  0.550634  0.601663  1
  O  O45  1  0.402161  0.954004  0.910612  1
  O  O46  1  0.340160  0.988466  0.699673  1
  O  O47  1  0.460971  0.264233  0.866940  1
  O  O48  1  0.263853  0.461229  0.384830  1
  O  O49  1  0.453137  0.705017  0.851188  1
  O  O50  1  0.161212  0.847896  0.048386  1
  O  O51  1  0.299733  0.544280  0.102675  1
  O  O52  1  0.400289  0.951327  0.413109  1
  O  O53  1  0.549302  0.295681  0.648553  1
  O  O54  1  0.337195  0.985438  0.204342  1
  O  O55  1  0.462506  0.262287  0.364894  1
  O  O56  1  0.538089  0.740112  0.634461  1
  O  O57  1  0.656334  0.011587  0.795192  1
  O  O58  1  0.456149  0.702518  0.353251  1
  O  O59  1  0.610074  0.052087  0.586201  1
  O  O60  1  0.700479  0.454385  0.897955  1
  O  O61  1  0.838097  0.151603  0.950505  1
  O  O62  1  0.548486  0.293785  0.148669  1
  O  O63  1  0.738010  0.537689  0.615124  1
  O  O64  1  0.537713  0.736900  0.132504  1
  O  O65  1  0.656457  0.008886  0.296215  1
  O  O66  1  0.598182  0.046835  0.087126  1
  O  O67  1  0.700754  0.457412  0.396441  1
  O  O68  1  0.850836  0.144488  0.702875  1
  O  O69  1  0.826794  0.735602  0.737969  1
  O  O70  1  0.743104  0.826030  0.517250  1
  O  O71  1  0.946488  0.385239  0.837710  1
  O  O72  1  0.842452  0.158527  0.443051  1
  O  O73  1  0.739769  0.536424  0.115388  1
  O  O74  1  0.846773  0.141612  0.198731  1
  O  O75  1  0.825956  0.739479  0.234852  1
  O  O76  1  0.984124  0.337207  0.548384  1
  O  O77  1  0.740610  0.825916  0.015989  1
  O  O78  1  0.952134  0.400592  0.338054  1
  O  O79  1  0.985365  0.335955  0.047097  1
