# generated using pymatgen
data_Li2MgCr3(SO4)6
_symmetry_space_group_name_H-M   'P 1'
_cell_length_a   9.03371434
_cell_length_b   9.05692420
_cell_length_c   8.97672351
_cell_angle_alpha   56.15010455
_cell_angle_beta   55.79668333
_cell_angle_gamma   54.91501649
_symmetry_Int_Tables_number   1
_chemical_formula_structural   Li2MgCr3(SO4)6
_chemical_formula_sum   'Li2 Mg1 Cr3 S6 O24'
_cell_volume   466.42678640
_cell_formula_units_Z   1
loop_
 _symmetry_equiv_pos_site_id
 _symmetry_equiv_pos_as_xyz
  1  'x, y, z'
loop_
 _atom_site_type_symbol
 _atom_site_label
 _atom_site_symmetry_multiplicity
 _atom_site_fract_x
 _atom_site_fract_y
 _atom_site_fract_z
 _atom_site_occupancy
  Li  Li0  1  0.181737  0.426612  0.762248  1
  Li  Li1  1  0.764347  0.179554  0.427945  1
  Mg  Mg2  1  0.355005  0.354491  0.347616  1
  Cr  Cr3  1  0.163117  0.143634  0.155809  1
  Cr  Cr4  1  0.642629  0.644297  0.645698  1
  Cr  Cr5  1  0.847188  0.847993  0.855175  1
  S  S6  1  0.031974  0.743425  0.471644  1
  S  S7  1  0.545677  0.952104  0.256180  1
  S  S8  1  0.252512  0.552224  0.947087  1
  S  S9  1  0.753067  0.466553  0.035988  1
  S  S10  1  0.463838  0.036577  0.750146  1
  S  S11  1  0.952951  0.246700  0.550440  1
  O  O12  1  0.992817  0.948325  0.354213  1
  O  O13  1  0.022498  0.705377  0.665336  1
  O  O14  1  0.358532  0.964708  0.290197  1
  O  O15  1  0.046419  0.689638  0.976253  1
  O  O16  1  0.492225  0.896697  0.692795  1
  O  O17  1  0.226527  0.615111  0.387829  1
  O  O18  1  0.675602  0.975021  0.051135  1
  O  O19  1  0.379529  0.643485  0.757607  1
  O  O20  1  0.296662  0.507637  0.103972  1
  O  O21  1  0.108176  0.287096  0.511652  1
  O  O22  1  0.638403  0.757451  0.381343  1
  O  O23  1  0.279098  0.377804  0.939731  1
  O  O24  1  0.719095  0.654338  0.023969  1
  O  O25  1  0.377546  0.235287  0.624505  1
  O  O26  1  0.886489  0.691880  0.503039  1
  O  O27  1  0.693876  0.494614  0.896142  1
  O  O28  1  0.636170  0.373652  0.232818  1
  O  O29  1  0.341425  0.007795  0.952662  1
  O  O30  1  0.758353  0.381199  0.635708  1
  O  O31  1  0.520454  0.102673  0.296746  1
  O  O32  1  0.963033  0.337482  0.998907  1
  O  O33  1  0.658768  0.022200  0.709962  1
  O  O34  1  0.955732  0.270141  0.368540  1
  O  O35  1  0.973031  0.046224  0.685265  1
