# generated using pymatgen
data_NaLi2FePCO7
_symmetry_space_group_name_H-M   'P 1'
_cell_length_a   8.65227705
_cell_length_b   6.64051021
_cell_length_c   10.05757008
_cell_angle_alpha   89.93611885
_cell_angle_beta   88.23028201
_cell_angle_gamma   90.21632228
_symmetry_Int_Tables_number   1
_chemical_formula_structural   NaLi2FePCO7
_chemical_formula_sum   'Na4 Li8 Fe4 P4 C4 O28'
_cell_volume   577.58287714
_cell_formula_units_Z   4
loop_
 _symmetry_equiv_pos_site_id
 _symmetry_equiv_pos_as_xyz
  1  'x, y, z'
loop_
 _atom_site_type_symbol
 _atom_site_label
 _atom_site_symmetry_multiplicity
 _atom_site_fract_x
 _atom_site_fract_y
 _atom_site_fract_z
 _atom_site_occupancy
  Na  Na0  1  0.085619  0.258913  0.878856  1
  Na  Na1  1  0.084574  0.250757  0.377313  1
  Na  Na2  1  0.253678  0.996367  0.622999  1
  Na  Na3  1  0.746070  0.501673  0.376241  1
  Li  Li4  1  0.276789  0.475712  0.607907  1
  Li  Li5  1  0.273790  0.020193  0.111594  1
  Li  Li6  1  0.275779  0.479462  0.111177  1
  Li  Li7  1  0.729539  0.516968  0.887126  1
  Li  Li8  1  0.727731  0.982841  0.887492  1
  Li  Li9  1  0.727242  0.979373  0.389002  1
  Li  Li10  1  0.905734  0.742934  0.628731  1
  Li  Li11  1  0.905366  0.761409  0.123890  1
  Fe  Fe12  1  0.351125  0.749658  0.888973  1
  Fe  Fe13  1  0.355719  0.743489  0.384903  1
  Fe  Fe14  1  0.647895  0.245555  0.615565  1
  Fe  Fe15  1  0.650501  0.249657  0.111738  1
  P  P16  1  0.417264  0.255910  0.856221  1
  P  P17  1  0.414414  0.241106  0.351421  1
  P  P18  1  0.592104  0.743990  0.649581  1
  P  P19  1  0.589200  0.755483  0.144413  1
  C  C20  1  0.039867  0.749479  0.867829  1
  C  C21  1  0.044939  0.758064  0.362703  1
  C  C22  1  0.946967  0.258287  0.636409  1
  C  C23  1  0.951749  0.249091  0.133002  1
  O  O24  1  0.095678  0.279733  0.643062  1
  O  O25  1  0.101803  0.246084  0.138470  1
  O  O26  1  0.079687  0.752166  0.991149  1
  O  O27  1  0.077788  0.753106  0.488103  1
  O  O28  1  0.148960  0.747845  0.774305  1
  O  O29  1  0.155648  0.737061  0.272520  1
  O  O30  1  0.323043  0.066771  0.901048  1
  O  O31  1  0.323747  0.436980  0.913677  1
  O  O32  1  0.313888  0.057286  0.392238  1
  O  O33  1  0.326460  0.428323  0.406579  1
  O  O34  1  0.425829  0.269245  0.700202  1
  O  O35  1  0.428030  0.728864  0.591454  1
  O  O36  1  0.426687  0.253621  0.194508  1
  O  O37  1  0.421240  0.752390  0.092342  1
  O  O38  1  0.585063  0.253392  0.905321  1
  O  O39  1  0.574984  0.755423  0.805340  1
  O  O40  1  0.579533  0.227762  0.405444  1
  O  O41  1  0.576749  0.768960  0.299733  1
  O  O42  1  0.695812  0.561929  0.610715  1
  O  O43  1  0.684469  0.929382  0.595571  1
  O  O44  1  0.685505  0.568122  0.101258  1
  O  O45  1  0.686222  0.934712  0.088085  1
  O  O46  1  0.859416  0.241257  0.742723  1
  O  O47  1  0.864326  0.248339  0.240606  1
  O  O48  1  0.881487  0.252107  0.521354  1
  O  O49  1  0.883646  0.252836  0.019906  1
  O  O50  1  0.896420  0.747796  0.834457  1
  O  O51  1  0.904226  0.782138  0.324745  1
