# generated using pymatgen
data_Li6MnV3(PO4)6
_symmetry_space_group_name_H-M   'P 1'
_cell_length_a   8.56008778
_cell_length_b   8.62783513
_cell_length_c   8.57894826
_cell_angle_alpha   62.14862127
_cell_angle_beta   62.42670773
_cell_angle_gamma   62.26031655
_symmetry_Int_Tables_number   1
_chemical_formula_structural   Li6MnV3(PO4)6
_chemical_formula_sum   'Li6 Mn1 V3 P6 O24'
_cell_volume   470.80369874
_cell_formula_units_Z   1
loop_
 _symmetry_equiv_pos_site_id
 _symmetry_equiv_pos_as_xyz
  1  'x, y, z'
loop_
 _atom_site_type_symbol
 _atom_site_label
 _atom_site_symmetry_multiplicity
 _atom_site_fract_x
 _atom_site_fract_y
 _atom_site_fract_z
 _atom_site_occupancy
  Li  Li0  1  0.018628  0.002275  0.990646  1
  Li  Li1  1  0.760832  0.139512  0.347259  1
  Li  Li2  1  0.471643  0.506313  0.499566  1
  Li  Li3  1  0.223486  0.847588  0.658982  1
  Li  Li4  1  0.663786  0.226133  0.842021  1
  Li  Li5  1  0.842911  0.661476  0.223631  1
  Mn  Mn6  1  0.849366  0.848068  0.847958  1
  V  V7  1  0.141380  0.143100  0.137792  1
  V  V8  1  0.357048  0.361717  0.352272  1
  V  V9  1  0.645281  0.647282  0.645641  1
  P  P10  1  0.055774  0.750876  0.446150  1
  P  P11  1  0.443774  0.058710  0.750141  1
  P  P12  1  0.749420  0.448642  0.053999  1
  P  P13  1  0.254529  0.540562  0.957155  1
  P  P14  1  0.542919  0.963269  0.253729  1
  P  P15  1  0.957185  0.253633  0.535514  1
  O  O16  1  0.123393  0.317226  0.475978  1
  O  O17  1  0.330804  0.489366  0.114072  1
  O  O18  1  0.047904  0.917563  0.264100  1
  O  O19  1  0.516796  0.118827  0.316355  1
  O  O20  1  0.243778  0.592292  0.413111  1
  O  O21  1  0.048198  0.801996  0.599241  1
  O  O22  1  0.254400  0.074544  0.906995  1
  O  O23  1  0.425386  0.244194  0.581639  1
  O  O24  1  0.592225  0.419622  0.247501  1
  O  O25  1  0.195503  0.382604  0.993049  1
  O  O26  1  0.096597  0.727790  0.952044  1
  O  O27  1  0.373925  0.002579  0.207524  1
  O  O28  1  0.600186  0.045525  0.801748  1
  O  O29  1  0.899959  0.254184  0.073800  1
  O  O30  1  0.807362  0.598780  0.039607  1
  O  O31  1  0.408423  0.568176  0.762396  1
  O  O32  1  0.566813  0.770364  0.411357  1
  O  O33  1  0.729275  0.946300  0.093374  1
  O  O34  1  0.972829  0.197208  0.380755  1
  O  O35  1  0.766824  0.410222  0.565196  1
  O  O36  1  0.487376  0.892552  0.696844  1
  O  O37  1  0.954306  0.094679  0.723119  1
  O  O38  1  0.691301  0.491824  0.889720  1
  O  O39  1  0.888476  0.691425  0.499018  1
