# generated using pymatgen
data_Li6Cu5F14
_symmetry_space_group_name_H-M   'P 1'
_cell_length_a   7.86123793
_cell_length_b   7.86123735
_cell_length_c   9.86761771
_cell_angle_alpha   90.00000000
_cell_angle_beta   90.00000000
_cell_angle_gamma   92.21553772
_symmetry_Int_Tables_number   1
_chemical_formula_structural   Li6Cu5F14
_chemical_formula_sum   'Li12 Cu10 F28'
_cell_volume   609.35362015
_cell_formula_units_Z   2
loop_
 _symmetry_equiv_pos_site_id
 _symmetry_equiv_pos_as_xyz
  1  'x, y, z'
loop_
 _atom_site_type_symbol
 _atom_site_label
 _atom_site_symmetry_multiplicity
 _atom_site_fract_x
 _atom_site_fract_y
 _atom_site_fract_z
 _atom_site_occupancy
  Li  Li0  1  0.010503  0.010503  0.960588  1
  Li  Li1  1  0.176287  0.666158  0.471367  1
  Li  Li2  1  0.205373  0.500075  0.012139  1
  Li  Li3  1  0.316232  0.316232  0.449010  1
  Li  Li4  1  0.333842  0.823713  0.971367  1
  Li  Li5  1  0.499925  0.794627  0.512139  1
  Li  Li6  1  0.500075  0.205373  0.012139  1
  Li  Li7  1  0.666158  0.176287  0.471367  1
  Li  Li8  1  0.683768  0.683768  0.949010  1
  Li  Li9  1  0.794627  0.499925  0.512139  1
  Li  Li10  1  0.823713  0.333842  0.971367  1
  Li  Li11  1  0.989497  0.989497  0.460588  1
  Cu  Cu12  1  0.014717  0.372842  0.711724  1
  Cu  Cu13  1  0.043224  0.756293  0.747311  1
  Cu  Cu14  1  0.243707  0.956776  0.247311  1
  Cu  Cu15  1  0.372842  0.014717  0.711724  1
  Cu  Cu16  1  0.488581  0.488581  0.738489  1
  Cu  Cu17  1  0.511419  0.511419  0.238489  1
  Cu  Cu18  1  0.627158  0.985283  0.211724  1
  Cu  Cu19  1  0.756293  0.043224  0.747311  1
  Cu  Cu20  1  0.956776  0.243707  0.247311  1
  Cu  Cu21  1  0.985283  0.627158  0.211724  1
  F  F22  1  0.006114  0.579547  0.590203  1
  F  F23  1  0.048335  0.799082  0.351619  1
  F  F24  1  0.061718  0.061718  0.140414  1
  F  F25  1  0.132944  0.546503  0.831543  1
  F  F26  1  0.149890  0.149890  0.391394  1
  F  F27  1  0.168429  0.721762  0.089242  1
  F  F28  1  0.200918  0.951665  0.851619  1
  F  F29  1  0.278238  0.831571  0.589242  1
  F  F30  1  0.290220  0.525883  0.359228  1
  F  F31  1  0.324743  0.324743  0.649126  1
  F  F32  1  0.420453  0.993886  0.090203  1
  F  F33  1  0.407481  0.407481  0.066346  1
  F  F34  1  0.453497  0.867056  0.331543  1
  F  F35  1  0.474117  0.709780  0.859228  1
  F  F36  1  0.525883  0.290220  0.359228  1
  F  F37  1  0.546503  0.132944  0.831543  1
  F  F38  1  0.592519  0.592519  0.566346  1
  F  F39  1  0.579547  0.006114  0.590203  1
  F  F40  1  0.675257  0.675257  0.149126  1
  F  F41  1  0.709780  0.474117  0.859228  1
  F  F42  1  0.721762  0.168429  0.089242  1
  F  F43  1  0.799082  0.048335  0.351619  1
  F  F44  1  0.831571  0.278238  0.589242  1
  F  F45  1  0.850110  0.850110  0.891394  1
  F  F46  1  0.867056  0.453497  0.331543  1
  F  F47  1  0.938282  0.938282  0.640414  1
  F  F48  1  0.951665  0.200918  0.851619  1
  F  F49  1  0.993886  0.420453  0.090203  1
