# generated using pymatgen
data_Nb5OF14
_symmetry_space_group_name_H-M   'P 1'
_cell_length_a   9.35213468
_cell_length_b   7.20800709
_cell_length_c   5.87483003
_cell_angle_alpha   90.58827991
_cell_angle_beta   71.50677527
_cell_angle_gamma   74.93310276
_symmetry_Int_Tables_number   1
_chemical_formula_structural   Nb5OF14
_chemical_formula_sum   'Nb5 O1 F14'
_cell_volume   360.79876630
_cell_formula_units_Z   1
loop_
 _symmetry_equiv_pos_site_id
 _symmetry_equiv_pos_as_xyz
  1  'x, y, z'
loop_
 _atom_site_type_symbol
 _atom_site_label
 _atom_site_symmetry_multiplicity
 _atom_site_fract_x
 _atom_site_fract_y
 _atom_site_fract_z
 _atom_site_occupancy
  Nb  Nb0  1  0.398631  0.203795  0.804838  1
  Nb  Nb1  1  0.801369  0.396205  0.595162  1
  Nb  Nb2  1  0.190864  0.616340  0.422461  1
  Nb  Nb3  1  0.600000  0.800000  0.200000  1
  Nb  Nb4  1  0.009136  0.983660  0.977539  1
  O  O5  1  0.100000  0.800000  0.700000  1
  F  F6  1  0.900993  0.199128  0.802721  1
  F  F7  1  0.199903  0.100958  0.900396  1
  F  F8  1  0.499578  0.000107  0.500925  1
  F  F9  1  0.902638  0.194640  0.292568  1
  F  F10  1  0.700422  0.599893  0.899075  1
  F  F11  1  0.600000  0.300000  0.700000  1
  F  F12  1  0.299007  0.400872  0.597279  1
  F  F13  1  0.500611  0.999424  0.001859  1
  F  F14  1  0.699389  0.600576  0.398141  1
  F  F15  1  0.297362  0.405360  0.107432  1
  F  F16  1  0.000097  0.499042  0.499604  1
  F  F17  1  0.801202  0.901416  0.100336  1
  F  F18  1  0.398798  0.698584  0.299664  1
  F  F19  1  0.100000  0.800000  0.200000  1
