# generated using pymatgen
data_Na2FePCO7
_symmetry_space_group_name_H-M   'P 1'
_cell_length_a   8.95342817
_cell_length_b   10.48296209
_cell_length_c   6.53242969
_cell_angle_alpha   89.80159736
_cell_angle_beta   90.71431033
_cell_angle_gamma   89.55078663
_symmetry_Int_Tables_number   1
_chemical_formula_structural   Na2FePCO7
_chemical_formula_sum   'Na8 Fe4 P4 C4 O28'
_cell_volume   613.05333574
_cell_formula_units_Z   4
loop_
 _symmetry_equiv_pos_site_id
 _symmetry_equiv_pos_as_xyz
  1  'x, y, z'
loop_
 _atom_site_type_symbol
 _atom_site_label
 _atom_site_symmetry_multiplicity
 _atom_site_fract_x
 _atom_site_fract_y
 _atom_site_fract_z
 _atom_site_occupancy
  Na  Na0  1  0.081691  0.381210  0.259395  1
  Na  Na1  1  0.081351  0.882286  0.262179  1
  Na  Na2  1  0.263795  0.126665  0.013869  1
  Na  Na3  1  0.263879  0.627465  0.484971  1
  Na  Na4  1  0.736856  0.373784  0.988738  1
  Na  Na5  1  0.736570  0.875736  0.988431  1
  Na  Na6  1  0.919216  0.118606  0.722293  1
  Na  Na7  1  0.918330  0.618308  0.740407  1
  Fe  Fe8  1  0.345357  0.391897  0.753129  1
  Fe  Fe9  1  0.345377  0.892048  0.746446  1
  Fe  Fe10  1  0.654641  0.107718  0.264922  1
  Fe  Fe11  1  0.654772  0.607796  0.261892  1
  P  P12  1  0.424806  0.354824  0.250433  1
  P  P13  1  0.424907  0.854606  0.248182  1
  P  P14  1  0.575284  0.145023  0.754981  1
  P  P15  1  0.575432  0.645014  0.753339  1
  C  C16  1  0.064748  0.365139  0.751189  1
  C  C17  1  0.064379  0.864821  0.756020  1
  C  C18  1  0.934976  0.134945  0.238416  1
  C  C19  1  0.935093  0.635102  0.245937  1
  O  O20  1  0.075204  0.148781  0.232425  1
  O  O21  1  0.075067  0.649024  0.259280  1
  O  O22  1  0.127232  0.477375  0.727393  1
  O  O23  1  0.127639  0.977853  0.763714  1
  O  O24  1  0.158124  0.268126  0.756612  1
  O  O25  1  0.157547  0.768674  0.733848  1
  O  O26  1  0.319584  0.376692  0.061816  1
  O  O27  1  0.329546  0.390282  0.438790  1
  O  O28  1  0.322476  0.889337  0.062104  1
  O  O29  1  0.326674  0.877567  0.439247  1
  O  O30  1  0.431337  0.064797  0.757141  1
  O  O31  1  0.431618  0.564702  0.742984  1
  O  O32  1  0.470474  0.211005  0.251116  1
  O  O33  1  0.470213  0.710839  0.247969  1
  O  O34  1  0.530337  0.288815  0.764600  1
  O  O35  1  0.530190  0.788749  0.764664  1
  O  O36  1  0.567979  0.435631  0.238757  1
  O  O37  1  0.568472  0.935391  0.245919  1
  O  O38  1  0.673031  0.118036  0.565995  1
  O  O39  1  0.678326  0.113602  0.942395  1
  O  O40  1  0.675522  0.620398  0.564724  1
  O  O41  1  0.675857  0.611318  0.941390  1
  O  O42  1  0.841457  0.231880  0.245758  1
  O  O43  1  0.841223  0.732000  0.240700  1
  O  O44  1  0.872072  0.021820  0.244306  1
  O  O45  1  0.872184  0.521862  0.241316  1
  O  O46  1  0.924573  0.352048  0.767378  1
  O  O47  1  0.924585  0.850408  0.767562  1
