# generated using pymatgen
data_Li2Ti3VO8
_symmetry_space_group_name_H-M   'P 1'
_cell_length_a   8.48962812
_cell_length_b   8.48947981
_cell_length_c   8.49026147
_cell_angle_alpha   90.00224421
_cell_angle_beta   90.00048925
_cell_angle_gamma   90.00283382
_symmetry_Int_Tables_number   1
_chemical_formula_structural   Li2Ti3VO8
_chemical_formula_sum   'Li8 Ti12 V4 O32'
_cell_volume   611.91459433
_cell_formula_units_Z   4
loop_
 _symmetry_equiv_pos_site_id
 _symmetry_equiv_pos_as_xyz
  1  'x, y, z'
loop_
 _atom_site_type_symbol
 _atom_site_label
 _atom_site_symmetry_multiplicity
 _atom_site_fract_x
 _atom_site_fract_y
 _atom_site_fract_z
 _atom_site_occupancy
  Li  Li0  1  0.999086  0.998990  0.999114  1
  Li  Li1  1  0.250885  0.251008  0.250909  1
  Li  Li2  1  0.249027  0.749134  0.750904  1
  Li  Li3  1  0.500971  0.000870  0.499082  1
  Li  Li4  1  0.499101  0.500875  0.000972  1
  Li  Li5  1  0.750919  0.249150  0.749046  1
  Li  Li6  1  0.749050  0.751001  0.249043  1
  Li  Li7  1  0.000965  0.498989  0.500949  1
  Ti  Ti8  1  0.128065  0.121984  0.624972  1
  Ti  Ti9  1  0.124960  0.371898  0.878071  1
  Ti  Ti10  1  0.121864  0.624998  0.128140  1
  Ti  Ti11  1  0.378031  0.375019  0.628074  1
  Ti  Ti12  1  0.374994  0.628048  0.378069  1
  Ti  Ti13  1  0.371953  0.878110  0.125041  1
  Ti  Ti14  1  0.628122  0.378132  0.374980  1
  Ti  Ti15  1  0.625042  0.128033  0.121908  1
  Ti  Ti16  1  0.621928  0.874977  0.871969  1
  Ti  Ti17  1  0.878092  0.125012  0.371909  1
  Ti  Ti18  1  0.875015  0.871864  0.621870  1
  Ti  Ti19  1  0.871941  0.621951  0.875027  1
  V  V20  1  0.124999  0.874979  0.375008  1
  V  V21  1  0.374994  0.125006  0.874995  1
  V  V22  1  0.625008  0.625011  0.624987  1
  V  V23  1  0.874994  0.375006  0.125013  1
  O  O24  1  0.107484  0.124157  0.390441  1
  O  O25  1  0.109509  0.892535  0.624114  1
  O  O26  1  0.110546  0.610614  0.889470  1
  O  O27  1  0.125786  0.142534  0.859481  1
  O  O28  1  0.124118  0.390489  0.107471  1
  O  O29  1  0.139413  0.360561  0.639410  1
  O  O30  1  0.140473  0.625825  0.357511  1
  O  O31  1  0.142519  0.859484  0.125905  1
  O  O32  1  0.357445  0.140519  0.625797  1
  O  O33  1  0.359448  0.374193  0.857438  1
  O  O34  1  0.360522  0.639420  0.139455  1
  O  O35  1  0.375823  0.609573  0.607435  1
  O  O36  1  0.374136  0.857461  0.359559  1
  O  O37  1  0.389422  0.389439  0.389379  1
  O  O38  1  0.390515  0.107472  0.124197  1
  O  O39  1  0.392546  0.875812  0.890544  1
  O  O40  1  0.607458  0.375875  0.609465  1
  O  O41  1  0.609528  0.607519  0.375826  1
  O  O42  1  0.610603  0.889408  0.110604  1
  O  O43  1  0.625890  0.357471  0.140496  1
  O  O44  1  0.624212  0.109513  0.892566  1
  O  O45  1  0.639499  0.139462  0.360585  1
  O  O46  1  0.640546  0.874136  0.642550  1
  O  O47  1  0.642536  0.640454  0.874161  1
  O  O48  1  0.857519  0.359522  0.374144  1
  O  O49  1  0.859562  0.125842  0.142530  1
  O  O50  1  0.860591  0.860532  0.860580  1
  O  O51  1  0.875852  0.890465  0.392512  1
  O  O52  1  0.874179  0.642500  0.640494  1
  O  O53  1  0.889401  0.110591  0.610532  1
  O  O54  1  0.890425  0.392535  0.875884  1
  O  O55  1  0.892486  0.624176  0.109546  1
