# generated using pymatgen
data_Li4MnFe5O12
_symmetry_space_group_name_H-M   'P 1'
_cell_length_a   5.13143200
_cell_length_b   5.12385903
_cell_length_c   10.22289934
_cell_angle_alpha   89.51649255
_cell_angle_beta   89.31661403
_cell_angle_gamma   59.82116218
_symmetry_Int_Tables_number   1
_chemical_formula_structural   Li4MnFe5O12
_chemical_formula_sum   'Li4 Mn1 Fe5 O12'
_cell_volume   232.33914087
_cell_formula_units_Z   1
loop_
 _symmetry_equiv_pos_site_id
 _symmetry_equiv_pos_as_xyz
  1  'x, y, z'
loop_
 _atom_site_type_symbol
 _atom_site_label
 _atom_site_symmetry_multiplicity
 _atom_site_fract_x
 _atom_site_fract_y
 _atom_site_fract_z
 _atom_site_occupancy
  Li  Li0  1  0.153294  0.483218  0.749537  1
  Li  Li1  1  0.359693  0.497912  0.249096  1
  Li  Li2  1  0.650209  0.497321  0.747285  1
  Li  Li3  1  0.866220  0.476620  0.249367  1
  Mn  Mn4  1  0.001964  -0.002530  0.998687  1
  Fe  Fe5  1  0.162307  0.675043  0.499857  1
  Fe  Fe6  1  0.663431  0.673826  0.999106  1
  Fe  Fe7  1  0.338570  0.324294  0.000145  1
  Fe  Fe8  1  0.837451  0.329283  0.500102  1
  Fe  Fe9  1  0.503106  0.001855  0.498675  1
  O  O10  1  0.010973  0.667840  0.106227  1
  O  O11  1  0.321054  0.668151  0.892383  1
  O  O12  1  0.156144  0.344760  0.393669  1
  O  O13  1  0.529309  0.640307  0.393811  1
  O  O14  1  0.503935  0.344415  0.605015  1
  O  O15  1  0.153151  0.020378  0.596762  1
  O  O16  1  0.835177  0.645241  0.606258  1
  O  O17  1  0.680043  0.328742  0.105274  1
  O  O18  1  0.316230  -0.002095  0.097930  1
  O  O19  1  0.991295  0.329788  0.893185  1
  O  O20  1  0.684354  -0.000633  0.900384  1
  O  O21  1  0.832347  0.016187  0.401031  1
