# generated using pymatgen
data_LiMnF5
_symmetry_space_group_name_H-M   'P 1'
_cell_length_a   3.79036423
_cell_length_b   7.08973265
_cell_length_c   6.83347749
_cell_angle_alpha   90.00000000
_cell_angle_beta   89.81536585
_cell_angle_gamma   90.00000000
_symmetry_Int_Tables_number   1
_chemical_formula_structural   LiMnF5
_chemical_formula_sum   'Li2 Mn2 F10'
_cell_volume   183.63282558
_cell_formula_units_Z   2
loop_
 _symmetry_equiv_pos_site_id
 _symmetry_equiv_pos_as_xyz
  1  'x, y, z'
loop_
 _atom_site_type_symbol
 _atom_site_label
 _atom_site_symmetry_multiplicity
 _atom_site_fract_x
 _atom_site_fract_y
 _atom_site_fract_z
 _atom_site_occupancy
  Li  Li0  1  0.036443  0.250000  0.752982  1
  Li  Li1  1  0.962663  0.750000  0.252445  1
  Mn  Mn2  1  0.240970  0.750000  0.750832  1
  Mn  Mn3  1  0.759474  0.250000  0.251448  1
  F  F4  1  0.238848  0.750000  0.016244  1
  F  F5  1  0.248323  0.750000  0.485529  1
  F  F6  1  0.256020  0.250000  0.255494  1
  F  F7  1  0.247568  0.005260  0.748177  1
  F  F8  1  0.247568  0.494740  0.748177  1
  F  F9  1  0.752103  0.505266  0.250168  1
  F  F10  1  0.752103  0.994734  0.250168  1
  F  F11  1  0.744124  0.750000  0.756510  1
  F  F12  1  0.753357  0.250000  0.985978  1
  F  F13  1  0.760437  0.250000  0.516624  1
