# generated using pymatgen
data_FeOF
_symmetry_space_group_name_H-M   'P 1'
_cell_length_a   9.58588340
_cell_length_b   14.30957821
_cell_length_c   3.12961106
_cell_angle_alpha   90.00000000
_cell_angle_beta   90.00000000
_cell_angle_gamma   90.05515231
_symmetry_Int_Tables_number   1
_chemical_formula_structural   FeOF
_chemical_formula_sum   'Fe12 O12 F12'
_cell_volume   429.28838783
_cell_formula_units_Z   12
loop_
 _symmetry_equiv_pos_site_id
 _symmetry_equiv_pos_as_xyz
  1  'x, y, z'
loop_
 _atom_site_type_symbol
 _atom_site_label
 _atom_site_symmetry_multiplicity
 _atom_site_fract_x
 _atom_site_fract_y
 _atom_site_fract_z
 _atom_site_occupancy
  Fe  Fe0  1  0.005502  0.004305  0.000000  1
  Fe  Fe1  1  0.011609  0.328554  0.000000  1
  Fe  Fe2  1  0.006920  0.669970  0.000000  1
  Fe  Fe3  1  0.227405  0.165093  0.500000  1
  Fe  Fe4  1  0.245160  0.481748  0.500000  1
  Fe  Fe5  1  0.223175  0.833135  0.500000  1
  Fe  Fe6  1  0.499545  0.342674  0.000000  1
  Fe  Fe7  1  0.512249  0.996885  0.000000  1
  Fe  Fe8  1  0.514686  0.663294  0.000000  1
  Fe  Fe9  1  0.783322  0.171456  0.500000  1
  Fe  Fe10  1  0.730514  0.496854  0.500000  1
  Fe  Fe11  1  0.728449  0.831108  0.500000  1
  O  O12  1  0.099743  0.271116  0.500000  1
  O  O13  1  0.092863  0.937589  0.500000  1
  O  O14  1  0.156526  0.101672  0.000000  1
  O  O15  1  0.151431  0.770044  0.000000  1
  O  O16  1  0.148585  0.433971  0.000000  1
  O  O17  1  0.405744  0.395960  0.500000  1
  O  O18  1  0.597420  0.940476  0.500000  1
  O  O19  1  0.595443  0.600767  0.500000  1
  O  O20  1  0.658501  0.431759  0.000000  1
  O  O21  1  0.648910  0.769610  0.000000  1
  O  O22  1  0.853574  0.235653  0.000000  1
  O  O23  1  0.905892  0.062586  0.500000  1
  F  F24  1  0.100662  0.596839  0.500000  1
  F  F25  1  0.353398  0.228652  0.000000  1
  F  F26  1  0.341681  0.566859  0.000000  1
  F  F27  1  0.347860  0.901497  0.000000  1
  F  F28  1  0.405024  0.066630  0.500000  1
  F  F29  1  0.399230  0.732993  0.500000  1
  F  F30  1  0.598901  0.263556  0.500000  1
  F  F31  1  0.653510  0.105798  0.000000  1
  F  F32  1  0.846814  0.895088  0.000000  1
  F  F33  1  0.851416  0.567565  0.000000  1
  F  F34  1  0.903302  0.404836  0.500000  1
  F  F35  1  0.895033  0.733409  0.500000  1
