# generated using pymatgen
data_YScS3
_symmetry_space_group_name_H-M   'P 1'
_cell_length_a   6.39816041
_cell_length_b   7.02682094
_cell_length_c   9.55025719
_cell_angle_alpha   90.00000000
_cell_angle_beta   90.00000000
_cell_angle_gamma   90.00000000
_symmetry_Int_Tables_number   1
_chemical_formula_structural   YScS3
_chemical_formula_sum   'Y4 Sc4 S12'
_cell_volume   429.36741100
_cell_formula_units_Z   4
loop_
 _symmetry_equiv_pos_site_id
 _symmetry_equiv_pos_as_xyz
  1  'x, y, z'
loop_
 _atom_site_type_symbol
 _atom_site_label
 _atom_site_symmetry_multiplicity
 _atom_site_fract_x
 _atom_site_fract_y
 _atom_site_fract_z
 _atom_site_occupancy
  S  S0  1  0.143885  0.547401  0.991011  1
  S  S1  1  0.856115  0.452599  0.491011  1
  S  S2  1  0.356115  0.047401  0.991011  1
  S  S3  1  0.643885  0.952599  0.491011  1
  S  S4  1  0.176401  0.815300  0.669990  1
  S  S5  1  0.823599  0.184700  0.169990  1
  S  S6  1  0.323599  0.315300  0.669990  1
  S  S7  1  0.676401  0.684700  0.169990  1
  S  S8  1  0.676568  0.684847  0.812055  1
  S  S9  1  0.323432  0.315153  0.312055  1
  S  S10  1  0.823432  0.184847  0.812055  1
  S  S11  1  0.176568  0.815153  0.312055  1
  Sc  Sc12  1  0.000071  0.499983  0.741023  1
  Sc  Sc13  1  0.999929  0.500017  0.241023  1
  Sc  Sc14  1  0.499929  0.999983  0.741023  1
  Sc  Sc15  1  0.500071  0.000017  0.241023  1
  Y  Y16  1  0.459021  0.601046  0.490921  1
  Y  Y17  1  0.540979  0.398954  0.990921  1
  Y  Y18  1  0.040979  0.101046  0.490921  1
  Y  Y19  1  0.959021  0.898954  0.990921  1
