# generated using pymatgen
data_CrH10S2(NO2)4
_symmetry_space_group_name_H-M   'P 1'
_cell_length_a   7.34797812
_cell_length_b   5.53645918
_cell_length_c   5.80444030
_cell_angle_alpha   97.49830152
_cell_angle_beta   91.81301841
_cell_angle_gamma   103.36728003
_symmetry_Int_Tables_number   1
_chemical_formula_structural   CrH10S2(NO2)4
_chemical_formula_sum   'Cr1 H10 S2 N4 O8'
_cell_volume   227.30498706
_cell_formula_units_Z   1
loop_
 _symmetry_equiv_pos_site_id
 _symmetry_equiv_pos_as_xyz
  1  'x, y, z'
loop_
 _atom_site_type_symbol
 _atom_site_label
 _atom_site_symmetry_multiplicity
 _atom_site_fract_x
 _atom_site_fract_y
 _atom_site_fract_z
 _atom_site_occupancy
  Cr  Cr0  1  0.000000  0.000000  0.000000  1
  H  H1  1  0.268498  0.917196  0.708903  1
  H  H2  1  0.169214  0.244028  0.554956  1
  H  H3  1  0.285470  0.443413  0.789269  1
  H  H4  1  0.375834  0.123296  0.929090  1
  H  H5  1  0.407503  0.292108  0.596594  1
  H  H6  1  0.592497  0.707892  0.403406  1
  H  H7  1  0.624166  0.876704  0.070910  1
  H  H8  1  0.714530  0.556587  0.210731  1
  H  H9  1  0.830786  0.755972  0.445044  1
  H  H10  1  0.731502  0.082804  0.291097  1
  S  S11  1  0.226601  0.655793  0.250888  1
  S  S12  1  0.773399  0.344207  0.749112  1
  N  N13  1  0.280340  0.276390  0.677676  1
  N  N14  1  0.256551  0.075217  0.818765  1
  N  N15  1  0.743449  0.924783  0.181235  1
  N  N16  1  0.719660  0.723610  0.322324  1
  O  O17  1  0.119987  0.860936  0.267903  1
  O  O18  1  0.094023  0.408447  0.239708  1
  O  O19  1  0.355159  0.706885  0.465873  1
  O  O20  1  0.339112  0.670631  0.041490  1
  O  O21  1  0.660888  0.329369  0.958510  1
  O  O22  1  0.644841  0.293115  0.534127  1
  O  O23  1  0.905977  0.591553  0.760292  1
  O  O24  1  0.880013  0.139064  0.732097  1
