# generated using pymatgen
data_Mg16Si7HO32
_symmetry_space_group_name_H-M   'P 1'
_cell_length_a   8.44111123
_cell_length_b   11.67595596
_cell_length_c   5.80601805
_cell_angle_alpha   89.96552639
_cell_angle_beta   90.05828317
_cell_angle_gamma   90.25972086
_symmetry_Int_Tables_number   1
_chemical_formula_structural   Mg16Si7HO32
_chemical_formula_sum   'Mg16 Si7 H1 O32'
_cell_volume   572.22349921
_cell_formula_units_Z   1
loop_
 _symmetry_equiv_pos_site_id
 _symmetry_equiv_pos_as_xyz
  1  'x, y, z'
loop_
 _atom_site_type_symbol
 _atom_site_label
 _atom_site_symmetry_multiplicity
 _atom_site_fract_x
 _atom_site_fract_y
 _atom_site_fract_z
 _atom_site_occupancy
  Mg  Mg0  1  0.782726  0.997241  0.250077  1
  Mg  Mg1  1  0.218442  0.998374  0.749914  1
  Mg  Mg2  1  0.245529  0.751205  0.751241  1
  Mg  Mg3  1  0.250122  0.249957  0.750440  1
  Mg  Mg4  1  0.001125  0.378899  0.003138  1
  Mg  Mg5  1  0.992246  0.626569  0.500103  1
  Mg  Mg6  1  0.994399  0.626199  0.000389  1
  Mg  Mg7  1  0.000726  0.379183  0.496765  1
  Mg  Mg8  1  0.297514  0.495992  0.753270  1
  Mg  Mg9  1  0.713640  0.501682  0.248089  1
  Mg  Mg10  1  0.761035  0.248224  0.249473  1
  Mg  Mg11  1  0.753657  0.752078  0.248719  1
  Mg  Mg12  1  0.500284  0.875229  0.505991  1
  Mg  Mg13  1  0.513502  0.115743  0.985288  1
  Mg  Mg14  1  0.509830  0.117054  0.510453  1
  Mg  Mg15  1  0.500519  0.875405  0.991495  1
  Si  Si16  1  0.131044  0.126998  0.252222  1
  Si  Si17  1  0.137447  0.866859  0.249993  1
  Si  Si18  1  0.865623  0.873469  0.749690  1
  Si  Si19  1  0.869434  0.131381  0.749483  1
  Si  Si20  1  0.633522  0.630078  0.748867  1
  Si  Si21  1  0.637523  0.367967  0.749474  1
  Si  Si22  1  0.358447  0.388024  0.252138  1
  H  H23  1  0.377041  0.202939  0.233678  1
  O  O24  1  0.036180  0.997950  0.249929  1
  O  O25  1  0.968081  0.003554  0.749731  1
  O  O26  1  0.537092  0.003650  0.248989  1
  O  O27  1  0.464825  0.998254  0.748741  1
  O  O28  1  0.006657  0.236567  0.250427  1
  O  O29  1  0.006086  0.761077  0.249784  1
  O  O30  1  0.989096  0.765330  0.750124  1
  O  O31  1  0.997094  0.239870  0.750350  1
  O  O32  1  0.252178  0.372227  0.012849  1
  O  O33  1  0.226130  0.617537  0.540840  1
  O  O34  1  0.742928  0.628857  0.512065  1
  O  O35  1  0.745811  0.366746  0.987341  1
  O  O36  1  0.743701  0.629035  0.985315  1
  O  O37  1  0.745221  0.366590  0.511476  1
  O  O38  1  0.251719  0.372309  0.490180  1
  O  O39  1  0.228540  0.619196  0.963538  1
  O  O40  1  0.542178  0.496981  0.750109  1
  O  O41  1  0.484648  0.486262  0.251954  1
  O  O42  1  0.020882  0.500373  0.749483  1
  O  O43  1  0.960962  0.499448  0.249507  1
  O  O44  1  0.504483  0.737538  0.748591  1
  O  O45  1  0.507303  0.258545  0.750452  1
  O  O46  1  0.471920  0.253191  0.250951  1
  O  O47  1  0.522865  0.773167  0.248467  1
  O  O48  1  0.759091  0.877764  0.513141  1
  O  O49  1  0.759572  0.127260  0.986717  1
  O  O50  1  0.247229  0.128418  0.019919  1
  O  O51  1  0.242750  0.872561  0.489536  1
  O  O52  1  0.244583  0.127147  0.486618  1
  O  O53  1  0.242679  0.873564  0.010623  1
  O  O54  1  0.758848  0.878109  0.985599  1
  O  O55  1  0.758971  0.127323  0.512555  1
