# generated using pymatgen
data_Rb3P3(HO3)4
_symmetry_space_group_name_H-M   'P 1'
_cell_length_a   9.83319704
_cell_length_b   9.78200386
_cell_length_c   8.70876800
_cell_angle_alpha   111.72984896
_cell_angle_beta   107.68738535
_cell_angle_gamma   59.42069796
_symmetry_Int_Tables_number   1
_chemical_formula_structural   Rb3P3(HO3)4
_chemical_formula_sum   'Rb6 P6 H8 O24'
_cell_volume   662.91459315
_cell_formula_units_Z   2
loop_
 _symmetry_equiv_pos_site_id
 _symmetry_equiv_pos_as_xyz
  1  'x, y, z'
loop_
 _atom_site_type_symbol
 _atom_site_label
 _atom_site_symmetry_multiplicity
 _atom_site_fract_x
 _atom_site_fract_y
 _atom_site_fract_z
 _atom_site_occupancy
  Rb  Rb0  1  0.666833  0.519411  0.405829  1
  Rb  Rb1  1  0.333167  0.480589  0.594171  1
  Rb  Rb2  1  0.068166  0.206205  0.143928  1
  Rb  Rb3  1  0.931834  0.793795  0.856072  1
  Rb  Rb4  1  0.680555  0.015443  0.256640  1
  Rb  Rb5  1  0.319445  0.984557  0.743360  1
  P  P6  1  0.695307  0.603301  0.913645  1
  P  P7  1  0.304693  0.396699  0.086355  1
  P  P8  1  0.778057  0.248668  0.748134  1
  P  P9  1  0.221943  0.751332  0.251866  1
  P  P10  1  0.606483  0.225581  0.953720  1
  P  P11  1  0.393517  0.774419  0.046280  1
  H  H12  1  0.963793  0.921947  0.621870  1
  H  H13  1  0.036207  0.078053  0.378130  1
  H  H14  1  0.914257  0.203118  0.507454  1
  H  H15  1  0.085743  0.796882  0.492546  1
  H  H16  1  0.942941  0.646963  0.402458  1
  H  H17  1  0.057059  0.353037  0.597542  1
  H  H18  1  0.881510  0.600679  0.212712  1
  H  H19  1  0.118490  0.399321  0.787288  1
  O  O20  1  0.802880  0.676796  0.030465  1
  O  O21  1  0.197120  0.323204  0.969535  1
  O  O22  1  0.803977  0.403926  0.879817  1
  O  O23  1  0.196023  0.596074  0.120183  1
  O  O24  1  0.571707  0.625077  0.020618  1
  O  O25  1  0.428293  0.374923  0.979382  1
  O  O26  1  0.607515  0.649354  0.752514  1
  O  O27  1  0.392485  0.350646  0.247486  1
  O  O28  1  0.921457  0.097376  0.788728  1
  O  O29  1  0.078543  0.902624  0.211272  1
  O  O30  1  0.734246  0.263630  0.571449  1
  O  O31  1  0.265754  0.736370  0.428551  1
  O  O32  1  0.619157  0.270340  0.794788  1
  O  O33  1  0.380843  0.729660  0.205212  1
  O  O34  1  0.599333  0.063749  0.887529  1
  O  O35  1  0.400667  0.936251  0.112471  1
  O  O36  1  0.725710  0.249477  0.102747  1
  O  O37  1  0.274290  0.750523  0.897253  1
  O  O38  1  0.011070  0.181517  0.470657  1
  O  O39  1  0.988930  0.818483  0.529343  1
  O  O40  1  0.913204  0.563425  0.315563  1
  O  O41  1  0.086796  0.436575  0.684437  1
  O  O42  1  0.448551  0.045026  0.455589  1
  O  O43  1  0.551449  0.954974  0.544411  1
