# generated using pymatgen
data_Li4Cr3CoO8
_symmetry_space_group_name_H-M   'P 1'
_cell_length_a   5.10918514
_cell_length_b   5.86102178
_cell_length_c   10.56570145
_cell_angle_alpha   106.11825934
_cell_angle_beta   85.44213391
_cell_angle_gamma   73.34834710
_symmetry_Int_Tables_number   1
_chemical_formula_structural   Li4Cr3CoO8
_chemical_formula_sum   'Li8 Cr6 Co2 O16'
_cell_volume   286.82779342
_cell_formula_units_Z   2
loop_
 _symmetry_equiv_pos_site_id
 _symmetry_equiv_pos_as_xyz
  1  'x, y, z'
loop_
 _atom_site_type_symbol
 _atom_site_label
 _atom_site_symmetry_multiplicity
 _atom_site_fract_x
 _atom_site_fract_y
 _atom_site_fract_z
 _atom_site_occupancy
  Li  Li0  1  0.006183  0.120964  0.750041  1
  Li  Li1  1  0.997787  0.999978  0.003762  1
  Li  Li2  1  0.991870  0.255051  0.501456  1
  Li  Li3  1  0.008119  0.369981  0.248545  1
  Li  Li4  1  0.002246  0.625022  0.746240  1
  Li  Li5  1  0.993828  0.504031  0.999960  1
  Li  Li6  1  0.000010  0.748988  0.502182  1
  Li  Li7  1  0.999965  0.876039  0.247817  1
  Cr  Cr8  1  0.499698  0.060589  0.875172  1
  Cr  Cr9  1  0.500198  0.187426  0.625211  1
  Cr  Cr10  1  0.499977  0.312500  0.374974  1
  Cr  Cr11  1  0.500337  0.564396  0.874847  1
  Cr  Cr12  1  0.499790  0.437611  0.124809  1
  Cr  Cr13  1  0.499988  0.812485  0.374968  1
  Co  Co14  1  0.499901  0.687467  0.624822  1
  Co  Co15  1  0.500104  0.937525  0.125176  1
  O  O16  1  0.276536  0.084687  0.307448  1
  O  O17  1  0.726960  0.038373  0.439715  1
  O  O18  1  0.273063  0.337504  0.811262  1
  O  O19  1  0.726956  0.287488  0.938753  1
  O  O20  1  0.722373  0.159459  0.188339  1
  O  O21  1  0.276502  0.206562  0.061969  1
  O  O22  1  0.277625  0.465527  0.561665  1
  O  O23  1  0.723518  0.418423  0.688028  1
  O  O24  1  0.272986  0.586638  0.310283  1
  O  O25  1  0.723427  0.540307  0.442540  1
  O  O26  1  0.276553  0.833901  0.806573  1
  O  O27  1  0.723482  0.791079  0.943432  1
  O  O28  1  0.277924  0.716502  0.061442  1
  O  O29  1  0.276747  0.957535  0.561954  1
  O  O30  1  0.723247  0.667474  0.188055  1
  O  O31  1  0.722103  0.908490  0.688559  1
