# generated using pymatgen
data_Li7V3P8O29
_symmetry_space_group_name_H-M   'P 1'
_cell_length_a   9.85025757
_cell_length_b   9.84208109
_cell_length_c   13.93090265
_cell_angle_alpha   90.14147027
_cell_angle_beta   90.24894022
_cell_angle_gamma   60.18181186
_symmetry_Int_Tables_number   1
_chemical_formula_structural   Li7V3P8O29
_chemical_formula_sum   'Li14 V6 P16 O58'
_cell_volume   1171.74478285
_cell_formula_units_Z   2
loop_
 _symmetry_equiv_pos_site_id
 _symmetry_equiv_pos_as_xyz
  1  'x, y, z'
loop_
 _atom_site_type_symbol
 _atom_site_label
 _atom_site_symmetry_multiplicity
 _atom_site_fract_x
 _atom_site_fract_y
 _atom_site_fract_z
 _atom_site_occupancy
  Li  Li0  1  0.909725  0.321424  0.565857  1
  Li  Li1  1  0.675002  0.672212  0.387515  1
  Li  Li2  1  0.673907  0.669482  0.885520  1
  Li  Li3  1  0.780760  0.299243  0.060269  1
  Li  Li4  1  0.310466  0.912531  0.061050  1
  Li  Li5  1  0.660025  0.237373  0.443053  1
  Li  Li6  1  0.326029  0.763992  0.563445  1
  Li  Li7  1  0.688888  0.086262  0.933920  1
  Li  Li8  1  0.217075  0.697467  0.941651  1
  Li  Li9  1  0.331301  0.337763  0.114330  1
  Li  Li10  1  0.097360  0.667929  0.437443  1
  Li  Li11  1  0.233427  0.094194  0.441813  1
  Li  Li12  1  0.091660  0.225875  0.936113  1
  Li  Li13  1  0.945728  0.985457  0.512129  1
  V  V14  1  0.566021  0.431913  0.251138  1
  V  V15  1  0.434763  0.564962  0.750891  1
  V  V16  1  0.570762  0.994309  0.745472  1
  V  V17  1  0.434046  0.003435  0.251388  1
  V  V18  1  0.997415  0.570489  0.247234  1
  V  V19  1  0.001525  0.434469  0.748200  1
  P  P20  1  0.911220  0.772666  0.838305  1
  P  P21  1  0.776311  0.915462  0.338978  1
  P  P22  1  0.911405  0.318641  0.344264  1
  P  P23  1  0.660189  0.667845  0.127593  1
  P  P24  1  0.662586  0.665082  0.626298  1
  P  P25  1  0.769557  0.323124  0.842870  1
  P  P26  1  0.683586  0.228326  0.658697  1
  P  P27  1  0.323172  0.908757  0.843260  1
  P  P28  1  0.676565  0.090651  0.151948  1
  P  P29  1  0.320810  0.771122  0.343792  1
  P  P30  1  0.232488  0.677615  0.158584  1
  P  P31  1  0.333186  0.332053  0.375208  1
  P  P32  1  0.340302  0.328495  0.872664  1
  P  P33  1  0.085727  0.687887  0.652896  1
  P  P34  1  0.231719  0.083131  0.657940  1
  P  P35  1  0.089901  0.232235  0.157785  1
  O  O36  1  0.015744  0.775087  0.560599  1
  O  O37  1  0.920686  0.747857  0.341266  1
  O  O38  1  0.744419  0.010142  0.059945  1
  O  O39  1  0.745528  0.919627  0.840108  1
  O  O40  1  0.885839  0.629661  0.825409  1
  O  O41  1  0.815812  0.655384  0.171649  1
  O  O42  1  0.893218  0.483636  0.332945  1
  O  O43  1  0.995829  0.250285  0.068141  1
  O  O44  1  0.921132  0.331335  0.844474  1
  O  O45  1  0.668830  0.809852  0.670462  1
  O  O46  1  0.629302  0.898239  0.335323  1
  O  O47  1  0.808604  0.511073  0.657734  1
  O  O48  1  0.656406  0.663852  0.020406  1
  O  O49  1  0.642502  0.675256  0.519019  1
  O  O50  1  0.658017  0.518774  0.169783  1
  O  O51  1  0.488848  0.885644  0.827183  1
  O  O52  1  0.516686  0.814533  0.167569  1
  O  O53  1  0.748093  0.332827  0.344163  1
  O  O54  1  0.787457  0.213699  0.752282  1
  O  O55  1  0.778225  0.219713  0.569840  1
  O  O56  1  0.747448  0.249746  0.931500  1
  O  O57  1  0.629829  0.490765  0.825010  1
  O  O58  1  0.509889  0.673898  0.670657  1
  O  O59  1  0.670807  0.252043  0.160524  1
  O  O60  1  0.485650  0.623870  0.330960  1
  O  O61  1  0.334231  0.919044  0.346241  1
  O  O62  1  0.791071  0.988434  0.239034  1
  O  O63  1  0.783168  0.014116  0.419628  1
  O  O64  1  0.234392  0.992814  0.569201  1
  O  O65  1  0.660552  0.086835  0.661737  1
  O  O66  1  0.530072  0.385180  0.666622  1
  O  O67  1  0.335976  0.746407  0.846377  1
  O  O68  1  0.483868  0.334392  0.331579  1
  O  O69  1  0.374304  0.509649  0.175942  1
  O  O70  1  0.253592  0.750193  0.069510  1
  O  O71  1  0.234635  0.760938  0.430318  1
  O  O72  1  0.220958  0.785870  0.248452  1
  O  O73  1  0.251135  0.669352  0.664827  1
  O  O74  1  0.488116  0.178321  0.832649  1
  O  O75  1  0.509423  0.121923  0.172971  1
  O  O76  1  0.344606  0.476961  0.829933  1
  O  O77  1  0.346265  0.335846  0.980367  1
  O  O78  1  0.350950  0.321883  0.481839  1
  O  O79  1  0.182387  0.485794  0.337183  1
  O  O80  1  0.382509  0.090846  0.671227  1
  O  O81  1  0.322394  0.192339  0.332704  1
  O  O82  1  0.084975  0.663581  0.161007  1
  O  O83  1  0.983850  0.798235  0.740352  1
  O  O84  1  0.009079  0.764352  0.921481  1
  O  O85  1  0.089654  0.532241  0.663139  1
  O  O86  1  0.189946  0.331563  0.837523  1
  O  O87  1  0.115325  0.374793  0.174516  1
  O  O88  1  0.247362  0.080989  0.156936  1
  O  O89  1  0.245590  0.003470  0.932130  1
  O  O90  1  0.214275  0.995657  0.751696  1
  O  O91  1  0.085835  0.246282  0.658479  1
  O  O92  1  0.003114  0.231830  0.432419  1
  O  O93  1  0.997115  0.219704  0.249560  1
