# generated using pymatgen
data_LiNbCoO4
_symmetry_space_group_name_H-M   'P 1'
_cell_length_a   6.09520704
_cell_length_b   6.09495739
_cell_length_c   8.66136045
_cell_angle_alpha   89.96978051
_cell_angle_beta   89.99450070
_cell_angle_gamma   89.86942624
_symmetry_Int_Tables_number   1
_chemical_formula_structural   LiNbCoO4
_chemical_formula_sum   'Li4 Nb4 Co4 O16'
_cell_volume   321.76889465
_cell_formula_units_Z   4
loop_
 _symmetry_equiv_pos_site_id
 _symmetry_equiv_pos_as_xyz
  1  'x, y, z'
loop_
 _atom_site_type_symbol
 _atom_site_label
 _atom_site_symmetry_multiplicity
 _atom_site_fract_x
 _atom_site_fract_y
 _atom_site_fract_z
 _atom_site_occupancy
  Li  Li0  1  0.000222  0.237892  0.000344  1
  Li  Li1  1  0.000126  0.762239  0.499826  1
  Li  Li2  1  0.237891  0.999920  0.250011  1
  Li  Li3  1  0.761968  0.999943  0.749962  1
  Nb  Nb4  1  0.251520  0.251854  0.624931  1
  Nb  Nb5  1  0.251999  0.748233  0.875114  1
  Nb  Nb6  1  0.748171  0.251754  0.374856  1
  Nb  Nb7  1  0.748300  0.748192  0.125034  1
  Co  Co8  1  0.247108  0.500054  0.250093  1
  Co  Co9  1  0.499996  0.247225  0.000017  1
  Co  Co10  1  0.500060  0.752773  0.499780  1
  Co  Co11  1  0.752914  0.500113  0.750068  1
  O  O12  1  0.002752  0.255791  0.254497  1
  O  O13  1  0.004248  0.742875  0.245766  1
  O  O14  1  0.256892  0.003926  0.995675  1
  O  O15  1  0.256768  0.996163  0.504365  1
  O  O16  1  0.255557  0.498247  0.006300  1
  O  O17  1  0.256038  0.501815  0.493527  1
  O  O18  1  0.497263  0.256646  0.243567  1
  O  O19  1  0.498695  0.744762  0.256212  1
  O  O20  1  0.501928  0.256065  0.756282  1
  O  O21  1  0.502037  0.743748  0.743788  1
  O  O22  1  0.743865  0.502279  0.506274  1
  O  O23  1  0.743377  0.497701  0.993729  1
  O  O24  1  0.743769  0.003339  0.004313  1
  O  O25  1  0.743689  0.996448  0.495699  1
  O  O26  1  0.996424  0.256579  0.745693  1
  O  O27  1  0.996423  0.743424  0.754277  1
