# generated using pymatgen
data_LiCuPO4
_symmetry_space_group_name_H-M   'P 1'
_cell_length_a   10.30721151
_cell_length_b   6.17298031
_cell_length_c   4.79814705
_cell_angle_alpha   90.00000000
_cell_angle_beta   90.00000000
_cell_angle_gamma   90.00000000
_symmetry_Int_Tables_number   1
_chemical_formula_structural   LiCuPO4
_chemical_formula_sum   'Li4 Cu4 P4 O16'
_cell_volume   305.28792958
_cell_formula_units_Z   4
loop_
 _symmetry_equiv_pos_site_id
 _symmetry_equiv_pos_as_xyz
  1  'x, y, z'
loop_
 _atom_site_type_symbol
 _atom_site_label
 _atom_site_symmetry_multiplicity
 _atom_site_fract_x
 _atom_site_fract_y
 _atom_site_fract_z
 _atom_site_occupancy
  Li  Li0  1  0.218220  0.750000  0.464661  1
  Li  Li1  1  0.281780  0.250000  0.964661  1
  Li  Li2  1  0.718220  0.750000  0.035339  1
  Li  Li3  1  0.781780  0.250000  0.535339  1
  Cu  Cu4  1  0.000000  0.000000  0.000000  1
  Cu  Cu5  1  0.000000  0.500000  0.000000  1
  Cu  Cu6  1  0.500000  0.000000  0.500000  1
  Cu  Cu7  1  0.500000  0.500000  0.500000  1
  P  P8  1  0.095840  0.250000  0.393736  1
  P  P9  1  0.404160  0.750000  0.893736  1
  P  P10  1  0.595840  0.250000  0.106264  1
  P  P11  1  0.904160  0.750000  0.606264  1
  O  O12  1  0.048023  0.750000  0.735506  1
  O  O13  1  0.100437  0.250000  0.711286  1
  O  O14  1  0.155095  0.042015  0.260739  1
  O  O15  1  0.155095  0.457985  0.260739  1
  O  O16  1  0.344905  0.542015  0.760739  1
  O  O17  1  0.344905  0.957985  0.760739  1
  O  O18  1  0.399563  0.750000  0.211286  1
  O  O19  1  0.451977  0.250000  0.235506  1
  O  O20  1  0.548023  0.750000  0.764494  1
  O  O21  1  0.600437  0.250000  0.788714  1
  O  O22  1  0.655095  0.042015  0.239261  1
  O  O23  1  0.655095  0.457985  0.239261  1
  O  O24  1  0.844905  0.542015  0.739261  1
  O  O25  1  0.844905  0.957985  0.739261  1
  O  O26  1  0.899563  0.750000  0.288714  1
  O  O27  1  0.951977  0.250000  0.264494  1
