# generated using pymatgen
data_NaGa3P2(HO3)4
_symmetry_space_group_name_H-M   'P 1'
_cell_length_a   11.66156809
_cell_length_b   7.35680463
_cell_length_c   10.40912218
_cell_angle_alpha   90.00000000
_cell_angle_beta   90.00000000
_cell_angle_gamma   98.13576968
_symmetry_Int_Tables_number   1
_chemical_formula_structural   NaGa3P2(HO3)4
_chemical_formula_sum   'Na4 Ga12 P8 H16 O48'
_cell_volume   884.03036077
_cell_formula_units_Z   4
loop_
 _symmetry_equiv_pos_site_id
 _symmetry_equiv_pos_as_xyz
  1  'x, y, z'
loop_
 _atom_site_type_symbol
 _atom_site_label
 _atom_site_symmetry_multiplicity
 _atom_site_fract_x
 _atom_site_fract_y
 _atom_site_fract_z
 _atom_site_occupancy
  Na  Na0  1  0.193901  0.450971  0.576059  1
  Na  Na1  1  0.306099  0.049029  0.076059  1
  Na  Na2  1  0.693901  0.950971  0.923941  1
  Na  Na3  1  0.806099  0.549029  0.423941  1
  Ga  Ga4  1  0.038527  0.552308  0.220017  1
  Ga  Ga5  1  0.039730  0.063965  0.753997  1
  Ga  Ga6  1  0.237429  0.990620  0.562611  1
  Ga  Ga7  1  0.262571  0.509380  0.062611  1
  Ga  Ga8  1  0.461473  0.947692  0.720017  1
  Ga  Ga9  1  0.460270  0.436035  0.253997  1
  Ga  Ga10  1  0.539730  0.563965  0.746003  1
  Ga  Ga11  1  0.538527  0.052308  0.279983  1
  Ga  Ga12  1  0.737429  0.490620  0.937389  1
  Ga  Ga13  1  0.762571  0.009380  0.437389  1
  Ga  Ga14  1  0.960270  0.936035  0.246003  1
  Ga  Ga15  1  0.961473  0.447692  0.779983  1
  P  P16  1  0.191836  0.749660  0.824575  1
  P  P17  1  0.182434  0.237561  0.309741  1
  P  P18  1  0.308164  0.750340  0.324575  1
  P  P19  1  0.317566  0.262439  0.809741  1
  P  P20  1  0.682434  0.737561  0.190259  1
  P  P21  1  0.691836  0.249660  0.675425  1
  P  P22  1  0.817566  0.762439  0.690259  1
  P  P23  1  0.808164  0.250340  0.175425  1
  H  H24  1  0.029562  0.818421  0.585286  1
  H  H25  1  0.057354  0.828628  0.052533  1
  H  H26  1  0.076704  0.758346  0.395145  1
  H  H27  1  0.064035  0.354647  0.009588  1
  H  H28  1  0.423296  0.741654  0.895145  1
  H  H29  1  0.442646  0.671372  0.552533  1
  H  H30  1  0.470438  0.681579  0.085286  1
  H  H31  1  0.435965  0.145353  0.509588  1
  H  H32  1  0.564035  0.854647  0.490412  1
  H  H33  1  0.529562  0.318421  0.914714  1
  H  H34  1  0.557354  0.328628  0.447467  1
  H  H35  1  0.576704  0.258346  0.104855  1
  H  H36  1  0.935965  0.645353  0.990412  1
  H  H37  1  0.923296  0.241654  0.604855  1
  H  H38  1  0.942646  0.171372  0.947467  1
  H  H39  1  0.970438  0.181579  0.414714  1
  O  O40  1  0.001015  0.718146  0.354126  1
  O  O41  1  0.003526  0.230389  0.890032  1
  O  O42  1  0.074731  0.939764  0.596608  1
  O  O43  1  0.111499  0.889852  0.867679  1
  O  O44  1  0.100202  0.449054  0.072028  1
  O  O45  1  0.098601  0.379799  0.340722  1
  O  O46  1  0.121591  0.569352  0.774834  1
  O  O47  1  0.120338  0.068271  0.237023  1
  O  O48  1  0.230474  0.782073  0.442419  1
  O  O49  1  0.223589  0.677917  0.213337  1
  O  O50  1  0.214847  0.180715  0.718945  1
  O  O51  1  0.276411  0.822083  0.713337  1
  O  O52  1  0.269526  0.717927  0.942419  1
  O  O53  1  0.231250  0.192994  0.441870  1
  O  O54  1  0.268750  0.307006  0.941870  1
  O  O55  1  0.285153  0.319285  0.218945  1
  O  O56  1  0.378409  0.930648  0.274834  1
  O  O57  1  0.388501  0.610148  0.367678  1
  O  O58  1  0.379662  0.431729  0.737023  1
  O  O59  1  0.425269  0.560236  0.096608  1
  O  O60  1  0.401399  0.120201  0.840722  1
  O  O61  1  0.399798  0.050946  0.572028  1
  O  O62  1  0.498985  0.781854  0.854126  1
  O  O63  1  0.503526  0.730389  0.609968  1
  O  O64  1  0.496474  0.269611  0.390032  1
  O  O65  1  0.501015  0.218146  0.145874  1
  O  O66  1  0.600202  0.949054  0.427972  1
  O  O67  1  0.598601  0.879799  0.159278  1
  O  O68  1  0.574731  0.439764  0.903392  1
  O  O69  1  0.620338  0.568271  0.262977  1
  O  O70  1  0.611499  0.389852  0.632321  1
  O  O71  1  0.621591  0.069352  0.725166  1
  O  O72  1  0.714847  0.680715  0.781055  1
  O  O73  1  0.731250  0.692994  0.058130  1
  O  O74  1  0.768750  0.807006  0.558130  1
  O  O75  1  0.730474  0.282073  0.057581  1
  O  O76  1  0.723589  0.177917  0.286663  1
  O  O77  1  0.785153  0.819285  0.281055  1
  O  O78  1  0.776411  0.322083  0.786663  1
  O  O79  1  0.769526  0.217927  0.557581  1
  O  O80  1  0.879662  0.931729  0.762977  1
  O  O81  1  0.878409  0.430648  0.225166  1
  O  O82  1  0.901399  0.620201  0.659278  1
  O  O83  1  0.899798  0.550946  0.927972  1
  O  O84  1  0.888501  0.110148  0.132321  1
  O  O85  1  0.925269  0.060236  0.403392  1
  O  O86  1  0.996474  0.769611  0.109968  1
  O  O87  1  0.998985  0.281854  0.645874  1
