# generated using pymatgen
data_V2P2O7
_symmetry_space_group_name_H-M   'P 1'
_cell_length_a   6.52810166
_cell_length_b   6.52810166
_cell_length_c   23.62124205
_cell_angle_alpha   90.00000000
_cell_angle_beta   90.00000000
_cell_angle_gamma   90.00000000
_symmetry_Int_Tables_number   1
_chemical_formula_structural   V2P2O7
_chemical_formula_sum   'V16 P16 O56'
_cell_volume   1006.64547985
_cell_formula_units_Z   8
loop_
 _symmetry_equiv_pos_site_id
 _symmetry_equiv_pos_as_xyz
  1  'x, y, z'
loop_
 _atom_site_type_symbol
 _atom_site_label
 _atom_site_symmetry_multiplicity
 _atom_site_fract_x
 _atom_site_fract_y
 _atom_site_fract_z
 _atom_site_occupancy
  V  V0  1  0.116648  0.595539  0.880310  1
  V  V1  1  0.112637  0.220137  0.998548  1
  V  V2  1  0.164376  0.534016  0.261494  1
  V  V3  1  0.179645  0.245166  0.640887  1
  V  V4  1  0.220137  0.887363  0.748548  1
  V  V5  1  0.245166  0.820355  0.390887  1
  V  V6  1  0.404461  0.116648  0.130310  1
  V  V7  1  0.465984  0.164376  0.511494  1
  V  V8  1  0.534016  0.835624  0.011494  1
  V  V9  1  0.595539  0.883352  0.630310  1
  V  V10  1  0.754834  0.179645  0.890887  1
  V  V11  1  0.779863  0.112637  0.248548  1
  V  V12  1  0.820355  0.754834  0.140887  1
  V  V13  1  0.835624  0.465984  0.761494  1
  V  V14  1  0.887363  0.779863  0.498548  1
  V  V15  1  0.883352  0.404461  0.380310  1
  P  P16  1  0.050131  0.718905  0.017718  1
  P  P17  1  0.117374  0.737912  0.623103  1
  P  P18  1  0.262088  0.117374  0.873103  1
  P  P19  1  0.281095  0.050131  0.267718  1
  P  P20  1  0.295806  0.639461  0.125146  1
  P  P21  1  0.317979  0.376344  0.768376  1
  P  P22  1  0.360539  0.295806  0.375146  1
  P  P23  1  0.376344  0.682021  0.518376  1
  P  P24  1  0.623656  0.317979  0.018376  1
  P  P25  1  0.639461  0.704194  0.875146  1
  P  P26  1  0.682021  0.623656  0.268376  1
  P  P27  1  0.704194  0.360539  0.625146  1
  P  P28  1  0.718905  0.949869  0.767718  1
  P  P29  1  0.737912  0.882626  0.373103  1
  P  P30  1  0.882626  0.262088  0.123103  1
  P  P31  1  0.949869  0.281095  0.517718  1
  O  O32  1  0.039354  0.554231  0.971770  1
  O  O33  1  0.074663  0.174551  0.094484  1
  O  O34  1  0.085693  0.249841  0.898886  1
  O  O35  1  0.101560  0.565559  0.665488  1
  O  O36  1  0.102929  0.187817  0.249068  1
  O  O37  1  0.152410  0.211026  0.544923  1
  O  O38  1  0.149599  0.748385  0.166010  1
  O  O39  1  0.168039  0.595248  0.067278  1
  O  O40  1  0.159893  0.542869  0.786678  1
  O  O41  1  0.174551  0.925337  0.844484  1
  O  O42  1  0.187817  0.897071  0.999068  1
  O  O43  1  0.211794  0.216327  0.730527  1
  O  O44  1  0.211026  0.847590  0.294923  1
  O  O45  1  0.209422  0.472524  0.356814  1
  O  O46  1  0.216327  0.788206  0.480527  1
  O  O47  1  0.251615  0.149599  0.416010  1
  O  O48  1  0.251930  0.628042  0.574831  1
  O  O49  1  0.249841  0.914307  0.648886  1
  O  O50  1  0.375022  0.434271  0.143052  1
  O  O51  1  0.371958  0.251930  0.824831  1
  O  O52  1  0.434441  0.101560  0.915488  1
  O  O53  1  0.404752  0.168039  0.317278  1
  O  O54  1  0.445769  0.039354  0.221770  1
  O  O55  1  0.434271  0.624978  0.893052  1
  O  O56  1  0.457131  0.159893  0.036678  1
  O  O57  1  0.472524  0.790578  0.106814  1
  O  O58  1  0.467749  0.485748  0.497815  1
  O  O59  1  0.514252  0.467749  0.747815  1
  O  O60  1  0.485748  0.532251  0.247815  1
  O  O61  1  0.532251  0.514252  0.997815  1
  O  O62  1  0.527476  0.209422  0.606814  1
  O  O63  1  0.542869  0.840107  0.536678  1
  O  O64  1  0.565729  0.375022  0.393052  1
  O  O65  1  0.554231  0.960646  0.721770  1
  O  O66  1  0.595248  0.831961  0.817278  1
  O  O67  1  0.565559  0.898440  0.415488  1
  O  O68  1  0.628042  0.748070  0.324831  1
  O  O69  1  0.624978  0.565729  0.643052  1
  O  O70  1  0.750159  0.085693  0.148886  1
  O  O71  1  0.748070  0.371958  0.074831  1
  O  O72  1  0.748385  0.850401  0.916010  1
  O  O73  1  0.783673  0.211794  0.980527  1
  O  O74  1  0.790578  0.527476  0.856814  1
  O  O75  1  0.788974  0.152410  0.794923  1
  O  O76  1  0.788206  0.783673  0.230527  1
  O  O77  1  0.812183  0.102929  0.499068  1
  O  O78  1  0.825449  0.074663  0.344484  1
  O  O79  1  0.840107  0.457131  0.286678  1
  O  O80  1  0.831961  0.404752  0.567278  1
  O  O81  1  0.850401  0.251615  0.666010  1
  O  O82  1  0.847590  0.788974  0.044923  1
  O  O83  1  0.897071  0.812183  0.749068  1
  O  O84  1  0.898440  0.434441  0.165488  1
  O  O85  1  0.914307  0.750159  0.398886  1
  O  O86  1  0.925337  0.825449  0.594484  1
  O  O87  1  0.960646  0.445769  0.471770  1
