# generated using pymatgen
data_Li2FeBO4
_symmetry_space_group_name_H-M   'P 1'
_cell_length_a   6.19700040
_cell_length_b   5.11862727
_cell_length_c   4.81881306
_cell_angle_alpha   89.96736117
_cell_angle_beta   89.75615655
_cell_angle_gamma   89.98278143
_symmetry_Int_Tables_number   1
_chemical_formula_structural   Li2FeBO4
_chemical_formula_sum   'Li4 Fe2 B2 O8'
_cell_volume   152.85198591
_cell_formula_units_Z   2
loop_
 _symmetry_equiv_pos_site_id
 _symmetry_equiv_pos_as_xyz
  1  'x, y, z'
loop_
 _atom_site_type_symbol
 _atom_site_label
 _atom_site_symmetry_multiplicity
 _atom_site_fract_x
 _atom_site_fract_y
 _atom_site_fract_z
 _atom_site_occupancy
  Li  Li0  1  0.248530  0.347195  0.494174  1
  Li  Li1  1  0.495728  0.186104  0.997392  1
  Li  Li2  1  0.748398  0.652353  0.993041  1
  Li  Li3  1  0.995272  0.813406  0.496400  1
  Fe  Fe4  1  0.001727  0.177255  0.999521  1
  Fe  Fe5  1  0.501476  0.822144  0.499368  1
  B  B6  1  0.248296  0.678984  0.004604  1
  B  B7  1  0.748310  0.320518  0.504613  1
  O  O8  1  0.049013  0.819335  0.905065  1
  O  O9  1  0.240170  0.399230  0.911888  1
  O  O10  1  0.255227  0.693149  0.314051  1
  O  O11  1  0.449598  0.806777  0.891780  1
  O  O12  1  0.548968  0.180207  0.405644  1
  O  O13  1  0.739899  0.600206  0.411206  1
  O  O14  1  0.755468  0.306565  0.814091  1
  O  O15  1  0.949612  0.192689  0.391871  1
