# generated using pymatgen
data_Na4Sb2C4SO16
_symmetry_space_group_name_H-M   'P 1'
_cell_length_a   10.44594087
_cell_length_b   10.14181485
_cell_length_c   10.44594040
_cell_angle_alpha   61.43344143
_cell_angle_beta   94.09928807
_cell_angle_gamma   61.43343867
_symmetry_Int_Tables_number   1
_chemical_formula_structural   Na4Sb2C4SO16
_chemical_formula_sum   'Na8 Sb4 C8 S2 O32'
_cell_volume   786.33627449
_cell_formula_units_Z   2
loop_
 _symmetry_equiv_pos_site_id
 _symmetry_equiv_pos_as_xyz
  1  'x, y, z'
loop_
 _atom_site_type_symbol
 _atom_site_label
 _atom_site_symmetry_multiplicity
 _atom_site_fract_x
 _atom_site_fract_y
 _atom_site_fract_z
 _atom_site_occupancy
  Na  Na0  1  0.077288  0.845425  0.827288  1
  Na  Na1  1  0.078373  0.250000  0.828373  1
  Na  Na2  1  0.328373  0.750000  0.578373  1
  Na  Na3  1  0.327288  0.345425  0.577288  1
  Na  Na4  1  0.672712  0.654575  0.422712  1
  Na  Na5  1  0.671627  0.250000  0.421627  1
  Na  Na6  1  0.921627  0.750000  0.171627  1
  Na  Na7  1  0.922712  0.154575  0.172712  1
  Sb  Sb8  1  0.000000  0.500000  0.000000  1
  Sb  Sb9  1  0.500000  0.000000  0.500000  1
  Sb  Sb10  1  0.500000  0.500000  0.000000  1
  Sb  Sb11  1  0.500000  0.000000  0.000000  1
  C  C12  1  0.342256  0.940870  0.770910  1
  C  C13  1  0.270910  0.440870  0.842256  1
  C  C14  1  0.716874  0.940870  0.788220  1
  C  C15  1  0.711780  0.559130  0.783126  1
  C  C16  1  0.288220  0.440870  0.216874  1
  C  C17  1  0.283126  0.059130  0.211780  1
  C  C18  1  0.729090  0.559130  0.157744  1
  C  C19  1  0.657744  0.059130  0.229090  1
  S  S20  1  0.125000  0.750000  0.375000  1
  S  S21  1  0.875000  0.250000  0.625000  1
  O  O22  1  0.335277  0.814284  0.883001  1
  O  O23  1  0.071035  0.871981  0.430295  1
  O  O24  1  0.353403  0.944714  0.647061  1
  O  O25  1  0.147061  0.444714  0.853403  1
  O  O26  1  0.701883  0.944714  0.908225  1
  O  O27  1  0.284206  0.565671  0.836371  1
  O  O28  1  0.056985  0.871981  0.197724  1
  O  O29  1  0.069705  0.628019  0.428965  1
  O  O30  1  0.402043  0.934329  0.349878  1
  O  O31  1  0.591775  0.555286  0.798117  1
  O  O32  1  0.383001  0.314284  0.835277  1
  O  O33  1  0.302276  0.628019  0.443015  1
  O  O34  1  0.850439  0.814284  0.802715  1
  O  O35  1  0.697285  0.685716  0.649561  1
  O  O36  1  0.336371  0.065671  0.784206  1
  O  O37  1  0.150122  0.565671  0.097957  1
  O  O38  1  0.849878  0.434329  0.902043  1
  O  O39  1  0.663629  0.934329  0.215794  1
  O  O40  1  0.302715  0.314284  0.350439  1
  O  O41  1  0.149561  0.185716  0.197285  1
  O  O42  1  0.697724  0.371981  0.556985  1
  O  O43  1  0.616999  0.685716  0.164723  1
  O  O44  1  0.408225  0.444714  0.201883  1
  O  O45  1  0.597957  0.065671  0.650122  1
  O  O46  1  0.930295  0.371981  0.571035  1
  O  O47  1  0.943015  0.128019  0.802276  1
  O  O48  1  0.715794  0.434329  0.163629  1
  O  O49  1  0.298117  0.055286  0.091775  1
  O  O50  1  0.852939  0.555286  0.146597  1
  O  O51  1  0.646597  0.055286  0.352939  1
  O  O52  1  0.928965  0.128019  0.569705  1
  O  O53  1  0.664723  0.185716  0.116999  1
