# generated using pymatgen
data_TeH3CCl3
_symmetry_space_group_name_H-M   'P 1'
_cell_length_a   10.55901523
_cell_length_b   6.68736222
_cell_length_c   10.83295995
_cell_angle_alpha   90.00000000
_cell_angle_beta   118.63093788
_cell_angle_gamma   90.00000000
_symmetry_Int_Tables_number   1
_chemical_formula_structural   TeH3CCl3
_chemical_formula_sum   'Te4 H12 C4 Cl12'
_cell_volume   671.40343234
_cell_formula_units_Z   4
loop_
 _symmetry_equiv_pos_site_id
 _symmetry_equiv_pos_as_xyz
  1  'x, y, z'
loop_
 _atom_site_type_symbol
 _atom_site_label
 _atom_site_symmetry_multiplicity
 _atom_site_fract_x
 _atom_site_fract_y
 _atom_site_fract_z
 _atom_site_occupancy
  Te  Te0  1  0.086726  0.397082  0.764045  1
  Te  Te1  1  0.413274  0.897082  0.735955  1
  Te  Te2  1  0.586726  0.102918  0.264045  1
  Te  Te3  1  0.913274  0.602918  0.235955  1
  H  H4  1  0.125212  0.692775  0.944339  1
  H  H5  1  0.299007  0.600862  0.974899  1
  H  H6  1  0.200993  0.100862  0.525101  1
  H  H7  1  0.302471  0.962088  0.458503  1
  H  H8  1  0.374788  0.192775  0.555661  1
  H  H9  1  0.197529  0.462088  0.041497  1
  H  H10  1  0.802471  0.537912  0.958503  1
  H  H11  1  0.625212  0.807225  0.444339  1
  H  H12  1  0.697529  0.037912  0.541497  1
  H  H13  1  0.799007  0.899138  0.474899  1
  H  H14  1  0.700993  0.399138  0.025101  1
  H  H15  1  0.874788  0.307225  0.055661  1
  C  C16  1  0.191624  0.560283  0.957919  1
  C  C17  1  0.308376  0.060283  0.542081  1
  C  C18  1  0.691624  0.939717  0.457919  1
  C  C19  1  0.808376  0.439717  0.042081  1
  Cl  Cl20  1  0.027252  0.117222  0.865782  1
  Cl  Cl21  1  0.137714  0.736511  0.640280  1
  Cl  Cl22  1  0.362286  0.236511  0.859720  1
  Cl  Cl23  1  0.143194  0.453470  0.296734  1
  Cl  Cl24  1  0.472748  0.617222  0.634218  1
  Cl  Cl25  1  0.356806  0.953470  0.203266  1
  Cl  Cl26  1  0.643194  0.046530  0.796734  1
  Cl  Cl27  1  0.527252  0.382778  0.365782  1
  Cl  Cl28  1  0.856806  0.546530  0.703266  1
  Cl  Cl29  1  0.637714  0.763489  0.140280  1
  Cl  Cl30  1  0.862286  0.263489  0.359720  1
  Cl  Cl31  1  0.972748  0.882778  0.134218  1
