# generated using pymatgen
data_Mn3Cr2Sb(PO4)6
_symmetry_space_group_name_H-M   'P 1'
_cell_length_a   8.58286572
_cell_length_b   8.58286496
_cell_length_c   8.58286503
_cell_angle_alpha   61.20349563
_cell_angle_beta   61.20349272
_cell_angle_gamma   61.20349299
_symmetry_Int_Tables_number   1
_chemical_formula_structural   Mn3Cr2Sb(PO4)6
_chemical_formula_sum   'Mn3 Cr2 Sb1 P6 O24'
_cell_volume   459.17933595
_cell_formula_units_Z   1
loop_
 _symmetry_equiv_pos_site_id
 _symmetry_equiv_pos_as_xyz
  1  'x, y, z'
loop_
 _atom_site_type_symbol
 _atom_site_label
 _atom_site_symmetry_multiplicity
 _atom_site_fract_x
 _atom_site_fract_y
 _atom_site_fract_z
 _atom_site_occupancy
  Mn  Mn0  1  0.147807  0.147807  0.147807  1
  Mn  Mn1  1  0.351935  0.351935  0.351935  1
  Mn  Mn2  1  0.645236  0.645236  0.645236  1
  Cr  Cr3  1  0.004383  0.004383  0.004383  1
  Cr  Cr4  1  0.499672  0.499672  0.499672  1
  Sb  Sb5  1  0.855184  0.855184  0.855184  1
  P  P6  1  0.747183  0.449577  0.052417  1
  P  P7  1  0.253943  0.544639  0.945270  1
  P  P8  1  0.544639  0.945270  0.253943  1
  P  P9  1  0.945270  0.253943  0.544639  1
  P  P10  1  0.052417  0.747183  0.449577  1
  P  P11  1  0.449577  0.052417  0.747183  1
  O  O12  1  0.093271  0.316356  0.520520  1
  O  O13  1  0.316356  0.520520  0.093271  1
  O  O14  1  0.064237  0.907580  0.253568  1
  O  O15  1  0.520520  0.093271  0.316356  1
  O  O16  1  0.007824  0.821265  0.608473  1
  O  O17  1  0.250934  0.599584  0.441969  1
  O  O18  1  0.253568  0.064237  0.907580  1
  O  O19  1  0.441969  0.250934  0.599584  1
  O  O20  1  0.178833  0.398011  0.985650  1
  O  O21  1  0.599584  0.441969  0.250934  1
  O  O22  1  0.087700  0.752058  0.931587  1
  O  O23  1  0.398011  0.985650  0.178833  1
  O  O24  1  0.608473  0.007824  0.821265  1
  O  O25  1  0.907580  0.253568  0.064237  1
  O  O26  1  0.400560  0.567431  0.743031  1
  O  O27  1  0.821265  0.608473  0.007824  1
  O  O28  1  0.567431  0.743031  0.400560  1
  O  O29  1  0.752058  0.931587  0.087700  1
  O  O30  1  0.743031  0.400560  0.567431  1
  O  O31  1  0.985650  0.178833  0.398011  1
  O  O32  1  0.492358  0.899749  0.680209  1
  O  O33  1  0.931587  0.087700  0.752058  1
  O  O34  1  0.680209  0.492358  0.899749  1
  O  O35  1  0.899749  0.680209  0.492358  1
