# generated using pymatgen
data_TiP2H4O9
_symmetry_space_group_name_H-M   'P 1'
_cell_length_a   8.75582435
_cell_length_b   5.05859151
_cell_length_c   15.78521456
_cell_angle_alpha   90.00000000
_cell_angle_beta   101.61775305
_cell_angle_gamma   90.00000000
_symmetry_Int_Tables_number   1
_chemical_formula_structural   TiP2H4O9
_chemical_formula_sum   'Ti4 P8 H16 O36'
_cell_volume   684.83713245
_cell_formula_units_Z   4
loop_
 _symmetry_equiv_pos_site_id
 _symmetry_equiv_pos_as_xyz
  1  'x, y, z'
loop_
 _atom_site_type_symbol
 _atom_site_label
 _atom_site_symmetry_multiplicity
 _atom_site_fract_x
 _atom_site_fract_y
 _atom_site_fract_z
 _atom_site_occupancy
  Ti  Ti0  1  0.252673  0.752138  0.011308  1
  Ti  Ti1  1  0.752673  0.747862  0.511308  1
  Ti  Ti2  1  0.747327  0.247862  0.988692  1
  Ti  Ti3  1  0.247327  0.252138  0.488692  1
  P  P4  1  0.111997  0.252460  0.107502  1
  P  P5  1  0.611997  0.247539  0.607502  1
  P  P6  1  0.888003  0.747540  0.892498  1
  P  P7  1  0.388003  0.752460  0.392498  1
  P  P8  1  0.630639  0.744329  0.098598  1
  P  P9  1  0.130639  0.755671  0.598598  1
  P  P10  1  0.369361  0.255671  0.901402  1
  P  P11  1  0.869361  0.244329  0.401402  1
  H  H12  1  0.077836  0.424418  0.229753  1
  H  H13  1  0.577836  0.075582  0.729753  1
  H  H14  1  0.922164  0.575582  0.770247  1
  H  H15  1  0.422164  0.924418  0.270247  1
  H  H16  1  0.801672  0.734403  0.222637  1
  H  H17  1  0.301672  0.765597  0.722637  1
  H  H18  1  0.198328  0.265597  0.777363  1
  H  H19  1  0.698328  0.234403  0.277363  1
  H  H20  1  0.446883  0.381270  0.250223  1
  H  H21  1  0.946883  0.118730  0.750223  1
  H  H22  1  0.553117  0.618730  0.749777  1
  H  H23  1  0.053117  0.881270  0.249777  1
  H  H24  1  0.475901  0.195493  0.175241  1
  H  H25  1  0.975901  0.304507  0.675241  1
  H  H26  1  0.524099  0.804507  0.824759  1
  H  H27  1  0.024099  0.695493  0.324759  1
  O  O28  1  0.946996  0.331638  0.060978  1
  O  O29  1  0.446996  0.168362  0.560978  1
  O  O30  1  0.053004  0.668362  0.939022  1
  O  O31  1  0.553004  0.831638  0.439022  1
  O  O32  1  0.153065  0.966732  0.088991  1
  O  O33  1  0.653065  0.533268  0.588991  1
  O  O34  1  0.846935  0.033268  0.911009  1
  O  O35  1  0.346935  0.466732  0.411009  1
  O  O36  1  0.234362  0.447527  0.086538  1
  O  O37  1  0.734362  0.052473  0.586538  1
  O  O38  1  0.765638  0.552473  0.913462  1
  O  O39  1  0.265638  0.947527  0.413462  1
  O  O40  1  0.117400  0.254621  0.208563  1
  O  O41  1  0.617400  0.245379  0.708563  1
  O  O42  1  0.882600  0.745379  0.791437  1
  O  O43  1  0.382600  0.754621  0.291437  1
  O  O44  1  0.731991  0.937540  0.058667  1
  O  O45  1  0.231991  0.562460  0.558667  1
  O  O46  1  0.268009  0.062460  0.941333  1
  O  O47  1  0.768009  0.437540  0.441333  1
  O  O48  1  0.643647  0.462646  0.063639  1
  O  O49  1  0.143647  0.037354  0.563639  1
  O  O50  1  0.356353  0.537354  0.936361  1
  O  O51  1  0.856353  0.962646  0.436361  1
  O  O52  1  0.459646  0.835423  0.084309  1
  O  O53  1  0.959646  0.664577  0.584309  1
  O  O54  1  0.540354  0.164577  0.915691  1
  O  O55  1  0.040354  0.335423  0.415691  1
  O  O56  1  0.686295  0.746294  0.199831  1
  O  O57  1  0.186295  0.753706  0.699831  1
  O  O58  1  0.313705  0.253706  0.800169  1
  O  O59  1  0.813705  0.246294  0.300169  1
  O  O60  1  0.497139  0.215054  0.238481  1
  O  O61  1  0.997139  0.284946  0.738481  1
  O  O62  1  0.502861  0.784946  0.761519  1
  O  O63  1  0.002861  0.715054  0.261519  1
