# generated using pymatgen
data_Zr2N2O
_symmetry_space_group_name_H-M   'P 1'
_cell_length_a   8.88725489
_cell_length_b   8.88092440
_cell_length_c   8.88243861
_cell_angle_alpha   109.38652214
_cell_angle_beta   109.52119980
_cell_angle_gamma   109.67385773
_symmetry_Int_Tables_number   1
_chemical_formula_structural   Zr2N2O
_chemical_formula_sum   'Zr16 N16 O8'
_cell_volume   538.55592370
_cell_formula_units_Z   8
loop_
 _symmetry_equiv_pos_site_id
 _symmetry_equiv_pos_as_xyz
  1  'x, y, z'
loop_
 _atom_site_type_symbol
 _atom_site_label
 _atom_site_symmetry_multiplicity
 _atom_site_fract_x
 _atom_site_fract_y
 _atom_site_fract_z
 _atom_site_occupancy
  Zr  Zr0  1  0.965518  0.258739  0.217917  1
  Zr  Zr1  1  0.996918  0.500212  0.997970  1
  Zr  Zr2  1  0.718145  0.470135  0.250899  1
  Zr  Zr3  1  0.778588  0.029970  0.749768  1
  Zr  Zr4  1  0.737254  0.782140  0.033861  1
  Zr  Zr5  1  0.759365  0.295148  0.547009  1
  Zr  Zr6  1  0.498234  0.991155  0.986441  1
  Zr  Zr7  1  0.536015  0.749707  0.283700  1
  Zr  Zr8  1  0.464825  0.250577  0.722488  1
  Zr  Zr9  1  0.503761  0.511715  0.512782  1
  Zr  Zr10  1  0.250231  0.213845  0.955043  1
  Zr  Zr11  1  0.249640  0.711709  0.460902  1
  Zr  Zr12  1  0.218418  0.960075  0.256770  1
  Zr  Zr13  1  0.285534  0.535474  0.748616  1
  Zr  Zr14  1  0.007465  0.995547  0.508111  1
  Zr  Zr15  1  0.034283  0.744241  0.775828  1
  N  N16  1  0.960943  0.503284  0.232862  1
  N  N17  1  0.769711  0.727144  0.262946  1
  N  N18  1  0.731642  0.995157  0.959268  1
  N  N19  1  0.769895  0.539689  0.530102  1
  N  N20  1  0.727148  0.258177  0.768871  1
  N  N21  1  0.489200  0.765379  0.034731  1
  N  N22  1  0.227413  0.448409  0.461907  1
  N  N23  1  0.270966  0.740079  0.223770  1
  N  N24  1  0.509139  0.239759  0.971151  1
  N  N25  1  0.224322  0.272274  0.739550  1
  N  N26  1  0.536581  0.771672  0.541954  1
  N  N27  1  0.552376  0.536053  0.773750  1
  N  N28  1  0.260232  0.776432  0.726416  1
  N  N29  1  0.237093  0.968331  0.508983  1
  N  N30  1  0.032723  0.489097  0.763336  1
  N  N31  1  0.989447  0.958259  0.730932  1
  O  O32  1  0.761314  0.035644  0.482866  1
  O  O33  1  0.741700  0.222693  0.276808  1
  O  O34  1  0.272794  0.010229  0.048863  1
  O  O35  1  0.959566  0.731803  0.994394  1
  O  O36  1  0.462103  0.224054  0.447712  1
  O  O37  1  0.446824  0.464537  0.224577  1
  O  O38  1  0.052615  0.280636  0.016950  1
  O  O39  1  0.010061  0.040819  0.269199  1
