# generated using pymatgen
data_LiMn3Al2(HO2)6
_symmetry_space_group_name_H-M   'P 1'
_cell_length_a   5.88321524
_cell_length_b   10.14475064
_cell_length_c   7.95033354
_cell_angle_alpha   103.60762790
_cell_angle_beta   79.08360162
_cell_angle_gamma   107.01425372
_symmetry_Int_Tables_number   1
_chemical_formula_structural   LiMn3Al2(HO2)6
_chemical_formula_sum   'Li2 Mn6 Al4 H12 O24'
_cell_volume   437.27650002
_cell_formula_units_Z   2
loop_
 _symmetry_equiv_pos_site_id
 _symmetry_equiv_pos_as_xyz
  1  'x, y, z'
loop_
 _atom_site_type_symbol
 _atom_site_label
 _atom_site_symmetry_multiplicity
 _atom_site_fract_x
 _atom_site_fract_y
 _atom_site_fract_z
 _atom_site_occupancy
  Li  Li0  1  0.842190  0.500171  0.654503  1
  Li  Li1  1  0.157792  0.499796  0.345503  1
  Mn  Mn2  1  0.335644  0.006321  0.664574  1
  Mn  Mn3  1  0.835412  0.006487  0.664772  1
  Mn  Mn4  1  0.164586  0.993508  0.335228  1
  Mn  Mn5  1  0.664353  0.993668  0.335427  1
  Mn  Mn6  1  0.999989  0.999984  -0.000007  1
  Mn  Mn7  1  0.499993  0.999983  -0.000003  1
  Al  Al8  1  0.330526  0.498827  0.659941  1
  Al  Al9  1  0.999991  0.499984  0.000002  1
  Al  Al10  1  0.669457  0.501140  0.340063  1
  Al  Al11  1  0.499991  0.499983  0.000001  1
  H  H12  1  0.184050  0.288072  0.836355  1
  H  H13  1  0.157768  0.704314  0.830266  1
  H  H14  1  0.687257  0.295772  0.849123  1
  H  H15  1  0.038063  0.290874  0.517235  1
  H  H16  1  0.628802  0.699148  0.825716  1
  H  H17  1  0.508073  0.291498  0.500436  1
  H  H18  1  0.491923  0.708472  0.499568  1
  H  H19  1  0.371186  0.300818  0.174272  1
  H  H20  1  0.312740  0.704200  0.150865  1
  H  H21  1  0.961927  0.709089  0.482775  1
  H  H22  1  0.842209  0.295650  0.169735  1
  H  H23  1  0.815916  0.711900  0.163643  1
  O  O24  1  0.231277  0.393302  0.869179  1
  O  O25  1  0.110296  0.114360  0.780586  1
  O  O26  1  0.115183  0.601488  0.811506  1
  O  O27  1  0.234059  0.903393  0.854014  1
  O  O28  1  0.608903  0.112813  0.781549  1
  O  O29  1  0.077966  0.392860  0.546233  1
  O  O30  1  0.728837  0.399255  0.883827  1
  O  O31  1  0.579689  0.596507  0.808487  1
  O  O32  1  0.735178  0.904265  0.856181  1
  O  O33  1  0.065195  0.900166  0.535400  1
  O  O34  1  0.435450  0.101332  0.464245  1
  O  O35  1  0.549859  0.394447  0.520460  1
  O  O36  1  0.450124  0.605523  0.479542  1
  O  O37  1  0.564552  0.898653  0.535750  1
  O  O38  1  0.934803  0.099822  0.464592  1
  O  O39  1  0.420297  0.403464  0.191515  1
  O  O40  1  0.264808  0.095721  0.143811  1
  O  O41  1  0.391106  0.887182  0.218437  1
  O  O42  1  0.922011  0.607104  0.453788  1
  O  O43  1  0.271149  0.600716  0.116176  1
  O  O44  1  0.765919  0.096589  0.145988  1
  O  O45  1  0.884797  0.398480  0.188497  1
  O  O46  1  0.768701  0.606669  0.130831  1
  O  O47  1  0.889702  0.885629  0.219410  1
