# generated using pymatgen
data_Bi5O7F
_symmetry_space_group_name_H-M   'P 1'
_cell_length_a   5.27617118
_cell_length_b   14.66020823
_cell_length_c   14.66020823
_cell_angle_alpha   113.79125706
_cell_angle_beta   79.63322756
_cell_angle_gamma   100.36677244
_symmetry_Int_Tables_number   1
_chemical_formula_structural   Bi5O7F
_chemical_formula_sum   'Bi20 O28 F4'
_cell_volume   1013.37698041
_cell_formula_units_Z   4
loop_
 _symmetry_equiv_pos_site_id
 _symmetry_equiv_pos_as_xyz
  1  'x, y, z'
loop_
 _atom_site_type_symbol
 _atom_site_label
 _atom_site_symmetry_multiplicity
 _atom_site_fract_x
 _atom_site_fract_y
 _atom_site_fract_z
 _atom_site_occupancy
  Bi  Bi0  1  0.318416  0.227508  0.112634  1
  Bi  Bi1  1  0.703543  0.112634  0.227508  1
  Bi  Bi2  1  0.818416  0.387366  0.272492  1
  Bi  Bi3  1  0.203543  0.272492  0.387366  1
  Bi  Bi4  1  0.404561  0.515748  0.142919  1
  Bi  Bi5  1  0.095439  0.642919  0.015748  1
  Bi  Bi6  1  0.968268  0.015748  0.642919  1
  Bi  Bi7  1  0.531732  0.142919  0.515748  1
  Bi  Bi8  1  0.698581  0.448581  0.551419  1
  Bi  Bi9  1  0.801419  0.051419  0.948581  1
  Bi  Bi10  1  0.198581  0.948581  0.051419  1
  Bi  Bi11  1  0.301419  0.551419  0.448581  1
  Bi  Bi12  1  0.468268  0.857081  0.484252  1
  Bi  Bi13  1  0.031732  0.984252  0.357081  1
  Bi  Bi14  1  0.595439  0.484252  0.857081  1
  Bi  Bi15  1  0.904561  0.357081  0.984252  1
  Bi  Bi16  1  0.796457  0.727508  0.612634  1
  Bi  Bi17  1  0.181584  0.612634  0.727508  1
  Bi  Bi18  1  0.296457  0.887366  0.772492  1
  Bi  Bi19  1  0.681584  0.772492  0.887366  1
  O  O20  1  0.496852  0.083991  0.082458  1
  O  O21  1  0.995319  0.082458  0.083991  1
  O  O22  1  0.098544  0.081860  0.280375  1
  O  O23  1  0.797058  0.280375  0.081860  1
  O  O24  1  0.520291  0.398884  0.002753  1
  O  O25  1  0.624162  0.002753  0.398884  1
  O  O26  1  0.989023  0.250000  0.250000  1
  O  O27  1  0.489023  0.250000  0.250000  1
  O  O28  1  0.020291  0.497247  0.101116  1
  O  O29  1  0.124162  0.101116  0.497247  1
  O  O30  1  0.598544  0.219625  0.418140  1
  O  O31  1  0.297058  0.418140  0.219625  1
  O  O32  1  0.996852  0.417542  0.416009  1
  O  O33  1  0.495319  0.416009  0.417542  1
  O  O34  1  0.504681  0.583991  0.582458  1
  O  O35  1  0.003148  0.582458  0.583991  1
  O  O36  1  0.401456  0.780375  0.581860  1
  O  O37  1  0.702942  0.581860  0.780375  1
  O  O38  1  0.875838  0.898884  0.502753  1
  O  O39  1  0.979709  0.502753  0.898884  1
  O  O40  1  0.510977  0.750000  0.750000  1
  O  O41  1  0.010977  0.750000  0.750000  1
  O  O42  1  0.375838  0.997247  0.601116  1
  O  O43  1  0.479709  0.601116  0.997247  1
  O  O44  1  0.202942  0.719625  0.918140  1
  O  O45  1  0.901456  0.918140  0.719625  1
  O  O46  1  0.503148  0.916009  0.917542  1
  O  O47  1  0.004681  0.917542  0.916009  1
  F  F48  1  0.153059  0.403059  0.596941  1
  F  F49  1  0.846941  0.596941  0.403059  1
  F  F50  1  0.653059  0.903059  0.096941  1
  F  F51  1  0.346941  0.096941  0.903059  1
