# generated using pymatgen
data_Li12CrCo3P4(CO7)4
_symmetry_space_group_name_H-M   'P 1'
_cell_length_a   8.49209308
_cell_length_b   10.00281815
_cell_length_c   6.45621808
_cell_angle_alpha   90.00000000
_cell_angle_beta   90.00000000
_cell_angle_gamma   85.33568644
_symmetry_Int_Tables_number   1
_chemical_formula_structural   Li12CrCo3P4(CO7)4
_chemical_formula_sum   'Li12 Cr1 Co3 P4 C4 O28'
_cell_volume   546.60630925
_cell_formula_units_Z   1
loop_
 _symmetry_equiv_pos_site_id
 _symmetry_equiv_pos_as_xyz
  1  'x, y, z'
loop_
 _atom_site_type_symbol
 _atom_site_label
 _atom_site_symmetry_multiplicity
 _atom_site_fract_x
 _atom_site_fract_y
 _atom_site_fract_z
 _atom_site_occupancy
  Li  Li0  1  0.099297  0.380849  0.250000  1
  Li  Li1  1  0.096385  0.883200  0.250000  1
  Li  Li2  1  0.275391  0.124949  0.021598  1
  Li  Li3  1  0.275391  0.124949  0.478402  1
  Li  Li4  1  0.274759  0.624842  0.022129  1
  Li  Li5  1  0.274759  0.624842  0.477871  1
  Li  Li6  1  0.724437  0.373338  0.521501  1
  Li  Li7  1  0.724437  0.373338  0.978499  1
  Li  Li8  1  0.724425  0.876534  0.522728  1
  Li  Li9  1  0.724425  0.876534  0.977272  1
  Li  Li10  1  0.903584  0.117729  0.750000  1
  Li  Li11  1  0.904631  0.617844  0.750000  1
  Cr  Cr12  1  0.665521  0.607840  0.250000  1
  Co  Co13  1  0.332122  0.394382  0.750000  1
  Co  Co14  1  0.331118  0.895130  0.750000  1
  Co  Co15  1  0.667385  0.104541  0.250000  1
  P  P16  1  0.413251  0.359307  0.250000  1
  P  P17  1  0.410145  0.860950  0.250000  1
  P  P18  1  0.586623  0.139733  0.750000  1
  P  P19  1  0.586061  0.640653  0.750000  1
  C  C20  1  0.036718  0.351153  0.750000  1
  C  C21  1  0.036701  0.850831  0.750000  1
  C  C22  1  0.962198  0.149031  0.250000  1
  C  C23  1  0.968638  0.647522  0.250000  1
  O  O24  1  0.073242  0.474275  0.750000  1
  O  O25  1  0.108109  0.179576  0.250000  1
  O  O26  1  0.072188  0.973998  0.750000  1
  O  O27  1  0.151772  0.256106  0.750000  1
  O  O28  1  0.112320  0.682343  0.250000  1
  O  O29  1  0.152152  0.756163  0.750000  1
  O  O30  1  0.309901  0.411791  0.062704  1
  O  O31  1  0.309901  0.411791  0.437296  1
  O  O32  1  0.308847  0.915201  0.062070  1
  O  O33  1  0.308847  0.915201  0.437930  1
  O  O34  1  0.420276  0.088032  0.750000  1
  O  O35  1  0.432562  0.202890  0.250000  1
  O  O36  1  0.420340  0.587787  0.750000  1
  O  O37  1  0.421202  0.705386  0.250000  1
  O  O38  1  0.568124  0.296479  0.750000  1
  O  O39  1  0.579962  0.410769  0.250000  1
  O  O40  1  0.567132  0.796990  0.750000  1
  O  O41  1  0.579179  0.909843  0.250000  1
  O  O42  1  0.690675  0.087650  0.937116  1
  O  O43  1  0.690675  0.087650  0.562884  1
  O  O44  1  0.690326  0.587486  0.563834  1
  O  O45  1  0.690326  0.587486  0.936166  1
  O  O46  1  0.846773  0.244112  0.250000  1
  O  O47  1  0.890785  0.320467  0.750000  1
  O  O48  1  0.851514  0.741469  0.250000  1
  O  O49  1  0.925612  0.026083  0.250000  1
  O  O50  1  0.890683  0.819643  0.750000  1
  O  O51  1  0.938171  0.523311  0.250000  1
