# generated using pymatgen
data_Fe10O11F9
_symmetry_space_group_name_H-M   'P 1'
_cell_length_a   4.78080113
_cell_length_b   4.78080113
_cell_length_c   15.25679634
_cell_angle_alpha   90.00000000
_cell_angle_beta   90.00000000
_cell_angle_gamma   96.12397226
_symmetry_Int_Tables_number   1
_chemical_formula_structural   Fe10O11F9
_chemical_formula_sum   'Fe10 O11 F9'
_cell_volume   346.72029250
_cell_formula_units_Z   1
loop_
 _symmetry_equiv_pos_site_id
 _symmetry_equiv_pos_as_xyz
  1  'x, y, z'
loop_
 _atom_site_type_symbol
 _atom_site_label
 _atom_site_symmetry_multiplicity
 _atom_site_fract_x
 _atom_site_fract_y
 _atom_site_fract_z
 _atom_site_occupancy
  Fe  Fe0  1  0.010255  0.989745  0.005536  1
  Fe  Fe1  1  0.010255  0.989745  0.194464  1
  Fe  Fe2  1  -0.000228  0.000228  0.397105  1
  Fe  Fe3  1  0.000132  -0.000132  0.600000  1
  Fe  Fe4  1  -0.000228  0.000228  0.802895  1
  Fe  Fe5  1  0.467456  0.532544  0.100000  1
  Fe  Fe6  1  0.500063  0.499937  0.499428  1
  Fe  Fe7  1  0.503481  0.496519  0.298552  1
  Fe  Fe8  1  0.500063  0.499937  0.700572  1
  Fe  Fe9  1  0.503481  0.496519  0.901448  1
  O  O10  1  0.187898  0.812102  0.100000  1
  O  O11  1  0.300828  0.306598  -0.001468  1
  O  O12  1  0.300828  0.306598  0.201468  1
  O  O13  1  0.303443  0.299807  0.399250  1
  O  O14  1  0.300529  0.300779  0.600000  1
  O  O15  1  0.303443  0.299807  0.800750  1
  O  O16  1  0.693402  0.699172  -0.001468  1
  O  O17  1  0.693402  0.699172  0.201468  1
  O  O18  1  0.700193  0.696557  0.399250  1
  O  O19  1  0.699221  0.699471  0.600000  1
  O  O20  1  0.700193  0.696557  0.800750  1
  F  F21  1  0.193712  0.806288  0.300280  1
  F  F22  1  0.192200  0.807800  0.499623  1
  F  F23  1  0.192200  0.807800  0.700377  1
  F  F24  1  0.193712  0.806288  0.899720  1
  F  F25  1  0.808624  0.191376  0.100000  1
  F  F26  1  0.808528  0.191472  0.499294  1
  F  F27  1  0.812193  0.187807  0.298222  1
  F  F28  1  0.812193  0.187807  0.901778  1
  F  F29  1  0.808528  0.191472  0.700706  1
