# generated using pymatgen
data_Rb2FeH2Cl5O
_symmetry_space_group_name_H-M   'P 1'
_cell_length_a   14.05443862
_cell_length_b   10.01856911
_cell_length_c   7.20839438
_cell_angle_alpha   90.00000000
_cell_angle_beta   90.00000000
_cell_angle_gamma   90.00000000
_symmetry_Int_Tables_number   1
_chemical_formula_structural   Rb2FeH2Cl5O
_chemical_formula_sum   'Rb8 Fe4 H8 Cl20 O4'
_cell_volume   1014.98059898
_cell_formula_units_Z   4
loop_
 _symmetry_equiv_pos_site_id
 _symmetry_equiv_pos_as_xyz
  1  'x, y, z'
loop_
 _atom_site_type_symbol
 _atom_site_label
 _atom_site_symmetry_multiplicity
 _atom_site_fract_x
 _atom_site_fract_y
 _atom_site_fract_z
 _atom_site_occupancy
  Rb  Rb0  1  0.856578  0.500096  0.344513  1
  Rb  Rb1  1  0.356578  0.999904  0.155487  1
  Rb  Rb2  1  0.143422  0.000096  0.655487  1
  Rb  Rb3  1  0.643422  0.499904  0.844513  1
  Rb  Rb4  1  0.143422  0.499904  0.655487  1
  Rb  Rb5  1  0.643422  0.000096  0.844513  1
  Rb  Rb6  1  0.856578  0.999904  0.344513  1
  Rb  Rb7  1  0.356578  0.500096  0.155487  1
  Fe  Fe8  1  0.614591  0.250000  0.309336  1
  Fe  Fe9  1  0.114591  0.250000  0.190664  1
  Fe  Fe10  1  0.385409  0.750000  0.690664  1
  Fe  Fe11  1  0.885409  0.750000  0.809336  1
  H  H12  1  0.464611  0.330297  0.547131  1
  H  H13  1  0.964611  0.169703  0.952869  1
  H  H14  1  0.535389  0.830297  0.452869  1
  H  H15  1  0.035389  0.669703  0.047131  1
  H  H16  1  0.535389  0.669703  0.452869  1
  H  H17  1  0.035389  0.830297  0.047131  1
  H  H18  1  0.464611  0.169703  0.547131  1
  H  H19  1  0.964611  0.330297  0.952869  1
  Cl  Cl20  1  0.745577  0.250000  0.101744  1
  Cl  Cl21  1  0.245577  0.250000  0.398256  1
  Cl  Cl22  1  0.254423  0.750000  0.898256  1
  Cl  Cl23  1  0.754423  0.750000  0.601744  1
  Cl  Cl24  1  0.720691  0.250000  0.569133  1
  Cl  Cl25  1  0.220691  0.250000  0.930867  1
  Cl  Cl26  1  0.279309  0.750000  0.430867  1
  Cl  Cl27  1  0.779309  0.750000  0.069133  1
  Cl  Cl28  1  0.506528  0.250000  0.046858  1
  Cl  Cl29  1  0.006528  0.250000  0.453142  1
  Cl  Cl30  1  0.493472  0.750000  0.953142  1
  Cl  Cl31  1  0.993472  0.750000  0.546858  1
  Cl  Cl32  1  0.603697  0.491047  0.323610  1
  Cl  Cl33  1  0.103697  0.008953  0.176390  1
  Cl  Cl34  1  0.396303  0.991047  0.676390  1
  Cl  Cl35  1  0.896303  0.508953  0.823610  1
  Cl  Cl36  1  0.396303  0.508953  0.676390  1
  Cl  Cl37  1  0.896303  0.991047  0.823610  1
  Cl  Cl38  1  0.603697  0.008953  0.323610  1
  Cl  Cl39  1  0.103697  0.491047  0.176390  1
  O  O40  1  0.495029  0.250000  0.493702  1
  O  O41  1  0.995029  0.250000  0.006298  1
  O  O42  1  0.504971  0.750000  0.506298  1
  O  O43  1  0.004971  0.750000  0.993702  1
