# generated using pymatgen
data_Li2TiFeO4
_symmetry_space_group_name_H-M   'P 1'
_cell_length_a   4.14389743
_cell_length_b   4.13639685
_cell_length_c   8.96727156
_cell_angle_alpha   90.05096719
_cell_angle_beta   90.01855245
_cell_angle_gamma   89.90492893
_symmetry_Int_Tables_number   1
_chemical_formula_structural   Li2TiFeO4
_chemical_formula_sum   'Li4 Ti2 Fe2 O8'
_cell_volume   153.70596604
_cell_formula_units_Z   2
loop_
 _symmetry_equiv_pos_site_id
 _symmetry_equiv_pos_as_xyz
  1  'x, y, z'
loop_
 _atom_site_type_symbol
 _atom_site_label
 _atom_site_symmetry_multiplicity
 _atom_site_fract_x
 _atom_site_fract_y
 _atom_site_fract_z
 _atom_site_occupancy
  Li  Li0  1  0.500500  0.000082  0.248499  1
  Li  Li1  1  0.499726  0.001244  0.747320  1
  Li  Li2  1  0.999345  0.009628  0.012232  1
  Li  Li3  1  0.505450  0.498668  0.513750  1
  Ti  Ti4  1  0.501703  0.540359  0.995214  1
  Ti  Ti5  1  0.041297  0.000917  0.495213  1
  Fe  Fe6  1  0.000583  0.495761  0.252650  1
  Fe  Fe7  1  0.996919  0.500732  0.751660  1
  O  O8  1  0.499394  0.983954  0.997935  1
  O  O9  1  0.483706  0.998902  0.498199  1
  O  O10  1  0.495688  0.491747  0.213302  1
  O  O11  1  0.989925  0.995762  0.281011  1
  O  O12  1  0.496833  0.489301  0.780842  1
  O  O13  1  0.991326  0.994016  0.713136  1
  O  O14  1  0.999051  0.500768  0.999310  1
  O  O15  1  0.998552  0.498159  0.499724  1
